data_PCOD8229350
_publ_section_title
;
Structure prediction by ZEFSAII (Michael W. Deem and Ramdas Pophale) SiO2 
 PCOD8229350
Probable space group: P C C N
;
_chemical_formula_sum "Si O2"
_cell_formula_units_Z 60
_cell_length_a 6.264470
_cell_length_b 25.151573
_cell_length_c 18.612663
_cell_angle_alpha 90.000000
_cell_angle_beta 90.000000
_cell_angle_gamma 90.000000
_cell_volume 2932.634904
_symmetry_space_group_name_H-M "P C C N"
_symmetry_group_IT_number 56
_symmetry_cell_setting 'orthorhombic'
loop_
_space_group_symop_operation_xyz
x,y,z
1/2-x,1/2-y,z
1/2+x,-y,1/2-z
-x,1/2+y,1/2-z
-x,-y,-z
1/2+x,1/2+y,-z
1/2-x,y,1/2+z
x,1/2-y,1/2+z
loop_
_atom_site_type_symbol
_atom_site_label
_atom_site_fract_x
_atom_site_fract_y
_atom_site_fract_z
Si Si1 0.761705 0.092491 0.896485
Si Si2 0.674165 0.520326 0.441453
Si Si3 0.908733 0.826723 0.623080
Si Si4 0.983977 0.654816 0.717369
Si Si5 0.750000 0.250000 0.824046
Si Si6 0.032969 0.897856 0.954094
Si Si7 0.791800 0.689395 0.963902
Si Si8 0.939577 0.384297 0.125274
O O1 0.531705 0.117267 0.877550
O O2 0.938535 0.111687 0.840464
O O3 0.744892 0.029033 0.892668
O O4 0.822934 0.111822 0.975945
O O5 0.500000 0.500000 0.500000
O O6 0.573087 0.563453 0.390415
O O7 0.889386 0.549472 0.471400
O O8 0.750743 0.826371 0.691720
O O9 0.782531 0.818231 0.549479
O O10 0.072749 0.777517 0.626043
O O11 0.139952 0.705378 0.724633
O O12 0.989139 0.628751 0.794619
O O13 0.193023 0.901808 0.885778
O O14 0.898883 0.846140 0.933377
O O15 0.750000 0.750000 0.940998
O O16 0.006673 0.665912 0.927281
#
# Coordination Sequence:
#
# PCOD8229350 Si02
#       8
#     8   8   8   8   4   8   8   8
#     4  11  22  40  67  97 123 180 223 269 334 406
#     4  11  23  41  69  99 130 177 225 280 337 398
#     4  11  22  41  67  98 134 172 232 272 334 403
#     4  11  25  43  64  96 137 176 220 284 337 411
#     4  10  24  40  68  94 134 182 226 264 344 408
#     4  11  22  42  67  95 132 171 229 271 332 408
#     4  11  23  37  66  98 131 173 222 281 330 399
#     4  11  26  44  62 100 134 174 224 280 344 398
#
# _framework density 20.459416999999998
#
# number of rings (size 3 to 8) (size 9 to 14) (size 15 to 20)
#    0.000    1.067    4.000    2.400    1.867    6.933 
#    4.800    0.000    0.000    0.000    0.000    0.000 
#    0.000    0.000    0.000    0.000    0.000    0.000 
#
# Total GULP energy -743854.210786 kJ/mol
# GULP energy per Si atom -12397.570180 kJ/mol
# Density = 2.041285 g / cm^3
# Si number density = 20.459417 Si / 1000 Ang^3
#
#
#
# Elastic Constant Matrix: (Units=GPa)
#
#
# Indices 1 2 3 4 5 6 
#
# 1 113.9938 44.6917 43.3652 0.0000 0.0000 0.0000
# 2 44.6917 159.6547 37.8418 0.0000 0.0000 0.0000
# 3 43.3652 37.8418 103.0728 0.0000 0.0000 0.0000
# 4 0.0000 0.0000 0.0000 27.8373 0.0000 0.0000
# 5 0.0000 0.0000 0.0000 0.0000 26.0040 0.0000
# 6 0.0000 0.0000 0.0000 0.0000 0.0000 33.1449
#
#
#
# Elastic Compliance Matrix: (Units=1/GPa)
#
#
# Indices 1 2 3 4 5 6 
#
# 1 0.011102 -0.002191 -0.003867 0.000000 0.000000 0.000000
# 2 -0.002191 0.007293 -0.001756 0.000000 0.000000 0.000000
# 3 -0.003867 -0.001756 0.011973 0.000000 0.000000 0.000000
# 4 0.000000 0.000000 0.000000 0.035923 0.000000 0.000000
# 5 0.000000 0.000000 0.000000 0.000000 0.038456 0.000000
# 6 0.000000 0.000000 0.000000 0.000000 0.000000 0.030171
#
#
# Mechanical properties :
#
#
# Convention : Reuss Voigt Hill
#
# Bulk Modulus (GPa) = 67.83501 69.83542 68.83521
# Shear Modulus (GPa) = 32.16289 34.11876 33.14083
#
# Velocity S-wave (km/s) = 3.96919 4.08809 4.02908
# Velocity P-wave (km/s) = 7.36436 7.51606 7.44059
#
# Compressibility (1/GPa) = 0.01474165
#
# Stress axis : x y z
#
# Youngs Moduli (GPa) = 90.07022 137.11654 83.52023
#
# Poissons Ratio (x) = 0.30048 0.32293
# Poissons Ratio (y) = 0.19738 0.14663
# Poissons Ratio (z) = 0.34826 0.24072
#
# Static dielectric constant tensor:
#      x y z
#    x 4.058200 0.000000 0.000000 
#    y 0.000000 3.974880 0.000000 
#    z 0.000000 0.000000 3.382960 
# 
# 
# High freq. dielectric constant tensor:
#      x y z
#    x 1.815510 0.000000 0.000000 
#    y 0.000000 1.812000 0.000000 
#    z 0.000000 0.000000 1.770620 
# 
# From -- ./inp_files/14108.got.cif
#   From: 2010.03.12/outbox.cif.g09.slc.cpg/sg56_8_cif.got.tgz:14108.got - 2010.04.16 15:33:40.
