data_PCOD8229529
_publ_section_title
;
Structure prediction by ZEFSAII (Michael W. Deem and Ramdas Pophale) SiO2 
 PCOD8229529
Probable space group: P C C N
;
_chemical_formula_sum "Si O2"
_cell_formula_units_Z 48
_cell_length_a 14.200504
_cell_length_b 9.400821
_cell_length_c 17.462074
_cell_angle_alpha 90.000000
_cell_angle_beta 90.000000
_cell_angle_gamma 90.000000
_cell_volume 2331.123949
_symmetry_space_group_name_H-M "P C C N"
_symmetry_group_IT_number 56
_symmetry_cell_setting 'orthorhombic'
loop_
_space_group_symop_operation_xyz
x,y,z
1/2-x,1/2-y,z
1/2+x,-y,1/2-z
-x,1/2+y,1/2-z
-x,-y,-z
1/2+x,1/2+y,-z
1/2-x,y,1/2+z
x,1/2-y,1/2+z
loop_
_atom_site_type_symbol
_atom_site_label
_atom_site_fract_x
_atom_site_fract_y
_atom_site_fract_z
Si Si1 0.636557 0.229830 0.406003
Si Si2 0.653741 0.291546 0.669403
Si Si3 0.895258 0.494647 0.289887
Si Si4 0.648839 0.782588 0.857676
Si Si5 0.910272 0.447275 0.777174
Si Si6 0.020126 0.649378 0.960956
O O1 0.750000 0.250000 0.415501
O O2 0.586806 0.340970 0.348912
O O3 0.579544 0.244614 0.485341
O O4 0.611176 0.072596 0.375085
O O5 0.750000 0.250000 0.626077
O O6 0.678433 0.401679 0.738843
O O7 0.583500 0.373136 0.613725
O O8 0.616430 0.140725 0.701558
O O9 0.876137 0.661116 0.296055
O O10 0.992797 0.473772 0.244236
O O11 0.750000 0.750000 0.894896
O O12 0.657308 0.925513 0.806412
O O13 0.578130 0.786873 0.930034
O O14 0.000000 0.500000 0.000000
#
# Coordination Sequence:
#
# PCOD8229529 Si02
#       6
#     8   8   8   8   8   8
#     4  11  23  41  65  93 128 176 213 253 318 395
#     4  11  22  41  65  95 123 166 220 264 312 386
#     4  11  21  39  66  94 128 160 217 268 319 381
#     4  12  23  40  65  96 128 168 212 271 329 376
#     4  11  20  42  65  95 125 166 211 265 324 378
#     4  12  24  42  64  92 132 174 213 261 320 386
#
# _framework density 20.590927000000001
#
# number of rings (size 3 to 8) (size 9 to 14) (size 15 to 20)
#    0.000    0.667    5.000    5.500    0.000    0.667 
#    0.000    0.000    0.000    2.000    0.000    0.000 
#    0.000    0.000    0.000    0.000    0.000    0.000 
#
# Total GULP energy -594834.090669 kJ/mol
# GULP energy per Si atom -12392.376889 kJ/mol
# Density = 2.054406 g / cm^3
# Si number density = 20.590927 Si / 1000 Ang^3
#
#
#
# Elastic Constant Matrix: (Units=GPa)
#
#
# Indices 1 2 3 4 5 6 
#
# 1 131.6886 26.7490 53.2044 0.0000 0.0000 0.0000
# 2 26.7490 115.7250 39.3826 0.0000 0.0000 0.0000
# 3 53.2044 39.3826 100.7637 0.0000 0.0000 0.0000
# 4 0.0000 0.0000 0.0000 28.4485 0.0000 0.0000
# 5 0.0000 0.0000 0.0000 0.0000 24.0305 0.0000
# 6 0.0000 0.0000 0.0000 0.0000 0.0000 27.8387
#
#
#
# Elastic Compliance Matrix: (Units=1/GPa)
#
#
# Indices 1 2 3 4 5 6 
#
# 1 0.009686 -0.000575 -0.004890 0.000000 0.000000 0.000000
# 2 -0.000575 0.010001 -0.003605 0.000000 0.000000 0.000000
# 3 -0.004890 -0.003605 0.013915 0.000000 0.000000 0.000000
# 4 0.000000 0.000000 0.000000 0.035151 0.000000 0.000000
# 5 0.000000 0.000000 0.000000 0.000000 0.041614 0.000000
# 6 0.000000 0.000000 0.000000 0.000000 0.000000 0.035921
#
#
# Mechanical properties :
#
#
# Convention : Reuss Voigt Hill
#
# Bulk Modulus (GPa) = 64.67251 65.20548 64.93899
# Shear Modulus (GPa) = 29.48430 31.31963 30.40196
#
# Velocity S-wave (km/s) = 3.78816 3.90428 3.84666
# Velocity P-wave (km/s) = 7.11407 7.21529 7.16486
#
# Compressibility (1/GPa) = 0.01546252
#
# Stress axis : x y z
#
# Youngs Moduli (GPa) = 103.24266 99.99042 71.86455
#
# Poissons Ratio (x) = 0.05748 0.35139
# Poissons Ratio (y) = 0.05935 0.25909
# Poissons Ratio (z) = 0.50482 0.36049
#
# Static dielectric constant tensor:
#      x y z
#    x 3.954210 0.000000 0.000000 
#    y 0.000000 3.848890 0.000000 
#    z 0.000000 0.000000 3.690440 
# 
# 
# High freq. dielectric constant tensor:
#      x y z
#    x 1.814490 0.000000 0.000000 
#    y 0.000000 1.811960 0.000000 
#    z 0.000000 0.000000 1.792380 
# 
# From -- ./inp_files/16178.got.cif
#   From: 2010.03.12/outbox.cif.g09.slc.cpg/sg56_9_cif.got.tgz:16178.got - 2010.04.16 15:33:40.
