data_PCOD8229226
_publ_section_title
;
Structure prediction by ZEFSAII (Michael W. Deem and Ramdas Pophale) SiO2 
 PCOD8229226
Probable space group: P C C N
;
_chemical_formula_sum "Si O2"
_cell_formula_units_Z 56
_cell_length_a 15.501837
_cell_length_b 12.601229
_cell_length_c 13.744987
_cell_angle_alpha 90.000000
_cell_angle_beta 90.000000
_cell_angle_gamma 90.000000
_cell_volume 2684.975971
_symmetry_space_group_name_H-M "P C C N"
_symmetry_group_IT_number 56
_symmetry_cell_setting 'orthorhombic'
loop_
_space_group_symop_operation_xyz
x,y,z
1/2-x,1/2-y,z
1/2+x,-y,1/2-z
-x,1/2+y,1/2-z
-x,-y,-z
1/2+x,1/2+y,-z
1/2-x,y,1/2+z
x,1/2-y,1/2+z
loop_
_atom_site_type_symbol
_atom_site_label
_atom_site_fract_x
_atom_site_fract_y
_atom_site_fract_z
Si Si1 0.635319 0.662498 0.252713
Si Si2 0.669164 0.186900 0.326054
Si Si3 0.547187 0.107800 0.176903
Si Si4 0.730597 0.988371 0.885857
Si Si5 0.917374 0.354032 0.949428
Si Si6 0.735736 0.868403 0.565120
Si Si7 0.591701 0.879448 0.169190
O O1 0.552768 0.612034 0.300648
O O2 0.713432 0.615411 0.317954
O O3 0.657065 0.626316 0.142312
O O4 0.620898 0.790306 0.248649
O O5 0.750000 0.250000 0.283432
O O6 0.596978 0.193693 0.242335
O O7 0.633289 0.244035 0.424565
O O8 0.699711 0.066724 0.339735
O O9 0.571097 0.991696 0.217823
O O10 0.566987 0.130982 0.064083
O O11 0.640541 0.048132 0.910680
O O12 0.784713 0.947460 0.978074
O O13 0.009753 0.346340 0.896682
O O14 0.750000 0.750000 0.525881
O O15 0.827083 0.907408 0.603733
#
# Coordination Sequence:
#
# PCOD8229226 Si02
#       7
#     8   8   8   8   8   8   8
#     4  11  24  41  67 102 136 178 232 282 348 421
#     4  10  25  43  65 103 137 171 234 289 343 418
#     4  12  22  42  73  94 139 182 225 289 356 409
#     4  11  22  43  67  98 138 181 229 280 350 409
#     4  11  22  42  69 102 129 180 233 283 343 415
#     4  10  23  40  64  92 135 174 227 280 334 414
#     4  11  21  42  67  99 130 171 235 275 336 428
#
# _framework density 20.856797
#
# number of rings (size 3 to 8) (size 9 to 14) (size 15 to 20)
#    0.000    1.143    4.286    2.143    0.000    4.571 
#    5.143    0.714    0.000    0.000    0.000    0.000 
#    0.000    0.000    0.000    0.000    0.000    0.000 
#
# Total GULP energy -693771.943330 kJ/mol
# GULP energy per Si atom -12388.784702 kJ/mol
# Density = 2.080933 g / cm^3
# Si number density = 20.856797 Si / 1000 Ang^3
#
#
#
# Elastic Constant Matrix: (Units=GPa)
#
#
# Indices 1 2 3 4 5 6 
#
# 1 71.9568 19.4406 36.3715 0.0000 0.0000 0.0000
# 2 19.4406 100.0526 58.5650 0.0000 0.0000 0.0000
# 3 36.3715 58.5650 99.4841 0.0000 0.0000 0.0000
# 4 0.0000 0.0000 0.0000 39.5937 0.0000 0.0000
# 5 0.0000 0.0000 0.0000 0.0000 65.3201 0.0000
# 6 0.0000 0.0000 0.0000 0.0000 0.0000 33.2547
#
#
#
# Elastic Compliance Matrix: (Units=1/GPa)
#
#
# Indices 1 2 3 4 5 6 
#
# 1 0.017065 0.000513 -0.006541 0.000000 0.000000 0.000000
# 2 0.000513 0.015265 -0.009174 0.000000 0.000000 0.000000
# 3 -0.006541 -0.009174 0.017844 0.000000 0.000000 0.000000
# 4 0.000000 0.000000 0.000000 0.025257 0.000000 0.000000
# 5 0.000000 0.000000 0.000000 0.000000 0.015309 0.000000
# 6 0.000000 0.000000 0.000000 0.000000 0.000000 0.030071
#
#
# Mechanical properties :
#
#
# Convention : Reuss Voigt Hill
#
# Bulk Modulus (GPa) = 50.58190 55.58311 53.08250
# Shear Modulus (GPa) = 31.68499 38.10812 34.89655
#
# Velocity S-wave (km/s) = 3.90188 4.27913 4.09485
# Velocity P-wave (km/s) = 6.67864 7.14999 6.91833
#
# Compressibility (1/GPa) = 0.01976992
#
# Stress axis : x y z
#
# Youngs Moduli (GPa) = 58.60013 65.50988 56.04231
#
# Poissons Ratio (x) = -0.03360 0.36656
# Poissons Ratio (y) = -0.03005 0.51412
# Poissons Ratio (z) = 0.38329 0.60097
#
# Static dielectric constant tensor:
#      x y z
#    x 3.962360 0.000000 0.000000 
#    y 0.000000 3.958610 0.000000 
#    z 0.000000 0.000000 3.597380 
# 
# 
# High freq. dielectric constant tensor:
#      x y z
#    x 1.830180 0.000000 0.000000 
#    y 0.000000 1.823380 0.000000 
#    z 0.000000 0.000000 1.799030 
# 
# From -- ./inp_files/12260.got.cif
#   From: 2010.03.12/outbox.cif.g09.slc.cpg/sg56_7_cif.got.tgz:12260.got - 2010.04.16 15:33:40.
