data_PCOD8229798
_publ_section_title
;
Structure prediction by ZEFSAII (Michael W. Deem and Ramdas Pophale) SiO2 
 PCOD8229798
Probable space group: P C C N
;
_chemical_formula_sum "Si O2"
_cell_formula_units_Z 40
_cell_length_a 7.720683
_cell_length_b 21.262140
_cell_length_c 9.485997
_cell_angle_alpha 90.000000
_cell_angle_beta 90.000000
_cell_angle_gamma 90.000000
_cell_volume 1557.204599
_symmetry_space_group_name_H-M "P C C N"
_symmetry_group_IT_number 56
_symmetry_cell_setting 'orthorhombic'
loop_
_space_group_symop_operation_xyz
x,y,z
1/2-x,1/2-y,z
1/2+x,-y,1/2-z
-x,1/2+y,1/2-z
-x,-y,-z
1/2+x,1/2+y,-z
1/2-x,y,1/2+z
x,1/2-y,1/2+z
loop_
_atom_site_type_symbol
_atom_site_label
_atom_site_fract_x
_atom_site_fract_y
_atom_site_fract_z
Si Si1 0.563926 0.265459 0.333791
Si Si2 0.048292 0.592563 0.215619
Si Si3 0.887377 0.795959 0.392952
Si Si4 0.291222 0.436860 0.621915
Si Si5 0.663527 0.039137 0.080982
O O1 0.750000 0.250000 0.399158
O O2 0.539096 0.333034 0.258218
O O3 0.540113 0.207612 0.222561
O O4 0.432271 0.261679 0.462286
O O5 0.201334 0.570232 0.316664
O O6 0.101324 0.582863 0.051490
O O7 0.861139 0.559558 0.259765
O O8 0.750000 0.750000 0.317975
O O9 0.819947 0.865337 0.421846
O O10 0.244805 0.475822 0.479790
O O11 0.477520 0.470440 0.667371
#
# Coordination Sequence:
#
# PCOD8229798 Si02
#       5
#     8   8   8   8   8
#     4  12  27  45  72 107 147 192 245 311 370 450
#     4  12  27  50  77 111 153 201 250 321 385 458
#     4  12  25  48  73 104 144 196 247 303 376 452
#     4  11  26  50  74 108 153 198 252 310 388 457
#     4  11  28  48  78 115 148 200 258 320 382 464
#
# _framework density 25.687052000000001
#
# number of rings (size 3 to 8) (size 9 to 14) (size 15 to 20)
#    0.000    0.400    4.000    3.000    8.400    1.600 
#    0.000    0.000    0.000    0.000    0.000    0.000 
#    0.000    0.000    0.000    0.000    0.000    0.000 
#
# Total GULP energy -495552.084877 kJ/mol
# GULP energy per Si atom -12388.802122 kJ/mol
# Density = 2.562859 g / cm^3
# Si number density = 25.687052 Si / 1000 Ang^3
#
#
#
# Elastic Constant Matrix: (Units=GPa)
#
#
# Indices 1 2 3 4 5 6 
#
# 1 134.2463 21.2839 63.6992 0.0000 0.0000 0.0000
# 2 21.2839 35.7596 1.6416 0.0000 0.0000 0.0000
# 3 63.6992 1.6416 130.8485 0.0000 0.0000 0.0000
# 4 0.0000 0.0000 0.0000 20.6106 0.0000 0.0000
# 5 0.0000 0.0000 0.0000 0.0000 43.2398 0.0000
# 6 0.0000 0.0000 0.0000 0.0000 0.0000 47.2547
#
#
#
# Elastic Compliance Matrix: (Units=1/GPa)
#
#
# Indices 1 2 3 4 5 6 
#
# 1 0.010930 -0.006265 -0.005242 0.000000 0.000000 0.000000
# 2 -0.006265 0.031571 0.002654 0.000000 0.000000 0.000000
# 3 -0.005242 0.002654 0.010161 0.000000 0.000000 0.000000
# 4 0.000000 0.000000 0.000000 0.048519 0.000000 0.000000
# 5 0.000000 0.000000 0.000000 0.000000 0.023127 0.000000
# 6 0.000000 0.000000 0.000000 0.000000 0.000000 0.021162
#
#
# Mechanical properties :
#
#
# Convention : Reuss Voigt Hill
#
# Bulk Modulus (GPa) = 28.60750 52.67820 40.64285
# Shear Modulus (GPa) = 28.59961 36.50300 32.55130
#
# Velocity S-wave (km/s) = 3.34036 3.77379 3.56367
# Velocity P-wave (km/s) = 5.10279 6.28815 5.72623
#
# Compressibility (1/GPa) = 0.03495586
#
# Stress axis : x y z
#
# Youngs Moduli (GPa) = 91.49504 31.67431 98.41474
#
# Poissons Ratio (x) = 0.19843 0.51590
# Poissons Ratio (y) = 0.57318 -0.26115
# Poissons Ratio (z) = 0.47963 -0.08405
#
# Static dielectric constant tensor:
#      x y z
#    x 4.874120 0.000000 0.000000 
#    y 0.000000 4.993410 0.000000 
#    z 0.000000 0.000000 4.468520 
# 
# 
# High freq. dielectric constant tensor:
#      x y z
#    x 2.037720 0.000000 0.000000 
#    y 0.000000 2.047130 0.000000 
#    z 0.000000 0.000000 2.028530 
# 
# From -- ./inp_files/2059.got.cif
#   From: 2010.03.12/outbox.cif.g09.slc.cpg/sg56_2_cif.got.tgz:2059.got - 2010.04.16 15:33:40.
