data_PCOD8229409
_publ_section_title
;
Structure prediction by ZEFSAII (Michael W. Deem and Ramdas Pophale) SiO2 
 PCOD8229409
Probable space group: P C C N
;
_chemical_formula_sum "Si O2"
_cell_formula_units_Z 40
_cell_length_a 17.415880
_cell_length_b 8.680061
_cell_length_c 11.384293
_cell_angle_alpha 90.000000
_cell_angle_beta 90.000000
_cell_angle_gamma 90.000000
_cell_volume 1720.973827
_symmetry_space_group_name_H-M "P C C N"
_symmetry_group_IT_number 56
_symmetry_cell_setting 'orthorhombic'
loop_
_space_group_symop_operation_xyz
x,y,z
1/2-x,1/2-y,z
1/2+x,-y,1/2-z
-x,1/2+y,1/2-z
-x,-y,-z
1/2+x,1/2+y,-z
1/2-x,y,1/2+z
x,1/2-y,1/2+z
loop_
_atom_site_type_symbol
_atom_site_label
_atom_site_fract_x
_atom_site_fract_y
_atom_site_fract_z
Si Si1 0.597702 0.850550 0.543979
Si Si2 0.170272 0.672483 0.103222
Si Si3 0.227643 0.418473 0.277300
Si Si4 0.559219 0.435277 0.835170
Si Si5 0.382208 0.488296 0.396859
O O1 0.672688 0.909985 0.610194
O O2 0.524178 0.891539 0.621068
O O3 0.604035 0.667132 0.529382
O O4 0.594878 0.929266 0.416229
O O5 0.250000 0.750000 0.064697
O O6 0.187587 0.519644 0.177698
O O7 0.116374 0.790260 0.172266
O O8 0.120879 0.628289 0.988146
O O9 0.250000 0.250000 0.225934
O O10 0.304528 0.497722 0.321754
O O11 0.550280 0.492577 0.700134
#
# Coordination Sequence:
#
# PCOD8229409 Si02
#       5
#     8   8   8   8   8
#     4  10  26  47  70  99 144 185 232 281 350 420
#     4  12  26  41  70 102 141 176 238 294 346 403
#     4  10  24  45  71  96 136 187 236 287 346 417
#     4  11  26  45  70 107 142 180 233 290 345 417
#     4  11  26  44  72  97 138 187 232 283 351 413
#
# _framework density 23.242656
#
# number of rings (size 3 to 8) (size 9 to 14) (size 15 to 20)
#    0.000    1.200    2.000    1.200   14.000    3.200 
#    0.000    0.000    0.000    0.000    0.000    0.000 
#    0.000    0.000    0.000    0.000    0.000    0.000 
#
# Total GULP energy -496135.269881 kJ/mol
# GULP energy per Si atom -12403.381747 kJ/mol
# Density = 2.318975 g / cm^3
# Si number density = 23.242656 Si / 1000 Ang^3
#
#
#
# Elastic Constant Matrix: (Units=GPa)
#
#
# Indices 1 2 3 4 5 6 
#
# 1 34.3670 8.5881 -12.1710 0.0000 0.0000 0.0000
# 2 8.5881 106.4950 42.4411 0.0000 0.0000 0.0000
# 3 -12.1710 42.4411 79.8034 0.0000 0.0000 0.0000
# 4 0.0000 0.0000 0.0000 24.7163 0.0000 0.0000
# 5 0.0000 0.0000 0.0000 0.0000 33.6089 0.0000
# 6 0.0000 0.0000 0.0000 0.0000 0.0000 24.0540
#
#
#
# Elastic Compliance Matrix: (Units=1/GPa)
#
#
# Indices 1 2 3 4 5 6 
#
# 1 0.033548 -0.006021 0.008318 0.000000 0.000000 0.000000
# 2 -0.006021 0.012996 -0.007830 0.000000 0.000000 0.000000
# 3 0.008318 -0.007830 0.017963 0.000000 0.000000 0.000000
# 4 0.000000 0.000000 0.000000 0.040459 0.000000 0.000000
# 5 0.000000 0.000000 0.000000 0.000000 0.029754 0.000000
# 6 0.000000 0.000000 0.000000 0.000000 0.000000 0.041573
#
#
# Mechanical properties :
#
#
# Convention : Reuss Voigt Hill
#
# Bulk Modulus (GPa) = 18.71126 33.15353 25.93239
# Shear Modulus (GPa) = 24.36976 28.59632 26.48304
#
# Velocity S-wave (km/s) = 3.24156 3.51142 3.37918
# Velocity P-wave (km/s) = 4.69874 5.54393 5.13874
#
# Compressibility (1/GPa) = 0.05344377
#
# Stress axis : x y z
#
# Youngs Moduli (GPa) = 29.80791 76.94682 55.66854
#
# Poissons Ratio (x) = 0.46326 -0.46307
# Poissons Ratio (y) = 0.17946 0.43587
# Poissons Ratio (z) = -0.24795 0.60247
#
# Static dielectric constant tensor:
#      x y z
#    x 4.292080 0.000000 0.000000 
#    y 0.000000 4.313500 0.000000 
#    z 0.000000 0.000000 4.087320 
# 
# 
# High freq. dielectric constant tensor:
#      x y z
#    x 1.925880 0.000000 0.000000 
#    y 0.000000 1.928230 0.000000 
#    z 0.000000 0.000000 1.915490 
# 
# From -- ./inp_files/6150.got.cif
#   From: 2010.03.12/outbox.cif.g09.slc.cpg/sg56_4_cif.got.tgz:6150.got - 2010.04.16 15:33:40.
