data_PCOD8229431
_publ_section_title
;
Structure prediction by ZEFSAII (Michael W. Deem and Ramdas Pophale) SiO2 
 PCOD8229431
Probable space group: P C C N
;
_chemical_formula_sum "Si O2"
_cell_formula_units_Z 48
_cell_length_a 14.672974
_cell_length_b 5.120449
_cell_length_c 24.234157
_cell_angle_alpha 90.000000
_cell_angle_beta 90.000000
_cell_angle_gamma 90.000000
_cell_volume 1820.765895
_symmetry_space_group_name_H-M "P C C N"
_symmetry_group_IT_number 56
_symmetry_cell_setting 'orthorhombic'
loop_
_space_group_symop_operation_xyz
x,y,z
1/2-x,1/2-y,z
1/2+x,-y,1/2-z
-x,1/2+y,1/2-z
-x,-y,-z
1/2+x,1/2+y,-z
1/2-x,y,1/2+z
x,1/2-y,1/2+z
loop_
_atom_site_type_symbol
_atom_site_label
_atom_site_fract_x
_atom_site_fract_y
_atom_site_fract_z
Si Si1 0.495684 0.502988 0.435031
Si Si2 0.396557 0.401972 0.284940
Si Si3 0.901365 0.499755 0.436163
Si Si4 0.658314 0.138040 0.553128
Si Si5 0.899150 0.401227 0.788882
Si Si6 0.750000 0.250000 0.870724
Si Si7 0.750000 0.750000 0.134522
O O1 0.500000 0.500000 0.500000
O O2 0.568819 0.718180 0.414167
O O3 0.395508 0.615525 0.418804
O O4 0.524637 0.215441 0.413412
O O5 0.386362 0.620091 0.238689
O O6 0.497271 0.425982 0.313635
O O7 0.315977 0.433897 0.329085
O O8 0.383903 0.121772 0.256528
O O9 0.898402 0.494319 0.503404
O O10 0.803001 0.451071 0.410040
O O11 0.750000 0.250000 0.526352
O O12 0.681095 0.925949 0.599154
O O13 0.822257 0.419822 0.835600
#
# Coordination Sequence:
#
# PCOD8229431 Si02
#       7
#     8   8   8   8   8   4   4
#     4  10  24  47  69  91 141 203 240 293 358 421
#     4  10  24  49  71 105 144 187 237 314 370 452
#     4  11  26  47  69 101 150 190 247 299 355 427
#     4  11  26  42  66 103 145 191 237 296 357 426
#     4  10  24  47  76 101 145 186 240 304 387 437
#     4  12  26  44  78 112 140 198 246 312 364 464
#     4  12  28  40  76 106 142 190 250 300 366 448
#
# _framework density 26.362532000000002
#
# number of rings (size 3 to 8) (size 9 to 14) (size 15 to 20)
#    0.000    1.333    0.833    3.000   11.667    3.333 
#    3.000    0.000    0.000    0.000    0.000    0.000 
#    0.000    0.000    0.000    0.000    0.000    0.000 
#
# Total GULP energy -595199.491257 kJ/mol
# GULP energy per Si atom -12399.989401 kJ/mol
# Density = 2.630253 g / cm^3
# Si number density = 26.362532 Si / 1000 Ang^3
#
#
#
# Elastic Constant Matrix: (Units=GPa)
#
#
# Indices 1 2 3 4 5 6 
#
# 1 162.2519 35.9871 52.1438 0.0000 0.0000 0.0000
# 2 35.9871 103.0347 15.1933 0.0000 0.0000 0.0000
# 3 52.1438 15.1933 59.1891 0.0000 0.0000 0.0000
# 4 0.0000 0.0000 0.0000 25.0690 0.0000 0.0000
# 5 0.0000 0.0000 0.0000 0.0000 42.3844 0.0000
# 6 0.0000 0.0000 0.0000 0.0000 0.0000 34.5979
#
#
#
# Elastic Compliance Matrix: (Units=1/GPa)
#
#
# Indices 1 2 3 4 5 6 
#
# 1 0.008996 -0.002051 -0.007399 0.000000 0.000000 0.000000
# 2 -0.002051 0.010555 -0.000902 0.000000 0.000000 0.000000
# 3 -0.007399 -0.000902 0.023645 0.000000 0.000000 0.000000
# 4 0.000000 0.000000 0.000000 0.039890 0.000000 0.000000
# 5 0.000000 0.000000 0.000000 0.000000 0.023594 0.000000
# 6 0.000000 0.000000 0.000000 0.000000 0.000000 0.028903
#
#
# Mechanical properties :
#
#
# Convention : Reuss Voigt Hill
#
# Bulk Modulus (GPa) = 44.46186 59.01382 51.73784
# Shear Modulus (GPa) = 30.52805 35.15368 32.84086
#
# Velocity S-wave (km/s) = 3.40664 3.65563 3.53333
# Velocity P-wave (km/s) = 5.68997 6.34447 6.02611
#
# Compressibility (1/GPa) = 0.02249119
#
# Stress axis : x y z
#
# Youngs Moduli (GPa) = 111.16155 94.74261 42.29288
#
# Poissons Ratio (x) = 0.19432 0.31291
# Poissons Ratio (y) = 0.22800 0.03817
# Poissons Ratio (z) = 0.82245 0.08550
#
# Static dielectric constant tensor:
#      x y z
#    x 5.483420 0.000000 0.000000 
#    y 0.000000 4.922800 0.000000 
#    z 0.000000 0.000000 4.556010 
# 
# 
# High freq. dielectric constant tensor:
#      x y z
#    x 2.079540 0.000000 0.000000 
#    y 0.000000 2.058350 0.000000 
#    z 0.000000 0.000000 2.047640 
# 
# From -- ./inp_files/22446.got.cif
#   From: 2010.03.12/outbox.cif.g09.slc.cpg/sg56_12_cif.got.tgz:22446.got - 2010.04.16 15:33:40.
