data_PCOD8229212
_publ_section_title
;
Structure prediction by ZEFSAII (Michael W. Deem and Ramdas Pophale) SiO2 
 PCOD8229212
Probable space group: P C C N
;
_chemical_formula_sum "Si O2"
_cell_formula_units_Z 64
_cell_length_a 16.300672
_cell_length_b 22.347494
_cell_length_c 8.821784
_cell_angle_alpha 90.000000
_cell_angle_beta 90.000000
_cell_angle_gamma 90.000000
_cell_volume 3213.592151
_symmetry_space_group_name_H-M "P C C N"
_symmetry_group_IT_number 56
_symmetry_cell_setting 'orthorhombic'
loop_
_space_group_symop_operation_xyz
x,y,z
1/2-x,1/2-y,z
1/2+x,-y,1/2-z
-x,1/2+y,1/2-z
-x,-y,-z
1/2+x,1/2+y,-z
1/2-x,y,1/2+z
x,1/2-y,1/2+z
loop_
_atom_site_type_symbol
_atom_site_label
_atom_site_fract_x
_atom_site_fract_y
_atom_site_fract_z
Si Si1 0.999861 0.414517 0.598546
Si Si2 0.998743 0.825092 0.404283
Si Si3 0.298035 0.003468 0.162795
Si Si4 0.511927 0.792808 0.557352
Si Si5 0.138220 0.497146 0.495631
Si Si6 0.196082 0.303672 0.417070
Si Si7 0.454860 0.941481 0.064679
Si Si8 0.679069 0.635352 0.379642
O O1 0.986908 0.345316 0.558085
O O2 0.088190 0.436516 0.535104
O O3 0.927012 0.449596 0.514771
O O4 0.999104 0.423037 0.779056
O O5 0.031819 0.768980 0.503949
O O6 0.013398 0.810474 0.227502
O O7 0.903614 0.835891 0.444155
O O8 0.045373 0.886464 0.446559
O O9 0.310523 0.010335 0.341899
O O10 0.359225 0.954131 0.095099
O O11 0.319087 0.065721 0.079162
O O12 0.203414 0.986805 0.128036
O O13 0.607910 0.778939 0.534924
O O14 0.250000 0.250000 0.345387
O O15 0.183026 0.357626 0.300566
O O16 0.241672 0.330396 0.561036
O O17 0.500000 0.000000 0.000000
#
# Coordination Sequence:
#
# PCOD8229212 Si02
#       8
#     8   8   8   8   8   8   8   8
#     4  10  23  42  63  89 129 169 211 260 321 381
#     4  11  23  38  58  85 115 163 208 257 312 378
#     4  11  22  39  59  92 122 161 209 262 317 381
#     4  11  23  39  60  84 121 162 214 254 316 380
#     4  10  23  39  62  92 125 164 207 260 322 373
#     4  11  22  34  50  78 118 162 202 248 293 369
#     4  11  24  40  63  89 125 168 218 263 321 377
#     4  11  21  33  51  77 117 156 203 239 307 360
#
# _framework density 19.915407999999999
#
# number of rings (size 3 to 8) (size 9 to 14) (size 15 to 20)
#    0.000    1.250    2.500    4.125    7.000    2.000 
#    0.000    0.000    0.000    0.750    0.000    5.250 
#    0.000    0.000    0.000    0.000    0.000    0.000 
#
# Total GULP energy -793642.363194 kJ/mol
# GULP energy per Si atom -12400.661925 kJ/mol
# Density = 1.987008 g / cm^3
# Si number density = 19.915408 Si / 1000 Ang^3
#
#
#
# Elastic Constant Matrix: (Units=GPa)
#
#
# Indices 1 2 3 4 5 6 
#
# 1 77.4348 26.9917 40.6563 0.0000 0.0000 0.0000
# 2 26.9917 137.0294 50.3738 0.0000 0.0000 0.0000
# 3 40.6563 50.3738 96.6263 0.0000 0.0000 0.0000
# 4 0.0000 0.0000 0.0000 37.5544 0.0000 0.0000
# 5 0.0000 0.0000 0.0000 0.0000 31.8344 0.0000
# 6 0.0000 0.0000 0.0000 0.0000 0.0000 22.0228
#
#
#
# Elastic Compliance Matrix: (Units=1/GPa)
#
#
# Indices 1 2 3 4 5 6 
#
# 1 0.016660 -0.000872 -0.006555 0.000000 0.000000 0.000000
# 2 -0.000872 0.009073 -0.004363 0.000000 0.000000 0.000000
# 3 -0.006555 -0.004363 0.015382 0.000000 0.000000 0.000000
# 4 0.000000 0.000000 0.000000 0.026628 0.000000 0.000000
# 5 0.000000 0.000000 0.000000 0.000000 0.031413 0.000000
# 6 0.000000 0.000000 0.000000 0.000000 0.000000 0.045407
#
#
# Mechanical properties :
#
#
# Convention : Reuss Voigt Hill
#
# Bulk Modulus (GPa) = 57.03078 60.79267 58.91172
# Shear Modulus (GPa) = 28.73744 31.15357 29.94551
#
# Velocity S-wave (km/s) = 3.80277 3.95941 3.88188
# Velocity P-wave (km/s) = 6.92677 7.17595 7.05246
#
# Compressibility (1/GPa) = 0.01753439
#
# Stress axis : x y z
#
# Youngs Moduli (GPa) = 60.02494 110.21137 65.01065
#
# Poissons Ratio (x) = 0.09608 0.42616
# Poissons Ratio (y) = 0.05233 0.28367
# Poissons Ratio (z) = 0.39348 0.48090
#
# Static dielectric constant tensor:
#      x y z
#    x 3.474950 0.000000 0.000000 
#    y 0.000000 3.663890 0.000000 
#    z 0.000000 0.000000 3.547550 
# 
# 
# High freq. dielectric constant tensor:
#      x y z
#    x 1.747920 0.000000 0.000000 
#    y 0.000000 1.781530 0.000000 
#    z 0.000000 0.000000 1.782150 
# 
# From -- ./inp_files/4266.got.cif
#   From: 2010.03.12/outbox.cif.g09.slc.cpg/sg56_3_cif.got.tgz:4266.got - 2010.04.16 15:33:40.
