data_PCOD8229165
_publ_section_title
;
Structure prediction by ZEFSAII (Michael W. Deem and Ramdas Pophale) SiO2 
 PCOD8229165
Probable space group: P C C N
;
_chemical_formula_sum "Si O2"
_cell_formula_units_Z 48
_cell_length_a 8.420859
_cell_length_b 10.010921
_cell_length_c 27.790348
_cell_angle_alpha 90.000000
_cell_angle_beta 90.000000
_cell_angle_gamma 90.000000
_cell_volume 2342.741738
_symmetry_space_group_name_H-M "P C C N"
_symmetry_group_IT_number 56
_symmetry_cell_setting 'orthorhombic'
loop_
_space_group_symop_operation_xyz
x,y,z
1/2-x,1/2-y,z
1/2+x,-y,1/2-z
-x,1/2+y,1/2-z
-x,-y,-z
1/2+x,1/2+y,-z
1/2-x,y,1/2+z
x,1/2-y,1/2+z
loop_
_atom_site_type_symbol
_atom_site_label
_atom_site_fract_x
_atom_site_fract_y
_atom_site_fract_z
Si Si1 0.108337 0.354871 0.448698
Si Si2 0.932072 0.494721 0.707642
Si Si3 0.898433 0.158950 0.041392
Si Si4 0.564673 0.277210 0.854140
Si Si5 0.438484 0.744883 0.857223
Si Si6 0.439581 0.016553 0.811918
O O1 0.250000 0.250000 0.442487
O O2 0.167365 0.508517 0.449521
O O3 0.020729 0.326570 0.498315
O O4 0.987739 0.341879 0.404328
O O5 0.001711 0.368168 0.678912
O O6 0.745765 0.510098 0.699128
O O7 0.025400 0.625688 0.690392
O O8 0.959442 0.468808 0.763590
O O9 0.750000 0.250000 0.028298
O O10 0.992777 0.211370 0.088522
O O11 0.750000 0.250000 0.855241
O O12 0.469053 0.140661 0.846776
O O13 0.250000 0.750000 0.856896
O O14 0.505335 0.886877 0.839957
#
# Coordination Sequence:
#
# PCOD8229165 Si02
#       6
#     8   8   8   8   8   8
#     4  11  24  43  68  97 127 166 211 264 323 387
#     4  11  21  41  64  94 130 166 214 264 323 383
#     4  10  22  44  67  95 129 164 207 263 319 390
#     4  12  25  42  62  93 129 173 219 267 314 376
#     4   9  20  39  63  90 122 165 205 257 317 378
#     4  11  23  39  66  95 127 170 213 265 324 387
#
# _framework density 20.488814999999999
#
# number of rings (size 3 to 8) (size 9 to 14) (size 15 to 20)
#    0.000    1.333    1.667    4.000    4.667    2.000 
#    6.000    2.500    0.000    0.000    0.000    0.000 
#    0.000    0.000    0.000    0.000    0.000    0.000 
#
# Total GULP energy -595404.085913 kJ/mol
# GULP energy per Si atom -12404.251790 kJ/mol
# Density = 2.044218 g / cm^3
# Si number density = 20.488815 Si / 1000 Ang^3
#
#
#
# Elastic Constant Matrix: (Units=GPa)
#
#
# Indices 1 2 3 4 5 6 
#
# 1 76.0221 37.2134 19.8141 0.0000 0.0000 0.0000
# 2 37.2134 147.2908 43.6091 0.0000 0.0000 0.0000
# 3 19.8141 43.6091 121.5774 0.0000 0.0000 0.0000
# 4 0.0000 0.0000 0.0000 36.3108 0.0000 0.0000
# 5 0.0000 0.0000 0.0000 0.0000 27.1714 0.0000
# 6 0.0000 0.0000 0.0000 0.0000 0.0000 26.1495
#
#
#
# Elastic Compliance Matrix: (Units=1/GPa)
#
#
# Indices 1 2 3 4 5 6 
#
# 1 0.015173 -0.003470 -0.001228 0.000000 0.000000 0.000000
# 2 -0.003470 0.008389 -0.002444 0.000000 0.000000 0.000000
# 3 -0.001228 -0.002444 0.009302 0.000000 0.000000 0.000000
# 4 0.000000 0.000000 0.000000 0.027540 0.000000 0.000000
# 5 0.000000 0.000000 0.000000 0.000000 0.036803 0.000000
# 6 0.000000 0.000000 0.000000 0.000000 0.000000 0.038242
#
#
# Mechanical properties :
#
#
# Convention : Reuss Voigt Hill
#
# Bulk Modulus (GPa) = 53.81949 60.68484 57.25216
# Shear Modulus (GPa) = 32.06648 34.20994 33.13821
#
# Velocity S-wave (km/s) = 3.96039 4.09062 4.02603
# Velocity P-wave (km/s) = 6.87297 7.21066 7.04384
#
# Compressibility (1/GPa) = 0.01858063
#
# Stress axis : x y z
#
# Youngs Moduli (GPa) = 65.90802 119.19696 107.50446
#
# Poissons Ratio (x) = 0.41359 0.13203
# Poissons Ratio (y) = 0.22869 0.26272
# Poissons Ratio (z) = 0.08095 0.29129
#
# Static dielectric constant tensor:
#      x y z
#    x 3.395370 0.000000 0.000000 
#    y 0.000000 4.030620 0.000000 
#    z 0.000000 0.000000 3.989400 
# 
# 
# High freq. dielectric constant tensor:
#      x y z
#    x 1.778630 0.000000 0.000000 
#    y 0.000000 1.822110 0.000000 
#    z 0.000000 0.000000 1.819160 
# 
# From -- ./inp_files/23212.got.cif
#   From: 2010.03.12/outbox.cif.g09.slc.cpg/sg56_12_cif.got.tgz:23212.got - 2010.04.16 15:33:40.
