data_PCOD8229150
_publ_section_title
;
Structure prediction by ZEFSAII (Michael W. Deem and Ramdas Pophale) SiO2 
 PCOD8229150
Probable space group: P C C N
;
_chemical_formula_sum "Si O2"
_cell_formula_units_Z 40
_cell_length_a 9.005775
_cell_length_b 8.025908
_cell_length_c 23.781150
_cell_angle_alpha 90.000000
_cell_angle_beta 90.000000
_cell_angle_gamma 90.000000
_cell_volume 1718.890146
_symmetry_space_group_name_H-M "P C C N"
_symmetry_group_IT_number 56
_symmetry_cell_setting 'orthorhombic'
loop_
_space_group_symop_operation_xyz
x,y,z
1/2-x,1/2-y,z
1/2+x,-y,1/2-z
-x,1/2+y,1/2-z
-x,-y,-z
1/2+x,1/2+y,-z
1/2-x,y,1/2+z
x,1/2-y,1/2+z
loop_
_atom_site_type_symbol
_atom_site_label
_atom_site_fract_x
_atom_site_fract_y
_atom_site_fract_z
Si Si1 0.582927 0.232004 0.748015
Si Si2 0.921010 0.562086 0.831923
Si Si3 0.418987 0.559448 0.443276
Si Si4 0.078249 0.951520 0.943701
Si Si5 0.860879 0.093576 0.854726
O O1 0.750000 0.250000 0.724238
O O2 0.477562 0.260173 0.693130
O O3 0.559832 0.374213 0.795464
O O4 0.550886 0.058545 0.778645
O O5 0.747599 0.568006 0.849425
O O6 0.009554 0.488770 0.886000
O O7 0.500000 0.500000 0.500000
O O8 0.435830 0.756004 0.435154
O O9 0.250228 0.495924 0.446083
O O10 0.992790 0.059442 0.897468
O O11 0.000000 0.000000 0.000000
O O12 0.750000 0.250000 0.870557
#
# Coordination Sequence:
#
# PCOD8229150 Si02
#       5
#     8   8   8   8   8
#     4   9  22  41  66  98 137 176 227 280 334 396
#     4  10  22  43  70  96 140 178 229 280 336 416
#     4  11  27  46  69 105 136 178 234 284 352 411
#     4  11  26  44  74  95 140 182 226 290 345 413
#     4   9  22  44  68 100 137 180 227 286 346 408
#
# _framework density 23.270828000000002
#
# number of rings (size 3 to 8) (size 9 to 14) (size 15 to 20)
#    0.000    2.400    0.000    1.200   14.000    4.800 
#    3.600    8.000    0.000    0.000    0.000    0.000 
#    0.000    0.000    0.000    0.000    0.000    0.000 
#
# Total GULP energy -495614.612563 kJ/mol
# GULP energy per Si atom -12390.365314 kJ/mol
# Density = 2.321786 g / cm^3
# Si number density = 23.270828 Si / 1000 Ang^3
#
#
#
# Elastic Constant Matrix: (Units=GPa)
#
#
# Indices 1 2 3 4 5 6 
#
# 1 153.7826 23.8260 80.3577 0.0000 0.0000 0.0000
# 2 23.8260 25.0742 14.9142 0.0000 0.0000 0.0000
# 3 80.3577 14.9142 123.0819 0.0000 0.0000 0.0000
# 4 0.0000 0.0000 0.0000 31.0179 0.0000 0.0000
# 5 0.0000 0.0000 0.0000 0.0000 50.2784 0.0000
# 6 0.0000 0.0000 0.0000 0.0000 0.0000 38.7125
#
#
#
# Elastic Compliance Matrix: (Units=1/GPa)
#
#
# Indices 1 2 3 4 5 6 
#
# 1 0.010777 -0.006526 -0.006246 0.000000 0.000000 0.000000
# 2 -0.006526 0.046931 -0.001426 0.000000 0.000000 0.000000
# 3 -0.006246 -0.001426 0.012375 0.000000 0.000000 0.000000
# 4 0.000000 0.000000 0.000000 0.032239 0.000000 0.000000
# 5 0.000000 0.000000 0.000000 0.000000 0.019889 0.000000
# 6 0.000000 0.000000 0.000000 0.000000 0.000000 0.025831
#
#
# Mechanical properties :
#
#
# Convention : Reuss Voigt Hill
#
# Bulk Modulus (GPa) = 23.98760 60.01495 42.00128
# Shear Modulus (GPa) = 26.26950 36.19115 31.23033
#
# Velocity S-wave (km/s) = 3.36350 3.94790 3.66736
# Velocity P-wave (km/s) = 5.04128 6.82840 6.00173
#
# Compressibility (1/GPa) = 0.04168820
#
# Stress axis : x y z
#
# Youngs Moduli (GPa) = 92.78755 21.30787 80.80778
#
# Poissons Ratio (x) = 0.13905 0.50469
# Poissons Ratio (y) = 0.60553 0.11524
# Poissons Ratio (z) = 0.57951 0.03039
#
# Static dielectric constant tensor:
#      x y z
#    x 4.199470 0.000000 0.000000 
#    y 0.000000 3.974110 0.000000 
#    z 0.000000 0.000000 50.748480 
# 
# 
# High freq. dielectric constant tensor:
#      x y z
#    x 1.923840 0.000000 0.000000 
#    y 0.000000 1.918670 0.000000 
#    z 0.000000 0.000000 1.930610 
# 
# From -- ./inp_files/20329.got.cif
#   From: 2010.03.12/outbox.cif.g09.slc.cpg/sg56_11_cif.got.tgz:20329.got - 2010.04.16 15:33:40.
