data_PCOD8229894
_publ_section_title
;
Structure prediction by ZEFSAII (Michael W. Deem and Ramdas Pophale) SiO2 
 PCOD8229894
Probable space group: P B C M
;
_chemical_formula_sum "Si O2"
_cell_formula_units_Z 56
_cell_length_a 9.230276
_cell_length_b 16.862178
_cell_length_c 19.836789
_cell_angle_alpha 90.000000
_cell_angle_beta 90.000000
_cell_angle_gamma 90.000000
_cell_volume 3087.448561
_symmetry_space_group_name_H-M "P B C M"
_symmetry_group_IT_number 57
_symmetry_cell_setting 'orthorhombic'
loop_
_space_group_symop_operation_xyz
x,y,z
-x,-y,1/2+z
x,1/2-y,-z
-x,1/2+y,1/2-z
-x,-y,-z
x,y,1/2-z
-x,1/2+y,z
x,1/2-y,1/2+z
loop_
_atom_site_type_symbol
_atom_site_label
_atom_site_fract_x
_atom_site_fract_y
_atom_site_fract_z
Si Si1 0.687513 0.189823 0.676657
Si Si2 0.635058 0.456213 0.403390
Si Si3 0.732230 0.193371 0.063875
Si Si4 0.405457 0.366535 0.917860
Si Si5 0.849473 0.035096 0.025273
Si Si6 0.675953 0.894377 0.435849
Si Si7 0.351455 0.228447 0.674005
O O1 0.759161 0.199637 0.750000
O O2 0.700212 0.096824 0.656885
O O3 0.770066 0.250654 0.627416
O O4 0.520019 0.211539 0.679002
O O5 0.601233 0.546531 0.383939
O O6 0.750197 0.451772 0.461632
O O7 0.491180 0.416216 0.431136
O O8 0.570868 0.158021 0.068712
O O9 0.851090 0.121535 0.061936
O O10 0.744540 0.250000 0.000000
O O11 0.328159 0.313046 0.861398
O O12 0.312351 0.359886 0.987585
O O13 0.778378 0.970372 0.074887
O O14 0.000000 0.000000 0.000000
O O15 0.723640 0.834771 0.376441
O O16 0.283584 0.226191 0.750000
#
# Coordination Sequence:
#
# PCOD8229894 Si02
#       7
#     8   8   8   8   8   8   8
#     4   9  18  30  51  81 110 141 181 218 258 323
#     4  10  17  32  54  79 107 138 176 218 275 319
#     4  11  17  32  54  78 106 142 180 224 272 319
#     4  10  16  27  53  80 106 136 177 218 264 322
#     4  11  21  33  52  84 105 130 181 236 275 317
#     4  10  17  33  53  76 106 139 180 218 274 324
#     4   9  18  29  46  79 113 141 173 218 267 316
#
# _framework density 18.137954000000001
#
# number of rings (size 3 to 8) (size 9 to 14) (size 15 to 20)
#    0.000    2.000    4.286    3.000    0.000    0.571 
#    0.000    3.571    0.000    1.714    0.000    0.000 
#    0.000    0.000    0.000    0.000    0.000    0.000 
#
# Total GULP energy -693888.754440 kJ/mol
# GULP energy per Si atom -12390.870615 kJ/mol
# Density = 1.809667 g / cm^3
# Si number density = 18.137954 Si / 1000 Ang^3
#
#
#
# Elastic Constant Matrix: (Units=GPa)
#
#
# Indices 1 2 3 4 5 6 
#
# 1 32.3280 21.3534 11.3686 0.0000 0.0000 0.0000
# 2 21.3534 164.1537 89.9422 0.0000 0.0000 0.0000
# 3 11.3686 89.9422 140.1949 0.0000 0.0000 0.0000
# 4 0.0000 0.0000 0.0000 26.1290 0.0000 0.0000
# 5 0.0000 0.0000 0.0000 0.0000 1.9740 0.0000
# 6 0.0000 0.0000 0.0000 0.0000 0.0000 7.9624
#
#
#
# Elastic Compliance Matrix: (Units=1/GPa)
#
#
# Indices 1 2 3 4 5 6 
#
# 1 0.033842 -0.004470 0.000123 0.000000 0.000000 0.000000
# 2 -0.004470 0.009984 -0.006043 0.000000 0.000000 0.000000
# 3 0.000123 -0.006043 0.011000 0.000000 0.000000 0.000000
# 4 0.000000 0.000000 0.000000 0.038272 0.000000 0.000000
# 5 0.000000 0.000000 0.000000 0.000000 0.506593 0.000000
# 6 0.000000 0.000000 0.000000 0.000000 0.000000 0.125590
#
#
# Mechanical properties :
#
#
# Convention : Reuss Voigt Hill
#
# Bulk Modulus (GPa) = 29.37100 64.66720 47.01910
# Shear Modulus (GPa) = 6.60145 21.48058 14.04102
#
# Velocity S-wave (km/s) = 1.90984 3.44508 2.78533
# Velocity P-wave (km/s) = 4.59256 7.18019 6.02689
#
# Compressibility (1/GPa) = 0.03404719
#
# Stress axis : x y z
#
# Youngs Moduli (GPa) = 29.54910 100.15685 90.91055
#
# Poissons Ratio (x) = 0.44768 -0.01121
# Poissons Ratio (y) = 0.13208 0.54937
# Poissons Ratio (z) = -0.00364 0.60525
#
# Static dielectric constant tensor:
#      x y z
#    x 3.488110 0.000000 0.000000 
#    y 0.000000 4.220350 0.000000 
#    z 0.000000 0.000000 3.684830 
# 
# 
# High freq. dielectric constant tensor:
#      x y z
#    x 1.642160 0.000000 0.000000 
#    y 0.000000 1.724850 0.000000 
#    z 0.000000 0.000000 1.691630 
# 
# From -- ./inp_files/24509.got.cif
#   From: 2010.03.12/outbox.cif.g09.slc.cpg/sg57_13_cif.got.tgz:24509.got - 2010.04.16 15:48:40.
