data_PCOD8229720
_publ_section_title
;
Structure prediction by ZEFSAII (Michael W. Deem and Ramdas Pophale) SiO2 
 PCOD8229720
Probable space group: P C C N
;
_chemical_formula_sum "Si O2"
_cell_formula_units_Z 56
_cell_length_a 12.181576
_cell_length_b 14.952758
_cell_length_c 13.743577
_cell_angle_alpha 90.000000
_cell_angle_beta 90.000000
_cell_angle_gamma 90.000000
_cell_volume 2503.367235
_symmetry_space_group_name_H-M "P C C N"
_symmetry_group_IT_number 56
_symmetry_cell_setting 'orthorhombic'
loop_
_space_group_symop_operation_xyz
x,y,z
1/2-x,1/2-y,z
1/2+x,-y,1/2-z
-x,1/2+y,1/2-z
-x,-y,-z
1/2+x,1/2+y,-z
1/2-x,y,1/2+z
x,1/2-y,1/2+z
loop_
_atom_site_type_symbol
_atom_site_label
_atom_site_fract_x
_atom_site_fract_y
_atom_site_fract_z
Si Si1 0.939120 0.017099 0.212298
Si Si2 0.220831 0.981298 0.393494
Si Si3 0.420942 0.850227 0.776339
Si Si4 0.570084 0.697482 0.801946
Si Si5 0.750000 0.750000 0.940700
Si Si6 0.397105 0.151091 0.904795
Si Si7 0.250000 0.750000 0.148964
Si Si8 0.867627 0.083333 0.416187
O O1 0.850315 0.008689 0.125720
O O2 0.873419 0.032100 0.313200
O O3 0.007873 0.104377 0.185478
O O4 0.013689 0.928085 0.217932
O O5 0.169746 0.892144 0.347345
O O6 0.189246 0.983676 0.507766
O O7 0.161916 0.068292 0.349957
O O8 0.502728 0.785625 0.837206
O O9 0.356217 0.781606 0.708038
O O10 0.676911 0.688598 0.869650
O O11 0.591343 0.718774 0.686623
O O12 0.673938 0.810289 0.008284
O O13 0.511989 0.116306 0.949189
O O14 0.287589 0.832060 0.083524
#
# Coordination Sequence:
#
# PCOD8229720 Si02
#       8
#     8   8   8   8   4   8   4   8
#     4  11  26  45  71 107 144 182 241 294 353 423
#     4  12  25  42  76 100 140 190 237 290 361 418
#     4  12  23  45  75 100 142 192 233 296 350 423
#     4  11  25  48  70 101 145 185 242 289 356 428
#     4  12  28  40  72  98 144 192 226 302 360 416
#     4  11  25  46  65 106 138 184 243 288 353 439
#     4  12  24  46  76 102 142 188 236 298 354 418
#     4  11  24  45  69 104 139 184 239 291 350 431
#
# _framework density 22.369871
#
# number of rings (size 3 to 8) (size 9 to 14) (size 15 to 20)
#    0.000    0.571    7.143    1.714    6.000    4.000 
#    0.000    1.429    0.000    0.000    0.000    0.000 
#    0.000    0.000    0.000    0.000    0.000    0.000 
#
# Total GULP energy -694338.302269 kJ/mol
# GULP energy per Si atom -12398.898255 kJ/mol
# Density = 2.231896 g / cm^3
# Si number density = 22.369871 Si / 1000 Ang^3
#
#
#
# Elastic Constant Matrix: (Units=GPa)
#
#
# Indices 1 2 3 4 5 6 
#
# 1 115.0640 16.4196 45.4999 0.0000 0.0000 0.0000
# 2 16.4196 70.3778 2.2528 0.0000 0.0000 0.0000
# 3 45.4999 2.2528 79.8310 0.0000 0.0000 0.0000
# 4 0.0000 0.0000 0.0000 22.1697 0.0000 0.0000
# 5 0.0000 0.0000 0.0000 0.0000 36.0477 0.0000
# 6 0.0000 0.0000 0.0000 0.0000 0.0000 44.1520
#
#
#
# Elastic Compliance Matrix: (Units=1/GPa)
#
#
# Indices 1 2 3 4 5 6 
#
# 1 0.011645 -0.002507 -0.006566 0.000000 0.000000 0.000000
# 2 -0.002507 0.014761 0.001012 0.000000 0.000000 0.000000
# 3 -0.006566 0.001012 0.016240 0.000000 0.000000 0.000000
# 4 0.000000 0.000000 0.000000 0.045107 0.000000 0.000000
# 5 0.000000 0.000000 0.000000 0.000000 0.027741 0.000000
# 6 0.000000 0.000000 0.000000 0.000000 0.000000 0.022649
#
#
# Mechanical properties :
#
#
# Convention : Reuss Voigt Hill
#
# Bulk Modulus (GPa) = 37.70020 43.73526 40.71773
# Shear Modulus (GPa) = 30.65469 33.88060 32.26765
#
# Velocity S-wave (km/s) = 3.70585 3.89596 3.80209
# Velocity P-wave (km/s) = 5.93302 6.31122 6.12504
#
# Compressibility (1/GPa) = 0.02652506
#
# Stress axis : x y z
#
# Youngs Moduli (GPa) = 85.87318 67.74403 61.57464
#
# Poissons Ratio (x) = 0.16981 0.40432
# Poissons Ratio (y) = 0.21526 -0.06232
# Poissons Ratio (z) = 0.56388 -0.06857
#
# Static dielectric constant tensor:
#      x y z
#    x 4.251430 0.000000 0.000000 
#    y 0.000000 4.004550 0.000000 
#    z 0.000000 0.000000 3.838880 
# 
# 
# High freq. dielectric constant tensor:
#      x y z
#    x 1.894500 0.000000 0.000000 
#    y 0.000000 1.890430 0.000000 
#    z 0.000000 0.000000 1.863110 
# 
# From -- ./inp_files/11712.got.cif
#   From: 2010.03.12/outbox.cif.g09.slc.cpg/sg56_6_cif.got.tgz:11712.got - 2010.04.16 15:33:40.
