data_PCOD8229544
_publ_section_title
;
Structure prediction by ZEFSAII (Michael W. Deem and Ramdas Pophale) SiO2 
 PCOD8229544
Probable space group: P C C N
;
_chemical_formula_sum "Si O2"
_cell_formula_units_Z 52
_cell_length_a 13.187336
_cell_length_b 7.747220
_cell_length_c 21.799822
_cell_angle_alpha 90.000000
_cell_angle_beta 90.000000
_cell_angle_gamma 90.000000
_cell_volume 2227.183026
_symmetry_space_group_name_H-M "P C C N"
_symmetry_group_IT_number 56
_symmetry_cell_setting 'orthorhombic'
loop_
_space_group_symop_operation_xyz
x,y,z
1/2-x,1/2-y,z
1/2+x,-y,1/2-z
-x,1/2+y,1/2-z
-x,-y,-z
1/2+x,1/2+y,-z
1/2-x,y,1/2+z
x,1/2-y,1/2+z
loop_
_atom_site_type_symbol
_atom_site_label
_atom_site_fract_x
_atom_site_fract_y
_atom_site_fract_z
Si Si1 0.179327 0.414829 0.522780
Si Si2 0.041214 0.672496 0.753704
Si Si3 0.750000 0.250000 0.552374
Si Si4 0.651345 0.013365 0.143428
Si Si5 0.872182 0.517569 0.690451
Si Si6 0.148450 0.858580 0.129552
Si Si7 0.054863 0.301929 0.419875
O O1 0.250000 0.250000 0.516320
O O2 0.218598 0.588862 0.489629
O O3 0.163455 0.458827 0.594285
O O4 0.074423 0.354206 0.490392
O O5 0.056736 0.543621 0.811144
O O6 0.110669 0.603286 0.697709
O O7 0.922984 0.675724 0.730700
O O8 0.081630 0.856636 0.773797
O O9 0.836367 0.180407 0.599422
O O10 0.750820 0.981550 0.186548
O O11 0.630475 0.849962 0.100808
O O12 0.915499 0.531064 0.621374
O O13 0.250000 0.750000 0.130404
O O14 0.062871 0.752548 0.090288
#
# Coordination Sequence:
#
# PCOD8229544 Si02
#       7
#     8   8   4   8   8   8   8
#     4  12  23  46  73 100 138 182 240 290 353 417
#     4  11  23  40  63  99 142 181 227 285 359 427
#     4  12  22  42  78 106 134 178 234 302 348 400
#     4  12  21  42  74 103 136 177 236 302 348 414
#     4  11  21  38  63  97 133 178 224 285 345 407
#     4  11  25  44  64  96 146 192 223 288 357 424
#     4  11  23  42  72 105 131 180 245 293 345 413
#
# _framework density 23.347878999999999
#
# number of rings (size 3 to 8) (size 9 to 14) (size 15 to 20)
#    0.000    0.615    5.385    3.692    0.000    0.000 
#    0.000   16.923    0.000    0.000    0.000    0.000 
#    0.000    0.000    0.000    0.000    0.000    0.000 
#
# Total GULP energy -644286.332918 kJ/mol
# GULP energy per Si atom -12390.121787 kJ/mol
# Density = 2.329474 g / cm^3
# Si number density = 23.347879 Si / 1000 Ang^3
#
#
#
# Elastic Constant Matrix: (Units=GPa)
#
#
# Indices 1 2 3 4 5 6 
#
# 1 74.2837 23.9476 -7.4619 0.0000 0.0000 0.0000
# 2 23.9476 112.8479 39.9043 0.0000 0.0000 0.0000
# 3 -7.4619 39.9043 91.4626 0.0000 0.0000 0.0000
# 4 0.0000 0.0000 0.0000 236.4995 0.0000 0.0000
# 5 0.0000 0.0000 0.0000 0.0000 -4.9957 0.0000
# 6 0.0000 0.0000 0.0000 0.0000 0.0000 26.7479
#
#
#
# Elastic Compliance Matrix: (Units=1/GPa)
#
#
# Indices 1 2 3 4 5 6 
#
# 1 0.015170 -0.004324 0.003124 0.000000 0.000000 0.000000
# 2 -0.004324 0.011710 -0.005462 0.000000 0.000000 0.000000
# 3 0.003124 -0.005462 0.013571 0.000000 0.000000 0.000000
# 4 0.000000 0.000000 0.000000 0.004228 0.000000 0.000000
# 5 0.000000 0.000000 0.000000 0.000000 -0.200172 0.000000
# 6 0.000000 0.000000 0.000000 0.000000 0.000000 0.037386
#
#
# Mechanical properties :
#
#
# Convention : Reuss Voigt Hill
#
# Bulk Modulus (GPa) = 36.86236 43.48602 40.17419
# Shear Modulus (GPa) = -52.22485 66.46397 7.11956
#
# Velocity S-wave (km/s) = -4.73463 5.34122 1.74813
# Velocity P-wave (km/s) = 3.75051 7.53020 4.61722
#
# Compressibility (1/GPa) = 0.02712794
#
# Stress axis : x y z
#
# Youngs Moduli (GPa) = 65.92111 85.39369 73.68492
#
# Poissons Ratio (x) = 0.36923 -0.23020
# Poissons Ratio (y) = 0.28504 0.40246
# Poissons Ratio (z) = -0.20594 0.46641
#
# Static dielectric constant tensor:
#      x y z
#    x 4.371370 0.000000 0.000000 
#    y 0.000000 4.393090 0.000000 
#    z 0.000000 0.000000 4.488590 
# 
# 
# High freq. dielectric constant tensor:
#      x y z
#    x 1.915430 0.000000 0.000000 
#    y 0.000000 1.920820 0.000000 
#    z 0.000000 0.000000 1.931720 
# 
# From -- ./inp_files/19065.got.cif
#   From: 2010.03.12/outbox.cif.g09.slc.cpg/sg56_10_cif.got.tgz:19065.got - 2010.04.16 15:33:40.
