data_PCOD8229624
_publ_section_title
;
Structure prediction by ZEFSAII (Michael W. Deem and Ramdas Pophale) SiO2 
 PCOD8229624
Probable space group: P C C N
;
_chemical_formula_sum "Si O2"
_cell_formula_units_Z 60
_cell_length_a 17.217024
_cell_length_b 9.055138
_cell_length_c 17.610799
_cell_angle_alpha 90.000000
_cell_angle_beta 90.000000
_cell_angle_gamma 90.000000
_cell_volume 2745.568089
_symmetry_space_group_name_H-M "P C C N"
_symmetry_group_IT_number 56
_symmetry_cell_setting 'orthorhombic'
loop_
_space_group_symop_operation_xyz
x,y,z
1/2-x,1/2-y,z
1/2+x,-y,1/2-z
-x,1/2+y,1/2-z
-x,-y,-z
1/2+x,1/2+y,-z
1/2-x,y,1/2+z
x,1/2-y,1/2+z
loop_
_atom_site_type_symbol
_atom_site_label
_atom_site_fract_x
_atom_site_fract_y
_atom_site_fract_z
Si Si1 0.897783 0.231190 0.601400
Si Si2 0.250000 0.750000 0.296859
Si Si3 0.934079 0.533853 0.559162
Si Si4 0.477100 0.017034 0.165884
Si Si5 0.286316 0.087583 0.543676
Si Si6 0.492551 0.192180 0.302867
Si Si7 0.335808 0.611291 0.170978
Si Si8 0.852682 0.121586 0.440704
O O1 0.821257 0.269191 0.647838
O O2 0.938681 0.388337 0.611152
O O3 0.887580 0.208574 0.511523
O O4 0.947078 0.094652 0.631276
O O5 0.273131 0.614278 0.240122
O O6 0.851286 0.573347 0.521519
O O7 0.954756 0.669004 0.614454
O O8 0.000000 0.500000 0.500000
O O9 0.502072 0.866727 0.207075
O O10 0.414160 0.988866 0.099760
O O11 0.443089 0.123427 0.232736
O O12 0.250000 0.250000 0.547795
O O13 0.323131 0.040413 0.624657
O O14 0.217560 0.973579 0.525242
O O15 0.577220 0.115938 0.296619
O O16 0.323437 0.757011 0.118794
#
# Coordination Sequence:
#
# PCOD8229624 Si02
#       8
#     8   4   8   8   8   8   8   8
#     4  12  25  44  75 103 136 190 241 295 356 428
#     4  12  24  42  76 100 136 182 246 292 350 438
#     4  12  25  44  71 101 143 189 238 301 373 430
#     4  11  25  43  72 105 142 193 235 305 359 445
#     4  12  26  41  69 104 140 189 238 303 366 430
#     4  11  24  44  68 105 146 180 246 298 368 443
#     4  11  22  47  69  99 140 196 233 299 362 440
#     4  11  24  45  69  98 146 184 245 282 363 447
#
# _framework density 21.853401999999999
#
# number of rings (size 3 to 8) (size 9 to 14) (size 15 to 20)
#    0.000    0.533    5.333    2.800    5.600    1.067 
#    0.000    0.000    0.000    0.800    0.000    0.000 
#    0.000    0.000    0.000    0.000    0.000    0.000 
#
# Total GULP energy -743590.708449 kJ/mol
# GULP energy per Si atom -12393.178474 kJ/mol
# Density = 2.180366 g / cm^3
# Si number density = 21.853402 Si / 1000 Ang^3
#
#
#
# Elastic Constant Matrix: (Units=GPa)
#
#
# Indices 1 2 3 4 5 6 
#
# 1 115.7045 37.7350 46.8506 0.0000 0.0000 0.0000
# 2 37.7350 97.1663 25.8668 0.0000 0.0000 0.0000
# 3 46.8506 25.8668 122.3271 0.0000 0.0000 0.0000
# 4 0.0000 0.0000 0.0000 32.1123 0.0000 0.0000
# 5 0.0000 0.0000 0.0000 0.0000 40.4388 0.0000
# 6 0.0000 0.0000 0.0000 0.0000 0.0000 33.9879
#
#
#
# Elastic Compliance Matrix: (Units=1/GPa)
#
#
# Indices 1 2 3 4 5 6 
#
# 1 0.011196 -0.003398 -0.003570 0.000000 0.000000 0.000000
# 2 -0.003398 0.011937 -0.001223 0.000000 0.000000 0.000000
# 3 -0.003570 -0.001223 0.009800 0.000000 0.000000 0.000000
# 4 0.000000 0.000000 0.000000 0.031141 0.000000 0.000000
# 5 0.000000 0.000000 0.000000 0.000000 0.024729 0.000000
# 6 0.000000 0.000000 0.000000 0.000000 0.000000 0.029422
#
#
# Mechanical properties :
#
#
# Convention : Reuss Voigt Hill
#
# Bulk Modulus (GPa) = 60.41169 61.78918 61.10044
# Shear Modulus (GPa) = 35.68288 36.29082 35.98685
#
# Velocity S-wave (km/s) = 4.04521 4.07953 4.06241
# Velocity P-wave (km/s) = 7.03722 7.10815 7.07277
#
# Compressibility (1/GPa) = 0.01655309
#
# Stress axis : x y z
#
# Youngs Moduli (GPa) = 89.31564 83.77516 102.03567
#
# Poissons Ratio (x) = 0.28466 0.36423
# Poissons Ratio (y) = 0.30348 0.12476
# Poissons Ratio (z) = 0.31882 0.10243
#
# Static dielectric constant tensor:
#      x y z
#    x 4.079640 0.000000 0.000000 
#    y 0.000000 3.884500 0.000000 
#    z 0.000000 0.000000 4.208730 
# 
# 
# High freq. dielectric constant tensor:
#      x y z
#    x 1.861940 0.000000 0.000000 
#    y 0.000000 1.851280 0.000000 
#    z 0.000000 0.000000 1.875920 
# 
# From -- ./inp_files/16669.got.cif
#   From: 2010.03.12/outbox.cif.g09.slc.cpg/sg56_9_cif.got.tgz:16669.got - 2010.04.16 15:33:40.
