data_PCOD8229208
_publ_section_title
;
Structure prediction by ZEFSAII (Michael W. Deem and Ramdas Pophale) SiO2 
 PCOD8229208
Probable space group: P C C N
;
_chemical_formula_sum "Si O2"
_cell_formula_units_Z 48
_cell_length_a 6.280468
_cell_length_b 15.306944
_cell_length_c 24.518998
_cell_angle_alpha 90.000000
_cell_angle_beta 90.000000
_cell_angle_gamma 90.000000
_cell_volume 2357.128282
_symmetry_space_group_name_H-M "P C C N"
_symmetry_group_IT_number 56
_symmetry_cell_setting 'orthorhombic'
loop_
_space_group_symop_operation_xyz
x,y,z
1/2-x,1/2-y,z
1/2+x,-y,1/2-z
-x,1/2+y,1/2-z
-x,-y,-z
1/2+x,1/2+y,-z
1/2-x,y,1/2+z
x,1/2-y,1/2+z
loop_
_atom_site_type_symbol
_atom_site_label
_atom_site_fract_x
_atom_site_fract_y
_atom_site_fract_z
Si Si1 0.250000 0.750000 0.534249
Si Si2 0.747132 0.962985 0.178697
Si Si3 0.937706 0.611151 0.783055
Si Si4 0.750000 0.250000 0.679547
Si Si5 0.631290 0.838754 0.083283
Si Si6 0.552435 0.893476 0.363461
Si Si7 0.370687 0.163539 0.522550
O O1 0.386169 0.685017 0.572341
O O2 0.393483 0.811518 0.496524
O O3 0.828716 0.895546 0.224177
O O4 0.638324 0.909999 0.130208
O O5 0.565950 0.022862 0.204906
O O6 0.947661 0.016856 0.156366
O O7 0.761672 0.627301 0.828957
O O8 0.095475 0.693886 0.781477
O O9 0.614980 0.185894 0.641042
O O10 0.750000 0.750000 0.100945
O O11 0.739663 0.877780 0.028149
O O12 0.616895 0.903664 0.427036
O O13 0.250000 0.250000 0.543548
#
# Coordination Sequence:
#
# PCOD8229208 Si02
#       7
#     4   8   8   4   8   8   8
#     4   8  17  38  61  86 124 156 200 254 310 364
#     4  11  24  42  60  88 127 164 209 255 312 363
#     4  11  23  43  61  89 125 163 207 261 304 359
#     4  10  23  38  67  92 112 166 210 254 314 364
#     4   9  21  39  61  92 121 163 206 249 306 374
#     4  11  22  40  64  92 124 160 205 257 313 365
#     4   9  18  35  61  91 123 156 201 253 301 372
#
# _framework density 20.363762999999999
#
# number of rings (size 3 to 8) (size 9 to 14) (size 15 to 20)
#    0.000    2.333    1.667    2.000    0.000    8.667 
#    0.000    3.333    0.000    0.000    0.000    0.000 
#    0.000    0.000    0.000    0.000    0.000    0.000 
#
# Total GULP energy -595296.820534 kJ/mol
# GULP energy per Si atom -12402.017094 kJ/mol
# Density = 2.031741 g / cm^3
# Si number density = 20.363763 Si / 1000 Ang^3
#
#
#
# Elastic Constant Matrix: (Units=GPa)
#
#
# Indices 1 2 3 4 5 6 
#
# 1 134.9392 33.8622 54.2690 0.0000 0.0000 0.0000
# 2 33.8622 65.3094 45.4943 0.0000 0.0000 0.0000
# 3 54.2690 45.4943 148.0449 0.0000 0.0000 0.0000
# 4 0.0000 0.0000 0.0000 28.2499 0.0000 0.0000
# 5 0.0000 0.0000 0.0000 0.0000 15.6720 0.0000
# 6 0.0000 0.0000 0.0000 0.0000 0.0000 24.7379
#
#
#
# Elastic Compliance Matrix: (Units=1/GPa)
#
#
# Indices 1 2 3 4 5 6 
#
# 1 0.009150 -0.003063 -0.002413 0.000000 0.000000 0.000000
# 2 -0.003063 0.020508 -0.005179 0.000000 0.000000 0.000000
# 3 -0.002413 -0.005179 0.009231 0.000000 0.000000 0.000000
# 4 0.000000 0.000000 0.000000 0.035398 0.000000 0.000000
# 5 0.000000 0.000000 0.000000 0.000000 0.063808 0.000000
# 6 0.000000 0.000000 0.000000 0.000000 0.000000 0.040424
#
#
# Mechanical properties :
#
#
# Convention : Reuss Voigt Hill
#
# Bulk Modulus (GPa) = 56.88954 68.39380 62.64167
# Shear Modulus (GPa) = 24.30866 28.04317 26.17592
#
# Velocity S-wave (km/s) = 3.45878 3.71497 3.58916
# Velocity P-wave (km/s) = 6.62934 7.21528 6.92851
#
# Compressibility (1/GPa) = 0.01757792
#
# Stress axis : x y z
#
# Youngs Moduli (GPa) = 109.29196 48.76185 108.33461
#
# Poissons Ratio (x) = 0.14938 0.26137
# Poissons Ratio (y) = 0.33481 0.56108
# Poissons Ratio (z) = 0.26368 0.25254
#
# Static dielectric constant tensor:
#      x y z
#    x 3.959500 0.000000 0.000000 
#    y 0.000000 3.467810 0.000000 
#    z 0.000000 0.000000 3.566520 
# 
# 
# High freq. dielectric constant tensor:
#      x y z
#    x 1.812900 0.000000 0.000000 
#    y 0.000000 1.774640 0.000000 
#    z 0.000000 0.000000 1.794390 
# 
# From -- ./inp_files/20087.got.cif
#   From: 2010.03.12/outbox.cif.g09.slc.cpg/sg56_11_cif.got.tgz:20087.got - 2010.04.16 15:33:40.
