data_PCOD8229863
_publ_section_title
;
Structure prediction by ZEFSAII (Michael W. Deem and Ramdas Pophale) SiO2 
 PCOD8229863
Probable space group: P C C N
;
_chemical_formula_sum "Si O2"
_cell_formula_units_Z 48
_cell_length_a 8.121286
_cell_length_b 24.583534
_cell_length_c 9.948635
_cell_angle_alpha 90.000000
_cell_angle_beta 90.000000
_cell_angle_gamma 90.000000
_cell_volume 1986.244087
_symmetry_space_group_name_H-M "P C C N"
_symmetry_group_IT_number 56
_symmetry_cell_setting 'orthorhombic'
loop_
_space_group_symop_operation_xyz
x,y,z
1/2-x,1/2-y,z
1/2+x,-y,1/2-z
-x,1/2+y,1/2-z
-x,-y,-z
1/2+x,1/2+y,-z
1/2-x,y,1/2+z
x,1/2-y,1/2+z
loop_
_atom_site_type_symbol
_atom_site_label
_atom_site_fract_x
_atom_site_fract_y
_atom_site_fract_z
Si Si1 0.045974 0.538283 0.119558
Si Si2 0.113406 0.297463 0.508941
Si Si3 0.429905 0.527371 0.132115
Si Si4 0.383465 0.702374 0.729427
Si Si5 0.570589 0.850606 0.009384
Si Si6 0.568323 0.144784 0.283795
O O1 0.239562 0.539285 0.125050
O O2 0.966505 0.515633 0.253615
O O3 0.968584 0.596897 0.096427
O O4 0.000000 0.500000 0.000000
O O5 0.250000 0.250000 0.510418
O O6 0.233282 0.350148 0.516685
O O7 0.990935 0.295834 0.635127
O O8 0.007754 0.305046 0.371435
O O9 0.503627 0.587443 0.161708
O O10 0.500000 0.500000 0.000000
O O11 0.250000 0.750000 0.729917
O O12 0.505366 0.701604 0.599028
O O13 0.268763 0.647916 0.716693
O O14 0.478312 0.847316 0.869751
#
# Coordination Sequence:
#
# PCOD8229863 Si02
#       6
#     8   8   8   8   8   8
#     4  12  27  49  76 115 161 201 259 324 395 466
#     4  12  29  52  78 116 158 204 266 325 394 467
#     4  12  29  48  79 115 158 210 263 322 395 470
#     4  12  27  51  82 111 157 208 261 327 400 474
#     4  12  27  48  79 116 157 202 262 326 392 470
#     4  12  27  49  78 115 157 207 259 320 395 470
#
# _framework density 24.166215000000001
#
# number of rings (size 3 to 8) (size 9 to 14) (size 15 to 20)
#    0.000    0.000    3.333    5.000    7.000    2.667 
#    0.000    0.000    0.000    0.000    0.000    0.000 
#    0.000    0.000    0.000    0.000    0.000    0.000 
#
# Total GULP energy -595105.394380 kJ/mol
# GULP energy per Si atom -12398.029050 kJ/mol
# Density = 2.411121 g / cm^3
# Si number density = 24.166215 Si / 1000 Ang^3
#
#
#
# Elastic Constant Matrix: (Units=GPa)
#
#
# Indices 1 2 3 4 5 6 
#
# 1 142.1332 53.7070 50.3106 0.0000 0.0000 0.0000
# 2 53.7070 134.3224 73.7709 0.0000 0.0000 0.0000
# 3 50.3106 73.7709 196.9700 0.0000 0.0000 0.0000
# 4 0.0000 0.0000 0.0000 30.6494 0.0000 0.0000
# 5 0.0000 0.0000 0.0000 0.0000 61.2771 0.0000
# 6 0.0000 0.0000 0.0000 0.0000 0.0000 45.7501
#
#
#
# Elastic Compliance Matrix: (Units=1/GPa)
#
#
# Indices 1 2 3 4 5 6 
#
# 1 0.008482 -0.002772 -0.001128 0.000000 0.000000 0.000000
# 2 -0.002772 0.010278 -0.003142 0.000000 0.000000 0.000000
# 3 -0.001128 -0.003142 0.006542 0.000000 0.000000 0.000000
# 4 0.000000 0.000000 0.000000 0.032627 0.000000 0.000000
# 5 0.000000 0.000000 0.000000 0.000000 0.016319 0.000000
# 6 0.000000 0.000000 0.000000 0.000000 0.000000 0.021858
#
#
# Mechanical properties :
#
#
# Convention : Reuss Voigt Hill
#
# Bulk Modulus (GPa) = 89.13543 92.11141 90.62342
# Shear Modulus (GPa) = 43.88648 47.24448 45.56548
#
# Velocity S-wave (km/s) = 4.26611 4.42631 4.34695
# Velocity P-wave (km/s) = 7.82500 8.02007 7.92314
#
# Compressibility (1/GPa) = 0.01121888
#
# Stress axis : x y z
#
# Youngs Moduli (GPa) = 117.89012 97.29114 152.86393
#
# Poissons Ratio (x) = 0.26967 0.17251
# Poissons Ratio (y) = 0.32677 0.48023
# Poissons Ratio (z) = 0.13304 0.30565
#
# Static dielectric constant tensor:
#      x y z
#    x 5.108810 0.000000 0.000000 
#    y 0.000000 4.702810 0.000000 
#    z 0.000000 0.000000 4.233790 
# 
# 
# High freq. dielectric constant tensor:
#      x y z
#    x 1.984200 0.000000 0.000000 
#    y 0.000000 1.980520 0.000000 
#    z 0.000000 0.000000 1.969600 
# 
# From -- ./inp_files/6430.got.cif
#   From: 2010.03.12/outbox.cif.g09.slc.cpg/sg56_4_cif.got.tgz:6430.got - 2010.04.16 15:33:40.
