data_PCOD8229220
_publ_section_title
;
Structure prediction by ZEFSAII (Michael W. Deem and Ramdas Pophale) SiO2 
 PCOD8229220
Probable space group: P C C N
;
_chemical_formula_sum "Si O2"
_cell_formula_units_Z 64
_cell_length_a 8.566111
_cell_length_b 19.158985
_cell_length_c 17.909464
_cell_angle_alpha 90.000000
_cell_angle_beta 90.000000
_cell_angle_gamma 90.000000
_cell_volume 2939.265272
_symmetry_space_group_name_H-M "P C C N"
_symmetry_group_IT_number 56
_symmetry_cell_setting 'orthorhombic'
loop_
_space_group_symop_operation_xyz
x,y,z
1/2-x,1/2-y,z
1/2+x,-y,1/2-z
-x,1/2+y,1/2-z
-x,-y,-z
1/2+x,1/2+y,-z
1/2-x,y,1/2+z
x,1/2-y,1/2+z
loop_
_atom_site_type_symbol
_atom_site_label
_atom_site_fract_x
_atom_site_fract_y
_atom_site_fract_z
Si Si1 0.958693 0.830848 0.885908
Si Si2 0.947843 0.514556 0.170788
Si Si3 0.410529 0.615687 0.562639
Si Si4 0.657142 0.317032 0.854010
Si Si5 0.997956 0.696713 0.798583
Si Si6 0.302263 0.610248 0.401875
Si Si7 0.079447 0.261447 0.457509
Si Si8 0.257952 0.418535 0.703385
O O1 0.130104 0.860190 0.897772
O O2 0.953698 0.777213 0.815035
O O3 0.903469 0.791138 0.959403
O O4 0.839479 0.895032 0.870324
O O5 0.819735 0.456091 0.152086
O O6 0.875312 0.559070 0.238084
O O7 0.964344 0.563338 0.098137
O O8 0.116568 0.479933 0.189383
O O9 0.269306 0.618708 0.623853
O O10 0.342053 0.586082 0.485617
O O11 0.487268 0.689317 0.543881
O O12 0.750000 0.250000 0.881759
O O13 0.626405 0.312086 0.766168
O O14 0.499862 0.318923 0.903400
O O15 0.849683 0.651434 0.771592
O O16 0.074495 0.668786 0.875220
O O17 0.250000 0.250000 0.423787
#
# Coordination Sequence:
#
# PCOD8229220 Si02
#       8
#     8   8   8   8   8   8   8   8
#     4  12  23  44  71 103 141 176 236 290 359 418
#     4  11  27  47  69  97 146 186 247 277 346 418
#     4  11  24  45  70  99 140 186 232 279 348 426
#     4  10  23  40  63 104 136 179 220 285 358 420
#     4  11  24  40  73 103 138 172 235 289 364 411
#     4  11  23  45  71 101 134 193 226 285 344 422
#     4  11  24  40  68 102 142 174 224 294 354 417
#     4  11  27  45  69 102 137 191 232 294 339 416
#
# _framework density 21.774149000000001
#
# number of rings (size 3 to 8) (size 9 to 14) (size 15 to 20)
#    0.000    1.000    2.500    3.375   12.250    0.000 
#    0.000    0.625    0.000    0.000    0.000    0.000 
#    0.000    0.000    0.000    0.000    0.000    0.000 
#
# Total GULP energy -793463.420265 kJ/mol
# GULP energy per Si atom -12397.865942 kJ/mol
# Density = 2.172459 g / cm^3
# Si number density = 21.774149 Si / 1000 Ang^3
#
#
#
# Elastic Constant Matrix: (Units=GPa)
#
#
# Indices 1 2 3 4 5 6 
#
# 1 109.0704 38.6170 33.6833 0.0000 0.0000 0.0000
# 2 38.6170 70.7072 28.8543 0.0000 0.0000 0.0000
# 3 33.6833 28.8543 107.1105 0.0000 0.0000 0.0000
# 4 0.0000 0.0000 0.0000 26.5577 0.0000 0.0000
# 5 0.0000 0.0000 0.0000 0.0000 28.3591 0.0000
# 6 0.0000 0.0000 0.0000 0.0000 0.0000 28.4841
#
#
#
# Elastic Compliance Matrix: (Units=1/GPa)
#
#
# Indices 1 2 3 4 5 6 
#
# 1 0.011819 -0.005548 -0.002222 0.000000 0.000000 0.000000
# 2 -0.005548 0.018494 -0.003237 0.000000 0.000000 0.000000
# 3 -0.002222 -0.003237 0.010907 0.000000 0.000000 0.000000
# 4 0.000000 0.000000 0.000000 0.037654 0.000000 0.000000
# 5 0.000000 0.000000 0.000000 0.000000 0.035262 0.000000
# 6 0.000000 0.000000 0.000000 0.000000 0.000000 0.035107
#
#
# Mechanical properties :
#
#
# Convention : Reuss Voigt Hill
#
# Bulk Modulus (GPa) = 52.07020 54.35524 53.21272
# Shear Modulus (GPa) = 28.14360 29.06241 28.60301
#
# Velocity S-wave (km/s) = 3.59907 3.65735 3.62832
# Velocity P-wave (km/s) = 6.42158 6.54617 6.48418
#
# Compressibility (1/GPa) = 0.01920484
#
# Stress axis : x y z
#
# Youngs Moduli (GPa) = 84.60950 54.07132 91.68377
#
# Poissons Ratio (x) = 0.30000 0.20373
# Poissons Ratio (y) = 0.46943 0.29681
# Poissons Ratio (z) = 0.18801 0.17505
#
# Static dielectric constant tensor:
#      x y z
#    x 4.088910 0.000000 0.000000 
#    y 0.000000 3.908050 0.000000 
#    z 0.000000 0.000000 3.820890 
# 
# 
# High freq. dielectric constant tensor:
#      x y z
#    x 1.867180 0.000000 0.000000 
#    y 0.000000 1.847130 0.000000 
#    z 0.000000 0.000000 1.853990 
# 
# From -- ./inp_files/15243.got.cif
#   From: 2010.03.12/outbox.cif.g09.slc.cpg/sg56_8_cif.got.tgz:15243.got - 2010.04.16 15:33:40.
