data_PCOD8229659
_publ_section_title
;
Structure prediction by ZEFSAII (Michael W. Deem and Ramdas Pophale) SiO2 
 PCOD8229659
Probable space group: P C C N
;
_chemical_formula_sum "Si O2"
_cell_formula_units_Z 64
_cell_length_a 21.108466
_cell_length_b 9.383289
_cell_length_c 14.487415
_cell_angle_alpha 90.000000
_cell_angle_beta 90.000000
_cell_angle_gamma 90.000000
_cell_volume 2869.476463
_symmetry_space_group_name_H-M "P C C N"
_symmetry_group_IT_number 56
_symmetry_cell_setting 'orthorhombic'
loop_
_space_group_symop_operation_xyz
x,y,z
1/2-x,1/2-y,z
1/2+x,-y,1/2-z
-x,1/2+y,1/2-z
-x,-y,-z
1/2+x,1/2+y,-z
1/2-x,y,1/2+z
x,1/2-y,1/2+z
loop_
_atom_site_type_symbol
_atom_site_label
_atom_site_fract_x
_atom_site_fract_y
_atom_site_fract_z
Si Si1 0.385966 0.247118 0.406084
Si Si2 0.195131 0.152161 0.247697
Si Si3 0.523870 0.934108 0.832096
Si Si4 0.311009 0.833800 0.778694
Si Si5 0.395122 0.807563 0.123824
Si Si6 0.510715 0.076074 0.366971
Si Si7 0.593827 0.824433 0.395240
Si Si8 0.595944 0.423636 0.570234
O O1 0.328576 0.245712 0.332757
O O2 0.439445 0.130151 0.381180
O O3 0.367887 0.205725 0.510427
O O4 0.407144 0.410178 0.404012
O O5 0.250000 0.250000 0.202312
O O6 0.142832 0.102522 0.173457
O O7 0.217303 0.994340 0.274638
O O8 0.478302 0.922875 0.743325
O O9 0.579317 0.819828 0.839748
O O10 0.479684 0.895037 0.921030
O O11 0.557758 0.087169 0.821580
O O12 0.250000 0.750000 0.814040
O O13 0.337336 0.754802 0.685301
O O14 0.365253 0.829711 0.856382
O O15 0.437710 0.678275 0.086626
O O16 0.374146 0.891594 0.030495
O O17 0.529472 0.920198 0.408374
#
# Coordination Sequence:
#
# PCOD8229659 Si02
#       8
#     8   8   8   8   8   8   8   8
#     4  11  23  43  68 100 136 178 225 275 344 403
#     4  11  26  50  69  94 136 180 229 280 338 401
#     4  12  22  40  69 101 142 183 216 268 352 404
#     4  11  27  48  70  97 130 180 236 280 328 404
#     4  12  23  43  70  98 138 182 220 277 341 404
#     4  12  22  40  66 104 144 175 219 279 336 406
#     4  12  24  42  66 104 137 176 226 279 332 410
#     4  11  23  43  68  99 138 176 224 280 341 404
#
# _framework density 22.303719999999998
#
# number of rings (size 3 to 8) (size 9 to 14) (size 15 to 20)
#    0.000    0.500    6.250    3.000    1.750    1.000 
#    2.250    2.500    0.000    0.000    0.000    0.000 
#    0.000    0.000    0.000    0.000    0.000    0.000 
#
# Total GULP energy -792874.792923 kJ/mol
# GULP energy per Si atom -12388.668639 kJ/mol
# Density = 2.225296 g / cm^3
# Si number density = 22.303720 Si / 1000 Ang^3
#
#
#
# Elastic Constant Matrix: (Units=GPa)
#
#
# Indices 1 2 3 4 5 6 
#
# 1 75.9056 44.2107 18.0843 0.0000 0.0000 0.0000
# 2 44.2107 100.7433 29.3159 0.0000 0.0000 0.0000
# 3 18.0843 29.3159 80.9256 0.0000 0.0000 0.0000
# 4 0.0000 0.0000 0.0000 32.0950 0.0000 0.0000
# 5 0.0000 0.0000 0.0000 0.0000 14.5742 0.0000
# 6 0.0000 0.0000 0.0000 0.0000 0.0000 43.3646
#
#
#
# Elastic Compliance Matrix: (Units=1/GPa)
#
#
# Indices 1 2 3 4 5 6 
#
# 1 0.017817 -0.007445 -0.001284 0.000000 0.000000 0.000000
# 2 -0.007445 0.014207 -0.003483 0.000000 0.000000 0.000000
# 3 -0.001284 -0.003483 0.013906 0.000000 0.000000 0.000000
# 4 0.000000 0.000000 0.000000 0.031158 0.000000 0.000000
# 5 0.000000 0.000000 0.000000 0.000000 0.068615 0.000000
# 6 0.000000 0.000000 0.000000 0.000000 0.000000 0.023060
#
#
# Mechanical properties :
#
#
# Convention : Reuss Voigt Hill
#
# Bulk Modulus (GPa) = 46.50142 48.97736 47.73939
# Shear Modulus (GPa) = 24.95581 29.07100 27.01340
#
# Velocity S-wave (km/s) = 3.34864 3.61420 3.48395
# Velocity P-wave (km/s) = 5.98712 6.27882 6.13470
#
# Compressibility (1/GPa) = 0.02150472
#
# Stress axis : x y z
#
# Youngs Moduli (GPa) = 56.12767 70.38842 71.91277
#
# Poissons Ratio (x) = 0.52404 0.09237
# Poissons Ratio (y) = 0.41787 0.25046
# Poissons Ratio (z) = 0.07209 0.24515
#
# Static dielectric constant tensor:
#      x y z
#    x 3.692030 0.000000 0.000000 
#    y 0.000000 4.052600 0.000000 
#    z 0.000000 0.000000 4.048720 
# 
# 
# High freq. dielectric constant tensor:
#      x y z
#    x 1.850260 0.000000 0.000000 
#    y 0.000000 1.892680 0.000000 
#    z 0.000000 0.000000 1.879960 
# 
# From -- ./inp_files/13287.got.cif
#   From: 2010.03.12/outbox.cif.g09.slc.cpg/sg56_7_cif.got.tgz:13287.got - 2010.04.16 15:33:40.
