data_PCOD8229025
_publ_section_title
;
Structure prediction by ZEFSAII (Michael W. Deem and Ramdas Pophale) SiO2 
 PCOD8229025
Probable space group: P C C N
;
_chemical_formula_sum "Si O2"
_cell_formula_units_Z 32
_cell_length_a 6.767408
_cell_length_b 17.373861
_cell_length_c 12.441301
_cell_angle_alpha 90.000000
_cell_angle_beta 90.000000
_cell_angle_gamma 90.000000
_cell_volume 1462.798480
_symmetry_space_group_name_H-M "P C C N"
_symmetry_group_IT_number 56
_symmetry_cell_setting 'orthorhombic'
loop_
_space_group_symop_operation_xyz
x,y,z
1/2-x,1/2-y,z
1/2+x,-y,1/2-z
-x,1/2+y,1/2-z
-x,-y,-z
1/2+x,1/2+y,-z
1/2-x,y,1/2+z
x,1/2-y,1/2+z
loop_
_atom_site_type_symbol
_atom_site_label
_atom_site_fract_x
_atom_site_fract_y
_atom_site_fract_z
Si Si1 0.033671 0.228270 0.367685
Si Si2 0.300900 0.861584 0.715436
Si Si3 0.203474 0.991154 0.061815
Si Si4 0.003378 0.880054 0.438413
O O1 0.250000 0.250000 0.323654
O O2 0.929303 0.166306 0.286274
O O3 0.908907 0.307185 0.372484
O O4 0.045705 0.192633 0.486913
O O5 0.325960 0.949962 0.677748
O O6 0.401296 0.847968 0.829665
O O7 0.299414 0.074356 0.083477
O O8 0.342309 0.937869 0.990604
O O9 0.000000 0.000000 0.000000
#
# Coordination Sequence:
#
# PCOD8229025 Si02
#       4
#     8   8   8   8
#     4  10  22  42  63  91 132 172 222 275 334 403
#     4  10  23  38  64  98 127 173 225 275 337 406
#     4  10  22  40  63  93 132 172 215 278 337 404
#     4  10  23  41  62  95 132 169 226 276 332 411
#
# _framework density 21.875878
#
# number of rings (size 3 to 8) (size 9 to 14) (size 15 to 20)
#    0.000    2.000    0.000    1.500    3.500   11.000 
#    0.000    0.000    0.000    0.000    0.000    0.000 
#    0.000    0.000    0.000    0.000    0.000    0.000 
#
# Total GULP energy -396778.637800 kJ/mol
# GULP energy per Si atom -12399.332431 kJ/mol
# Density = 2.182609 g / cm^3
# Si number density = 21.875878 Si / 1000 Ang^3
#
#
#
# Elastic Constant Matrix: (Units=GPa)
#
#
# Indices 1 2 3 4 5 6 
#
# 1 136.0760 32.2959 37.9323 0.0000 0.0000 0.0000
# 2 32.2959 90.1708 43.9236 0.0000 0.0000 0.0000
# 3 37.9323 43.9236 98.0451 0.0000 0.0000 0.0000
# 4 0.0000 0.0000 0.0000 25.3112 0.0000 0.0000
# 5 0.0000 0.0000 0.0000 0.0000 28.7332 0.0000
# 6 0.0000 0.0000 0.0000 0.0000 0.0000 41.0902
#
#
#
# Elastic Compliance Matrix: (Units=1/GPa)
#
#
# Indices 1 2 3 4 5 6 
#
# 1 0.008469 -0.001838 -0.002453 0.000000 0.000000 0.000000
# 2 -0.001838 0.014585 -0.005823 0.000000 0.000000 0.000000
# 3 -0.002453 -0.005823 0.013757 0.000000 0.000000 0.000000
# 4 0.000000 0.000000 0.000000 0.039508 0.000000 0.000000
# 5 0.000000 0.000000 0.000000 0.000000 0.034803 0.000000
# 6 0.000000 0.000000 0.000000 0.000000 0.000000 0.024337
#
#
# Mechanical properties :
#
#
# Convention : Reuss Voigt Hill
#
# Bulk Modulus (GPa) = 60.30385 61.39950 60.85168
# Shear Modulus (GPa) = 31.01468 33.03626 32.02547
#
# Velocity S-wave (km/s) = 3.76940 3.89030 3.83033
# Velocity P-wave (km/s) = 6.82427 6.95036 6.88760
#
# Compressibility (1/GPa) = 0.01658269
#
# Stress axis : x y z
#
# Youngs Moduli (GPa) = 118.07871 68.56447 72.69085
#
# Poissons Ratio (x) = 0.12605 0.17830
# Poissons Ratio (y) = 0.21708 0.42325
# Poissons Ratio (z) = 0.28964 0.39923
#
# Static dielectric constant tensor:
#      x y z
#    x 4.238900 0.000000 0.000000 
#    y 0.000000 4.098720 0.000000 
#    z 0.000000 0.000000 3.645380 
# 
# 
# High freq. dielectric constant tensor:
#      x y z
#    x 1.871550 0.000000 0.000000 
#    y 0.000000 1.866030 0.000000 
#    z 0.000000 0.000000 1.836980 
# 
# From -- ./inp_files/9421.got.cif
#   From: 2010.03.12/outbox.cif.g09.slc.cpg/sg56_5_cif.got.tgz:9421.got - 2010.04.16 15:33:40.
