data_PCOD8229489
_publ_section_title
;
Structure prediction by ZEFSAII (Michael W. Deem and Ramdas Pophale) SiO2 
 PCOD8229489
Probable space group: P C C N
;
_chemical_formula_sum "Si O2"
_cell_formula_units_Z 32
_cell_length_a 27.672223
_cell_length_b 5.067840
_cell_length_c 8.733930
_cell_angle_alpha 90.000000
_cell_angle_beta 90.000000
_cell_angle_gamma 90.000000
_cell_volume 1224.832357
_symmetry_space_group_name_H-M "P C C N"
_symmetry_group_IT_number 56
_symmetry_cell_setting 'orthorhombic'
loop_
_space_group_symop_operation_xyz
x,y,z
1/2-x,1/2-y,z
1/2+x,-y,1/2-z
-x,1/2+y,1/2-z
-x,-y,-z
1/2+x,1/2+y,-z
1/2-x,y,1/2+z
x,1/2-y,1/2+z
loop_
_atom_site_type_symbol
_atom_site_label
_atom_site_fract_x
_atom_site_fract_y
_atom_site_fract_z
Si Si1 0.885097 0.580447 0.341012
Si Si2 0.343400 0.745450 0.397233
Si Si3 0.201772 0.081029 0.662242
Si Si4 0.983137 0.892485 0.336370
O O1 0.888558 0.360919 0.207119
O O2 0.872947 0.460299 0.505673
O O3 0.838752 0.726855 0.275214
O O4 0.929191 0.781959 0.352840
O O5 0.314956 0.534889 0.499947
O O6 0.298847 0.854837 0.292433
O O7 0.250000 0.250000 0.641682
O O8 0.015360 0.643908 0.278469
O O9 0.000000 0.000000 0.500000
#
# Coordination Sequence:
#
# PCOD8229489 Si02
#       4
#     8   8   8   8
#     4  11  27  48  81 116 162 217 278 349 422 505
#     4  10  26  49  79 113 169 212 278 345 424 501
#     4  11  26  47  79 116 159 216 275 338 423 508
#     4  12  32  56  89 125 170 225 292 360 438 510
#
# _framework density 26.126023
#
# number of rings (size 3 to 8) (size 9 to 14) (size 15 to 20)
#    0.000    1.000    0.000    2.250   14.000   10.000 
#    0.000    3.750    0.000    0.000    0.000    0.000 
#    0.000    0.000    0.000    0.000    0.000    0.000 
#
# Total GULP energy -396490.381222 kJ/mol
# GULP energy per Si atom -12390.324413 kJ/mol
# Density = 2.606656 g / cm^3
# Si number density = 26.126023 Si / 1000 Ang^3
#
#
#
# Elastic Constant Matrix: (Units=GPa)
#
#
# Indices 1 2 3 4 5 6 
#
# 1 182.7137 80.0293 72.0778 0.0000 0.0000 0.0000
# 2 80.0293 159.5760 80.9775 0.0000 0.0000 0.0000
# 3 72.0778 80.9775 178.7839 0.0000 0.0000 0.0000
# 4 0.0000 0.0000 0.0000 22.2830 0.0000 0.0000
# 5 0.0000 0.0000 0.0000 0.0000 18.5344 0.0000
# 6 0.0000 0.0000 0.0000 0.0000 0.0000 71.1372
#
#
#
# Elastic Compliance Matrix: (Units=1/GPa)
#
#
# Indices 1 2 3 4 5 6 
#
# 1 0.007386 -0.002848 -0.001688 0.000000 0.000000 0.000000
# 2 -0.002848 0.009235 -0.003035 0.000000 0.000000 0.000000
# 3 -0.001688 -0.003035 0.007648 0.000000 0.000000 0.000000
# 4 0.000000 0.000000 0.000000 0.044877 0.000000 0.000000
# 5 0.000000 0.000000 0.000000 0.000000 0.053954 0.000000
# 6 0.000000 0.000000 0.000000 0.000000 0.000000 0.014057
#
#
# Mechanical properties :
#
#
# Convention : Reuss Voigt Hill
#
# Bulk Modulus (GPa) = 109.54553 109.69367 109.61960
# Shear Modulus (GPa) = 32.18722 41.59018 36.88870
#
# Velocity S-wave (km/s) = 3.51379 3.99420 3.76167
# Velocity P-wave (km/s) = 7.64742 7.95921 7.80487
#
# Compressibility (1/GPa) = 0.00912862
#
# Stress axis : x y z
#
# Youngs Moduli (GPa) = 135.38694 108.28694 130.74693
#
# Poissons Ratio (x) = 0.30837 0.22070
# Poissons Ratio (y) = 0.38554 0.39677
# Poissons Ratio (z) = 0.22853 0.32861
#
# Static dielectric constant tensor:
#      x y z
#    x 4.606880 0.000000 0.000000 
#    y 0.000000 4.660700 0.000000 
#    z 0.000000 0.000000 4.846130 
# 
# 
# High freq. dielectric constant tensor:
#      x y z
#    x 2.034420 0.000000 0.000000 
#    y 0.000000 2.074760 0.000000 
#    z 0.000000 0.000000 2.070040 
# 
# From -- ./inp_files/5063.got.cif
#   From: 2010.03.12/outbox.cif.g09.slc.cpg/sg56_3_cif.got.tgz:5063.got - 2010.04.16 15:33:40.
