data_PCOD8229323
_publ_section_title
;
Structure prediction by ZEFSAII (Michael W. Deem and Ramdas Pophale) SiO2 
 PCOD8229323
Probable space group: P C C N
;
_chemical_formula_sum "Si O2"
_cell_formula_units_Z 48
_cell_length_a 5.516876
_cell_length_b 28.905712
_cell_length_c 13.229369
_cell_angle_alpha 90.000000
_cell_angle_beta 90.000000
_cell_angle_gamma 90.000000
_cell_volume 2109.677272
_symmetry_space_group_name_H-M "P C C N"
_symmetry_group_IT_number 56
_symmetry_cell_setting 'orthorhombic'
loop_
_space_group_symop_operation_xyz
x,y,z
1/2-x,1/2-y,z
1/2+x,-y,1/2-z
-x,1/2+y,1/2-z
-x,-y,-z
1/2+x,1/2+y,-z
1/2-x,y,1/2+z
x,1/2-y,1/2+z
loop_
_atom_site_type_symbol
_atom_site_label
_atom_site_fract_x
_atom_site_fract_y
_atom_site_fract_z
Si Si1 0.250000 0.250000 0.780803
Si Si2 0.819136 0.654746 0.315773
Si Si3 0.982145 0.587986 0.952265
Si Si4 0.750000 0.250000 0.404489
Si Si5 0.819812 0.602122 0.632454
Si Si6 0.970006 0.027610 0.733697
Si Si7 0.638248 0.342667 0.002594
O O1 0.277893 0.294686 0.710471
O O2 0.500128 0.247709 0.842942
O O3 0.623651 0.629540 0.385476
O O4 0.866499 0.622869 0.216469
O O5 0.063212 0.660234 0.379887
O O6 0.209179 0.610397 0.008639
O O7 0.048162 0.544445 0.882483
O O8 0.808571 0.571707 0.044574
O O9 0.732399 0.295043 0.475071
O O10 0.018748 0.570136 0.687811
O O11 0.927063 0.648289 0.579593
O O12 0.225019 0.000195 0.743287
#
# Coordination Sequence:
#
# PCOD8229323 Si02
#       7
#     4   8   8   4   8   8   8
#     4  12  26  44  68 102 146 186 244 296 348 402
#     4  10  24  42  68 101 141 192 239 292 352 416
#     4  10  25  44  73 101 141 191 234 292 363 426
#     4  12  28  44  72 108 144 192 248 288 340 424
#     4  10  23  48  70 100 145 187 235 294 364 424
#     4  11  28  47  74 108 140 179 241 298 360 436
#     4  11  25  43  73 101 145 194 239 291 352 421
#
# _framework density 22.752293999999999
#
# number of rings (size 3 to 8) (size 9 to 14) (size 15 to 20)
#    0.000    1.333    1.667    1.000   16.333    2.667 
#    0.000    0.000    0.000    0.000    0.000    0.000 
#    0.000    0.000    0.000    0.000    0.000    0.000 
#
# Total GULP energy -594906.294910 kJ/mol
# GULP energy per Si atom -12393.881144 kJ/mol
# Density = 2.270051 g / cm^3
# Si number density = 22.752294 Si / 1000 Ang^3
#
#
#
# Elastic Constant Matrix: (Units=GPa)
#
#
# Indices 1 2 3 4 5 6 
#
# 1 103.8848 19.6228 28.1194 0.0000 0.0000 0.0000
# 2 19.6228 86.3618 33.1721 0.0000 0.0000 0.0000
# 3 28.1194 33.1721 123.8486 0.0000 0.0000 0.0000
# 4 0.0000 0.0000 0.0000 3.4014 0.0000 0.0000
# 5 0.0000 0.0000 0.0000 0.0000 23.9947 0.0000
# 6 0.0000 0.0000 0.0000 0.0000 0.0000 36.1652
#
#
#
# Elastic Compliance Matrix: (Units=1/GPa)
#
#
# Indices 1 2 3 4 5 6 
#
# 1 0.010459 -0.001632 -0.001937 0.000000 0.000000 0.000000
# 2 -0.001632 0.013162 -0.003155 0.000000 0.000000 0.000000
# 3 -0.001937 -0.003155 0.009359 0.000000 0.000000 0.000000
# 4 0.000000 0.000000 0.000000 0.293998 0.000000 0.000000
# 5 0.000000 0.000000 0.000000 0.000000 0.041676 0.000000
# 6 0.000000 0.000000 0.000000 0.000000 0.000000 0.027651
#
#
# Mechanical properties :
#
#
# Convention : Reuss Voigt Hill
#
# Bulk Modulus (GPa) = 51.20054 52.88043 52.04049
# Shear Modulus (GPa) = 12.01161 28.25765 20.13463
#
# Velocity S-wave (km/s) = 2.30016 3.52798 2.97804
# Velocity P-wave (km/s) = 5.44120 6.31568 5.89468
#
# Compressibility (1/GPa) = 0.01953104
#
# Stress axis : x y z
#
# Youngs Moduli (GPa) = 95.61345 75.97742 106.84637
#
# Poissons Ratio (x) = 0.12401 0.20701
# Poissons Ratio (y) = 0.15606 0.33707
# Poissons Ratio (z) = 0.18525 0.23969
#
# Static dielectric constant tensor:
#      x y z
#    x 3.921210 0.000000 0.000000 
#    y 0.000000 4.087810 0.000000 
#    z 0.000000 0.000000 4.377430 
# 
# 
# High freq. dielectric constant tensor:
#      x y z
#    x 1.886590 0.000000 0.000000 
#    y 0.000000 1.898310 0.000000 
#    z 0.000000 0.000000 1.917510 
# 
# From -- ./inp_files/9788.got.cif
#   From: 2010.03.12/outbox.cif.g09.slc.cpg/sg56_5_cif.got.tgz:9788.got - 2010.04.16 15:33:40.
