data_PCOD8229485
_publ_section_title
;
Structure prediction by ZEFSAII (Michael W. Deem and Ramdas Pophale) SiO2 
 PCOD8229485
Probable space group: P C C N
;
_chemical_formula_sum "Si O2"
_cell_formula_units_Z 28
_cell_length_a 7.683487
_cell_length_b 7.679520
_cell_length_c 20.738396
_cell_angle_alpha 90.000000
_cell_angle_beta 90.000000
_cell_angle_gamma 90.000000
_cell_volume 1223.679261
_symmetry_space_group_name_H-M "P C C N"
_symmetry_group_IT_number 56
_symmetry_cell_setting 'orthorhombic'
loop_
_space_group_symop_operation_xyz
x,y,z
1/2-x,1/2-y,z
1/2+x,-y,1/2-z
-x,1/2+y,1/2-z
-x,-y,-z
1/2+x,1/2+y,-z
1/2-x,y,1/2+z
x,1/2-y,1/2+z
loop_
_atom_site_type_symbol
_atom_site_label
_atom_site_fract_x
_atom_site_fract_y
_atom_site_fract_z
Si Si1 0.940190 0.675680 0.708544
Si Si2 0.750000 0.250000 0.884567
Si Si3 0.352720 0.088594 0.543577
Si Si4 0.938683 0.295403 0.660558
O O1 0.750000 0.750000 0.696094
O O2 0.928926 0.476082 0.695391
O O3 0.079506 0.763568 0.660406
O O4 0.994673 0.668347 0.783493
O O5 0.757813 0.425139 0.928715
O O6 0.250000 0.250000 0.506907
O O7 0.432092 0.203314 0.601007
O O8 0.500000 0.000000 0.500000
O O9 0.750000 0.250000 0.632846
#
# Coordination Sequence:
#
# PCOD8229485 Si02
#       4
#     8   4   8   8
#     4  11  23  40  70 107 151 182 230 295 374 436
#     4  10  26  48  70 112 148 184 246 306 364 452
#     4  11  28  49  76 104 144 201 254 306 365 436
#     4  11  24  42  71 109 143 187 233 299 368 443
#
# _framework density 22.881810000000002
#
# number of rings (size 3 to 8) (size 9 to 14) (size 15 to 20)
#    0.000    1.143    1.429    2.571   14.000    5.714 
#    0.000    0.000    0.000    0.000    0.000    0.000 
#    0.000    0.000    0.000    0.000    0.000    0.000 
#
# Total GULP energy -346990.511043 kJ/mol
# GULP energy per Si atom -12392.518252 kJ/mol
# Density = 2.282973 g / cm^3
# Si number density = 22.881810 Si / 1000 Ang^3
#
#
#
# Elastic Constant Matrix: (Units=GPa)
#
#
# Indices 1 2 3 4 5 6 
#
# 1 128.8620 44.6377 16.9819 0.0000 0.0000 0.0000
# 2 44.6377 89.6223 34.1056 0.0000 0.0000 0.0000
# 3 16.9819 34.1056 68.9410 0.0000 0.0000 0.0000
# 4 0.0000 0.0000 0.0000 19.9812 0.0000 0.0000
# 5 0.0000 0.0000 0.0000 0.0000 12.5558 0.0000
# 6 0.0000 0.0000 0.0000 0.0000 0.0000 50.9071
#
#
#
# Elastic Compliance Matrix: (Units=1/GPa)
#
#
# Indices 1 2 3 4 5 6 
#
# 1 0.009378 -0.004671 0.000001 0.000000 0.000000 0.000000
# 2 -0.004671 0.016072 -0.006801 0.000000 0.000000 0.000000
# 3 0.000001 -0.006801 0.017869 0.000000 0.000000 0.000000
# 4 0.000000 0.000000 0.000000 0.050047 0.000000 0.000000
# 5 0.000000 0.000000 0.000000 0.000000 0.079644 0.000000
# 6 0.000000 0.000000 0.000000 0.000000 0.000000 0.019644
#
#
# Mechanical properties :
#
#
# Convention : Reuss Voigt Hill
#
# Bulk Modulus (GPa) = 49.07255 53.20839 51.14047
# Shear Modulus (GPa) = 22.48306 29.46884 25.97595
#
# Velocity S-wave (km/s) = 3.13800 3.59259 3.37296
# Velocity P-wave (km/s) = 5.88405 6.36498 6.12923
#
# Compressibility (1/GPa) = 0.02037799
#
# Stress axis : x y z
#
# Youngs Moduli (GPa) = 106.62951 62.21815 55.96213
#
# Poissons Ratio (x) = 0.29064 -0.00005
# Poissons Ratio (y) = 0.49810 0.38057
# Poissons Ratio (z) = -0.00009 0.42312
#
# Static dielectric constant tensor:
#      x y z
#    x 4.126630 0.000000 0.000000 
#    y 0.000000 -0.484950 0.000000 
#    z 0.000000 0.000000 4.446450 
# 
# 
# High freq. dielectric constant tensor:
#      x y z
#    x 1.912440 0.000000 0.000000 
#    y 0.000000 1.924970 0.000000 
#    z 0.000000 0.000000 1.894830 
# 
# From -- ./inp_files/14288.got.cif
#   From: 2010.03.12/outbox.cif.g09.slc.cpg/sg56_8_cif.got.tgz:14288.got - 2010.04.16 15:33:40.
