data_PCOD8229068
_publ_section_title
;
Structure prediction by ZEFSAII (Michael W. Deem and Ramdas Pophale) SiO2 
 PCOD8229068
Probable space group: P C C N
;
_chemical_formula_sum "Si O2"
_cell_formula_units_Z 56
_cell_length_a 6.575847
_cell_length_b 29.634575
_cell_length_c 13.769533
_cell_angle_alpha 90.000000
_cell_angle_beta 90.000000
_cell_angle_gamma 90.000000
_cell_volume 2683.302371
_symmetry_space_group_name_H-M "P C C N"
_symmetry_group_IT_number 56
_symmetry_cell_setting 'orthorhombic'
loop_
_space_group_symop_operation_xyz
x,y,z
1/2-x,1/2-y,z
1/2+x,-y,1/2-z
-x,1/2+y,1/2-z
-x,-y,-z
1/2+x,1/2+y,-z
1/2-x,y,1/2+z
x,1/2-y,1/2+z
loop_
_atom_site_type_symbol
_atom_site_label
_atom_site_fract_x
_atom_site_fract_y
_atom_site_fract_z
Si Si1 0.112249 0.554330 0.076038
Si Si2 0.870092 0.692710 0.232327
Si Si3 0.063227 0.297188 0.439607
Si Si4 0.250000 0.750000 0.685646
Si Si5 0.726577 0.954883 0.923223
Si Si6 0.192763 0.408629 0.776571
Si Si7 0.496012 0.397132 0.944247
Si Si8 0.250000 0.250000 0.105968
O O1 0.244325 0.508798 0.086367
O O2 0.264395 0.596312 0.070484
O O3 0.967496 0.559045 0.169458
O O4 0.984154 0.556290 0.976911
O O5 0.766384 0.705292 0.128856
O O6 0.913095 0.639681 0.243469
O O7 0.717439 0.707420 0.320823
O O8 0.080244 0.721551 0.246020
O O9 0.068945 0.262639 0.530930
O O10 0.861537 0.287430 0.379151
O O11 0.046337 0.347238 0.485236
O O12 0.725871 0.932683 0.818496
O O13 0.916698 0.935182 0.982028
O O14 0.392440 0.401083 0.839838
#
# Coordination Sequence:
#
# PCOD8229068 Si02
#       8
#     8   8   8   4   8   8   8   4
#     4  10  22  41  66  95 126 165 213 258 311 388
#     4  11  23  42  61  91 130 161 211 267 314 371
#     4  11  23  41  62  91 127 164 208 263 320 366
#     4  12  20  42  64  88 124 168 208 268 306 378
#     4  10  22  41  64  96 129 163 207 261 318 376
#     4  10  23  40  63  92 129 169 206 262 323 374
#     4  10  22  41  63  92 127 166 206 265 317 371
#     4  12  20  42  62  84 122 170 196 264 310 368
#
# _framework density 20.869806000000001
#
# number of rings (size 3 to 8) (size 9 to 14) (size 15 to 20)
#    0.000    1.429    2.857    2.143    2.000    1.714 
#    2.571    1.429    0.000    0.000    0.000    0.000 
#    0.000    0.000    0.000    0.000    0.000    0.000 
#
# Total GULP energy -694158.863926 kJ/mol
# GULP energy per Si atom -12395.693999 kJ/mol
# Density = 2.082231 g / cm^3
# Si number density = 20.869806 Si / 1000 Ang^3
#
#
#
# Elastic Constant Matrix: (Units=GPa)
#
#
# Indices 1 2 3 4 5 6 
#
# 1 85.6995 45.8907 25.2363 0.0000 0.0000 0.0000
# 2 45.8907 114.6336 58.1386 0.0000 0.0000 0.0000
# 3 25.2363 58.1386 119.7606 0.0000 0.0000 0.0000
# 4 0.0000 0.0000 0.0000 29.3510 0.0000 0.0000
# 5 0.0000 0.0000 0.0000 0.0000 16.0961 0.0000
# 6 0.0000 0.0000 0.0000 0.0000 0.0000 36.7977
#
#
#
# Elastic Compliance Matrix: (Units=1/GPa)
#
#
# Indices 1 2 3 4 5 6 
#
# 1 0.014862 -0.005786 -0.000323 0.000000 0.000000 0.000000
# 2 -0.005786 0.013825 -0.005492 0.000000 0.000000 0.000000
# 3 -0.000323 -0.005492 0.011084 0.000000 0.000000 0.000000
# 4 0.000000 0.000000 0.000000 0.034070 0.000000 0.000000
# 5 0.000000 0.000000 0.000000 0.000000 0.062127 0.000000
# 6 0.000000 0.000000 0.000000 0.000000 0.000000 0.027176
#
#
# Mechanical properties :
#
#
# Convention : Reuss Voigt Hill
#
# Bulk Modulus (GPa) = 60.35278 64.29166 62.32222
# Shear Modulus (GPa) = 26.05936 29.17085 27.61511
#
# Velocity S-wave (km/s) = 3.53748 3.74271 3.64154
# Velocity P-wave (km/s) = 6.75770 7.03918 6.89988
#
# Compressibility (1/GPa) = 0.01656925
#
# Stress axis : x y z
#
# Youngs Moduli (GPa) = 67.28567 72.33173 90.21742
#
# Poissons Ratio (x) = 0.41850 0.02914
# Poissons Ratio (y) = 0.38930 0.49550
# Poissons Ratio (z) = 0.02173 0.39727
#
# Static dielectric constant tensor:
#      x y z
#    x 3.565720 0.000000 0.000000 
#    y 0.000000 4.009900 0.000000 
#    z 0.000000 0.000000 3.719000 
# 
# 
# High freq. dielectric constant tensor:
#      x y z
#    x 1.800790 0.000000 0.000000 
#    y 0.000000 1.830660 0.000000 
#    z 0.000000 0.000000 1.814370 
# 
# From -- ./inp_files/9859.got.cif
#   From: 2010.03.12/outbox.cif.g09.slc.cpg/sg56_5_cif.got.tgz:9859.got - 2010.04.16 15:33:40.
