data_PCOD8229786
_publ_section_title
;
Structure prediction by ZEFSAII (Michael W. Deem and Ramdas Pophale) SiO2 
 PCOD8229786
Probable space group: P C C N
;
_chemical_formula_sum "Si O2"
_cell_formula_units_Z 32
_cell_length_a 8.959639
_cell_length_b 8.068029
_cell_length_c 19.194579
_cell_angle_alpha 90.000000
_cell_angle_beta 90.000000
_cell_angle_gamma 90.000000
_cell_volume 1387.511378
_symmetry_space_group_name_H-M "P C C N"
_symmetry_group_IT_number 56
_symmetry_cell_setting 'orthorhombic'
loop_
_space_group_symop_operation_xyz
x,y,z
1/2-x,1/2-y,z
1/2+x,-y,1/2-z
-x,1/2+y,1/2-z
-x,-y,-z
1/2+x,1/2+y,-z
1/2-x,y,1/2+z
x,1/2-y,1/2+z
loop_
_atom_site_type_symbol
_atom_site_label
_atom_site_fract_x
_atom_site_fract_y
_atom_site_fract_z
Si Si1 0.563850 0.060240 0.428373
Si Si2 0.619394 0.368129 0.189239
Si Si3 0.117632 0.366022 0.200986
Si Si4 0.581956 0.059877 0.930355
O O1 0.740514 0.034049 0.432198
O O2 0.530612 0.253053 0.416069
O O3 0.500000 0.000000 0.500000
O O4 0.479175 0.952540 0.370557
O O5 0.750000 0.250000 0.158539
O O6 0.510005 0.250017 0.234848
O O7 0.683228 0.504657 0.242747
O O8 0.250000 0.250000 0.173546
O O9 0.032273 0.451279 0.135718
O O10 0.500000 0.000000 0.000000
#
# Coordination Sequence:
#
# PCOD8229786 Si02
#       4
#     8   8   8   8
#     4  11  26  47  72 107 146 190 248 303 367 445
#     4  12  27  45  75 110 149 193 247 305 376 440
#     4  12  25  48  74 106 148 195 249 302 365 440
#     4  11  26  47  75 102 145 195 245 304 367 439
#
# _framework density 23.062874999999998
#
# number of rings (size 3 to 8) (size 9 to 14) (size 15 to 20)
#    0.000    0.500    2.500    4.500   10.500    0.000 
#    0.000    0.000    0.000    0.000    0.000    0.000 
#    0.000    0.000    0.000    0.000    0.000    0.000 
#
# Total GULP energy -396649.910384 kJ/mol
# GULP energy per Si atom -12395.309699 kJ/mol
# Density = 2.301038 g / cm^3
# Si number density = 23.062875 Si / 1000 Ang^3
#
#
#
# Elastic Constant Matrix: (Units=GPa)
#
#
# Indices 1 2 3 4 5 6 
#
# 1 106.0616 81.6223 42.4755 0.0000 0.0000 0.0000
# 2 81.6223 170.1103 68.1160 0.0000 0.0000 0.0000
# 3 42.4755 68.1160 133.8833 0.0000 0.0000 0.0000
# 4 0.0000 0.0000 0.0000 34.9619 0.0000 0.0000
# 5 0.0000 0.0000 0.0000 0.0000 35.7967 0.0000
# 6 0.0000 0.0000 0.0000 0.0000 0.0000 50.9188
#
#
#
# Elastic Compliance Matrix: (Units=1/GPa)
#
#
# Indices 1 2 3 4 5 6 
#
# 1 0.015152 -0.006713 -0.001392 0.000000 0.000000 0.000000
# 2 -0.006713 0.010357 -0.003139 0.000000 0.000000 0.000000
# 3 -0.001392 -0.003139 0.009508 0.000000 0.000000 0.000000
# 4 0.000000 0.000000 0.000000 0.028603 0.000000 0.000000
# 5 0.000000 0.000000 0.000000 0.000000 0.027936 0.000000
# 6 0.000000 0.000000 0.000000 0.000000 0.000000 0.019639
#
#
# Mechanical properties :
#
#
# Convention : Reuss Voigt Hill
#
# Bulk Modulus (GPa) = 79.81871 88.27588 84.04730
# Shear Modulus (GPa) = 36.26919 38.85824 37.56371
#
# Velocity S-wave (km/s) = 3.96993 4.10919 4.04016
# Velocity P-wave (km/s) = 7.46312 7.80212 7.63450
#
# Compressibility (1/GPa) = 0.01252839
#
# Stress axis : x y z
#
# Youngs Moduli (GPa) = 65.99811 96.55642 105.17483
#
# Poissons Ratio (x) = 0.64818 0.14637
# Poissons Ratio (y) = 0.44304 0.33019
# Poissons Ratio (z) = 0.09185 0.30313
#
# Static dielectric constant tensor:
#      x y z
#    x 4.127300 0.000000 0.000000 
#    y 0.000000 4.681120 0.000000 
#    z 0.000000 0.000000 4.044690 
# 
# 
# High freq. dielectric constant tensor:
#      x y z
#    x 1.917260 0.000000 0.000000 
#    y 0.000000 1.944470 0.000000 
#    z 0.000000 0.000000 1.902760 
# 
# From -- ./inp_files/17768.got.cif
#   From: 2010.03.12/outbox.cif.g09.slc.cpg/sg56_9_cif.got.tgz:17768.got - 2010.04.16 15:33:40.
