data_PCOD8229833
_publ_section_title
;
Structure prediction by ZEFSAII (Michael W. Deem and Ramdas Pophale) SiO2 
 PCOD8229833
Probable space group: P C C N
;
_chemical_formula_sum "Si O2"
_cell_formula_units_Z 24
_cell_length_a 24.279758
_cell_length_b 4.799165
_cell_length_c 8.456209
_cell_angle_alpha 90.000000
_cell_angle_beta 90.000000
_cell_angle_gamma 90.000000
_cell_volume 985.339161
_symmetry_space_group_name_H-M "P C C N"
_symmetry_group_IT_number 56
_symmetry_cell_setting 'orthorhombic'
loop_
_space_group_symop_operation_xyz
x,y,z
1/2-x,1/2-y,z
1/2+x,-y,1/2-z
-x,1/2+y,1/2-z
-x,-y,-z
1/2+x,1/2+y,-z
1/2-x,y,1/2+z
x,1/2-y,1/2+z
loop_
_atom_site_type_symbol
_atom_site_label
_atom_site_fract_x
_atom_site_fract_y
_atom_site_fract_z
Si Si1 0.021389 0.127147 0.838560
Si Si2 0.688904 0.134483 0.935837
Si Si3 0.147541 0.381204 0.385323
O O1 0.011716 0.910363 0.695818
O O2 0.085467 0.203133 0.845115
O O3 0.000000 0.000000 0.000000
O O4 0.750000 0.250000 0.950248
O O5 0.677969 0.016816 0.763114
O O6 0.647724 0.392021 0.972663
O O7 0.680703 0.893951 0.065963
#
# Coordination Sequence:
#
# PCOD8229833 Si02
#       3
#     8   8   8
#     4  12  24  43  70 104 141 183 230 284 344 411
#     4  12  26  45  69  98 135 182 232 286 347 412
#     4  12  25  46  70 102 140 183 231 286 345 413
#
# _framework density 24.357095999999999
#
# number of rings (size 3 to 8) (size 9 to 14) (size 15 to 20)
#    0.000    0.000    0.000   11.000    0.000    2.667 
#    0.000    1.667    0.000    0.000    0.000    0.000 
#    0.000    0.000    0.000    0.000    0.000    0.000 
#
# Total GULP energy -297843.047466 kJ/mol
# GULP energy per Si atom -12410.126978 kJ/mol
# Density = 2.430166 g / cm^3
# Si number density = 24.357096 Si / 1000 Ang^3
#
#
#
# Elastic Constant Matrix: (Units=GPa)
#
#
# Indices 1 2 3 4 5 6 
#
# 1 148.5274 68.2857 64.0641 0.0000 0.0000 0.0000
# 2 68.2857 123.1474 16.0327 0.0000 0.0000 0.0000
# 3 64.0641 16.0327 77.0849 0.0000 0.0000 0.0000
# 4 0.0000 0.0000 0.0000 53.9933 0.0000 0.0000
# 5 0.0000 0.0000 0.0000 0.0000 38.6018 0.0000
# 6 0.0000 0.0000 0.0000 0.0000 0.0000 43.3914
#
#
#
# Elastic Compliance Matrix: (Units=1/GPa)
#
#
# Indices 1 2 3 4 5 6 
#
# 1 0.014271 -0.006546 -0.010499 0.000000 0.000000 0.000000
# 2 -0.006546 0.011349 0.003080 0.000000 0.000000 0.000000
# 3 -0.010499 0.003080 0.021057 0.000000 0.000000 0.000000
# 4 0.000000 0.000000 0.000000 0.018521 0.000000 0.000000
# 5 0.000000 0.000000 0.000000 0.000000 0.025906 0.000000
# 6 0.000000 0.000000 0.000000 0.000000 0.000000 0.023046
#
#
# Mechanical properties :
#
#
# Convention : Reuss Voigt Hill
#
# Bulk Modulus (GPa) = 53.34025 71.72496 62.53260
# Shear Modulus (GPa) = 33.70875 40.55578 37.13227
#
# Velocity S-wave (km/s) = 3.72417 4.08493 3.90871
# Velocity P-wave (km/s) = 6.35920 7.19445 6.78968
#
# Compressibility (1/GPa) = 0.01874757
#
# Stress axis : x y z
#
# Youngs Moduli (GPa) = 70.07268 88.11065 47.48917
#
# Poissons Ratio (x) = 0.57681 0.49858
# Poissons Ratio (y) = 0.45873 -0.14627
# Poissons Ratio (z) = 0.73568 -0.27139
#
# Static dielectric constant tensor:
#      x y z
#    x 4.484960 0.000000 0.000000 
#    y 0.000000 4.928480 0.000000 
#    z 0.000000 0.000000 4.578570 
# 
# 
# High freq. dielectric constant tensor:
#      x y z
#    x 1.971430 0.000000 0.000000 
#    y 0.000000 1.992550 0.000000 
#    z 0.000000 0.000000 1.981810 
# 
# From -- ./inp_files/1486.got.cif
#   From: 2010.03.12/outbox.cif.g09.slc.cpg/sg56_1_cif.got.tgz:1486.got - 2010.04.16 15:33:40.
