data_PCOD8229644
_publ_section_title
;
Structure prediction by ZEFSAII (Michael W. Deem and Ramdas Pophale) SiO2 
 PCOD8229644
Probable space group: P C C N
;
_chemical_formula_sum "Si O2"
_cell_formula_units_Z 64
_cell_length_a 12.500075
_cell_length_b 17.772187
_cell_length_c 13.729847
_cell_angle_alpha 90.000000
_cell_angle_beta 90.000000
_cell_angle_gamma 90.000000
_cell_volume 3050.135905
_symmetry_space_group_name_H-M "P C C N"
_symmetry_group_IT_number 56
_symmetry_cell_setting 'orthorhombic'
loop_
_space_group_symop_operation_xyz
x,y,z
1/2-x,1/2-y,z
1/2+x,-y,1/2-z
-x,1/2+y,1/2-z
-x,-y,-z
1/2+x,1/2+y,-z
1/2-x,y,1/2+z
x,1/2-y,1/2+z
loop_
_atom_site_type_symbol
_atom_site_label
_atom_site_fract_x
_atom_site_fract_y
_atom_site_fract_z
Si Si1 0.511321 0.744184 0.548045
Si Si2 0.162780 0.185623 0.808184
Si Si3 0.845448 0.192319 0.096541
Si Si4 0.157724 0.510571 0.130868
Si Si5 0.324941 0.575962 0.419467
Si Si6 0.531288 0.137727 0.773850
Si Si7 0.540564 0.855041 0.877937
Si Si8 0.314473 0.055472 0.771437
O O1 0.596528 0.802328 0.592985
O O2 0.411184 0.788932 0.501657
O O3 0.467976 0.687422 0.629363
O O4 0.577758 0.696639 0.468056
O O5 0.250000 0.250000 0.789856
O O6 0.077394 0.185936 0.720269
O O7 0.218329 0.104887 0.815771
O O8 0.750000 0.250000 0.114506
O O9 0.793749 0.109305 0.090589
O O10 0.926802 0.190871 0.187154
O O11 0.105040 0.564524 0.211602
O O12 0.086017 0.438129 0.110694
O O13 0.273656 0.485634 0.172840
O O14 0.164319 0.555690 0.031725
O O15 0.411259 0.639638 0.387072
O O16 0.346830 0.503663 0.353396
O O17 0.413026 0.109354 0.745287
#
# Coordination Sequence:
#
# PCOD8229644 Si02
#       8
#     8   8   8   8   8   8   8   8
#     4  12  25  44  68  99 136 181 235 285 349 420
#     4  11  26  45  67 102 141 183 230 292 357 404
#     4  12  27  44  68 105 139 179 230 288 348 417
#     4  11  23  41  69  99 132 183 230 279 345 411
#     4  12  23  43  69 100 136 180 230 280 344 412
#     4  12  23  45  71  97 142 185 229 291 353 414
#     4  11  23  43  70  97 133 178 236 277 337 426
#     4  11  25  44  67 102 136 180 233 287 344 419
#
# _framework density 20.982672999999998
#
# number of rings (size 3 to 8) (size 9 to 14) (size 15 to 20)
#    0.000    0.500    6.250    1.875    0.000    4.000 
#    0.000    1.250    0.000    0.000    0.000    0.000 
#    0.000    0.000    0.000    0.000    0.000    0.000 
#
# Total GULP energy -793802.583088 kJ/mol
# GULP energy per Si atom -12403.165361 kJ/mol
# Density = 2.093492 g / cm^3
# Si number density = 20.982673 Si / 1000 Ang^3
#
#
#
# Elastic Constant Matrix: (Units=GPa)
#
#
# Indices 1 2 3 4 5 6 
#
# 1 129.6940 49.2193 75.7423 0.0000 0.0000 0.0000
# 2 49.2193 58.2953 37.0907 0.0000 0.0000 0.0000
# 3 75.7423 37.0907 120.1940 0.0000 0.0000 0.0000
# 4 0.0000 0.0000 0.0000 29.0848 0.0000 0.0000
# 5 0.0000 0.0000 0.0000 0.0000 33.4582 0.0000
# 6 0.0000 0.0000 0.0000 0.0000 0.0000 37.8183
#
#
#
# Elastic Compliance Matrix: (Units=1/GPa)
#
#
# Indices 1 2 3 4 5 6 
#
# 1 0.014770 -0.008148 -0.006793 0.000000 0.000000 0.000000
# 2 -0.008148 0.025840 -0.002839 0.000000 0.000000 0.000000
# 3 -0.006793 -0.002839 0.013477 0.000000 0.000000 0.000000
# 4 0.000000 0.000000 0.000000 0.034382 0.000000 0.000000
# 5 0.000000 0.000000 0.000000 0.000000 0.029888 0.000000
# 6 0.000000 0.000000 0.000000 0.000000 0.000000 0.026442
#
#
# Mechanical properties :
#
#
# Convention : Reuss Voigt Hill
#
# Bulk Modulus (GPa) = 53.97886 70.25422 62.11654
# Shear Modulus (GPa) = 26.80448 29.81432 28.30940
#
# Velocity S-wave (km/s) = 3.57803 3.77357 3.67710
# Velocity P-wave (km/s) = 6.54607 7.24853 6.90624
#
# Compressibility (1/GPa) = 0.01852577
#
# Stress axis : x y z
#
# Youngs Moduli (GPa) = 67.70492 38.69936 74.20158
#
# Poissons Ratio (x) = 0.31534 0.50406
# Poissons Ratio (y) = 0.55168 0.21068
# Poissons Ratio (z) = 0.45992 0.10988
#
# Static dielectric constant tensor:
#      x y z
#    x 3.940040 0.000000 0.000000 
#    y 0.000000 3.977230 0.000000 
#    z 0.000000 0.000000 3.727860 
# 
# 
# High freq. dielectric constant tensor:
#      x y z
#    x 1.825310 0.000000 0.000000 
#    y 0.000000 1.840510 0.000000 
#    z 0.000000 0.000000 1.818630 
# 
# From -- ./inp_files/11865.got.cif
#   From: 2010.03.12/outbox.cif.g09.slc.cpg/sg56_6_cif.got.tgz:11865.got - 2010.04.16 15:33:40.
