data_PCOD8229106
_publ_section_title
;
Structure prediction by ZEFSAII (Michael W. Deem and Ramdas Pophale) SiO2 
 PCOD8229106
Probable space group: P C C N
;
_chemical_formula_sum "Si O2"
_cell_formula_units_Z 48
_cell_length_a 8.463777
_cell_length_b 23.829380
_cell_length_c 10.695309
_cell_angle_alpha 90.000000
_cell_angle_beta 90.000000
_cell_angle_gamma 90.000000
_cell_volume 2157.100063
_symmetry_space_group_name_H-M "P C C N"
_symmetry_group_IT_number 56
_symmetry_cell_setting 'orthorhombic'
loop_
_space_group_symop_operation_xyz
x,y,z
1/2-x,1/2-y,z
1/2+x,-y,1/2-z
-x,1/2+y,1/2-z
-x,-y,-z
1/2+x,1/2+y,-z
1/2-x,y,1/2+z
x,1/2-y,1/2+z
loop_
_atom_site_type_symbol
_atom_site_label
_atom_site_fract_x
_atom_site_fract_y
_atom_site_fract_z
Si Si1 0.012659 0.314295 0.868432
Si Si2 0.757429 0.643302 0.822144
Si Si3 0.750000 0.250000 0.215639
Si Si4 0.401434 0.643536 0.385245
Si Si5 0.750000 0.750000 0.989381
Si Si6 0.837004 0.975986 0.865117
Si Si7 0.708608 0.032210 0.618873
O O1 0.146621 0.350233 0.797694
O O2 0.095883 0.259411 0.926280
O O3 0.865616 0.290121 0.793404
O O4 0.954760 0.359542 0.970545
O O5 0.717119 0.586751 0.895090
O O6 0.946089 0.638859 0.792677
O O7 0.714441 0.695799 0.907756
O O8 0.840621 0.293101 0.127933
O O9 0.270976 0.595820 0.359417
O O10 0.024171 0.975209 0.864764
O O11 0.787203 0.994537 0.726092
O O12 0.755824 0.013074 0.975618
#
# Coordination Sequence:
#
# PCOD8229106 Si02
#       7
#     8   8   4   8   4   8   8
#     4  11  23  41  68 101 140 182 228 293 356 422
#     4  11  24  43  69  99 136 184 232 290 351 422
#     4  12  24  42  66 104 140 182 230 290 356 426
#     4  11  26  44  69 103 138 185 235 291 357 422
#     4  10  22  42  66 102 134 180 232 282 356 426
#     4  11  27  48  75 105 145 184 241 290 356 423
#     4  11  27  49  73 109 140 190 236 296 353 427
#
# _framework density 22.252096999999999
#
# number of rings (size 3 to 8) (size 9 to 14) (size 15 to 20)
#    0.000    1.000    0.000    6.000    9.333    2.667 
#    3.000    0.000    0.000    0.000    0.000    0.000 
#    0.000    0.000    0.000    0.000    0.000    0.000 
#
# Total GULP energy -594984.332995 kJ/mol
# GULP energy per Si atom -12395.506937 kJ/mol
# Density = 2.220145 g / cm^3
# Si number density = 22.252097 Si / 1000 Ang^3
#
#
#
# Elastic Constant Matrix: (Units=GPa)
#
#
# Indices 1 2 3 4 5 6 
#
# 1 102.6730 30.9670 52.4809 0.0000 0.0000 0.0000
# 2 30.9670 117.6591 28.0546 0.0000 0.0000 0.0000
# 3 52.4809 28.0546 103.6631 0.0000 0.0000 0.0000
# 4 0.0000 0.0000 0.0000 25.1614 0.0000 0.0000
# 5 0.0000 0.0000 0.0000 0.0000 277.0020 0.0000
# 6 0.0000 0.0000 0.0000 0.0000 0.0000 43.0461
#
#
#
# Elastic Compliance Matrix: (Units=1/GPa)
#
#
# Indices 1 2 3 4 5 6 
#
# 1 0.013596 -0.002071 -0.006323 0.000000 0.000000 0.000000
# 2 -0.002071 0.009401 -0.001496 0.000000 0.000000 0.000000
# 3 -0.006323 -0.001496 0.013252 0.000000 0.000000 0.000000
# 4 0.000000 0.000000 0.000000 0.039743 0.000000 0.000000
# 5 0.000000 0.000000 0.000000 0.000000 0.003610 0.000000
# 6 0.000000 0.000000 0.000000 0.000000 0.000000 0.023231
#
#
# Mechanical properties :
#
#
# Convention : Reuss Voigt Hill
#
# Bulk Modulus (GPa) = 60.71424 60.77777 60.74601
# Shear Modulus (GPa) = 39.03119 83.20808 61.11964
#
# Velocity S-wave (km/s) = 4.19268 6.12165 5.24657
# Velocity P-wave (km/s) = 7.12615 8.79424 8.00377
#
# Compressibility (1/GPa) = 0.01647060
#
# Stress axis : x y z
#
# Youngs Moduli (GPa) = 73.55057 106.37387 75.45783
#
# Poissons Ratio (x) = 0.22028 0.47710
# Poissons Ratio (y) = 0.15231 0.11287
# Poissons Ratio (z) = 0.46504 0.15911
#
# Static dielectric constant tensor:
#      x y z
#    x 4.266560 0.000000 0.000000 
#    y 0.000000 4.051530 0.000000 
#    z 0.000000 0.000000 4.239290 
# 
# 
# High freq. dielectric constant tensor:
#      x y z
#    x 1.892940 0.000000 0.000000 
#    y 0.000000 1.883060 0.000000 
#    z 0.000000 0.000000 1.876860 
# 
# From -- ./inp_files/6436.got.cif
#   From: 2010.03.12/outbox.cif.g09.slc.cpg/sg56_4_cif.got.tgz:6436.got - 2010.04.16 15:33:40.
