data_PCOD8229878
_publ_section_title
;
Structure prediction by ZEFSAII (Michael W. Deem and Ramdas Pophale) SiO2 
 PCOD8229878
Probable space group: P B C M
;
_chemical_formula_sum "Si O2"
_cell_formula_units_Z 48
_cell_length_a 27.704842
_cell_length_b 5.199480
_cell_length_c 17.832361
_cell_angle_alpha 90.000000
_cell_angle_beta 90.000000
_cell_angle_gamma 90.000000
_cell_volume 2568.765367
_symmetry_space_group_name_H-M "P B C M"
_symmetry_group_IT_number 57
_symmetry_cell_setting 'orthorhombic'
loop_
_space_group_symop_operation_xyz
x,y,z
-x,-y,1/2+z
x,1/2-y,-z
-x,1/2+y,1/2-z
-x,-y,-z
x,y,1/2-z
-x,1/2+y,z
x,1/2-y,1/2+z
loop_
_atom_site_type_symbol
_atom_site_label
_atom_site_fract_x
_atom_site_fract_y
_atom_site_fract_z
Si Si1 0.473859 0.217997 0.588619
Si Si2 0.231054 0.497650 0.950036
Si Si3 0.685010 0.078615 0.835195
Si Si4 0.376080 0.067116 0.664675
Si Si5 0.979287 0.006048 0.914235
Si Si6 0.875012 0.503015 0.047740
O O1 0.475592 0.250000 0.500000
O O2 0.489522 0.497572 0.620290
O O3 0.421002 0.130444 0.612280
O O4 0.266593 0.547949 0.881851
O O5 0.177439 0.450500 0.913911
O O6 0.232328 0.750000 0.000000
O O7 0.246147 0.250000 0.000000
O O8 0.699624 0.145002 0.750000
O O9 0.651173 0.311383 0.865744
O O10 0.658642 0.808662 0.840670
O O11 0.393734 0.022295 0.750000
O O12 0.921712 0.036266 0.900564
O O13 0.003335 0.248674 0.872732
O O14 0.000000 0.000000 0.000000
O O15 0.868509 0.250000 0.000000
O O16 0.889348 0.750000 0.000000
#
# Coordination Sequence:
#
# PCOD8229878 Si02
#       6
#     8   8   8   8   8   8
#     4  10  21  36  53  78 110 138 164 199 249 303
#     4  10  21  33  50  74 103 131 165 214 260 303
#     4  10  21  38  55  75 103 135 175 215 258 308
#     4  10  21  36  57  79 100 133 175 216 250 295
#     4  10  14  20  34  53  81 121 154 181 235 300
#     4  10  16  25  37  59  90 123 152 197 243 295
#
# _framework density 18.686018000000001
#
# number of rings (size 3 to 8) (size 9 to 14) (size 15 to 20)
#    0.000    2.000    3.333    2.000    0.000    2.667 
#    0.000    0.000    0.000    0.000    0.000    0.000 
#    0.000    1.333    0.000    0.000    0.000    6.667 
#
# Total GULP energy -594667.061681 kJ/mol
# GULP energy per Si atom -12388.897118 kJ/mol
# Density = 1.864349 g / cm^3
# Si number density = 18.686018 Si / 1000 Ang^3
#
#
#
# Elastic Constant Matrix: (Units=GPa)
#
#
# Indices 1 2 3 4 5 6 
#
# 1 126.7414 23.8075 36.0744 0.0000 0.0000 0.0000
# 2 23.8075 127.7339 20.3749 0.0000 0.0000 0.0000
# 3 36.0744 20.3749 24.8811 0.0000 0.0000 0.0000
# 4 0.0000 0.0000 0.0000 11.2108 0.0000 0.0000
# 5 0.0000 0.0000 0.0000 0.0000 0.7282 0.0000
# 6 0.0000 0.0000 0.0000 0.0000 0.0000 38.0858
#
#
#
# Elastic Compliance Matrix: (Units=1/GPa)
#
#
# Indices 1 2 3 4 5 6 
#
# 1 0.013488 0.000696 -0.020126 0.000000 0.000000 0.000000
# 2 0.000696 0.009041 -0.008413 0.000000 0.000000 0.000000
# 3 -0.020126 -0.008413 0.076260 0.000000 0.000000 0.000000
# 4 0.000000 0.000000 0.000000 0.089200 0.000000 0.000000
# 5 0.000000 0.000000 0.000000 0.000000 1.373241 0.000000
# 6 0.000000 0.000000 0.000000 0.000000 0.000000 0.026257
#
#
# Mechanical properties :
#
#
# Convention : Reuss Voigt Hill
#
# Bulk Modulus (GPa) = 23.19974 48.87443 36.03708
# Shear Modulus (GPa) = 3.01652 23.27826 13.14739
#
# Velocity S-wave (km/s) = 1.27194 3.53336 2.65541
# Velocity P-wave (km/s) = 3.82094 6.54665 5.35995
#
# Compressibility (1/GPa) = 0.04310394
#
# Stress axis : x y z
#
# Youngs Moduli (GPa) = 74.14216 110.60745 13.11301
#
# Poissons Ratio (x) = -0.07702 0.26391
# Poissons Ratio (y) = -0.05163 0.11032
# Poissons Ratio (z) = 1.49215 0.93056
#
# Static dielectric constant tensor:
#      x y z
#    x 3.745550 0.000000 0.000000 
#    y 0.000000 4.456140 0.000000 
#    z 0.000000 0.000000 2.892380 
# 
# 
# High freq. dielectric constant tensor:
#      x y z
#    x 1.740200 0.000000 0.000000 
#    y 0.000000 1.764530 0.000000 
#    z 0.000000 0.000000 1.651960 
# 
# From -- ./inp_files/19576.got.cif
#   From: 2010.03.12/outbox.cif.g09.slc.cpg/sg57_10_cif.got.tgz:19576.got - 2010.04.16 15:48:40.
