data_PCOD8229725
_publ_section_title
;
Structure prediction by ZEFSAII (Michael W. Deem and Ramdas Pophale) SiO2 
 PCOD8229725
Probable space group: P C C N
;
_chemical_formula_sum "Si O2"
_cell_formula_units_Z 64
_cell_length_a 13.639889
_cell_length_b 22.132231
_cell_length_c 9.274299
_cell_angle_alpha 90.000000
_cell_angle_beta 90.000000
_cell_angle_gamma 90.000000
_cell_volume 2799.736272
_symmetry_space_group_name_H-M "P C C N"
_symmetry_group_IT_number 56
_symmetry_cell_setting 'orthorhombic'
loop_
_space_group_symop_operation_xyz
x,y,z
1/2-x,1/2-y,z
1/2+x,-y,1/2-z
-x,1/2+y,1/2-z
-x,-y,-z
1/2+x,1/2+y,-z
1/2-x,y,1/2+z
x,1/2-y,1/2+z
loop_
_atom_site_type_symbol
_atom_site_label
_atom_site_fract_x
_atom_site_fract_y
_atom_site_fract_z
Si Si1 0.197033 0.373991 0.072365
Si Si2 0.991102 0.942768 0.897215
Si Si3 0.812234 0.949068 0.697438
Si Si4 0.233377 0.652502 0.603915
Si Si5 0.607105 0.823720 0.500361
Si Si6 0.352724 0.757531 0.957079
Si Si7 0.290178 0.574372 0.851384
Si Si8 0.552180 0.778133 0.804334
O O1 0.245388 0.401536 0.215684
O O2 0.276923 0.334509 0.984177
O O3 0.103607 0.334218 0.116087
O O4 0.163289 0.426141 0.963217
O O5 0.915503 0.960086 0.772846
O O6 0.951217 0.886584 0.990936
O O7 0.093513 0.927090 0.820511
O O8 0.000000 0.000000 0.000000
O O9 0.754308 0.010888 0.689309
O O10 0.139503 0.695013 0.554256
O O11 0.335454 0.687696 0.570301
O O12 0.237108 0.630527 0.768817
O O13 0.227910 0.588826 0.518605
O O14 0.564607 0.783885 0.632445
O O15 0.597512 0.785533 0.352979
O O16 0.250000 0.750000 0.863930
O O17 0.438584 0.773724 0.848679
#
# Coordination Sequence:
#
# PCOD8229725 Si02
#       8
#     8   8   8   8   8   8   8   8
#     4  11  24  46  68 102 147 186 239 303 363 436
#     4  11  26  46  75 102 147 195 246 304 367 434
#     4  11  25  44  70 102 144 186 248 304 355 433
#     4   9  23  40  67  95 142 175 241 294 359 428
#     4  11  27  45  71 112 140 190 244 297 361 448
#     4   8  23  44  62 104 138 181 232 303 354 439
#     4  12  22  45  70  99 137 198 236 296 367 428
#     4  12  25  43  77 101 148 190 237 293 382 430
#
# _framework density 22.859296000000001
#
# number of rings (size 3 to 8) (size 9 to 14) (size 15 to 20)
#    0.750    0.500    1.250    4.125    5.250    7.000 
#    0.000    1.250    0.000    0.000    0.000    0.000 
#    0.000    0.000    0.000    0.000    0.000    0.000 
#
# Total GULP energy -793267.778576 kJ/mol
# GULP energy per Si atom -12394.809040 kJ/mol
# Density = 2.280727 g / cm^3
# Si number density = 22.859296 Si / 1000 Ang^3
#
#
#
# Elastic Constant Matrix: (Units=GPa)
#
#
# Indices 1 2 3 4 5 6 
#
# 1 117.0981 39.0241 19.8224 0.0000 0.0000 0.0000
# 2 39.0241 107.9673 37.2250 0.0000 0.0000 0.0000
# 3 19.8224 37.2250 84.2533 0.0000 0.0000 0.0000
# 4 0.0000 0.0000 0.0000 33.0827 0.0000 0.0000
# 5 0.0000 0.0000 0.0000 0.0000 28.2009 0.0000
# 6 0.0000 0.0000 0.0000 0.0000 0.0000 39.7148
#
#
#
# Elastic Compliance Matrix: (Units=1/GPa)
#
#
# Indices 1 2 3 4 5 6 
#
# 1 0.009763 -0.003229 -0.000870 0.000000 0.000000 0.000000
# 2 -0.003229 0.011994 -0.004540 0.000000 0.000000 0.000000
# 3 -0.000870 -0.004540 0.014080 0.000000 0.000000 0.000000
# 4 0.000000 0.000000 0.000000 0.030227 0.000000 0.000000
# 5 0.000000 0.000000 0.000000 0.000000 0.035460 0.000000
# 6 0.000000 0.000000 0.000000 0.000000 0.000000 0.025180
#
#
# Mechanical properties :
#
#
# Convention : Reuss Voigt Hill
#
# Bulk Modulus (GPa) = 53.88174 55.71794 54.79984
# Shear Modulus (GPa) = 33.29608 34.41617 33.85612
#
# Velocity S-wave (km/s) = 3.82064 3.88437 3.85264
# Velocity P-wave (km/s) = 6.56394 6.67420 6.61930
#
# Compressibility (1/GPa) = 0.01855916
#
# Stress axis : x y z
#
# Youngs Moduli (GPa) = 102.42534 83.37315 71.02522
#
# Poissons Ratio (x) = 0.26919 0.06183
# Poissons Ratio (y) = 0.33070 0.32243
# Poissons Ratio (z) = 0.08916 0.37849
#
# Static dielectric constant tensor:
#      x y z
#    x 4.094150 0.000000 0.000000 
#    y 0.000000 4.198310 0.000000 
#    z 0.000000 0.000000 4.017200 
# 
# 
# High freq. dielectric constant tensor:
#      x y z
#    x 1.896500 0.000000 0.000000 
#    y 0.000000 1.915170 0.000000 
#    z 0.000000 0.000000 1.899440 
# 
# From -- ./inp_files/3702.got.cif
#   From: 2010.03.12/outbox.cif.g09.slc.cpg/sg56_2_cif.got.tgz:3702.got - 2010.04.16 15:33:40.
