data_PCOD8229325
_publ_section_title
;
Structure prediction by ZEFSAII (Michael W. Deem and Ramdas Pophale) SiO2 
 PCOD8229325
Probable space group: P C C N
;
_chemical_formula_sum "Si O2"
_cell_formula_units_Z 48
_cell_length_a 14.791559
_cell_length_b 8.448164
_cell_length_c 17.244394
_cell_angle_alpha 90.000000
_cell_angle_beta 90.000000
_cell_angle_gamma 90.000000
_cell_volume 2154.885621
_symmetry_space_group_name_H-M "P C C N"
_symmetry_group_IT_number 56
_symmetry_cell_setting 'orthorhombic'
loop_
_space_group_symop_operation_xyz
x,y,z
1/2-x,1/2-y,z
1/2+x,-y,1/2-z
-x,1/2+y,1/2-z
-x,-y,-z
1/2+x,1/2+y,-z
1/2-x,y,1/2+z
x,1/2-y,1/2+z
loop_
_atom_site_type_symbol
_atom_site_label
_atom_site_fract_x
_atom_site_fract_y
_atom_site_fract_z
Si Si1 0.937605 0.060015 0.815858
Si Si2 0.340850 0.805295 0.935898
Si Si3 0.761801 0.433484 0.855266
Si Si4 0.000122 0.677812 0.529280
Si Si5 0.174145 0.125933 0.495601
Si Si6 0.894436 0.153835 0.219570
O O1 0.839136 0.991061 0.842701
O O2 0.987233 0.172617 0.878646
O O3 0.916703 0.168886 0.743594
O O4 0.008286 0.926976 0.790873
O O5 0.250000 0.750000 0.978888
O O6 0.346404 0.687937 0.862154
O O7 0.418757 0.777770 0.996428
O O8 0.336220 0.996925 0.925788
O O9 0.750000 0.250000 0.878356
O O10 0.808260 0.535956 0.922849
O O11 0.826235 0.439425 0.777801
O O12 0.000000 0.500000 0.500000
O O13 0.913969 0.768144 0.497844
O O14 0.250000 0.250000 0.471636
#
# Coordination Sequence:
#
# PCOD8229325 Si02
#       6
#     8   8   8   8   8   8
#     4  11  24  45  69  99 145 187 237 284 364 428
#     4  12  24  44  72 102 144 182 234 297 357 413
#     4  10  23  49  71 101 141 196 239 286 365 432
#     4  12  25  46  69 105 140 187 234 296 353 423
#     4  12  27  43  75 108 140 188 241 296 356 426
#     4  11  26  42  73 103 142 192 229 293 356 429
#
# _framework density 22.274964000000001
#
# number of rings (size 3 to 8) (size 9 to 14) (size 15 to 20)
#    0.000    0.667    1.667    7.500    4.667    0.000 
#    0.000    0.000    0.000    0.000    0.000    0.000 
#    0.000    0.000    0.000    0.000    0.000    0.000 
#
# Total GULP energy -594812.200158 kJ/mol
# GULP energy per Si atom -12391.920837 kJ/mol
# Density = 2.222427 g / cm^3
# Si number density = 22.274964 Si / 1000 Ang^3
#
#
#
# Elastic Constant Matrix: (Units=GPa)
#
#
# Indices 1 2 3 4 5 6 
#
# 1 174.9643 41.1498 10.5830 0.0000 0.0000 0.0000
# 2 41.1498 79.4517 -17.0293 0.0000 0.0000 0.0000
# 3 10.5830 -17.0293 41.8996 0.0000 0.0000 0.0000
# 4 0.0000 0.0000 0.0000 37.9525 0.0000 0.0000
# 5 0.0000 0.0000 0.0000 0.0000 25.8188 0.0000
# 6 0.0000 0.0000 0.0000 0.0000 0.0000 56.1518
#
#
#
# Elastic Compliance Matrix: (Units=1/GPa)
#
#
# Indices 1 2 3 4 5 6 
#
# 1 0.006954 -0.004357 -0.003527 0.000000 0.000000 0.000000
# 2 -0.004357 0.016518 0.007814 0.000000 0.000000 0.000000
# 3 -0.003527 0.007814 0.027933 0.000000 0.000000 0.000000
# 4 0.000000 0.000000 0.000000 0.026349 0.000000 0.000000
# 5 0.000000 0.000000 0.000000 0.000000 0.038731 0.000000
# 6 0.000000 0.000000 0.000000 0.000000 0.000000 0.017809
#
#
# Mechanical properties :
#
#
# Convention : Reuss Voigt Hill
#
# Bulk Modulus (GPa) = 19.50713 40.63581 30.07147
# Shear Modulus (GPa) = 32.99819 41.42543 37.21181
#
# Velocity S-wave (km/s) = 3.85308 4.31714 4.09169
# Velocity P-wave (km/s) = 5.34522 6.56755 5.98765
#
# Compressibility (1/GPa) = 0.05126330
#
# Stress axis : x y z
#
# Youngs Moduli (GPa) = 143.80946 60.54028 35.79946
#
# Poissons Ratio (x) = 0.26380 0.12628
# Poissons Ratio (y) = 0.62665 -0.27974
# Poissons Ratio (z) = 0.50727 -0.47306
#
# Static dielectric constant tensor:
#      x y z
#    x 5.337400 0.000000 0.000000 
#    y 0.000000 4.103590 0.000000 
#    z 0.000000 0.000000 4.460100 
# 
# 
# High freq. dielectric constant tensor:
#      x y z
#    x 1.903780 0.000000 0.000000 
#    y 0.000000 1.871550 0.000000 
#    z 0.000000 0.000000 1.875150 
# 
# From -- ./inp_files/16166.got.cif
#   From: 2010.03.12/outbox.cif.g09.slc.cpg/sg56_9_cif.got.tgz:16166.got - 2010.04.16 15:33:40.
