data_PCOD8229419
_publ_section_title
;
Structure prediction by ZEFSAII (Michael W. Deem and Ramdas Pophale) SiO2 
 PCOD8229419
Probable space group: P C C N
;
_chemical_formula_sum "Si O2"
_cell_formula_units_Z 40
_cell_length_a 12.577520
_cell_length_b 7.356356
_cell_length_c 18.767200
_cell_angle_alpha 90.000000
_cell_angle_beta 90.000000
_cell_angle_gamma 90.000000
_cell_volume 1736.429826
_symmetry_space_group_name_H-M "P C C N"
_symmetry_group_IT_number 56
_symmetry_cell_setting 'orthorhombic'
loop_
_space_group_symop_operation_xyz
x,y,z
1/2-x,1/2-y,z
1/2+x,-y,1/2-z
-x,1/2+y,1/2-z
-x,-y,-z
1/2+x,1/2+y,-z
1/2-x,y,1/2+z
x,1/2-y,1/2+z
loop_
_atom_site_type_symbol
_atom_site_label
_atom_site_fract_x
_atom_site_fract_y
_atom_site_fract_z
Si Si1 0.193243 0.564282 0.133639
Si Si2 0.750000 0.250000 0.112693
Si Si3 0.838260 0.012624 0.733629
Si Si4 0.750000 0.750000 0.974307
Si Si5 0.498376 0.239244 0.316822
Si Si6 0.090276 0.477557 0.443188
O O1 0.250000 0.750000 0.108192
O O2 0.247309 0.493881 0.206731
O O3 0.206124 0.413961 0.073354
O O4 0.067370 0.602355 0.144267
O O5 0.711121 0.081408 0.160055
O O6 0.656131 0.333902 0.064105
O O7 0.927370 0.157073 0.755951
O O8 0.892362 0.818244 0.719688
O O9 0.659380 0.687837 0.027853
O O10 0.463811 0.077000 0.368758
O O11 0.000000 0.500000 0.500000
#
# Coordination Sequence:
#
# PCOD8229419 Si02
#       6
#     8   4   8   4   8   8
#     4  10  24  46  71 106 146 184 244 310 364 441
#     4  12  26  48  72 106 150 190 242 328 356 446
#     4  11  23  45  70 109 140 183 246 316 376 433
#     4  12  28  46  74 108 144 208 240 300 366 446
#     4  11  24  43  73 103 141 196 241 309 379 440
#     4  12  29  48  72 107 151 200 254 296 371 457
#
# _framework density 23.035772000000001
#
# number of rings (size 3 to 8) (size 9 to 14) (size 15 to 20)
#    0.000    0.800    3.000    4.800    9.800    0.800 
#    0.000    0.000    0.000    0.000    0.000    0.000 
#    0.000    0.000    0.000    0.000    0.000    0.000 
#
# Total GULP energy -496199.900338 kJ/mol
# GULP energy per Si atom -12404.997508 kJ/mol
# Density = 2.298334 g / cm^3
# Si number density = 23.035772 Si / 1000 Ang^3
#
#
#
# Elastic Constant Matrix: (Units=GPa)
#
#
# Indices 1 2 3 4 5 6 
#
# 1 105.3439 14.2640 22.7739 0.0000 0.0000 0.0000
# 2 14.2640 49.1928 11.9779 0.0000 0.0000 0.0000
# 3 22.7739 11.9779 63.4620 0.0000 0.0000 0.0000
# 4 0.0000 0.0000 0.0000 56.2028 0.0000 0.0000
# 5 0.0000 0.0000 0.0000 0.0000 38.5455 0.0000
# 6 0.0000 0.0000 0.0000 0.0000 0.0000 53.0092
#
#
#
# Elastic Compliance Matrix: (Units=1/GPa)
#
#
# Indices 1 2 3 4 5 6 
#
# 1 0.010520 -0.002234 -0.003354 0.000000 0.000000 0.000000
# 2 -0.002234 0.021782 -0.003309 0.000000 0.000000 0.000000
# 3 -0.003354 -0.003309 0.017586 0.000000 0.000000 0.000000
# 4 0.000000 0.000000 0.000000 0.017793 0.000000 0.000000
# 5 0.000000 0.000000 0.000000 0.000000 0.025943 0.000000
# 6 0.000000 0.000000 0.000000 0.000000 0.000000 0.018865
#
#
# Mechanical properties :
#
#
# Convention : Reuss Voigt Hill
#
# Bulk Modulus (GPa) = 31.15890 35.11445 33.13667
# Shear Modulus (GPa) = 35.46602 40.81702 38.14152
#
# Velocity S-wave (km/s) = 3.92804 4.21396 4.07351
# Velocity P-wave (km/s) = 5.84195 6.24124 6.04489
#
# Compressibility (1/GPa) = 0.03209356
#
# Stress axis : x y z
#
# Youngs Moduli (GPa) = 95.05520 45.91007 56.86481
#
# Poissons Ratio (x) = 0.10256 0.19070
# Poissons Ratio (y) = 0.21234 0.18819
# Poissons Ratio (z) = 0.31878 0.15194
#
# Static dielectric constant tensor:
#      x y z
#    x 4.349610 0.000000 0.000000 
#    y 0.000000 4.103360 0.000000 
#    z 0.000000 0.000000 4.196530 
# 
# 
# High freq. dielectric constant tensor:
#      x y z
#    x 1.923580 0.000000 0.000000 
#    y 0.000000 1.908740 0.000000 
#    z 0.000000 0.000000 1.911870 
# 
# From -- ./inp_files/15450.got.cif
#   From: 2010.03.12/outbox.cif.g09.slc.cpg/sg56_8_cif.got.tgz:15450.got - 2010.04.16 15:33:40.
