data_PCOD8229581
_publ_section_title
;
Structure prediction by ZEFSAII (Michael W. Deem and Ramdas Pophale) SiO2 
 PCOD8229581
Probable space group: P C C N
;
_chemical_formula_sum "Si O2"
_cell_formula_units_Z 60
_cell_length_a 6.653515
_cell_length_b 20.027644
_cell_length_c 20.535927
_cell_angle_alpha 90.000000
_cell_angle_beta 90.000000
_cell_angle_gamma 90.000000
_cell_volume 2736.499135
_symmetry_space_group_name_H-M "P C C N"
_symmetry_group_IT_number 56
_symmetry_cell_setting 'orthorhombic'
loop_
_space_group_symop_operation_xyz
x,y,z
1/2-x,1/2-y,z
1/2+x,-y,1/2-z
-x,1/2+y,1/2-z
-x,-y,-z
1/2+x,1/2+y,-z
1/2-x,y,1/2+z
x,1/2-y,1/2+z
loop_
_atom_site_type_symbol
_atom_site_label
_atom_site_fract_x
_atom_site_fract_y
_atom_site_fract_z
Si Si1 0.929584 0.302211 0.009308
Si Si2 0.523952 0.997833 0.398222
Si Si3 0.193727 0.545942 0.994938
Si Si4 0.393313 0.097680 0.298693
Si Si5 0.250000 0.250000 0.610782
Si Si6 0.614524 0.689200 0.629251
Si Si7 0.215748 0.822532 0.734722
Si Si8 0.381956 0.379537 0.181759
O O1 0.750000 0.250000 0.997276
O O2 0.849324 0.377049 0.023520
O O3 0.061780 0.274878 0.068525
O O4 0.072409 0.306023 0.946915
O O5 0.322999 0.989001 0.439239
O O6 0.611987 0.924770 0.382739
O O7 0.685405 0.043116 0.436716
O O8 0.479390 0.028908 0.327257
O O9 0.000000 0.500000 0.000000
O O10 0.246056 0.123883 0.355662
O O11 0.571762 0.147992 0.284237
O O12 0.271873 0.086383 0.232282
O O13 0.189712 0.307547 0.660103
O O14 0.750000 0.750000 0.654136
O O15 0.407271 0.687642 0.668149
O O16 0.250000 0.750000 0.767597
O O17 0.100551 0.871022 0.784891
#
# Coordination Sequence:
#
# PCOD8229581 Si02
#       8
#     8   8   8   8   4   8   8   8
#     4  12  26  42  72 105 135 178 232 284 353 421
#     4  11  26  46  68 101 138 179 243 281 346 425
#     4  11  25  47  73  98 141 189 226 294 359 418
#     4  11  25  43  68  96 140 178 228 284 342 415
#     4  12  26  48  66 100 142 176 228 296 354 416
#     4  11  22  39  65 101 135 168 217 284 343 402
#     4  11  22  40  67  96 130 177 223 273 349 410
#     4  11  27  44  67  98 138 182 228 289 344 417
#
# _framework density 21.925823999999999
#
# number of rings (size 3 to 8) (size 9 to 14) (size 15 to 20)
#    0.000    0.800    2.000    4.400    5.600    8.000 
#    0.000    0.000    0.000    0.000    0.000    0.000 
#    0.000    0.000    0.000    0.000    0.000    0.000 
#
# Total GULP energy -744211.347062 kJ/mol
# GULP energy per Si atom -12403.522451 kJ/mol
# Density = 2.187592 g / cm^3
# Si number density = 21.925824 Si / 1000 Ang^3
#
#
#
# Elastic Constant Matrix: (Units=GPa)
#
#
# Indices 1 2 3 4 5 6 
#
# 1 121.9626 32.5098 36.1074 0.0000 0.0000 0.0000
# 2 32.5098 108.1964 21.0260 0.0000 0.0000 0.0000
# 3 36.1074 21.0260 100.7300 0.0000 0.0000 0.0000
# 4 0.0000 0.0000 0.0000 27.9655 0.0000 0.0000
# 5 0.0000 0.0000 0.0000 0.0000 16.7327 0.0000
# 6 0.0000 0.0000 0.0000 0.0000 0.0000 32.6842
#
#
#
# Elastic Compliance Matrix: (Units=1/GPa)
#
#
# Indices 1 2 3 4 5 6 
#
# 1 0.009708 -0.002335 -0.002992 0.000000 0.000000 0.000000
# 2 -0.002335 0.010195 -0.001291 0.000000 0.000000 0.000000
# 3 -0.002992 -0.001291 0.011270 0.000000 0.000000 0.000000
# 4 0.000000 0.000000 0.000000 0.035758 0.000000 0.000000
# 5 0.000000 0.000000 0.000000 0.000000 0.059763 0.000000
# 6 0.000000 0.000000 0.000000 0.000000 0.000000 0.030596
#
#
# Mechanical properties :
#
#
# Convention : Reuss Voigt Hill
#
# Bulk Modulus (GPa) = 55.75671 56.68616 56.22144
# Shear Modulus (GPa) = 28.32777 31.55952 29.94364
#
# Velocity S-wave (km/s) = 3.59831 3.79803 3.69952
# Velocity P-wave (km/s) = 6.53825 6.71886 6.62917
#
# Compressibility (1/GPa) = 0.01793506
#
# Stress axis : x y z
#
# Youngs Moduli (GPa) = 103.01186 98.08704 88.73421
#
# Poissons Ratio (x) = 0.22907 0.26552
# Poissons Ratio (y) = 0.24057 0.11455
# Poissons Ratio (z) = 0.30824 0.12663
#
# Static dielectric constant tensor:
#      x y z
#    x 4.097590 0.000000 0.000000 
#    y 0.000000 4.019100 0.000000 
#    z 0.000000 0.000000 3.880200 
# 
# 
# High freq. dielectric constant tensor:
#      x y z
#    x 1.878290 0.000000 0.000000 
#    y 0.000000 1.869670 0.000000 
#    z 0.000000 0.000000 1.863770 
# 
# From -- ./inp_files/17672.got.cif
#   From: 2010.03.12/outbox.cif.g09.slc.cpg/sg56_9_cif.got.tgz:17672.got - 2010.04.16 15:33:40.
