data_PCOD8229468
_publ_section_title
;
Structure prediction by ZEFSAII (Michael W. Deem and Ramdas Pophale) SiO2 
 PCOD8229468
Probable space group: P C C N
;
_chemical_formula_sum "Si O2"
_cell_formula_units_Z 48
_cell_length_a 17.558042
_cell_length_b 9.486343
_cell_length_c 10.408171
_cell_angle_alpha 90.000000
_cell_angle_beta 90.000000
_cell_angle_gamma 90.000000
_cell_volume 1733.601707
_symmetry_space_group_name_H-M "P C C N"
_symmetry_group_IT_number 56
_symmetry_cell_setting 'orthorhombic'
loop_
_space_group_symop_operation_xyz
x,y,z
1/2-x,1/2-y,z
1/2+x,-y,1/2-z
-x,1/2+y,1/2-z
-x,-y,-z
1/2+x,1/2+y,-z
1/2-x,y,1/2+z
x,1/2-y,1/2+z
loop_
_atom_site_type_symbol
_atom_site_label
_atom_site_fract_x
_atom_site_fract_y
_atom_site_fract_z
Si Si1 0.884797 0.508582 0.635945
Si Si2 0.729972 0.978389 0.267669
Si Si3 0.619952 0.772364 0.407175
Si Si4 0.864073 0.025121 0.527792
Si Si5 0.357991 0.689208 0.082598
Si Si6 0.013416 0.879993 0.287391
O O1 0.818063 0.551961 0.736124
O O2 0.894794 0.626859 0.527097
O O3 0.877182 0.357823 0.564810
O O4 0.960063 0.501367 0.722830
O O5 0.816266 0.661034 0.312637
O O6 0.699046 0.040206 0.135530
O O7 0.717111 0.102270 0.373697
O O8 0.650179 0.623468 0.459411
O O9 0.540427 0.750887 0.330742
O O10 0.846036 0.143785 0.420993
O O11 0.948058 0.046173 0.588702
O O12 0.425461 0.663219 0.182157
#
# Coordination Sequence:
#
# PCOD8229468 Si02
#       6
#     8   8   8   8   8   8
#     4  11  25  47  75 107 153 202 254 313 375 451
#     4  10  26  50  74 105 149 204 253 304 373 443
#     4  11  25  45  71 108 151 193 248 309 370 446
#     4  11  25  46  75 110 149 196 249 306 374 445
#     4  10  25  49  74 107 153 199 249 310 377 451
#     4  11  24  44  76 116 150 196 249 309 379 449
#
# _framework density 27.688020999999999
#
# number of rings (size 3 to 8) (size 9 to 14) (size 15 to 20)
#    0.000    1.333    0.000    3.000    0.000   18.000 
#    0.000    6.667    0.000    0.000    0.000    0.000 
#    0.000    0.000    0.000    0.000    0.000    0.000 
#
# Total GULP energy -595218.156516 kJ/mol
# GULP energy per Si atom -12400.378261 kJ/mol
# Density = 2.762500 g / cm^3
# Si number density = 27.688021 Si / 1000 Ang^3
#
#
#
# Elastic Constant Matrix: (Units=GPa)
#
#
# Indices 1 2 3 4 5 6 
#
# 1 100.2720 13.5430 71.5375 0.0000 0.0000 0.0000
# 2 13.5430 122.4607 20.6686 0.0000 0.0000 0.0000
# 3 71.5375 20.6686 99.1592 0.0000 0.0000 0.0000
# 4 0.0000 0.0000 0.0000 35.4420 0.0000 0.0000
# 5 0.0000 0.0000 0.0000 0.0000 57.1914 0.0000
# 6 0.0000 0.0000 0.0000 0.0000 0.0000 22.4549
#
#
#
# Elastic Compliance Matrix: (Units=1/GPa)
#
#
# Indices 1 2 3 4 5 6 
#
# 1 0.020557 0.000238 -0.014880 0.000000 0.000000 0.000000
# 2 0.000238 0.008466 -0.001936 0.000000 0.000000 0.000000
# 3 -0.014880 -0.001936 0.021223 0.000000 0.000000 0.000000
# 4 0.000000 0.000000 0.000000 0.028215 0.000000 0.000000
# 5 0.000000 0.000000 0.000000 0.000000 0.017485 0.000000
# 6 0.000000 0.000000 0.000000 0.000000 0.000000 0.044534
#
#
# Mechanical properties :
#
#
# Convention : Reuss Voigt Hill
#
# Bulk Modulus (GPa) = 58.51497 59.26557 58.89027
# Shear Modulus (GPa) = 27.88095 37.42719 32.65407
#
# Velocity S-wave (km/s) = 3.17672 3.68060 3.43790
# Velocity P-wave (km/s) = 5.88515 6.28599 6.08887
#
# Compressibility (1/GPa) = 0.01708965
#
# Stress axis : x y z
#
# Youngs Moduli (GPa) = 48.64604 118.11413 47.11760
#
# Poissons Ratio (x) = -0.02812 0.70111
# Poissons Ratio (y) = -0.01158 0.09124
# Poissons Ratio (z) = 0.72385 0.22872
#
# Static dielectric constant tensor:
#      x y z
#    x 5.264980 0.000000 0.000000 
#    y 0.000000 5.104910 0.000000 
#    z 0.000000 0.000000 5.503630 
# 
# 
# High freq. dielectric constant tensor:
#      x y z
#    x 2.129630 0.000000 0.000000 
#    y 0.000000 2.116910 0.000000 
#    z 0.000000 0.000000 2.144220 
# 
# From -- ./inp_files/7811.got.cif
#   From: 2010.03.12/outbox.cif.g09.slc.cpg/sg56_4_cif.got.tgz:7811.got - 2010.04.16 15:33:40.
