data_PCOD8229313
_publ_section_title
;
Structure prediction by ZEFSAII (Michael W. Deem and Ramdas Pophale) SiO2 
 PCOD8229313
Probable space group: P C C N
;
_chemical_formula_sum "Si O2"
_cell_formula_units_Z 28
_cell_length_a 10.188687
_cell_length_b 7.081369
_cell_length_c 17.413849
_cell_angle_alpha 90.000000
_cell_angle_beta 90.000000
_cell_angle_gamma 90.000000
_cell_volume 1256.406633
_symmetry_space_group_name_H-M "P C C N"
_symmetry_group_IT_number 56
_symmetry_cell_setting 'orthorhombic'
loop_
_space_group_symop_operation_xyz
x,y,z
1/2-x,1/2-y,z
1/2+x,-y,1/2-z
-x,1/2+y,1/2-z
-x,-y,-z
1/2+x,1/2+y,-z
1/2-x,y,1/2+z
x,1/2-y,1/2+z
loop_
_atom_site_type_symbol
_atom_site_label
_atom_site_fract_x
_atom_site_fract_y
_atom_site_fract_z
Si Si1 0.885554 0.332034 0.318238
Si Si2 0.582651 0.499652 0.657037
Si Si3 0.891073 0.804750 0.908669
Si Si4 0.750000 0.750000 0.555475
O O1 0.750000 0.250000 0.352024
O O2 0.858138 0.403242 0.232259
O O3 0.937827 0.497214 0.373687
O O4 0.996921 0.175722 0.315543
O O5 0.498248 0.354882 0.606979
O O6 0.704663 0.572832 0.606678
O O7 0.750000 0.750000 0.869829
O O8 0.870747 0.820155 0.001083
#
# Coordination Sequence:
#
# PCOD8229313 Si02
#       4
#     8   8   8   4
#     4  12  25  42  71 100 138 180 232 290 344 413
#     4  12  25  43  71 105 136 185 235 287 349 418
#     4  10  23  46  65  98 141 181 227 287 341 416
#     4  10  26  42  72  98 146 184 230 282 360 422
#
# _framework density 22.285779999999999
#
# number of rings (size 3 to 8) (size 9 to 14) (size 15 to 20)
#    0.857    0.000    5.714    0.857    6.000    1.143 
#    0.000    7.143    0.000    0.000    0.000    0.000 
#    0.000    0.000    0.000    0.000    0.000    0.000 
#
# Total GULP energy -347296.830829 kJ/mol
# GULP energy per Si atom -12403.458244 kJ/mol
# Density = 2.223506 g / cm^3
# Si number density = 22.285780 Si / 1000 Ang^3
#
#
#
# Elastic Constant Matrix: (Units=GPa)
#
#
# Indices 1 2 3 4 5 6 
#
# 1 63.2517 47.8570 21.1954 0.0000 0.0000 0.0000
# 2 47.8570 142.9520 59.0655 0.0000 0.0000 0.0000
# 3 21.1954 59.0655 133.1848 0.0000 0.0000 0.0000
# 4 0.0000 0.0000 0.0000 16.1383 0.0000 0.0000
# 5 0.0000 0.0000 0.0000 0.0000 13.6682 0.0000
# 6 0.0000 0.0000 0.0000 0.0000 0.0000 50.2730
#
#
#
# Elastic Compliance Matrix: (Units=1/GPa)
#
#
# Indices 1 2 3 4 5 6 
#
# 1 0.021181 -0.006977 -0.000277 0.000000 0.000000 0.000000
# 2 -0.006977 0.010863 -0.003707 0.000000 0.000000 0.000000
# 3 -0.000277 -0.003707 0.009196 0.000000 0.000000 0.000000
# 4 0.000000 0.000000 0.000000 0.061964 0.000000 0.000000
# 5 0.000000 0.000000 0.000000 0.000000 0.073162 0.000000
# 6 0.000000 0.000000 0.000000 0.000000 0.000000 0.019891
#
#
# Mechanical properties :
#
#
# Convention : Reuss Voigt Hill
#
# Bulk Modulus (GPa) = 51.76195 66.18047 58.97121
# Shear Modulus (GPa) = 22.25989 30.10061 26.18025
#
# Velocity S-wave (km/s) = 3.16387 3.67913 3.43118
# Velocity P-wave (km/s) = 6.05175 6.91438 6.49740
#
# Compressibility (1/GPa) = 0.01931921
#
# Stress axis : x y z
#
# Youngs Moduli (GPa) = 47.21173 92.05818 108.73707
#
# Poissons Ratio (x) = 0.64225 0.03010
# Poissons Ratio (y) = 0.32938 0.40311
# Poissons Ratio (z) = 0.01307 0.34128
#
# Static dielectric constant tensor:
#      x y z
#    x 3.740060 0.000000 0.000000 
#    y 0.000000 4.116530 0.000000 
#    z 0.000000 0.000000 3.920090 
# 
# 
# High freq. dielectric constant tensor:
#      x y z
#    x 1.868700 0.000000 0.000000 
#    y 0.000000 1.885910 0.000000 
#    z 0.000000 0.000000 1.877150 
# 
# From -- ./inp_files/15325.got.cif
#   From: 2010.03.12/outbox.cif.g09.slc.cpg/sg56_8_cif.got.tgz:15325.got - 2010.04.16 15:33:40.
