data_PCOD8229745
_publ_section_title
;
Structure prediction by ZEFSAII (Michael W. Deem and Ramdas Pophale) SiO2 
 PCOD8229745
Probable space group: P C C N
;
_chemical_formula_sum "Si O2"
_cell_formula_units_Z 40
_cell_length_a 11.439886
_cell_length_b 5.781795
_cell_length_c 25.566536
_cell_angle_alpha 90.000000
_cell_angle_beta 90.000000
_cell_angle_gamma 90.000000
_cell_volume 1691.049325
_symmetry_space_group_name_H-M "P C C N"
_symmetry_group_IT_number 56
_symmetry_cell_setting 'orthorhombic'
loop_
_space_group_symop_operation_xyz
x,y,z
1/2-x,1/2-y,z
1/2+x,-y,1/2-z
-x,1/2+y,1/2-z
-x,-y,-z
1/2+x,1/2+y,-z
1/2-x,y,1/2+z
x,1/2-y,1/2+z
loop_
_atom_site_type_symbol
_atom_site_label
_atom_site_fract_x
_atom_site_fract_y
_atom_site_fract_z
Si Si1 0.069623 0.823100 0.404606
Si Si2 0.556574 0.234388 0.841508
Si Si3 0.177111 0.039970 0.830454
Si Si4 0.750000 0.250000 0.514337
Si Si5 0.845482 0.939574 0.925537
Si Si6 0.250000 0.750000 0.241179
O O1 0.157621 0.678204 0.368113
O O2 0.154956 0.898359 0.452004
O O3 0.971939 0.670981 0.432793
O O4 0.003964 0.021710 0.371901
O O5 0.454171 0.386116 0.816204
O O6 0.643461 0.368462 0.880503
O O7 0.636494 0.180271 0.791880
O O8 0.250000 0.250000 0.858276
O O9 0.256575 0.972019 0.780000
O O10 0.812067 0.444581 0.479929
O O11 0.750000 0.750000 0.907482
#
# Coordination Sequence:
#
# PCOD8229745 Si02
#       6
#     8   8   8   4   8   4
#     4  11  25  47  70 103 145 185 241 299 358 432
#     4  11  26  47  71 101 147 190 236 303 360 430
#     4  11  26  44  71 103 141 184 239 299 363 427
#     4  12  24  42  72 102 140 190 240 300 360 434
#     4  11  25  44  68 104 142 189 240 293 364 428
#     4  12  26  42  72 102 138 186 240 294 358 440
#
# _framework density 23.653953999999999
#
# number of rings (size 3 to 8) (size 9 to 14) (size 15 to 20)
#    0.000    0.800    0.000    6.600    5.600    9.600 
#    0.000    0.000    0.000    0.000    0.000    0.000 
#    0.000    0.000    0.000    0.000    0.000    0.000 
#
# Total GULP energy -495556.488602 kJ/mol
# GULP energy per Si atom -12388.912215 kJ/mol
# Density = 2.360012 g / cm^3
# Si number density = 23.653954 Si / 1000 Ang^3
#
#
#
# Elastic Constant Matrix: (Units=GPa)
#
#
# Indices 1 2 3 4 5 6 
#
# 1 150.1761 56.3408 87.7742 0.0000 0.0000 0.0000
# 2 56.3408 131.6494 72.1215 0.0000 0.0000 0.0000
# 3 87.7742 72.1215 134.5235 0.0000 0.0000 0.0000
# 4 0.0000 0.0000 0.0000 32.0360 0.0000 0.0000
# 5 0.0000 0.0000 0.0000 0.0000 42.1268 0.0000
# 6 0.0000 0.0000 0.0000 0.0000 0.0000 64.9458
#
#
#
# Elastic Compliance Matrix: (Units=1/GPa)
#
#
# Indices 1 2 3 4 5 6 
#
# 1 0.010872 -0.001085 -0.006512 0.000000 0.000000 0.000000
# 2 -0.001085 0.010863 -0.005116 0.000000 0.000000 0.000000
# 3 -0.006512 -0.005116 0.014425 0.000000 0.000000 0.000000
# 4 0.000000 0.000000 0.000000 0.031215 0.000000 0.000000
# 5 0.000000 0.000000 0.000000 0.000000 0.023738 0.000000
# 6 0.000000 0.000000 0.000000 0.000000 0.000000 0.015397
#
#
# Mechanical properties :
#
#
# Convention : Reuss Voigt Hill
#
# Bulk Modulus (GPa) = 93.16013 94.31355 93.73684
# Shear Modulus (GPa) = 36.89634 41.16255 39.02944
#
# Velocity S-wave (km/s) = 3.95376 4.17609 4.06645
# Velocity P-wave (km/s) = 7.76615 7.95058 7.85891
#
# Compressibility (1/GPa) = 0.01073421
#
# Stress axis : x y z
#
# Youngs Moduli (GPa) = 91.97827 92.05567 69.32285
#
# Poissons Ratio (x) = 0.09992 0.45143
# Poissons Ratio (y) = 0.09983 0.35464
# Poissons Ratio (z) = 0.59896 0.47093
#
# Static dielectric constant tensor:
#      x y z
#    x 4.765430 0.000000 0.000000 
#    y 0.000000 4.334900 0.000000 
#    z 0.000000 0.000000 4.203170 
# 
# 
# High freq. dielectric constant tensor:
#      x y z
#    x 1.974360 0.000000 0.000000 
#    y 0.000000 1.930900 0.000000 
#    z 0.000000 0.000000 1.931950 
# 
# From -- ./inp_files/22207.got.cif
#   From: 2010.03.12/outbox.cif.g09.slc.cpg/sg56_12_cif.got.tgz:22207.got - 2010.04.16 15:33:40.
