data_PCOD8229574
_publ_section_title
;
Structure prediction by ZEFSAII (Michael W. Deem and Ramdas Pophale) SiO2 
 PCOD8229574
Probable space group: P C C N
;
_chemical_formula_sum "Si O2"
_cell_formula_units_Z 48
_cell_length_a 15.357785
_cell_length_b 8.980088
_cell_length_c 16.175488
_cell_angle_alpha 90.000000
_cell_angle_beta 90.000000
_cell_angle_gamma 90.000000
_cell_volume 2230.830470
_symmetry_space_group_name_H-M "P C C N"
_symmetry_group_IT_number 56
_symmetry_cell_setting 'orthorhombic'
loop_
_space_group_symop_operation_xyz
x,y,z
1/2-x,1/2-y,z
1/2+x,-y,1/2-z
-x,1/2+y,1/2-z
-x,-y,-z
1/2+x,1/2+y,-z
1/2-x,y,1/2+z
x,1/2-y,1/2+z
loop_
_atom_site_type_symbol
_atom_site_label
_atom_site_fract_x
_atom_site_fract_y
_atom_site_fract_z
Si Si1 0.781612 0.913552 0.627466
Si Si2 0.594801 0.541636 0.469877
Si Si3 0.334043 0.650438 0.929567
Si Si4 0.345845 0.760669 0.609337
Si Si5 0.917969 0.474125 0.256757
Si Si6 0.512464 0.758472 0.850792
O O1 0.750000 0.750000 0.650364
O O2 0.840594 0.926591 0.545376
O O3 0.688743 0.992277 0.610463
O O4 0.831621 0.986372 0.704828
O O5 0.500000 0.500000 0.500000
O O6 0.625791 0.406746 0.412127
O O7 0.585650 0.695287 0.417997
O O8 0.250000 0.750000 0.909323
O O9 0.420422 0.717030 0.890787
O O10 0.347678 0.636487 0.027631
O O11 0.250000 0.750000 0.647352
O O12 0.403972 0.842412 0.677064
O O13 0.995604 0.408954 0.201192
O O14 0.950717 0.624402 0.298036
#
# Coordination Sequence:
#
# PCOD8229574 Si02
#       6
#     8   8   8   8   8   8
#     4  12  28  47  74 103 147 185 238 296 356 417
#     4  12  22  47  73 100 139 187 235 291 344 427
#     4  11  21  49  71  97 129 199 232 269 350 435
#     4  11  24  43  73 101 138 182 239 282 354 420
#     4  12  28  45  66 111 140 184 227 302 359 406
#     4  12  27  43  74 101 144 183 239 286 357 417
#
# _framework density 21.516649000000001
#
# number of rings (size 3 to 8) (size 9 to 14) (size 15 to 20)
#    0.000    0.333    8.333    1.000    7.000    2.000 
#    0.000    0.000    0.000    0.000    0.000    0.000 
#    0.000    0.000    0.000    0.000    0.000    0.000 
#
# Total GULP energy -595112.232540 kJ/mol
# GULP energy per Si atom -12398.171511 kJ/mol
# Density = 2.146768 g / cm^3
# Si number density = 21.516649 Si / 1000 Ang^3
#
#
#
# Elastic Constant Matrix: (Units=GPa)
#
#
# Indices 1 2 3 4 5 6 
#
# 1 80.7375 30.1960 34.5146 0.0000 0.0000 0.0000
# 2 30.1960 87.9525 39.5666 0.0000 0.0000 0.0000
# 3 34.5146 39.5666 95.9364 0.0000 0.0000 0.0000
# 4 0.0000 0.0000 0.0000 48.3182 0.0000 0.0000
# 5 0.0000 0.0000 0.0000 0.0000 15.9707 0.0000
# 6 0.0000 0.0000 0.0000 0.0000 0.0000 45.8688
#
#
#
# Elastic Compliance Matrix: (Units=1/GPa)
#
#
# Indices 1 2 3 4 5 6 
#
# 1 0.015441 -0.003440 -0.004136 0.000000 0.000000 0.000000
# 2 -0.003440 0.014726 -0.004836 0.000000 0.000000 0.000000
# 3 -0.004136 -0.004836 0.013906 0.000000 0.000000 0.000000
# 4 0.000000 0.000000 0.000000 0.020696 0.000000 0.000000
# 5 0.000000 0.000000 0.000000 0.000000 0.062615 0.000000
# 6 0.000000 0.000000 0.000000 0.000000 0.000000 0.021801
#
#
# Mechanical properties :
#
#
# Convention : Reuss Voigt Hill
#
# Bulk Modulus (GPa) = 51.95229 52.57564 52.26396
# Shear Modulus (GPa) = 27.71217 32.72148 30.21683
#
# Velocity S-wave (km/s) = 3.59268 3.90391 3.75153
# Velocity P-wave (km/s) = 6.43486 6.69392 6.56567
#
# Compressibility (1/GPa) = 0.01924843
#
# Stress axis : x y z
#
# Youngs Moduli (GPa) = 64.76393 67.90527 71.91138
#
# Poissons Ratio (x) = 0.23362 0.29743
# Poissons Ratio (y) = 0.22282 0.34775
# Poissons Ratio (z) = 0.26787 0.32838
#
# Static dielectric constant tensor:
#      x y z
#    x 4.037370 0.000000 0.000000 
#    y 0.000000 4.065450 0.000000 
#    z 0.000000 0.000000 4.156630 
# 
# 
# High freq. dielectric constant tensor:
#      x y z
#    x 1.844610 0.000000 0.000000 
#    y 0.000000 1.852700 0.000000 
#    z 0.000000 0.000000 1.853930 
# 
# From -- ./inp_files/16177.got.cif
#   From: 2010.03.12/outbox.cif.g09.slc.cpg/sg56_9_cif.got.tgz:16177.got - 2010.04.16 15:33:40.
