data_PCOD8229586
_publ_section_title
;
Structure prediction by ZEFSAII (Michael W. Deem and Ramdas Pophale) SiO2 
 PCOD8229586
Probable space group: P C C N
;
_chemical_formula_sum "Si O2"
_cell_formula_units_Z 32
_cell_length_a 9.855085
_cell_length_b 17.206323
_cell_length_c 8.729708
_cell_angle_alpha 90.000000
_cell_angle_beta 90.000000
_cell_angle_gamma 90.000000
_cell_volume 1480.294628
_symmetry_space_group_name_H-M "P C C N"
_symmetry_group_IT_number 56
_symmetry_cell_setting 'orthorhombic'
loop_
_space_group_symop_operation_xyz
x,y,z
1/2-x,1/2-y,z
1/2+x,-y,1/2-z
-x,1/2+y,1/2-z
-x,-y,-z
1/2+x,1/2+y,-z
1/2-x,y,1/2+z
x,1/2-y,1/2+z
loop_
_atom_site_type_symbol
_atom_site_label
_atom_site_fract_x
_atom_site_fract_y
_atom_site_fract_z
Si Si1 0.660688 0.336601 0.164576
Si Si2 0.896826 0.935939 0.436296
Si Si3 0.572208 0.295113 0.495967
Si Si4 0.128539 0.011682 0.894491
O O1 0.631901 0.299944 0.328428
O O2 0.654453 0.428241 0.178530
O O3 0.815512 0.320978 0.119199
O O4 0.552554 0.296589 0.043427
O O5 0.939251 0.849004 0.488485
O O6 0.749043 0.954462 0.502601
O O7 0.895788 0.933290 0.251649
O O8 0.000000 0.000000 0.500000
O O9 0.000000 0.000000 0.000000
#
# Coordination Sequence:
#
# PCOD8229586 Si02
#       4
#     8   8   8   8
#     4  11  22  40  66 101 132 178 222 279 342 405
#     4  12  24  44  69 103 134 175 235 288 340 412
#     4  11  24  40  70 101 141 173 233 283 346 408
#     4  12  26  42  71  97 137 180 228 282 348 410
#
# _framework density 21.617318000000001
#
# number of rings (size 3 to 8) (size 9 to 14) (size 15 to 20)
#    0.000    0.500    5.000    4.500    7.000    0.000 
#    0.000    1.250    0.000    0.000    0.000    0.000 
#    0.000    0.000    0.000    0.000    0.000    0.000 
#
# Total GULP energy -396598.320921 kJ/mol
# GULP energy per Si atom -12393.697529 kJ/mol
# Density = 2.156812 g / cm^3
# Si number density = 21.617318 Si / 1000 Ang^3
#
#
#
# Elastic Constant Matrix: (Units=GPa)
#
#
# Indices 1 2 3 4 5 6 
#
# 1 125.3908 12.7538 48.9242 0.0000 0.0000 0.0000
# 2 12.7538 68.5878 4.7639 0.0000 0.0000 0.0000
# 3 48.9242 4.7639 166.9907 0.0000 0.0000 0.0000
# 4 0.0000 0.0000 0.0000 28.4819 0.0000 0.0000
# 5 0.0000 0.0000 0.0000 0.0000 33.4840 0.0000
# 6 0.0000 0.0000 0.0000 0.0000 0.0000 40.4546
#
#
#
# Elastic Compliance Matrix: (Units=1/GPa)
#
#
# Indices 1 2 3 4 5 6 
#
# 1 0.009160 -0.001520 -0.002640 0.000000 0.000000 0.000000
# 2 -0.001520 0.014861 0.000021 0.000000 0.000000 0.000000
# 3 -0.002640 0.000021 0.006761 0.000000 0.000000 0.000000
# 4 0.000000 0.000000 0.000000 0.035110 0.000000 0.000000
# 5 0.000000 0.000000 0.000000 0.000000 0.029865 0.000000
# 6 0.000000 0.000000 0.000000 0.000000 0.000000 0.024719
#
#
# Mechanical properties :
#
#
# Convention : Reuss Voigt Hill
#
# Bulk Modulus (GPa) = 44.43556 54.87258 49.65407
# Shear Modulus (GPa) = 36.69585 40.11926 38.40756
#
# Velocity S-wave (km/s) = 4.12457 4.31267 4.21967
# Velocity P-wave (km/s) = 6.57897 7.08785 6.83815
#
# Compressibility (1/GPa) = 0.02250450
#
# Stress axis : x y z
#
# Youngs Moduli (GPa) = 109.17259 67.29032 147.90106
#
# Poissons Ratio (x) = 0.10227 0.39049
# Poissons Ratio (y) = 0.16593 -0.00315
# Poissons Ratio (z) = 0.28824 -0.00144
#
# Static dielectric constant tensor:
#      x y z
#    x 4.567220 0.000000 0.000000 
#    y 0.000000 3.664770 0.000000 
#    z 0.000000 0.000000 3.802530 
# 
# 
# High freq. dielectric constant tensor:
#      x y z
#    x 1.824320 0.000000 0.000000 
#    y 0.000000 1.856160 0.000000 
#    z 0.000000 0.000000 1.872600 
# 
# From -- ./inp_files/1908.got.cif
#   From: 2010.03.12/outbox.cif.g09.slc.cpg/sg56_1_cif.got.tgz:1908.got - 2010.04.16 15:33:40.
