data_PCOD8229531
_publ_section_title
;
Structure prediction by ZEFSAII (Michael W. Deem and Ramdas Pophale) SiO2 
 PCOD8229531
Probable space group: P C C N
;
_chemical_formula_sum "Si O2"
_cell_formula_units_Z 32
_cell_length_a 5.648145
_cell_length_b 12.430262
_cell_length_c 19.187354
_cell_angle_alpha 90.000000
_cell_angle_beta 90.000000
_cell_angle_gamma 90.000000
_cell_volume 1347.104256
_symmetry_space_group_name_H-M "P C C N"
_symmetry_group_IT_number 56
_symmetry_cell_setting 'orthorhombic'
loop_
_space_group_symop_operation_xyz
x,y,z
1/2-x,1/2-y,z
1/2+x,-y,1/2-z
-x,1/2+y,1/2-z
-x,-y,-z
1/2+x,1/2+y,-z
1/2-x,y,1/2+z
x,1/2-y,1/2+z
loop_
_atom_site_type_symbol
_atom_site_label
_atom_site_fract_x
_atom_site_fract_y
_atom_site_fract_z
Si Si1 0.599936 0.027498 0.575840
Si Si2 0.940935 0.658795 0.080081
Si Si3 0.250000 0.750000 0.692394
Si Si4 0.436219 0.959245 0.719687
Si Si5 0.750000 0.250000 0.539285
O O1 0.631181 0.156494 0.585947
O O2 0.500000 0.000000 0.500000
O O3 0.845026 0.962269 0.580539
O O4 0.426736 0.987455 0.637105
O O5 0.750000 0.750000 0.094266
O O6 0.115120 0.663040 0.145188
O O7 0.063108 0.684800 0.007011
O O8 0.419710 0.830048 0.735864
O O9 0.699965 0.989840 0.746084
#
# Coordination Sequence:
#
# PCOD8229531 Si02
#       5
#     8   8   4   8   4
#     4  12  24  46  75 109 147 198 254 310 379 453
#     4  11  20  42  73 109 143 200 253 294 370 465
#     4  11  24  49  76  98 148 208 254 292 374 478
#     4  12  29  50  76 112 150 199 253 313 380 454
#     4  11  24  39  68 114 156 184 242 338 382 416
#
# _framework density 23.754657999999999
#
# number of rings (size 3 to 8) (size 9 to 14) (size 15 to 20)
#    0.000    0.500    5.000    3.750    0.000    3.000 
#    0.000    5.000    0.000    0.000    0.000    0.000 
#    0.000    0.000    0.000    0.000    0.000    0.000 
#
# Total GULP energy -396504.345544 kJ/mol
# GULP energy per Si atom -12390.760798 kJ/mol
# Density = 2.370059 g / cm^3
# Si number density = 23.754658 Si / 1000 Ang^3
#
#
#
# Elastic Constant Matrix: (Units=GPa)
#
#
# Indices 1 2 3 4 5 6 
#
# 1 125.9823 48.7109 39.3359 0.0000 0.0000 0.0000
# 2 48.7109 186.0830 32.5349 0.0000 0.0000 0.0000
# 3 39.3359 32.5349 93.3948 0.0000 0.0000 0.0000
# 4 0.0000 0.0000 0.0000 138.6523 0.0000 0.0000
# 5 0.0000 0.0000 0.0000 0.0000 -97.8840 0.0000
# 6 0.0000 0.0000 0.0000 0.0000 0.0000 57.0076
#
#
#
# Elastic Compliance Matrix: (Units=1/GPa)
#
#
# Indices 1 2 3 4 5 6 
#
# 1 0.009765 -0.001956 -0.003432 0.000000 0.000000 0.000000
# 2 -0.001956 0.006114 -0.001306 0.000000 0.000000 0.000000
# 3 -0.003432 -0.001306 0.012607 0.000000 0.000000 0.000000
# 4 0.000000 0.000000 0.000000 0.007212 0.000000 0.000000
# 5 0.000000 0.000000 0.000000 0.000000 -0.010216 0.000000
# 6 0.000000 0.000000 0.000000 0.000000 0.000000 0.017542
#
#
# Mechanical properties :
#
#
# Convention : Reuss Voigt Hill
#
# Bulk Modulus (GPa) = 66.22694 71.84706 69.03700
# Shear Modulus (GPa) = 81.37235 38.54707 59.95971
#
# Velocity S-wave (km/s) = 5.85915 4.03267 5.02952
# Velocity P-wave (km/s) = 8.58563 7.21071 7.92803
#
# Compressibility (1/GPa) = 0.01509960
#
# Stress axis : x y z
#
# Youngs Moduli (GPa) = 102.40158 163.54823 79.31803
#
# Poissons Ratio (x) = 0.31996 0.27218
# Poissons Ratio (y) = 0.20033 0.10359
# Poissons Ratio (z) = 0.35139 0.21360
#
# Static dielectric constant tensor:
#      x y z
#    x 4.431610 0.000000 0.000000 
#    y 0.000000 5.077510 0.000000 
#    z 0.000000 0.000000 4.297700 
# 
# 
# High freq. dielectric constant tensor:
#      x y z
#    x 1.948540 0.000000 0.000000 
#    y 0.000000 1.959260 0.000000 
#    z 0.000000 0.000000 1.925190 
# 
# From -- ./inp_files/13779.got.cif
#   From: 2010.03.12/outbox.cif.g09.slc.cpg/sg56_7_cif.got.tgz:13779.got - 2010.04.16 15:33:40.
