data_PCOD8229773
_publ_section_title
;
Structure prediction by ZEFSAII (Michael W. Deem and Ramdas Pophale) SiO2 
 PCOD8229773
Probable space group: P C C N
;
_chemical_formula_sum "Si O2"
_cell_formula_units_Z 32
_cell_length_a 5.993416
_cell_length_b 10.480481
_cell_length_c 19.162790
_cell_angle_alpha 90.000000
_cell_angle_beta 90.000000
_cell_angle_gamma 90.000000
_cell_volume 1203.689240
_symmetry_space_group_name_H-M "P C C N"
_symmetry_group_IT_number 56
_symmetry_cell_setting 'orthorhombic'
loop_
_space_group_symop_operation_xyz
x,y,z
1/2-x,1/2-y,z
1/2+x,-y,1/2-z
-x,1/2+y,1/2-z
-x,-y,-z
1/2+x,1/2+y,-z
1/2-x,y,1/2+z
x,1/2-y,1/2+z
loop_
_atom_site_type_symbol
_atom_site_label
_atom_site_fract_x
_atom_site_fract_y
_atom_site_fract_z
Si Si1 0.687460 0.070621 0.545843
Si Si2 0.545039 0.831659 0.049431
Si Si3 0.615308 0.136064 0.809111
Si Si4 0.124193 0.116025 0.170762
O O1 0.579859 0.127249 0.616029
O O2 0.829113 0.175797 0.501296
O O3 0.500000 0.000000 0.500000
O O4 0.878801 0.973643 0.567359
O O5 0.750000 0.750000 0.015580
O O6 0.487791 0.780367 0.126686
O O7 0.750000 0.250000 0.770179
O O8 0.444267 0.089140 0.750723
O O9 0.733993 0.012243 0.844314
O O10 0.250000 0.250000 0.163761
#
# Coordination Sequence:
#
# PCOD8229773 Si02
#       4
#     8   8   8   8
#     4  11  25  50  72 117 153 207 268 329 403 484
#     4  11  25  48  78 108 154 211 267 329 400 488
#     4  12  25  50  76 113 160 211 267 327 409 488
#     4  12  26  48  80 120 164 208 267 343 405 484
#
# _framework density 26.584932999999999
#
# number of rings (size 3 to 8) (size 9 to 14) (size 15 to 20)
#    0.000    0.500    2.500    5.250    0.000    1.000 
#    9.000    0.000    0.000    0.000    0.000    0.000 
#    0.000    0.000    0.000    0.000    0.000    0.000 
#
# Total GULP energy -396458.653254 kJ/mol
# GULP energy per Si atom -12389.332914 kJ/mol
# Density = 2.652442 g / cm^3
# Si number density = 26.584933 Si / 1000 Ang^3
#
#
#
# Elastic Constant Matrix: (Units=GPa)
#
#
# Indices 1 2 3 4 5 6 
#
# 1 138.6283 55.2034 65.4943 0.0000 0.0000 0.0000
# 2 55.2034 153.1294 26.1597 0.0000 0.0000 0.0000
# 3 65.4943 26.1597 159.8460 0.0000 0.0000 0.0000
# 4 0.0000 0.0000 0.0000 30.2448 0.0000 0.0000
# 5 0.0000 0.0000 0.0000 0.0000 49.8008 0.0000
# 6 0.0000 0.0000 0.0000 0.0000 0.0000 75.9320
#
#
#
# Elastic Compliance Matrix: (Units=1/GPa)
#
#
# Indices 1 2 3 4 5 6 
#
# 1 0.010152 -0.003034 -0.003663 0.000000 0.000000 0.000000
# 2 -0.003034 0.007625 -0.000005 0.000000 0.000000 0.000000
# 3 -0.003663 -0.000005 0.007758 0.000000 0.000000 0.000000
# 4 0.000000 0.000000 0.000000 0.033064 0.000000 0.000000
# 5 0.000000 0.000000 0.000000 0.000000 0.020080 0.000000
# 6 0.000000 0.000000 0.000000 0.000000 0.000000 0.013170
#
#
# Mechanical properties :
#
#
# Convention : Reuss Voigt Hill
#
# Bulk Modulus (GPa) = 82.43306 82.81317 82.62311
# Shear Modulus (GPa) = 45.74717 51.51193 48.62955
#
# Velocity S-wave (km/s) = 4.15274 4.40663 4.28157
# Velocity P-wave (km/s) = 7.35313 7.55707 7.45579
#
# Compressibility (1/GPa) = 0.01213106
#
# Stress axis : x y z
#
# Youngs Moduli (GPa) = 98.49828 131.14664 128.90352
#
# Poissons Ratio (x) = 0.39792 0.47220
# Poissons Ratio (y) = 0.29886 0.00060
# Poissons Ratio (z) = 0.36082 0.00061
#
# Static dielectric constant tensor:
#      x y z
#    x 5.081400 0.000000 0.000000 
#    y 0.000000 5.086070 0.000000 
#    z 0.000000 0.000000 4.648910 
# 
# 
# High freq. dielectric constant tensor:
#      x y z
#    x 2.071870 0.000000 0.000000 
#    y 0.000000 2.094730 0.000000 
#    z 0.000000 0.000000 2.073040 
# 
# From -- ./inp_files/17264.got.cif
#   From: 2010.03.12/outbox.cif.g09.slc.cpg/sg56_9_cif.got.tgz:17264.got - 2010.04.16 15:33:40.
