data_PCOD8229229
_publ_section_title
;
Structure prediction by ZEFSAII (Michael W. Deem and Ramdas Pophale) SiO2 
 PCOD8229229
Probable space group: P C C N
;
_chemical_formula_sum "Si O2"
_cell_formula_units_Z 32
_cell_length_a 5.104211
_cell_length_b 18.571869
_cell_length_c 13.264225
_cell_angle_alpha 90.000000
_cell_angle_beta 90.000000
_cell_angle_gamma 90.000000
_cell_volume 1257.378734
_symmetry_space_group_name_H-M "P C C N"
_symmetry_group_IT_number 56
_symmetry_cell_setting 'orthorhombic'
loop_
_space_group_symop_operation_xyz
x,y,z
1/2-x,1/2-y,z
1/2+x,-y,1/2-z
-x,1/2+y,1/2-z
-x,-y,-z
1/2+x,1/2+y,-z
1/2-x,y,1/2+z
x,1/2-y,1/2+z
loop_
_atom_site_type_symbol
_atom_site_label
_atom_site_fract_x
_atom_site_fract_y
_atom_site_fract_z
Si Si1 0.960981 0.439754 0.372077
Si Si2 0.498092 0.205016 0.981632
Si Si3 0.970153 0.624868 0.212447
Si Si4 0.649376 0.897195 0.426829
O O1 0.752342 0.412008 0.292458
O O2 0.868042 0.519268 0.399593
O O3 0.246444 0.433103 0.320436
O O4 0.960630 0.388274 0.473397
O O5 0.250000 0.250000 0.019012
O O6 0.445490 0.127774 0.038994
O O7 0.750000 0.250000 0.016705
O O8 0.481108 0.194262 0.860491
O O9 0.935736 0.648866 0.328751
#
# Coordination Sequence:
#
# PCOD8229229 Si02
#       4
#     8   8   8   8
#     4  10  23  40  66 104 135 163 221 282 336 414
#     4  11  25  44  62  91 132 173 227 274 311 391
#     4  11  23  42  66  96 134 173 219 280 341 399
#     4  10  23  42  70  98 133 179 217 274 350 398
#
# _framework density 25.449770999999998
#
# number of rings (size 3 to 8) (size 9 to 14) (size 15 to 20)
#    0.000    1.500    0.000    4.500    0.000   18.000 
#    0.000    5.000    0.000    0.000    0.000    0.000 
#    0.000    0.000    0.000    0.000    0.000    0.000 
#
# Total GULP energy -396426.361289 kJ/mol
# GULP energy per Si atom -12388.323790 kJ/mol
# Density = 2.539185 g / cm^3
# Si number density = 25.449771 Si / 1000 Ang^3
#
#
#
# Elastic Constant Matrix: (Units=GPa)
#
#
# Indices 1 2 3 4 5 6 
#
# 1 166.8551 42.9030 44.6636 0.0000 0.0000 0.0000
# 2 42.9030 62.7638 6.9195 0.0000 0.0000 0.0000
# 3 44.6636 6.9195 167.2637 0.0000 0.0000 0.0000
# 4 0.0000 0.0000 0.0000 35.0194 0.0000 0.0000
# 5 0.0000 0.0000 0.0000 0.0000 24.5288 0.0000
# 6 0.0000 0.0000 0.0000 0.0000 0.0000 48.6302
#
#
#
# Elastic Compliance Matrix: (Units=1/GPa)
#
#
# Indices 1 2 3 4 5 6 
#
# 1 0.007816 -0.005136 -0.001874 0.000000 0.000000 0.000000
# 2 -0.005136 0.019381 0.000570 0.000000 0.000000 0.000000
# 3 -0.001874 0.000570 0.006456 0.000000 0.000000 0.000000
# 4 0.000000 0.000000 0.000000 0.028556 0.000000 0.000000
# 5 0.000000 0.000000 0.000000 0.000000 0.040768 0.000000
# 6 0.000000 0.000000 0.000000 0.000000 0.000000 0.020563
#
#
# Mechanical properties :
#
#
# Convention : Reuss Voigt Hill
#
# Bulk Modulus (GPa) = 48.14536 65.09497 56.62017
# Shear Modulus (GPa) = 34.88122 41.79547 38.33834
#
# Velocity S-wave (km/s) = 3.70617 4.05689 3.88549
# Velocity P-wave (km/s) = 6.10517 6.89767 6.51348
#
# Compressibility (1/GPa) = 0.02077043
#
# Stress axis : x y z
#
# Youngs Moduli (GPa) = 127.95057 51.59809 154.90545
#
# Poissons Ratio (x) = 0.26499 0.29037
# Poissons Ratio (y) = 0.65712 -0.08824
# Poissons Ratio (z) = 0.23984 -0.02939
#
# Static dielectric constant tensor:
#      x y z
#    x 4.661180 0.000000 0.000000 
#    y 0.000000 4.714640 0.000000 
#    z 0.000000 0.000000 5.028400 
# 
# 
# High freq. dielectric constant tensor:
#      x y z
#    x 2.016090 0.000000 0.000000 
#    y 0.000000 2.003830 0.000000 
#    z 0.000000 0.000000 2.023330 
# 
# From -- ./inp_files/9389.got.cif
#   From: 2010.03.12/outbox.cif.g09.slc.cpg/sg56_5_cif.got.tgz:9389.got - 2010.04.16 15:33:40.
