data_PCOD8229305
_publ_section_title
;
Structure prediction by ZEFSAII (Michael W. Deem and Ramdas Pophale) SiO2 
 PCOD8229305
Probable space group: P C C N
;
_chemical_formula_sum "Si O2"
_cell_formula_units_Z 64
_cell_length_a 14.524447
_cell_length_b 9.036677
_cell_length_c 22.910835
_cell_angle_alpha 90.000000
_cell_angle_beta 90.000000
_cell_angle_gamma 90.000000
_cell_volume 3007.109781
_symmetry_space_group_name_H-M "P C C N"
_symmetry_group_IT_number 56
_symmetry_cell_setting 'orthorhombic'
loop_
_space_group_symop_operation_xyz
x,y,z
1/2-x,1/2-y,z
1/2+x,-y,1/2-z
-x,1/2+y,1/2-z
-x,-y,-z
1/2+x,1/2+y,-z
1/2-x,y,1/2+z
x,1/2-y,1/2+z
loop_
_atom_site_type_symbol
_atom_site_label
_atom_site_fract_x
_atom_site_fract_y
_atom_site_fract_z
Si Si1 0.686870 0.879660 0.105868
Si Si2 0.259289 0.922391 0.580709
Si Si3 0.778946 0.585507 0.303220
Si Si4 0.183383 0.889112 0.864826
Si Si5 0.071022 0.315735 0.786358
Si Si6 0.598321 0.017892 0.745571
Si Si7 0.600426 0.060601 0.001223
Si Si8 0.908160 0.092499 0.013798
O O1 0.750000 0.750000 0.077873
O O2 0.606105 0.816788 0.146823
O O3 0.751430 0.971608 0.150201
O O4 0.651948 0.991427 0.056716
O O5 0.250000 0.750000 0.595157
O O6 0.158686 0.976795 0.557461
O O7 0.328728 0.962112 0.528961
O O8 0.302040 0.006097 0.636041
O O9 0.750000 0.750000 0.319081
O O10 0.864732 0.592762 0.258832
O O11 0.695796 0.490783 0.277205
O O12 0.250000 0.750000 0.875283
O O13 0.112360 0.876500 0.811166
O O14 0.123460 0.935013 0.920508
O O15 0.972601 0.396072 0.787008
O O16 0.060101 0.145048 0.768656
O O17 0.581942 0.233327 0.006911
O O18 0.500000 0.000000 0.000000
O O19 0.000000 0.000000 0.000000
#
# Coordination Sequence:
#
# PCOD8229305 Si02
#       8
#     8   8   8   8   8   8   8   8
#     4  12  23  46  73  95 134 177 228 287 336 400
#     4  10  23  45  63  90 133 172 213 266 324 392
#     4  10  23  45  63  90 133 172 213 267 326 392
#     4  12  23  46  73  97 130 179 228 280 335 402
#     4  11  25  44  66  99 135 172 223 278 334 400
#     4  11  26  43  68 100 133 174 222 277 337 398
#     4  11  26  43  67 101 132 171 224 275 333 401
#     4  11  25  44  67  98 135 173 221 275 332 401
#
# _framework density 21.282893000000001
#
# number of rings (size 3 to 8) (size 9 to 14) (size 15 to 20)
#    0.000    1.000    5.000    0.750    7.000    3.000 
#    0.000    0.000    0.000    0.000    0.000    0.000 
#    0.000    0.000    0.000    0.000    0.000    0.000 
#
# Total GULP energy -793375.067096 kJ/mol
# GULP energy per Si atom -12396.485423 kJ/mol
# Density = 2.123445 g / cm^3
# Si number density = 21.282893 Si / 1000 Ang^3
#
#
#
# Elastic Constant Matrix: (Units=GPa)
#
#
# Indices 1 2 3 4 5 6 
#
# 1 116.2433 46.0984 36.5609 0.0000 0.0000 0.0000
# 2 46.0984 76.1470 31.1294 0.0000 0.0000 0.0000
# 3 36.5609 31.1294 105.7727 0.0000 0.0000 0.0000
# 4 0.0000 0.0000 0.0000 34.0733 0.0000 0.0000
# 5 0.0000 0.0000 0.0000 0.0000 23.9198 0.0000
# 6 0.0000 0.0000 0.0000 0.0000 0.0000 48.4931
#
#
#
# Elastic Compliance Matrix: (Units=1/GPa)
#
#
# Indices 1 2 3 4 5 6 
#
# 1 0.011770 -0.006209 -0.002241 0.000000 0.000000 0.000000
# 2 -0.006209 0.018204 -0.003211 0.000000 0.000000 0.000000
# 3 -0.002241 -0.003211 0.011174 0.000000 0.000000 0.000000
# 4 0.000000 0.000000 0.000000 0.029348 0.000000 0.000000
# 5 0.000000 0.000000 0.000000 0.000000 0.041806 0.000000
# 6 0.000000 0.000000 0.000000 0.000000 0.000000 0.020621
#
#
# Mechanical properties :
#
#
# Convention : Reuss Voigt Hill
#
# Bulk Modulus (GPa) = 56.10064 58.41560 57.25812
# Shear Modulus (GPa) = 30.82822 33.58887 32.20854
#
# Velocity S-wave (km/s) = 3.81004 3.97698 3.89440
# Velocity P-wave (km/s) = 6.76550 6.97103 6.86903
#
# Compressibility (1/GPa) = 0.01782511
#
# Stress axis : x y z
#
# Youngs Moduli (GPa) = 84.96294 54.93211 89.49405
#
# Poissons Ratio (x) = 0.34109 0.20055
# Poissons Ratio (y) = 0.52755 0.28740
# Poissons Ratio (z) = 0.19039 0.17641
#
# Static dielectric constant tensor:
#      x y z
#    x 4.128260 0.000000 0.000000 
#    y 0.000000 3.714930 0.000000 
#    z 0.000000 0.000000 3.820310 
# 
# 
# High freq. dielectric constant tensor:
#      x y z
#    x 1.838470 0.000000 0.000000 
#    y 0.000000 1.841270 0.000000 
#    z 0.000000 0.000000 1.835950 
# 
# From -- ./inp_files/21179.got.cif
#   From: 2010.03.12/outbox.cif.g09.slc.cpg/sg56_11_cif.got.tgz:21179.got - 2010.04.16 15:33:40.
