data_PCOD8229158
_publ_section_title
;
Structure prediction by ZEFSAII (Michael W. Deem and Ramdas Pophale) SiO2 
 PCOD8229158
Probable space group: P C C N
;
_chemical_formula_sum "Si O2"
_cell_formula_units_Z 32
_cell_length_a 7.226921
_cell_length_b 16.782697
_cell_length_c 12.435113
_cell_angle_alpha 90.000000
_cell_angle_beta 90.000000
_cell_angle_gamma 90.000000
_cell_volume 1508.220353
_symmetry_space_group_name_H-M "P C C N"
_symmetry_group_IT_number 56
_symmetry_cell_setting 'orthorhombic'
loop_
_space_group_symop_operation_xyz
x,y,z
1/2-x,1/2-y,z
1/2+x,-y,1/2-z
-x,1/2+y,1/2-z
-x,-y,-z
1/2+x,1/2+y,-z
1/2-x,y,1/2+z
x,1/2-y,1/2+z
loop_
_atom_site_type_symbol
_atom_site_label
_atom_site_fract_x
_atom_site_fract_y
_atom_site_fract_z
Si Si1 0.933931 0.157232 0.377871
Si Si2 0.750795 0.554004 0.167609
Si Si3 0.021772 0.665689 0.566172
Si Si4 0.011403 0.904689 0.841324
O O1 0.015847 0.241192 0.416962
O O2 0.737224 0.142511 0.431606
O O3 0.912571 0.158672 0.247036
O O4 0.078709 0.086028 0.408139
O O5 0.585342 0.618051 0.158991
O O6 0.673969 0.468393 0.132287
O O7 0.828764 0.551350 0.290688
O O8 0.948784 0.639827 0.448867
#
# Coordination Sequence:
#
# PCOD8229158 Si02
#       4
#     8   8   8   8
#     4   9  24  41  66  99 131 173 227 276 330 415
#     4  10  22  44  62 101 133 174 229 272 331 415
#     4  11  21  45  64  97 137 168 232 275 342 403
#     4  10  23  42  68  95 136 179 213 288 332 390
#
# _framework density 21.217058000000002
#
# number of rings (size 3 to 8) (size 9 to 14) (size 15 to 20)
#    1.500    0.500    0.000    3.000    0.000    5.000 
#   18.000    0.000    0.000    0.000    0.000    0.000 
#    0.000    0.000    0.000    0.000    0.000    0.000 
#
# Total GULP energy -396430.046378 kJ/mol
# GULP energy per Si atom -12388.438949 kJ/mol
# Density = 2.116877 g / cm^3
# Si number density = 21.217058 Si / 1000 Ang^3
#
#
#
# Elastic Constant Matrix: (Units=GPa)
#
#
# Indices 1 2 3 4 5 6 
#
# 1 70.7745 40.0470 24.9278 0.0000 0.0000 0.0000
# 2 40.0470 99.2941 49.7800 0.0000 0.0000 0.0000
# 3 24.9278 49.7800 83.0820 0.0000 0.0000 0.0000
# 4 0.0000 0.0000 0.0000 36.4167 0.0000 0.0000
# 5 0.0000 0.0000 0.0000 0.0000 30.5739 0.0000
# 6 0.0000 0.0000 0.0000 0.0000 0.0000 41.5235
#
#
#
# Elastic Compliance Matrix: (Units=1/GPa)
#
#
# Indices 1 2 3 4 5 6 
#
# 1 0.018444 -0.006667 -0.001539 0.000000 0.000000 0.000000
# 2 -0.006667 0.016805 -0.008069 0.000000 0.000000 0.000000
# 3 -0.001539 -0.008069 0.017333 0.000000 0.000000 0.000000
# 4 0.000000 0.000000 0.000000 0.027460 0.000000 0.000000
# 5 0.000000 0.000000 0.000000 0.000000 0.032708 0.000000
# 6 0.000000 0.000000 0.000000 0.000000 0.000000 0.024083
#
#
# Mechanical properties :
#
#
# Convention : Reuss Voigt Hill
#
# Bulk Modulus (GPa) = 49.92071 53.62890 51.77480
# Shear Modulus (GPa) = 28.39947 30.92921 29.66434
#
# Velocity S-wave (km/s) = 3.66255 3.82219 3.74322
# Velocity P-wave (km/s) = 6.43936 6.69403 6.56793
#
# Compressibility (1/GPa) = 0.02003177
#
# Stress axis : x y z
#
# Youngs Moduli (GPa) = 54.21805 59.50526 57.69461
#
# Poissons Ratio (x) = 0.39673 0.08880
# Poissons Ratio (y) = 0.36148 0.46552
# Poissons Ratio (z) = 0.08345 0.48013
#
# Static dielectric constant tensor:
#      x y z
#    x 3.828740 0.000000 0.000000 
#    y 0.000000 3.667290 0.000000 
#    z 0.000000 0.000000 3.478480 
# 
# 
# High freq. dielectric constant tensor:
#      x y z
#    x 1.838010 0.000000 0.000000 
#    y 0.000000 1.826520 0.000000 
#    z 0.000000 0.000000 1.803980 
# 
# From -- ./inp_files/6128.got.cif
#   From: 2010.03.12/outbox.cif.g09.slc.cpg/sg56_4_cif.got.tgz:6128.got - 2010.04.16 15:33:40.
