data_PCOD8229048
_publ_section_title
;
Structure prediction by ZEFSAII (Michael W. Deem and Ramdas Pophale) SiO2 
 PCOD8229048
Probable space group: P C C N
;
_chemical_formula_sum "Si O2"
_cell_formula_units_Z 36
_cell_length_a 11.559910
_cell_length_b 11.262238
_cell_length_c 13.220189
_cell_angle_alpha 90.000000
_cell_angle_beta 90.000000
_cell_angle_gamma 90.000000
_cell_volume 1721.142457
_symmetry_space_group_name_H-M "P C C N"
_symmetry_group_IT_number 56
_symmetry_cell_setting 'orthorhombic'
loop_
_space_group_symop_operation_xyz
x,y,z
1/2-x,1/2-y,z
1/2+x,-y,1/2-z
-x,1/2+y,1/2-z
-x,-y,-z
1/2+x,1/2+y,-z
1/2-x,y,1/2+z
x,1/2-y,1/2+z
loop_
_atom_site_type_symbol
_atom_site_label
_atom_site_fract_x
_atom_site_fract_y
_atom_site_fract_z
Si Si1 0.045572 0.893521 0.432508
Si Si2 0.214145 0.997243 0.915892
Si Si3 0.750000 0.750000 0.118896
Si Si4 0.370110 0.687744 0.067097
Si Si5 0.058255 0.132015 0.778827
O O1 0.172973 0.920834 0.386678
O O2 0.050389 0.773914 0.498709
O O3 0.956717 0.876510 0.340809
O O4 0.000000 0.000000 0.500000
O O5 0.148693 0.934810 0.007544
O O6 0.254523 0.130833 0.950054
O O7 0.125607 0.013264 0.820683
O O8 0.862409 0.754184 0.192717
O O9 0.250000 0.750000 0.096748
O O10 0.434105 0.650774 0.169256
#
# Coordination Sequence:
#
# PCOD8229048 Si02
#       5
#     8   8   4   8   8
#     4  11  24  41  64  95 132 172 222 281 334 405
#     4   9  21  41  63  98 128 169 226 264 339 399
#     4   8  20  40  62  96 134 168 224 266 344 404
#     4  10  22  40  67  98 128 177 220 280 333 402
#     4  10  22  43  65  95 136 171 221 275 341 400
#
# _framework density 20.916340999999999
#
# number of rings (size 3 to 8) (size 9 to 14) (size 15 to 20)
#    1.333    0.889    0.000    2.000    0.000    9.778 
#    4.000    0.000    0.000    0.000    0.000    0.000 
#    0.000    0.000    0.000    0.000    0.000    0.000 
#
# Total GULP energy -446109.068661 kJ/mol
# GULP energy per Si atom -12391.918574 kJ/mol
# Density = 2.086873 g / cm^3
# Si number density = 20.916341 Si / 1000 Ang^3
#
#
#
# Elastic Constant Matrix: (Units=GPa)
#
#
# Indices 1 2 3 4 5 6 
#
# 1 87.4610 15.4835 42.0914 0.0000 0.0000 0.0000
# 2 15.4835 112.7383 42.6654 0.0000 0.0000 0.0000
# 3 42.0914 42.6654 102.6070 0.0000 0.0000 0.0000
# 4 0.0000 0.0000 0.0000 17.6100 0.0000 0.0000
# 5 0.0000 0.0000 0.0000 0.0000 24.3938 0.0000
# 6 0.0000 0.0000 0.0000 0.0000 0.0000 38.4789
#
#
#
# Elastic Compliance Matrix: (Units=1/GPa)
#
#
# Indices 1 2 3 4 5 6 
#
# 1 0.014255 0.000303 -0.005974 0.000000 0.000000 0.000000
# 2 0.000303 0.010533 -0.004504 0.000000 0.000000 0.000000
# 3 -0.005974 -0.004504 0.014069 0.000000 0.000000 0.000000
# 4 0.000000 0.000000 0.000000 0.056786 0.000000 0.000000
# 5 0.000000 0.000000 0.000000 0.000000 0.040994 0.000000
# 6 0.000000 0.000000 0.000000 0.000000 0.000000 0.025988
#
#
# Mechanical properties :
#
#
# Convention : Reuss Voigt Hill
#
# Bulk Modulus (GPa) = 54.03145 55.92076 54.97611
# Shear Modulus (GPa) = 26.43490 29.60095 28.01793
#
# Velocity S-wave (km/s) = 3.55891 3.76600 3.66392
# Velocity P-wave (km/s) = 6.54034 6.76046 6.65131
#
# Compressibility (1/GPa) = 0.01850774
#
# Stress axis : x y z
#
# Youngs Moduli (GPa) = 70.15140 94.93935 71.07703
#
# Poissons Ratio (x) = -0.02876 0.42458
# Poissons Ratio (y) = -0.02125 0.32013
# Poissons Ratio (z) = 0.41906 0.42761
#
# Static dielectric constant tensor:
#      x y z
#    x 4.078280 0.000000 0.000000 
#    y 0.000000 3.750770 0.000000 
#    z 0.000000 0.000000 3.298360 
# 
# 
# High freq. dielectric constant tensor:
#      x y z
#    x 1.836460 0.000000 0.000000 
#    y 0.000000 1.815600 0.000000 
#    z 0.000000 0.000000 1.785930 
# 
# From -- ./inp_files/6873.got.cif
#   From: 2010.03.12/outbox.cif.g09.slc.cpg/sg56_4_cif.got.tgz:6873.got - 2010.04.16 15:33:40.
