data_PCOD8229897
_publ_section_title
;
Structure prediction by ZEFSAII (Michael W. Deem and Ramdas Pophale) SiO2 
 PCOD8229897
Probable space group: P B C M
;
_chemical_formula_sum "Si O2"
_cell_formula_units_Z 64
_cell_length_a 9.604534
_cell_length_b 21.135324
_cell_length_c 20.090816
_cell_angle_alpha 90.000000
_cell_angle_beta 90.000000
_cell_angle_gamma 90.000000
_cell_volume 4078.333947
_symmetry_space_group_name_H-M "P B C M"
_symmetry_group_IT_number 57
_symmetry_cell_setting 'orthorhombic'
loop_
_space_group_symop_operation_xyz
x,y,z
-x,-y,1/2+z
x,1/2-y,-z
-x,1/2+y,1/2-z
-x,-y,-z
x,y,1/2-z
-x,1/2+y,z
x,1/2-y,1/2+z
loop_
_atom_site_type_symbol
_atom_site_label
_atom_site_fract_x
_atom_site_fract_y
_atom_site_fract_z
Si Si1 0.261508 0.705727 0.558210
Si Si2 0.552593 0.102682 0.485373
Si Si3 0.575881 0.078911 0.675320
Si Si4 0.624003 0.809181 0.176091
Si Si5 0.131884 0.866432 0.173418
Si Si6 0.382112 0.478055 0.082158
Si Si7 0.834931 0.584125 0.674968
Si Si8 0.531223 0.723772 0.071478
O O1 0.190682 0.750000 0.500000
O O2 0.334851 0.641951 0.528922
O O3 0.152187 0.688075 0.617058
O O4 0.379334 0.749638 0.590649
O O5 0.422972 0.074020 0.526763
O O6 0.478323 0.147847 0.430904
O O7 0.638186 0.047051 0.449139
O O8 0.528601 0.064935 0.750000
O O9 0.500502 0.144122 0.652063
O O10 0.740571 0.084578 0.667519
O O11 0.515334 0.021165 0.632070
O O12 0.593538 0.783870 0.250000
O O13 0.769305 0.845991 0.172675
O O14 0.636333 0.748249 0.128076
O O15 0.124976 0.839182 0.250000
O O16 0.996263 0.907537 0.156131
O O17 0.239916 0.460948 0.121147
O O18 0.818742 0.556053 0.750000
O O19 0.580373 0.750000 0.000000
#
# Coordination Sequence:
#
# PCOD8229897 Si02
#       8
#     8   8   8   8   8   8   8   8
#     4   9  16  29  45  67  96 117 146 191 230 267
#     4   9  18  27  46  65  89 119 150 181 228 275
#     4   9  15  25  46  66  83 111 150 190 221 258
#     4   9  15  26  43  65  88 110 140 180 225 264
#     4  10  17  28  46  70  89 114 156 191 226 267
#     4  10  16  30  45  64  90 116 148 187 228 272
#     4   9  18  29  45  68  93 116 144 188 233 265
#     4   9  15  26  44  67  87 113 142 183 222 261
#
# _framework density 15.692682
#
# number of rings (size 3 to 8) (size 9 to 14) (size 15 to 20)
#    0.000    3.000    2.500    3.375    0.000    0.000 
#    0.000    3.750    0.000    1.500    0.000    0.000 
#    0.000    0.000    0.000    0.000    0.000    0.000 
#
# Total GULP energy -792862.133092 kJ/mol
# GULP energy per Si atom -12388.470830 kJ/mol
# Density = 1.565697 g / cm^3
# Si number density = 15.692682 Si / 1000 Ang^3
#
#
#
# Elastic Constant Matrix: (Units=GPa)
#
#
# Indices 1 2 3 4 5 6 
#
# 1 78.5576 25.3856 25.8392 0.0000 0.0000 0.0000
# 2 25.3856 83.0341 41.6253 0.0000 0.0000 0.0000
# 3 25.8392 41.6253 78.2497 0.0000 0.0000 0.0000
# 4 0.0000 0.0000 0.0000 25.3755 0.0000 0.0000
# 5 0.0000 0.0000 0.0000 0.0000 21.9142 0.0000
# 6 0.0000 0.0000 0.0000 0.0000 0.0000 14.4836
#
#
#
# Elastic Compliance Matrix: (Units=1/GPa)
#
#
# Indices 1 2 3 4 5 6 
#
# 1 0.014749 -0.002820 -0.003371 0.000000 0.000000 0.000000
# 2 -0.002820 0.016962 -0.008092 0.000000 0.000000 0.000000
# 3 -0.003371 -0.008092 0.018197 0.000000 0.000000 0.000000
# 4 0.000000 0.000000 0.000000 0.039408 0.000000 0.000000
# 5 0.000000 0.000000 0.000000 0.000000 0.045632 0.000000
# 6 0.000000 0.000000 0.000000 0.000000 0.000000 0.069044
#
#
# Mechanical properties :
#
#
# Convention : Reuss Voigt Hill
#
# Bulk Modulus (GPa) = 46.85104 47.28241 47.06672
# Shear Modulus (GPa) = 20.86193 22.15407 21.50800
#
# Velocity S-wave (km/s) = 3.65006 3.76140 3.70614
# Velocity P-wave (km/s) = 6.90536 7.00427 6.95499
#
# Compressibility (1/GPa) = 0.02134424
#
# Stress axis : x y z
#
# Youngs Moduli (GPa) = 67.79988 58.95629 54.95381
#
# Poissons Ratio (x) = 0.16623 0.18522
# Poissons Ratio (y) = 0.19117 0.44468
# Poissons Ratio (z) = 0.22852 0.47706
#
# Static dielectric constant tensor:
#      x y z
#    x 2.766110 0.000000 0.000000 
#    y 0.000000 2.802560 0.000000 
#    z 0.000000 0.000000 3.210530 
# 
# 
# High freq. dielectric constant tensor:
#      x y z
#    x 1.574490 0.000000 0.000000 
#    y 0.000000 1.567660 0.000000 
#    z 0.000000 0.000000 1.614870 
# 
# From -- ./inp_files/24717.got.cif
#   From: 2010.03.12/outbox.cif.g09.slc.cpg/sg57_13_cif.got.tgz:24717.got - 2010.04.16 15:48:40.
