data_PCOD8229101
_publ_section_title
;
Structure prediction by ZEFSAII (Michael W. Deem and Ramdas Pophale) SiO2 
 PCOD8229101
Probable space group: P C C N
;
_chemical_formula_sum "Si O2"
_cell_formula_units_Z 32
_cell_length_a 7.339483
_cell_length_b 7.067863
_cell_length_c 29.040334
_cell_angle_alpha 90.000000
_cell_angle_beta 90.000000
_cell_angle_gamma 90.000000
_cell_volume 1506.451654
_symmetry_space_group_name_H-M "P C C N"
_symmetry_group_IT_number 56
_symmetry_cell_setting 'orthorhombic'
loop_
_space_group_symop_operation_xyz
x,y,z
1/2-x,1/2-y,z
1/2+x,-y,1/2-z
-x,1/2+y,1/2-z
-x,-y,-z
1/2+x,1/2+y,-z
1/2-x,y,1/2+z
x,1/2-y,1/2+z
loop_
_atom_site_type_symbol
_atom_site_label
_atom_site_fract_x
_atom_site_fract_y
_atom_site_fract_z
Si Si1 0.750000 0.750000 0.247983
Si Si2 0.093335 0.601930 0.302285
Si Si3 0.405793 0.121060 0.605942
Si Si4 0.545763 0.784194 0.492459
Si Si5 0.250000 0.750000 0.059221
O O1 0.597733 0.846919 0.279200
O O2 0.653835 0.601658 0.214725
O O3 0.250000 0.750000 0.289534
O O4 0.066351 0.590425 0.357444
O O5 0.250000 0.250000 0.629725
O O6 0.477001 0.246814 0.562498
O O7 0.325849 0.917150 0.590939
O O8 0.750000 0.750000 0.509592
O O9 0.407045 0.663496 0.524760
O O10 0.500000 0.000000 0.500000
#
# Coordination Sequence:
#
# PCOD8229101 Si02
#       5
#     4   8   8   8   4
#     4  12  26  48  76 102 134 178 220 286 354 418
#     4  12  26  46  71 103 135 174 227 281 350 415
#     4  10  23  41  66  99 132 177 227 279 331 403
#     4   9  20  39  60  93 129 177 221 266 328 383
#     4  10  22  42  64  94 144 178 226 280 328 394
#
# _framework density 21.241968
#
# number of rings (size 3 to 8) (size 9 to 14) (size 15 to 20)
#    0.000    1.500    3.750    0.000    1.750   13.000 
#   13.500    0.000    0.000    0.000    0.000    0.000 
#    0.000    0.000    0.000    0.000    0.000    0.000 
#
# Total GULP energy -396699.634034 kJ/mol
# GULP energy per Si atom -12396.863564 kJ/mol
# Density = 2.119362 g / cm^3
# Si number density = 21.241968 Si / 1000 Ang^3
#
#
#
# Elastic Constant Matrix: (Units=GPa)
#
#
# Indices 1 2 3 4 5 6 
#
# 1 141.4543 40.8364 56.3449 0.0000 0.0000 0.0000
# 2 40.8364 85.4344 34.0455 0.0000 0.0000 0.0000
# 3 56.3449 34.0455 94.3641 0.0000 0.0000 0.0000
# 4 0.0000 0.0000 0.0000 64.8105 0.0000 0.0000
# 5 0.0000 0.0000 0.0000 0.0000 49.5302 0.0000
# 6 0.0000 0.0000 0.0000 0.0000 0.0000 44.6843
#
#
#
# Elastic Compliance Matrix: (Units=1/GPa)
#
#
# Indices 1 2 3 4 5 6 
#
# 1 0.009798 -0.002747 -0.004859 0.000000 0.000000 0.000000
# 2 -0.002747 0.014440 -0.003570 0.000000 0.000000 0.000000
# 3 -0.004859 -0.003570 0.014787 0.000000 0.000000 0.000000
# 4 0.000000 0.000000 0.000000 0.015430 0.000000 0.000000
# 5 0.000000 0.000000 0.000000 0.000000 0.020190 0.000000
# 6 0.000000 0.000000 0.000000 0.000000 0.000000 0.022379
#
#
# Mechanical properties :
#
#
# Convention : Reuss Voigt Hill
#
# Bulk Modulus (GPa) = 59.97678 64.85626 62.41652
# Shear Modulus (GPa) = 40.02131 44.47340 42.24736
#
# Velocity S-wave (km/s) = 4.34529 4.58061 4.46450
# Velocity P-wave (km/s) = 7.31244 7.65339 7.48486
#
# Compressibility (1/GPa) = 0.01667312
#
# Stress axis : x y z
#
# Youngs Moduli (GPa) = 102.06137 69.25014 67.62821
#
# Poissons Ratio (x) = 0.19022 0.32863
# Poissons Ratio (y) = 0.28035 0.24142
# Poissons Ratio (z) = 0.49595 0.24721
#
# Static dielectric constant tensor:
#      x y z
#    x 4.238300 0.000000 0.000000 
#    y 0.000000 3.769430 0.000000 
#    z 0.000000 0.000000 4.147780 
# 
# 
# High freq. dielectric constant tensor:
#      x y z
#    x 1.840140 0.000000 0.000000 
#    y 0.000000 1.836250 0.000000 
#    z 0.000000 0.000000 1.833330 
# 
# From -- ./inp_files/22743.got.cif
#   From: 2010.03.12/outbox.cif.g09.slc.cpg/sg56_12_cif.got.tgz:22743.got - 2010.04.16 15:33:40.
