data_PCOD8229260
_publ_section_title
;
Structure prediction by ZEFSAII (Michael W. Deem and Ramdas Pophale) SiO2 
 PCOD8229260
Probable space group: P C C N
;
_chemical_formula_sum "Si O2"
_cell_formula_units_Z 60
_cell_length_a 19.584647
_cell_length_b 16.461105
_cell_length_c 8.649440
_cell_angle_alpha 90.000000
_cell_angle_beta 90.000000
_cell_angle_gamma 90.000000
_cell_volume 2788.449115
_symmetry_space_group_name_H-M "P C C N"
_symmetry_group_IT_number 56
_symmetry_cell_setting 'orthorhombic'
loop_
_space_group_symop_operation_xyz
x,y,z
1/2-x,1/2-y,z
1/2+x,-y,1/2-z
-x,1/2+y,1/2-z
-x,-y,-z
1/2+x,1/2+y,-z
1/2-x,y,1/2+z
x,1/2-y,1/2+z
loop_
_atom_site_type_symbol
_atom_site_label
_atom_site_fract_x
_atom_site_fract_y
_atom_site_fract_z
Si Si1 0.597214 0.310492 0.387973
Si Si2 0.605897 0.143531 0.236559
Si Si3 0.750000 0.750000 0.019909
Si Si4 0.343992 0.541456 0.788063
Si Si5 0.471840 0.451540 0.709547
Si Si6 0.708501 0.479781 0.877302
Si Si7 0.960354 0.614364 0.120943
Si Si8 0.323827 0.342924 0.227410
O O1 0.620956 0.220076 0.346261
O O2 0.620926 0.333865 0.559362
O O3 0.623263 0.372341 0.256738
O O4 0.515464 0.314127 0.388747
O O5 0.527812 0.113070 0.272097
O O6 0.661718 0.075277 0.268239
O O7 0.773896 0.675227 0.127541
O O8 0.687117 0.722694 0.909712
O O9 0.402064 0.470067 0.805061
O O10 0.289017 0.525791 0.653901
O O11 0.304193 0.547394 0.947922
O O12 0.441482 0.420912 0.547005
O O13 0.511843 0.536417 0.711168
O O14 0.689718 0.571491 0.847155
O O15 0.900144 0.659375 0.209933
#
# Coordination Sequence:
#
# PCOD8229260 Si02
#       8
#     8   8   4   8   8   8   8   8
#     4  10  23  42  65  99 138 171 226 268 344 386
#     4  11  22  44  69 100 135 181 219 282 327 403
#     4  10  26  42  64  90 138 162 220 272 334 384
#     4  11  25  42  66 103 132 177 224 281 330 402
#     4   9  20  40  67  95 129 172 216 272 322 387
#     4  12  25  42  71  97 133 176 228 272 335 397
#     4   9  19  39  67  92 129 172 215 266 325 390
#     4  11  23  45  63  96 126 178 215 274 325 403
#
# _framework density 21.517336
#
# number of rings (size 3 to 8) (size 9 to 14) (size 15 to 20)
#    0.000    1.600    1.333    3.200    3.733    3.200 
#    7.200    2.667    0.000    0.000    0.000    0.000 
#    0.000    0.000    0.000    0.000    0.000    0.000 
#
# Total GULP energy -743628.400580 kJ/mol
# GULP energy per Si atom -12393.806676 kJ/mol
# Density = 2.146836 g / cm^3
# Si number density = 21.517336 Si / 1000 Ang^3
#
#
#
# Elastic Constant Matrix: (Units=GPa)
#
#
# Indices 1 2 3 4 5 6 
#
# 1 88.1677 16.8589 33.6978 0.0000 0.0000 0.0000
# 2 16.8589 91.0820 31.6963 0.0000 0.0000 0.0000
# 3 33.6978 31.6963 108.5078 0.0000 0.0000 0.0000
# 4 0.0000 0.0000 0.0000 44.0671 0.0000 0.0000
# 5 0.0000 0.0000 0.0000 0.0000 26.5989 0.0000
# 6 0.0000 0.0000 0.0000 0.0000 0.0000 20.4374
#
#
#
# Elastic Compliance Matrix: (Units=1/GPa)
#
#
# Indices 1 2 3 4 5 6 
#
# 1 0.012970 -0.001112 -0.003703 0.000000 0.000000 0.000000
# 2 -0.001112 0.012317 -0.003253 0.000000 0.000000 0.000000
# 3 -0.003703 -0.003253 0.011316 0.000000 0.000000 0.000000
# 4 0.000000 0.000000 0.000000 0.022693 0.000000 0.000000
# 5 0.000000 0.000000 0.000000 0.000000 0.037596 0.000000
# 6 0.000000 0.000000 0.000000 0.000000 0.000000 0.048930
#
#
# Mechanical properties :
#
#
# Convention : Reuss Voigt Hill
#
# Bulk Modulus (GPa) = 48.85777 50.25150 49.55464
# Shear Modulus (GPa) = 29.62457 31.92096 30.77277
#
# Velocity S-wave (km/s) = 3.71452 3.85580 3.78582
# Velocity P-wave (km/s) = 6.41501 6.57477 6.49538
#
# Compressibility (1/GPa) = 0.02046757
#
# Stress axis : x y z
#
# Youngs Moduli (GPa) = 77.10109 81.18972 88.37008
#
# Poissons Ratio (x) = 0.09029 0.32724
# Poissons Ratio (y) = 0.08574 0.28743
# Poissons Ratio (z) = 0.28551 0.26407
#
# Static dielectric constant tensor:
#      x y z
#    x 13.524800 0.000000 0.000000 
#    y 0.000000 3.821290 0.000000 
#    z 0.000000 0.000000 3.902270 
# 
# 
# High freq. dielectric constant tensor:
#      x y z
#    x 1.846910 0.000000 0.000000 
#    y 0.000000 1.843210 0.000000 
#    z 0.000000 0.000000 1.842450 
# 
# From -- ./inp_files/4158.got.cif
#   From: 2010.03.12/outbox.cif.g09.slc.cpg/sg56_3_cif.got.tgz:4158.got - 2010.04.16 15:33:40.
