data_PCOD8229091
_publ_section_title
;
Structure prediction by ZEFSAII (Michael W. Deem and Ramdas Pophale) SiO2 
 PCOD8229091
Probable space group: P C C N
;
_chemical_formula_sum "Si O2"
_cell_formula_units_Z 48
_cell_length_a 20.074202
_cell_length_b 12.257139
_cell_length_c 9.023577
_cell_angle_alpha 90.000000
_cell_angle_beta 90.000000
_cell_angle_gamma 90.000000
_cell_volume 2220.271733
_symmetry_space_group_name_H-M "P C C N"
_symmetry_group_IT_number 56
_symmetry_cell_setting 'orthorhombic'
loop_
_space_group_symop_operation_xyz
x,y,z
1/2-x,1/2-y,z
1/2+x,-y,1/2-z
-x,1/2+y,1/2-z
-x,-y,-z
1/2+x,1/2+y,-z
1/2-x,y,1/2+z
x,1/2-y,1/2+z
loop_
_atom_site_type_symbol
_atom_site_label
_atom_site_fract_x
_atom_site_fract_y
_atom_site_fract_z
Si Si1 0.249999 0.982486 0.999996
Si Si2 0.964866 0.750000 0.000000
Si Si3 0.547930 0.362011 0.749999
Si Si4 0.193901 0.658775 0.749996
Si Si5 0.097633 0.394127 0.750001
Si Si6 0.752141 0.621791 0.750004
O O1 0.201095 0.908870 0.097358
O O2 0.289531 0.066975 0.109196
O O3 0.298902 0.908867 0.902635
O O4 0.210467 0.066975 0.890794
O O5 0.919101 0.674333 0.102984
O O6 0.009770 0.827945 0.101760
O O7 0.919101 0.825667 0.897015
O O8 0.009770 0.672056 0.898241
O O9 0.618785 0.296809 0.750000
O O10 0.557789 0.492166 0.749999
O O11 0.250000 0.750000 0.749991
O O12 0.175815 0.420617 0.750000
O O13 0.750000 0.750000 0.750005
#
# Coordination Sequence:
#
# PCOD8229091 Si02
#       6
#     8   8   8   8   8   8
#     4  10  22  42  56  96 124 160 202 246 320 368
#     4  10  26  42  66  92 120 170 214 260 304 360
#     4  11  23  45  65  91 127 163 213 258 309 368
#     4  11  24  38  66  93 128 160 202 254 316 374
#     4  11  23  45  65  91 127 163 213 258 309 368
#     4  11  24  38  66  93 128 160 202 254 316 374
#
# _framework density 21.618974000000001
#
# number of rings (size 3 to 8) (size 9 to 14) (size 15 to 20)
#    0.000    1.333    3.333    2.000    9.333    0.000 
#    0.000    0.000    0.000    0.000    0.000    0.000 
#    0.000    0.000    0.000    0.000    0.000    0.000 
#
# Total GULP energy -594698.365533 kJ/mol
# GULP energy per Si atom -12389.549282 kJ/mol
# Density = 2.156977 g / cm^3
# Si number density = 21.618974 Si / 1000 Ang^3
#
#
#
# Elastic Constant Matrix: (Units=GPa)
#
#
# Indices 1 2 3 4 5 6 
#
# 1 78.0125 21.6030 32.4744 0.0000 0.0000 0.0000
# 2 21.6030 134.3546 56.1166 0.0000 0.0000 0.0000
# 3 32.4744 56.1166 168.1141 0.0000 0.0000 0.0000
# 4 0.0000 0.0000 0.0000 33.3874 0.0000 0.0000
# 5 0.0000 0.0000 0.0000 0.0000 17.5420 0.0000
# 6 0.0000 0.0000 0.0000 0.0000 0.0000 35.1083
#
#
#
# Elastic Compliance Matrix: (Units=1/GPa)
#
#
# Indices 1 2 3 4 5 6 
#
# 1 0.014137 -0.001316 -0.002292 0.000000 0.000000 0.000000
# 2 -0.001316 0.008771 -0.002674 0.000000 0.000000 0.000000
# 3 -0.002292 -0.002674 0.007283 0.000000 0.000000 0.000000
# 4 0.000000 0.000000 0.000000 0.029951 0.000000 0.000000
# 5 0.000000 0.000000 0.000000 0.000000 0.057006 0.000000
# 6 0.000000 0.000000 0.000000 0.000000 0.000000 0.028483
#
#
# Mechanical properties :
#
#
# Convention : Reuss Voigt Hill
#
# Bulk Modulus (GPa) = 56.72385 66.76323 61.74354
# Shear Modulus (GPa) = 30.47465 35.22671 32.85068
#
# Velocity S-wave (km/s) = 3.75857 4.04101 3.90234
# Velocity P-wave (km/s) = 6.71794 7.26098 6.99473
#
# Compressibility (1/GPa) = 0.01762927
#
# Stress axis : x y z
#
# Youngs Moduli (GPa) = 70.73756 114.00810 137.29737
#
# Poissons Ratio (x) = 0.15003 0.31462
# Poissons Ratio (y) = 0.09309 0.36709
# Poissons Ratio (z) = 0.16210 0.30482
#
# Static dielectric constant tensor:
#      x y z
#    x 3.777210 0.000000 0.000000 
#    y 0.000000 4.163510 0.000000 
#    z 0.000000 0.000000 4.736630 
# 
# 
# High freq. dielectric constant tensor:
#      x y z
#    x 1.818150 0.000000 0.000000 
#    y 0.000000 1.870180 0.000000 
#    z 0.000000 0.000000 1.879100 
# 
# From -- ./inp_files/4751.got.cif
#   From: 2010.03.12/outbox.cif.g09.slc.cpg/sg56_3_cif.got.tgz:4751.got - 2010.04.16 15:33:40.
