data_PCOD8229320
_publ_section_title
;
Structure prediction by ZEFSAII (Michael W. Deem and Ramdas Pophale) SiO2 
 PCOD8229320
Probable space group: P C C N
;
_chemical_formula_sum "Si O2"
_cell_formula_units_Z 32
_cell_length_a 5.133074
_cell_length_b 17.472550
_cell_length_c 13.426767
_cell_angle_alpha 90.000000
_cell_angle_beta 90.000000
_cell_angle_gamma 90.000000
_cell_volume 1204.218430
_symmetry_space_group_name_H-M "P C C N"
_symmetry_group_IT_number 56
_symmetry_cell_setting 'orthorhombic'
loop_
_space_group_symop_operation_xyz
x,y,z
1/2-x,1/2-y,z
1/2+x,-y,1/2-z
-x,1/2+y,1/2-z
-x,-y,-z
1/2+x,1/2+y,-z
1/2-x,y,1/2+z
x,1/2-y,1/2+z
loop_
_atom_site_type_symbol
_atom_site_label
_atom_site_fract_x
_atom_site_fract_y
_atom_site_fract_z
Si Si1 0.306715 0.430899 0.521403
Si Si2 0.508292 0.299975 0.644854
Si Si3 0.978889 0.543861 0.282615
Si Si4 0.710275 0.663168 0.164935
O O1 0.500000 0.500000 0.500000
O O2 0.498974 0.366869 0.564759
O O3 0.078625 0.452692 0.598985
O O4 0.159260 0.395570 0.425096
O O5 0.750000 0.250000 0.612592
O O6 0.533334 0.335302 0.757275
O O7 0.250000 0.250000 0.643496
O O8 0.767642 0.488318 0.230083
O O9 0.951902 0.628166 0.231450
O O10 0.750000 0.750000 0.124771
#
# Coordination Sequence:
#
# PCOD8229320 Si02
#       4
#     8   8   8   8
#     4  11  23  47  75 114 147 203 260 320 383 473
#     4  10  24  50  75 106 154 204 253 323 390 461
#     4  11  25  48  73 104 150 198 248 314 385 457
#     4  10  23  46  73 112 147 197 250 316 383 457
#
# _framework density 26.573253999999999
#
# number of rings (size 3 to 8) (size 9 to 14) (size 15 to 20)
#    0.000    1.500    2.500    0.750    0.000   14.000 
#    9.000    2.500    0.000    0.000    0.000    0.000 
#    0.000    0.000    0.000    0.000    0.000    0.000 
#
# Total GULP energy -396613.623627 kJ/mol
# GULP energy per Si atom -12394.175738 kJ/mol
# Density = 2.651277 g / cm^3
# Si number density = 26.573254 Si / 1000 Ang^3
#
#
#
# Elastic Constant Matrix: (Units=GPa)
#
#
# Indices 1 2 3 4 5 6 
#
# 1 87.1524 47.0019 -6.6112 0.0000 0.0000 0.0000
# 2 47.0019 177.1341 43.4988 0.0000 0.0000 0.0000
# 3 -6.6112 43.4988 135.4323 0.0000 0.0000 0.0000
# 4 0.0000 0.0000 0.0000 70.6404 0.0000 0.0000
# 5 0.0000 0.0000 0.0000 0.0000 1.9301 0.0000
# 6 0.0000 0.0000 0.0000 0.0000 0.0000 45.8338
#
#
#
# Elastic Compliance Matrix: (Units=1/GPa)
#
#
# Indices 1 2 3 4 5 6 
#
# 1 0.013881 -0.004179 0.002020 0.000000 0.000000 0.000000
# 2 -0.004179 0.007387 -0.002577 0.000000 0.000000 0.000000
# 3 0.002020 -0.002577 0.008310 0.000000 0.000000 0.000000
# 4 0.000000 0.000000 0.000000 0.014156 0.000000 0.000000
# 5 0.000000 0.000000 0.000000 0.000000 0.518100 0.000000
# 6 0.000000 0.000000 0.000000 0.000000 0.000000 0.021818
#
#
# Mechanical properties :
#
#
# Convention : Reuss Voigt Hill
#
# Bulk Modulus (GPa) = 49.73562 63.05532 56.39547
# Shear Modulus (GPa) = 8.33574 44.73616 26.53595
#
# Velocity S-wave (km/s) = 1.77305 4.10750 3.16349
# Velocity P-wave (km/s) = 4.79048 6.80263 5.88322
#
# Compressibility (1/GPa) = 0.02010631
#
# Stress axis : x y z
#
# Youngs Moduli (GPa) = 72.03899 135.36947 120.33754
#
# Poissons Ratio (x) = 0.56577 -0.24308
# Poissons Ratio (y) = 0.30108 0.31007
# Poissons Ratio (z) = -0.14552 0.34880
#
# Static dielectric constant tensor:
#      x y z
#    x 4.021560 0.000000 0.000000 
#    y 0.000000 5.492470 0.000000 
#    z 0.000000 0.000000 5.294750 
# 
# 
# High freq. dielectric constant tensor:
#      x y z
#    x 2.032640 0.000000 0.000000 
#    y 0.000000 2.104780 0.000000 
#    z 0.000000 0.000000 2.076570 
# 
# From -- ./inp_files/9424.got.cif
#   From: 2010.03.12/outbox.cif.g09.slc.cpg/sg56_5_cif.got.tgz:9424.got - 2010.04.16 15:33:40.
