data_PCOD8229908
_publ_section_title
;
Structure prediction by ZEFSAII (Michael W. Deem and Ramdas Pophale) SiO2 
 PCOD8229908
Probable space group: P B C M
;
_chemical_formula_sum "Si O2"
_cell_formula_units_Z 64
_cell_length_a 9.645569
_cell_length_b 19.138632
_cell_length_c 18.282075
_cell_angle_alpha 90.000000
_cell_angle_beta 90.000000
_cell_angle_gamma 90.000000
_cell_volume 3374.925809
_symmetry_space_group_name_H-M "P B C M"
_symmetry_group_IT_number 57
_symmetry_cell_setting 'orthorhombic'
loop_
_space_group_symop_operation_xyz
x,y,z
-x,-y,1/2+z
x,1/2-y,-z
-x,1/2+y,1/2-z
-x,-y,-z
x,y,1/2-z
-x,1/2+y,z
x,1/2-y,1/2+z
loop_
_atom_site_type_symbol
_atom_site_label
_atom_site_fract_x
_atom_site_fract_y
_atom_site_fract_z
Si Si1 0.254361 0.240220 0.164871
Si Si2 0.292498 0.372253 0.427212
Si Si3 0.417890 0.517712 0.073266
Si Si4 0.340746 0.393770 0.588372
Si Si5 0.938266 0.978926 0.920612
Si Si6 0.163154 0.620204 0.071174
Si Si7 0.064763 0.738483 0.165089
Si Si8 0.036038 0.626786 0.584576
O O1 0.266342 0.257407 0.250000
O O2 0.327252 0.305530 0.123576
O O3 0.331913 0.168610 0.146093
O O4 0.095150 0.225489 0.142181
O O5 0.352696 0.445954 0.393574
O O6 0.362557 0.360875 0.506999
O O7 0.127113 0.374445 0.432213
O O8 0.535571 0.557349 0.120676
O O9 0.302645 0.576898 0.060912
O O10 0.500000 0.500000 0.000000
O O11 0.208778 0.442781 0.577519
O O12 0.050594 0.927367 0.884951
O O13 0.922318 0.052468 0.878854
O O14 0.000000 0.000000 0.000000
O O15 0.172675 0.689646 0.120748
O O16 0.111031 0.643267 0.991677
O O17 0.092771 0.726543 0.250000
O O18 0.091516 0.818572 0.143825
#
# Coordination Sequence:
#
# PCOD8229908 Si02
#       8
#     8   8   8   8   8   8   8   8
#     4  10  21  36  55  79 110 149 191 228 269 334
#     4  10  17  33  56  82 108 141 182 231 281 327
#     4  10  21  34  57  88 116 139 179 238 282 329
#     4  11  19  35  56  85 112 141 183 231 279 331
#     4  10  16  30  56  82 105 135 180 227 279 327
#     4  11  18  34  57  84 109 142 183 230 288 332
#     4  10  21  35  52  81 114 145 186 235 277 327
#     4  10  17  31  56  82 108 141 183 228 283 334
#
# _framework density 18.963381999999999
#
# number of rings (size 3 to 8) (size 9 to 14) (size 15 to 20)
#    0.000    1.750    5.000    3.000    0.000    2.000 
#    0.000    9.375    0.000    0.000    0.000    0.875 
#    0.000    0.000    0.000    0.000    0.000    0.000 
#
# Total GULP energy -792854.751864 kJ/mol
# GULP energy per Si atom -12388.355498 kJ/mol
# Density = 1.892022 g / cm^3
# Si number density = 18.963382 Si / 1000 Ang^3
#
#
#
# Elastic Constant Matrix: (Units=GPa)
#
#
# Indices 1 2 3 4 5 6 
#
# 1 94.6349 49.1535 20.3527 0.0000 0.0000 0.0000
# 2 49.1535 122.7784 22.6018 0.0000 0.0000 0.0000
# 3 20.3527 22.6018 33.6910 0.0000 0.0000 0.0000
# 4 0.0000 0.0000 0.0000 12.8767 0.0000 0.0000
# 5 0.0000 0.0000 0.0000 0.0000 12.4679 0.0000
# 6 0.0000 0.0000 0.0000 0.0000 0.0000 32.9980
#
#
#
# Elastic Compliance Matrix: (Units=1/GPa)
#
#
# Indices 1 2 3 4 5 6 
#
# 1 0.014158 -0.004671 -0.005420 0.000000 0.000000 0.000000
# 2 -0.004671 0.010833 -0.004446 0.000000 0.000000 0.000000
# 3 -0.005420 -0.004446 0.035938 0.000000 0.000000 0.000000
# 4 0.000000 0.000000 0.000000 0.077660 0.000000 0.000000
# 5 0.000000 0.000000 0.000000 0.000000 0.080206 0.000000
# 6 0.000000 0.000000 0.000000 0.000000 0.000000 0.030305
#
#
# Mechanical properties :
#
#
# Convention : Reuss Voigt Hill
#
# Bulk Modulus (GPa) = 31.39019 48.36892 39.87955
# Shear Modulus (GPa) = 17.31351 22.26826 19.79088
#
# Velocity S-wave (km/s) = 3.02486 3.43049 3.23404
# Velocity P-wave (km/s) = 5.36551 6.42284 5.91784
#
# Compressibility (1/GPa) = 0.03185709
#
# Stress axis : x y z
#
# Youngs Moduli (GPa) = 70.62927 92.31056 27.82548
#
# Poissons Ratio (x) = 0.43114 0.15081
# Poissons Ratio (y) = 0.32988 0.12371
# Poissons Ratio (z) = 0.38280 0.41041
#
# Static dielectric constant tensor:
#      x y z
#    x 3.571010 0.000000 0.000000 
#    y 0.000000 4.203820 0.000000 
#    z 0.000000 0.000000 3.113120 
# 
# 
# High freq. dielectric constant tensor:
#      x y z
#    x 1.719180 0.000000 0.000000 
#    y 0.000000 1.763410 0.000000 
#    z 0.000000 0.000000 1.688920 
# 
# From -- ./inp_files/24626.got.cif
#   From: 2010.03.12/outbox.cif.g09.slc.cpg/sg57_13_cif.got.tgz:24626.got - 2010.04.16 15:48:40.
