data_PCOD8229717
_publ_section_title
;
Structure prediction by ZEFSAII (Michael W. Deem and Ramdas Pophale) SiO2 
 PCOD8229717
Probable space group: P C C N
;
_chemical_formula_sum "Si O2"
_cell_formula_units_Z 48
_cell_length_a 9.066185
_cell_length_b 17.656073
_cell_length_c 13.285739
_cell_angle_alpha 90.000000
_cell_angle_beta 90.000000
_cell_angle_gamma 90.000000
_cell_volume 2126.691077
_symmetry_space_group_name_H-M "P C C N"
_symmetry_group_IT_number 56
_symmetry_cell_setting 'orthorhombic'
loop_
_space_group_symop_operation_xyz
x,y,z
1/2-x,1/2-y,z
1/2+x,-y,1/2-z
-x,1/2+y,1/2-z
-x,-y,-z
1/2+x,1/2+y,-z
1/2-x,y,1/2+z
x,1/2-y,1/2+z
loop_
_atom_site_type_symbol
_atom_site_label
_atom_site_fract_x
_atom_site_fract_y
_atom_site_fract_z
Si Si1 0.579431 0.008689 0.140040
Si Si2 0.734889 0.020918 0.834213
Si Si3 0.978628 0.174192 0.667687
Si Si4 0.431989 0.855077 0.600793
Si Si5 0.213950 0.412076 0.499635
Si Si6 0.250000 0.250000 0.574998
Si Si7 0.750000 0.250000 0.538131
O O1 0.703640 0.019397 0.222488
O O2 0.496334 0.089971 0.120946
O O3 0.438781 0.960901 0.175467
O O4 0.657629 0.965903 0.047665
O O5 0.789039 0.092580 0.896960
O O6 0.796328 0.944115 0.887200
O O7 0.971596 0.175188 0.788615
O O8 0.823990 0.192248 0.615285
O O9 0.105818 0.235816 0.643656
O O10 0.560235 0.911997 0.560999
O O11 0.383433 0.786398 0.527823
O O12 0.245443 0.322378 0.501867
#
# Coordination Sequence:
#
# PCOD8229717 Si02
#       7
#     8   8   8   8   8   4   4
#     4  11  24  45  73 101 140 186 243 297 362 428
#     4  11  24  44  70 102 137 183 236 301 353 425
#     4  11  25  48  67 101 143 182 232 294 352 424
#     4  11  26  44  70 105 139 189 242 284 360 431
#     4  12  25  45  70 105 136 187 239 296 359 437
#     4  12  26  46  70  98 142 182 232 298 358 418
#     4  12  24  46  68 102 144 188 224 288 360 432
#
# _framework density 22.570274999999999
#
# number of rings (size 3 to 8) (size 9 to 14) (size 15 to 20)
#    0.000    0.667    3.333    4.500    2.333    3.333 
#    3.000    0.000    0.000    0.000    0.000    0.000 
#    0.000    0.000    0.000    0.000    0.000    0.000 
#
# Total GULP energy -594736.331244 kJ/mol
# GULP energy per Si atom -12390.340234 kJ/mol
# Density = 2.251890 g / cm^3
# Si number density = 22.570275 Si / 1000 Ang^3
#
#
#
# Elastic Constant Matrix: (Units=GPa)
#
#
# Indices 1 2 3 4 5 6 
#
# 1 113.3294 17.8495 11.6958 0.0000 0.0000 0.0000
# 2 17.8495 93.3565 18.3178 0.0000 0.0000 0.0000
# 3 11.6958 18.3178 62.8699 0.0000 0.0000 0.0000
# 4 0.0000 0.0000 0.0000 31.3233 0.0000 0.0000
# 5 0.0000 0.0000 0.0000 0.0000 26.9686 0.0000
# 6 0.0000 0.0000 0.0000 0.0000 0.0000 46.8167
#
#
#
# Elastic Compliance Matrix: (Units=1/GPa)
#
#
# Indices 1 2 3 4 5 6 
#
# 1 0.009193 -0.001508 -0.001271 0.000000 0.000000 0.000000
# 2 -0.001508 0.011609 -0.003102 0.000000 0.000000 0.000000
# 3 -0.001271 -0.003102 0.017046 0.000000 0.000000 0.000000
# 4 0.000000 0.000000 0.000000 0.031925 0.000000 0.000000
# 5 0.000000 0.000000 0.000000 0.000000 0.037080 0.000000
# 6 0.000000 0.000000 0.000000 0.000000 0.000000 0.021360
#
#
# Mechanical properties :
#
#
# Convention : Reuss Voigt Hill
#
# Bulk Modulus (GPa) = 38.33496 40.58688 39.46092
# Shear Modulus (GPa) = 33.63179 35.80122 34.71651
#
# Velocity S-wave (km/s) = 3.86436 3.98705 3.92618
# Velocity P-wave (km/s) = 6.07722 6.26234 6.17047
#
# Compressibility (1/GPa) = 0.02608585
#
# Stress axis : x y z
#
# Youngs Moduli (GPa) = 108.78408 86.14305 58.66489
#
# Poissons Ratio (x) = 0.12993 0.07454
# Poissons Ratio (y) = 0.16408 0.18196
# Poissons Ratio (z) = 0.13823 0.26719
#
# Static dielectric constant tensor:
#      x y z
#    x 4.274400 0.000000 0.000000 
#    y 0.000000 4.195210 0.000000 
#    z 0.000000 0.000000 3.987950 
# 
# 
# High freq. dielectric constant tensor:
#      x y z
#    x 1.908590 0.000000 0.000000 
#    y 0.000000 1.889920 0.000000 
#    z 0.000000 0.000000 1.890350 
# 
# From -- ./inp_files/10721.got.cif
#   From: 2010.03.12/outbox.cif.g09.slc.cpg/sg56_6_cif.got.tgz:10721.got - 2010.04.16 15:33:40.
