data_PCOD8229810
_publ_section_title
;
Structure prediction by ZEFSAII (Michael W. Deem and Ramdas Pophale) SiO2 
 PCOD8229810
Probable space group: P C C N
;
_chemical_formula_sum "Si O2"
_cell_formula_units_Z 36
_cell_length_a 13.440213
_cell_length_b 8.829819
_cell_length_c 12.976937
_cell_angle_alpha 90.000000
_cell_angle_beta 90.000000
_cell_angle_gamma 90.000000
_cell_volume 1540.033432
_symmetry_space_group_name_H-M "P C C N"
_symmetry_group_IT_number 56
_symmetry_cell_setting 'orthorhombic'
loop_
_space_group_symop_operation_xyz
x,y,z
1/2-x,1/2-y,z
1/2+x,-y,1/2-z
-x,1/2+y,1/2-z
-x,-y,-z
1/2+x,1/2+y,-z
1/2-x,y,1/2+z
x,1/2-y,1/2+z
loop_
_atom_site_type_symbol
_atom_site_label
_atom_site_fract_x
_atom_site_fract_y
_atom_site_fract_z
Si Si1 0.078794 0.300313 0.023816
Si Si2 0.087970 0.034244 0.162975
Si Si3 0.750000 0.750000 0.628201
Si Si4 0.528810 0.196458 0.831776
Si Si5 0.185578 0.473709 0.200636
O O1 0.104914 0.394892 0.125214
O O2 0.057490 0.127800 0.061006
O O3 0.168721 0.321667 0.945377
O O4 0.983663 0.351076 0.953661
O O5 0.027840 0.878534 0.173127
O O6 0.206046 0.005998 0.151755
O O7 0.064128 0.133950 0.264838
O O8 0.803692 0.619900 0.694894
O O9 0.632899 0.136695 0.782462
#
# Coordination Sequence:
#
# PCOD8229810 Si02
#       5
#     8   8   4   8   8
#     4  12  22  44  72  96 137 183 233 285 351 414
#     4  12  24  46  68 105 141 186 229 290 352 418
#     4  12  20  44  74  92 134 190 226 276 354 416
#     4  12  27  43  72 104 141 179 239 294 343 421
#     4  12  24  45  71 100 138 186 234 288 351 420
#
# _framework density 23.376116
#
# number of rings (size 3 to 8) (size 9 to 14) (size 15 to 20)
#    0.000    0.000    6.667    4.667    0.000    0.000 
#    0.000    0.000    0.000    0.000    0.000    0.000 
#    0.000    0.000    0.000    0.000    0.000    0.000 
#
# Total GULP energy -446196.805471 kJ/mol
# GULP energy per Si atom -12394.355708 kJ/mol
# Density = 2.332291 g / cm^3
# Si number density = 23.376116 Si / 1000 Ang^3
#
#
#
# Elastic Constant Matrix: (Units=GPa)
#
#
# Indices 1 2 3 4 5 6 
#
# 1 85.0018 34.3104 19.8003 0.0000 0.0000 0.0000
# 2 34.3104 96.9957 37.2759 0.0000 0.0000 0.0000
# 3 19.8003 37.2759 106.2817 0.0000 0.0000 0.0000
# 4 0.0000 0.0000 0.0000 30.2487 0.0000 0.0000
# 5 0.0000 0.0000 0.0000 0.0000 39.8676 0.0000
# 6 0.0000 0.0000 0.0000 0.0000 0.0000 36.0321
#
#
#
# Elastic Compliance Matrix: (Units=1/GPa)
#
#
# Indices 1 2 3 4 5 6 
#
# 1 0.013814 -0.004505 -0.000994 0.000000 0.000000 0.000000
# 2 -0.004505 0.013385 -0.003855 0.000000 0.000000 0.000000
# 3 -0.000994 -0.003855 0.010946 0.000000 0.000000 0.000000
# 4 0.000000 0.000000 0.000000 0.033059 0.000000 0.000000
# 5 0.000000 0.000000 0.000000 0.000000 0.025083 0.000000
# 6 0.000000 0.000000 0.000000 0.000000 0.000000 0.027753
#
#
# Mechanical properties :
#
#
# Convention : Reuss Voigt Hill
#
# Bulk Modulus (GPa) = 51.44530 52.33915 51.89222
# Shear Modulus (GPa) = 33.50603 34.35584 33.93094
#
# Velocity S-wave (km/s) = 3.79006 3.83782 3.81402
# Velocity P-wave (km/s) = 6.41936 6.48669 6.45311
#
# Compressibility (1/GPa) = 0.01943812
#
# Stress axis : x y z
#
# Youngs Moduli (GPa) = 72.38927 74.71197 91.35594
#
# Poissons Ratio (x) = 0.33655 0.09078
# Poissons Ratio (y) = 0.32609 0.35219
# Poissons Ratio (z) = 0.07193 0.28803
#
# Static dielectric constant tensor:
#      x y z
#    x 4.269180 0.000000 0.000000 
#    y 0.000000 4.257680 0.000000 
#    z 0.000000 0.000000 4.361500 
# 
# 
# High freq. dielectric constant tensor:
#      x y z
#    x 1.927960 0.000000 0.000000 
#    y 0.000000 1.919630 0.000000 
#    z 0.000000 0.000000 1.931260 
# 
# From -- ./inp_files/12025.got.cif
#   From: 2010.03.12/outbox.cif.g09.slc.cpg/sg56_7_cif.got.tgz:12025.got - 2010.04.16 15:33:40.
