data_PCOD8229064
_publ_section_title
;
Structure prediction by ZEFSAII (Michael W. Deem and Ramdas Pophale) SiO2 
 PCOD8229064
Probable space group: P C C N
;
_chemical_formula_sum "Si O2"
_cell_formula_units_Z 56
_cell_length_a 6.688484
_cell_length_b 28.815008
_cell_length_c 13.670398
_cell_angle_alpha 90.000000
_cell_angle_beta 90.000000
_cell_angle_gamma 90.000000
_cell_volume 2634.678308
_symmetry_space_group_name_H-M "P C C N"
_symmetry_group_IT_number 56
_symmetry_cell_setting 'orthorhombic'
loop_
_space_group_symop_operation_xyz
x,y,z
1/2-x,1/2-y,z
1/2+x,-y,1/2-z
-x,1/2+y,1/2-z
-x,-y,-z
1/2+x,1/2+y,-z
1/2-x,y,1/2+z
x,1/2-y,1/2+z
loop_
_atom_site_type_symbol
_atom_site_label
_atom_site_fract_x
_atom_site_fract_y
_atom_site_fract_z
Si Si1 0.513487 0.641665 0.223243
Si Si2 0.286415 0.301603 0.140711
Si Si3 0.260147 0.500147 0.605095
Si Si4 0.365975 0.701212 0.721704
Si Si5 0.604473 0.959630 0.698445
Si Si6 0.669818 0.668666 0.566560
Si Si7 0.085090 0.433278 0.954519
O O1 0.621559 0.663541 0.316990
O O2 0.290623 0.660126 0.209702
O O3 0.492656 0.586488 0.237325
O O4 0.636887 0.654260 0.127183
O O5 0.250000 0.250000 0.180596
O O6 0.510697 0.312064 0.179517
O O7 0.260728 0.303021 0.024227
O O8 0.355727 0.493900 0.712073
O O9 0.369583 0.541837 0.546628
O O10 0.280681 0.452555 0.544125
O O11 0.028587 0.513515 0.617774
O O12 0.250000 0.750000 0.729589
O O13 0.517859 0.701009 0.628817
O O14 0.811097 0.944758 0.648692
O O15 0.556494 0.621805 0.532089
#
# Coordination Sequence:
#
# PCOD8229064 Si02
#       7
#     8   8   8   8   8   8   8
#     4  10  23  42  62  92 130 163 208 265 309 374
#     4  11  23  41  64  92 127 162 208 258 318 371
#     4  11  21  37  65  88 122 165 203 261 304 373
#     4  11  23  43  66  92 125 164 209 262 309 375
#     4  11  21  39  62  92 122 165 211 246 320 369
#     4  10  24  41  65  90 127 170 205 256 320 374
#     4  10  22  41  58  92 126 158 209 258 306 370
#
# _framework density 21.254966
#
# number of rings (size 3 to 8) (size 9 to 14) (size 15 to 20)
#    0.000    1.429    2.857    2.143    2.000    1.143 
#    2.571    2.857    0.000    0.000    0.000    0.000 
#    0.000    0.000    0.000    0.000    0.000    0.000 
#
# Total GULP energy -694519.475694 kJ/mol
# GULP energy per Si atom -12402.133495 kJ/mol
# Density = 2.120659 g / cm^3
# Si number density = 21.254966 Si / 1000 Ang^3
#
#
#
# Elastic Constant Matrix: (Units=GPa)
#
#
# Indices 1 2 3 4 5 6 
#
# 1 82.7223 12.1700 22.3664 0.0000 0.0000 0.0000
# 2 12.1700 58.3556 10.1853 0.0000 0.0000 0.0000
# 3 22.3664 10.1853 86.9412 0.0000 0.0000 0.0000
# 4 0.0000 0.0000 0.0000 32.0193 0.0000 0.0000
# 5 0.0000 0.0000 0.0000 0.0000 26.0654 0.0000
# 6 0.0000 0.0000 0.0000 0.0000 0.0000 33.7922
#
#
#
# Elastic Compliance Matrix: (Units=1/GPa)
#
#
# Indices 1 2 3 4 5 6 
#
# 1 0.013267 -0.002216 -0.003153 0.000000 0.000000 0.000000
# 2 -0.002216 0.017864 -0.001523 0.000000 0.000000 0.000000
# 3 -0.003153 -0.001523 0.012492 0.000000 0.000000 0.000000
# 4 0.000000 0.000000 0.000000 0.031231 0.000000 0.000000
# 5 0.000000 0.000000 0.000000 0.000000 0.038365 0.000000
# 6 0.000000 0.000000 0.000000 0.000000 0.000000 0.029593
#
#
# Mechanical properties :
#
#
# Convention : Reuss Voigt Hill
#
# Bulk Modulus (GPa) = 33.51412 35.27361 34.39386
# Shear Modulus (GPa) = 30.02220 30.59520 30.30870
#
# Velocity S-wave (km/s) = 3.76237 3.79811 3.78028
# Velocity P-wave (km/s) = 5.88862 5.98879 5.93892
#
# Compressibility (1/GPa) = 0.02983817
#
# Stress axis : x y z
#
# Youngs Moduli (GPa) = 75.37299 55.97747 80.05344
#
# Poissons Ratio (x) = 0.12407 0.25245
# Poissons Ratio (y) = 0.16706 0.12189
# Poissons Ratio (z) = 0.23769 0.08523
#
# Static dielectric constant tensor:
#      x y z
#    x 3.740570 0.000000 0.000000 
#    y 0.000000 3.866510 0.000000 
#    z 0.000000 0.000000 3.697770 
# 
# 
# High freq. dielectric constant tensor:
#      x y z
#    x 1.827830 0.000000 0.000000 
#    y 0.000000 1.837670 0.000000 
#    z 0.000000 0.000000 1.830770 
# 
# From -- ./inp_files/9823.got.cif
#   From: 2010.03.12/outbox.cif.g09.slc.cpg/sg56_5_cif.got.tgz:9823.got - 2010.04.16 15:33:40.
