data_PCOD8229697
_publ_section_title
;
Structure prediction by ZEFSAII (Michael W. Deem and Ramdas Pophale) SiO2 
 PCOD8229697
Probable space group: P C C N
;
_chemical_formula_sum "Si O2"
_cell_formula_units_Z 48
_cell_length_a 6.505079
_cell_length_b 24.397733
_cell_length_c 13.936677
_cell_angle_alpha 90.000000
_cell_angle_beta 90.000000
_cell_angle_gamma 90.000000
_cell_volume 2211.878587
_symmetry_space_group_name_H-M "P C C N"
_symmetry_group_IT_number 56
_symmetry_cell_setting 'orthorhombic'
loop_
_space_group_symop_operation_xyz
x,y,z
1/2-x,1/2-y,z
1/2+x,-y,1/2-z
-x,1/2+y,1/2-z
-x,-y,-z
1/2+x,1/2+y,-z
1/2-x,y,1/2+z
x,1/2-y,1/2+z
loop_
_atom_site_type_symbol
_atom_site_label
_atom_site_fract_x
_atom_site_fract_y
_atom_site_fract_z
Si Si1 0.606475 0.118478 0.507725
Si Si2 0.228693 0.188305 0.581700
Si Si3 0.153271 0.363553 0.770672
Si Si4 0.894351 0.303671 0.916434
Si Si5 0.799475 0.436452 0.693512
Si Si6 0.051149 0.055234 0.850077
O O1 0.428645 0.162576 0.531033
O O2 0.744411 0.144945 0.424746
O O3 0.741809 0.102204 0.600738
O O4 0.534097 0.061438 0.458477
O O5 0.250000 0.250000 0.616353
O O6 0.204026 0.155089 0.681279
O O7 0.033974 0.191854 0.511283
O O8 0.298759 0.392262 0.847386
O O9 0.032058 0.312253 0.820300
O O10 0.002828 0.412502 0.740799
O O11 0.750000 0.250000 0.909643
O O12 0.610598 0.437315 0.764827
O O13 0.835468 0.498066 0.658528
#
# Coordination Sequence:
#
# PCOD8229697 Si02
#       6
#     8   8   8   8   8   8
#     4  11  24  42  66  98 135 172 224 277 335 402
#     4  11  24  44  66  96 136 174 221 276 338 397
#     4  11  25  43  67  99 135 178 222 273 337 403
#     4  12  24  45  71 100 133 176 226 280 335 398
#     4  11  24  42  65 100 131 178 221 281 335 398
#     4  12  22  44  69  93 136 173 226 272 337 406
#
# _framework density 21.701011000000001
#
# number of rings (size 3 to 8) (size 9 to 14) (size 15 to 20)
#    0.000    0.667    6.667    1.500    0.000    2.000 
#    6.000    1.667    0.000    0.000    0.000    0.000 
#    0.000    0.000    0.000    0.000    0.000    0.000 
#
# Total GULP energy -594686.192659 kJ/mol
# GULP energy per Si atom -12389.295680 kJ/mol
# Density = 2.165162 g / cm^3
# Si number density = 21.701011 Si / 1000 Ang^3
#
#
#
# Elastic Constant Matrix: (Units=GPa)
#
#
# Indices 1 2 3 4 5 6 
#
# 1 42.1724 22.2016 5.9885 0.0000 0.0000 0.0000
# 2 22.2016 90.7739 7.5549 0.0000 0.0000 0.0000
# 3 5.9885 7.5549 64.4654 0.0000 0.0000 0.0000
# 4 0.0000 0.0000 0.0000 33.3758 0.0000 0.0000
# 5 0.0000 0.0000 0.0000 0.0000 38.4403 0.0000
# 6 0.0000 0.0000 0.0000 0.0000 0.0000 33.4549
#
#
#
# Elastic Compliance Matrix: (Units=1/GPa)
#
#
# Indices 1 2 3 4 5 6 
#
# 1 0.027417 -0.006558 -0.001778 0.000000 0.000000 0.000000
# 2 -0.006558 0.012693 -0.000878 0.000000 0.000000 0.000000
# 3 -0.001778 -0.000878 0.015780 0.000000 0.000000 0.000000
# 4 0.000000 0.000000 0.000000 0.029962 0.000000 0.000000
# 5 0.000000 0.000000 0.000000 0.000000 0.026014 0.000000
# 6 0.000000 0.000000 0.000000 0.000000 0.000000 0.029891
#
#
# Mechanical properties :
#
#
# Convention : Reuss Voigt Hill
#
# Bulk Modulus (GPa) = 26.69388 29.87798 28.28593
# Shear Modulus (GPa) = 28.95628 31.83197 30.39412
#
# Velocity S-wave (km/s) = 3.65681 3.83409 3.74650
# Velocity P-wave (km/s) = 5.49155 5.77912 5.63717
#
# Compressibility (1/GPa) = 0.03746177
#
# Stress axis : x y z
#
# Youngs Moduli (GPa) = 36.47375 78.78126 63.36994
#
# Poissons Ratio (x) = 0.51662 0.11270
# Poissons Ratio (y) = 0.23918 0.05566
# Poissons Ratio (z) = 0.06486 0.06920
#
# Static dielectric constant tensor:
#      x y z
#    x 3.906350 0.000000 0.000000 
#    y 0.000000 3.970650 0.000000 
#    z 0.000000 0.000000 3.905400 
# 
# 
# High freq. dielectric constant tensor:
#      x y z
#    x 1.848650 0.000000 0.000000 
#    y 0.000000 1.860260 0.000000 
#    z 0.000000 0.000000 1.863750 
# 
# From -- ./inp_files/9701.got.cif
#   From: 2010.03.12/outbox.cif.g09.slc.cpg/sg56_5_cif.got.tgz:9701.got - 2010.04.16 15:33:40.
