data_PCOD8229641
_publ_section_title
;
Structure prediction by ZEFSAII (Michael W. Deem and Ramdas Pophale) SiO2 
 PCOD8229641
Probable space group: P C C N
;
_chemical_formula_sum "Si O2"
_cell_formula_units_Z 48
_cell_length_a 23.835924
_cell_length_b 9.478751
_cell_length_c 10.416059
_cell_angle_alpha 90.000000
_cell_angle_beta 90.000000
_cell_angle_gamma 90.000000
_cell_volume 2353.350087
_symmetry_space_group_name_H-M "P C C N"
_symmetry_group_IT_number 56
_symmetry_cell_setting 'orthorhombic'
loop_
_space_group_symop_operation_xyz
x,y,z
1/2-x,1/2-y,z
1/2+x,-y,1/2-z
-x,1/2+y,1/2-z
-x,-y,-z
1/2+x,1/2+y,-z
1/2-x,y,1/2+z
x,1/2-y,1/2+z
loop_
_atom_site_type_symbol
_atom_site_label
_atom_site_fract_x
_atom_site_fract_y
_atom_site_fract_z
Si Si1 0.714760 0.103657 0.458790
Si Si2 0.010879 0.765158 0.629904
Si Si3 0.590536 0.036694 0.475142
Si Si4 0.561129 0.739565 0.384263
Si Si5 0.774887 0.404111 0.730702
Si Si6 0.601302 0.469801 0.272768
O O1 0.750000 0.250000 0.446485
O O2 0.728069 0.020219 0.591237
O O3 0.737099 0.013543 0.336366
O O4 0.647838 0.124093 0.449455
O O5 0.038397 0.617404 0.587241
O O6 0.967875 0.809319 0.517635
O O7 0.983913 0.749339 0.769781
O O8 0.058394 0.883181 0.639976
O O9 0.594309 0.885209 0.405948
O O10 0.579347 0.016014 0.626565
O O11 0.606419 0.623123 0.339495
O O12 0.750000 0.250000 0.703428
O O13 0.838785 0.393326 0.778004
#
# Coordination Sequence:
#
# PCOD8229641 Si02
#       6
#     8   8   8   8   8   8
#     4   9  18  36  61  88 116 148 196 255 310 364
#     4  12  22  41  66  90 128 171 216 256 305 372
#     4  11  23  42  63  93 133 165 204 269 317 362
#     4  12  24  41  62  90 132 172 210 256 312 372
#     4   9  18  36  60  88 117 147 196 255 308 365
#     4  11  23  41  64  94 128 167 211 260 314 376
#
# _framework density 20.396455
#
# number of rings (size 3 to 8) (size 9 to 14) (size 15 to 20)
#    0.000    1.333    3.333    4.000    0.000    0.000 
#    6.000    0.833    0.000    4.000    0.000    0.000 
#    0.000    0.000    0.000    0.000    0.000    0.000 
#
# Total GULP energy -594790.954881 kJ/mol
# GULP energy per Si atom -12391.478227 kJ/mol
# Density = 2.035003 g / cm^3
# Si number density = 20.396455 Si / 1000 Ang^3
#
#
#
# Elastic Constant Matrix: (Units=GPa)
#
#
# Indices 1 2 3 4 5 6 
#
# 1 77.9537 21.3072 27.7166 0.0000 0.0000 0.0000
# 2 21.3072 88.1049 6.1174 0.0000 0.0000 0.0000
# 3 27.7166 6.1174 133.3320 0.0000 0.0000 0.0000
# 4 0.0000 0.0000 0.0000 26.3020 0.0000 0.0000
# 5 0.0000 0.0000 0.0000 0.0000 37.0036 0.0000
# 6 0.0000 0.0000 0.0000 0.0000 0.0000 15.3935
#
#
#
# Elastic Compliance Matrix: (Units=1/GPa)
#
#
# Indices 1 2 3 4 5 6 
#
# 1 0.014788 -0.003374 -0.002919 0.000000 0.000000 0.000000
# 2 -0.003374 0.012156 0.000144 0.000000 0.000000 0.000000
# 3 -0.002919 0.000144 0.008100 0.000000 0.000000 0.000000
# 4 0.000000 0.000000 0.000000 0.038020 0.000000 0.000000
# 5 0.000000 0.000000 0.000000 0.000000 0.027024 0.000000
# 6 0.000000 0.000000 0.000000 0.000000 0.000000 0.064962
#
#
# Mechanical properties :
#
#
# Convention : Reuss Voigt Hill
#
# Bulk Modulus (GPa) = 43.96428 45.51922 44.74175
# Shear Modulus (GPa) = 27.03696 32.02313 29.53005
#
# Velocity S-wave (km/s) = 3.64479 3.96666 3.80913
# Velocity P-wave (km/s) = 6.27011 6.58368 6.42881
#
# Compressibility (1/GPa) = 0.02274574
#
# Stress axis : x y z
#
# Youngs Moduli (GPa) = 67.62133 82.26377 123.45145
#
# Poissons Ratio (x) = 0.27753 0.36040
# Poissons Ratio (y) = 0.22813 -0.01772
# Poissons Ratio (z) = 0.19741 -0.01181
#
# Static dielectric constant tensor:
#      x y z
#    x 3.678500 0.000000 0.000000 
#    y 0.000000 3.419140 0.000000 
#    z 0.000000 0.000000 4.636960 
# 
# 
# High freq. dielectric constant tensor:
#      x y z
#    x 1.795290 0.000000 0.000000 
#    y 0.000000 1.756230 0.000000 
#    z 0.000000 0.000000 1.829680 
# 
# From -- ./inp_files/8868.got.cif
#   From: 2010.03.12/outbox.cif.g09.slc.cpg/sg56_5_cif.got.tgz:8868.got - 2010.04.16 15:33:40.
