data_PCOD8229662
_publ_section_title
;
Structure prediction by ZEFSAII (Michael W. Deem and Ramdas Pophale) SiO2 
 PCOD8229662
Probable space group: P C C N
;
_chemical_formula_sum "Si O2"
_cell_formula_units_Z 40
_cell_length_a 17.370184
_cell_length_b 12.002653
_cell_length_c 8.880096
_cell_angle_alpha 90.000000
_cell_angle_beta 90.000000
_cell_angle_gamma 90.000000
_cell_volume 1851.396040
_symmetry_space_group_name_H-M "P C C N"
_symmetry_group_IT_number 56
_symmetry_cell_setting 'orthorhombic'
loop_
_space_group_symop_operation_xyz
x,y,z
1/2-x,1/2-y,z
1/2+x,-y,1/2-z
-x,1/2+y,1/2-z
-x,-y,-z
1/2+x,1/2+y,-z
1/2-x,y,1/2+z
x,1/2-y,1/2+z
loop_
_atom_site_type_symbol
_atom_site_label
_atom_site_fract_x
_atom_site_fract_y
_atom_site_fract_z
Si Si1 0.095991 0.363572 0.830047
Si Si2 0.126760 0.364597 0.174117
Si Si3 0.301302 0.644183 0.915724
Si Si4 0.726870 0.502393 0.813488
Si Si5 0.456822 0.555613 0.858380
O O1 0.126883 0.249796 0.762692
O O2 0.153740 0.462861 0.786049
O O3 0.013492 0.386543 0.758544
O O4 0.087768 0.354189 0.010008
O O5 0.216285 0.394850 0.160084
O O6 0.084408 0.456525 0.271718
O O7 0.250000 0.750000 0.971474
O O8 0.265435 0.607129 0.757900
O O9 0.394832 0.655097 0.900459
O O10 0.297513 0.536796 0.022504
O O11 0.500000 0.500000 0.000000
#
# Coordination Sequence:
#
# PCOD8229662 Si02
#       5
#     8   8   8   8   8
#     4  12  24  44  70 101 139 183 232 293 357 421
#     4  11  26  43  69 103 136 186 231 288 357 419
#     4  11  24  45  69 102 136 188 232 286 355 430
#     4  11  23  43  71  98 138 177 241 289 341 426
#     4  11  24  46  70 102 146 179 232 296 354 426
#
# _framework density 21.605318
#
# number of rings (size 3 to 8) (size 9 to 14) (size 15 to 20)
#    0.000    0.800    4.000    3.000    2.800    3.200 
#   18.000    0.000    0.000    0.000    0.000    0.000 
#    0.000    0.000    0.000    0.000    0.000    0.000 
#
# Total GULP energy -495895.932043 kJ/mol
# GULP energy per Si atom -12397.398301 kJ/mol
# Density = 2.155614 g / cm^3
# Si number density = 21.605318 Si / 1000 Ang^3
#
#
#
# Elastic Constant Matrix: (Units=GPa)
#
#
# Indices 1 2 3 4 5 6 
#
# 1 137.6626 39.5256 36.1143 0.0000 0.0000 0.0000
# 2 39.5256 78.7270 22.9519 0.0000 0.0000 0.0000
# 3 36.1143 22.9519 120.9255 0.0000 0.0000 0.0000
# 4 0.0000 0.0000 0.0000 35.4822 0.0000 0.0000
# 5 0.0000 0.0000 0.0000 0.0000 34.3985 0.0000
# 6 0.0000 0.0000 0.0000 0.0000 0.0000 26.1159
#
#
#
# Elastic Compliance Matrix: (Units=1/GPa)
#
#
# Indices 1 2 3 4 5 6 
#
# 1 0.008887 -0.003904 -0.001913 0.000000 0.000000 0.000000
# 2 -0.003904 0.015161 -0.001712 0.000000 0.000000 0.000000
# 3 -0.001913 -0.001712 0.009166 0.000000 0.000000 0.000000
# 4 0.000000 0.000000 0.000000 0.028183 0.000000 0.000000
# 5 0.000000 0.000000 0.000000 0.000000 0.029071 0.000000
# 6 0.000000 0.000000 0.000000 0.000000 0.000000 0.038291
#
#
# Mechanical properties :
#
#
# Convention : Reuss Voigt Hill
#
# Bulk Modulus (GPa) = 55.07729 59.38874 57.23302
# Shear Modulus (GPa) = 33.36253 35.11419 34.23836
#
# Velocity S-wave (km/s) = 3.93387 4.03582 3.98517
# Velocity P-wave (km/s) = 6.79570 7.01889 6.90820
#
# Compressibility (1/GPa) = 0.01815630
#
# Stress axis : x y z
#
# Youngs Moduli (GPa) = 112.52475 65.95784 109.10146
#
# Poissons Ratio (x) = 0.25750 0.20872
# Poissons Ratio (y) = 0.43930 0.18675
# Poissons Ratio (z) = 0.21527 0.11290
#
# Static dielectric constant tensor:
#      x y z
#    x 4.393730 0.000000 0.000000 
#    y 0.000000 3.580870 0.000000 
#    z 0.000000 0.000000 3.999950 
# 
# 
# High freq. dielectric constant tensor:
#      x y z
#    x 1.861130 0.000000 0.000000 
#    y 0.000000 1.839600 0.000000 
#    z 0.000000 0.000000 1.866000 
# 
# From -- ./inp_files/2567.got.cif
#   From: 2010.03.12/outbox.cif.g09.slc.cpg/sg56_2_cif.got.tgz:2567.got - 2010.04.16 15:33:40.
