data_PCOD8229361
_publ_section_title
;
Structure prediction by ZEFSAII (Michael W. Deem and Ramdas Pophale) SiO2 
 PCOD8229361
Probable space group: P C C N
;
_chemical_formula_sum "Si O2"
_cell_formula_units_Z 44
_cell_length_a 8.972493
_cell_length_b 24.535403
_cell_length_c 8.577545
_cell_angle_alpha 90.000000
_cell_angle_beta 90.000000
_cell_angle_gamma 90.000000
_cell_volume 1888.292765
_symmetry_space_group_name_H-M "P C C N"
_symmetry_group_IT_number 56
_symmetry_cell_setting 'orthorhombic'
loop_
_space_group_symop_operation_xyz
x,y,z
1/2-x,1/2-y,z
1/2+x,-y,1/2-z
-x,1/2+y,1/2-z
-x,-y,-z
1/2+x,1/2+y,-z
1/2-x,y,1/2+z
x,1/2-y,1/2+z
loop_
_atom_site_type_symbol
_atom_site_label
_atom_site_fract_x
_atom_site_fract_y
_atom_site_fract_z
Si Si1 0.962790 0.225005 0.746034
Si Si2 0.556572 0.849930 0.279400
Si Si3 0.932796 0.043581 0.712973
Si Si4 0.620999 0.440179 0.360339
Si Si5 0.858892 0.868521 0.136161
Si Si6 0.250000 0.750000 0.004793
O O1 0.859883 0.212237 0.596904
O O2 0.854995 0.211384 0.892127
O O3 0.022220 0.286510 0.746946
O O4 0.098508 0.183732 0.757054
O O5 0.409736 0.883961 0.232867
O O6 0.682177 0.872511 0.160516
O O7 0.606498 0.860026 0.455676
O O8 0.890788 0.068927 0.545706
O O9 0.787023 0.039785 0.820956
O O10 0.057574 0.078835 0.800276
O O11 0.997919 0.983339 0.695872
#
# Coordination Sequence:
#
# PCOD8229361 Si02
#       6
#     8   8   8   8   8   4
#     4  11  25  42  68  98 138 176 222 272 336 396
#     4  12  27  44  69  99 137 179 224 277 335 397
#     4  11  26  46  72 101 135 176 223 276 334 396
#     4  11  26  46  72 101 135 176 223 276 334 396
#     4  12  27  44  69  99 137 179 224 277 335 397
#     4  10  24  42  66  98 140 170 226 274 328 396
#
# _framework density 23.301469999999998
#
# number of rings (size 3 to 8) (size 9 to 14) (size 15 to 20)
#    0.000    0.727    1.818    3.818   10.182    7.273 
#    0.000    0.000    0.000    0.000    0.000    0.000 
#    0.000    0.000    0.000    0.000    0.000    0.000 
#
# Total GULP energy -545727.358784 kJ/mol
# GULP energy per Si atom -12402.894518 kJ/mol
# Density = 2.324844 g / cm^3
# Si number density = 23.301470 Si / 1000 Ang^3
#
#
#
# Elastic Constant Matrix: (Units=GPa)
#
#
# Indices 1 2 3 4 5 6 
#
# 1 96.5170 4.4809 12.2899 0.0000 0.0000 0.0000
# 2 4.4809 78.4592 11.1631 0.0000 0.0000 0.0000
# 3 12.2899 11.1631 108.6384 0.0000 0.0000 0.0000
# 4 0.0000 0.0000 0.0000 25.0236 0.0000 0.0000
# 5 0.0000 0.0000 0.0000 0.0000 206.5028 0.0000
# 6 0.0000 0.0000 0.0000 0.0000 0.0000 31.6657
#
#
#
# Elastic Compliance Matrix: (Units=1/GPa)
#
#
# Indices 1 2 3 4 5 6 
#
# 1 0.010527 -0.000438 -0.001146 0.000000 0.000000 0.000000
# 2 -0.000438 0.012953 -0.001281 0.000000 0.000000 0.000000
# 3 -0.001146 -0.001281 0.009466 0.000000 0.000000 0.000000
# 4 0.000000 0.000000 0.000000 0.039962 0.000000 0.000000
# 5 0.000000 0.000000 0.000000 0.000000 0.004843 0.000000
# 6 0.000000 0.000000 0.000000 0.000000 0.000000 0.031580
#
#
# Mechanical properties :
#
#
# Convention : Reuss Voigt Hill
#
# Bulk Modulus (GPa) = 36.74419 37.72027 37.23223
# Shear Modulus (GPa) = 40.27923 69.68380 54.98151
#
# Velocity S-wave (km/s) = 4.16217 5.47451 4.86281
# Velocity P-wave (km/s) = 6.23711 7.49556 6.89510
#
# Compressibility (1/GPa) = 0.02721519
#
# Stress axis : x y z
#
# Youngs Moduli (GPa) = 94.99279 77.20327 105.63957
#
# Poissons Ratio (x) = 0.03383 0.12105
# Poissons Ratio (y) = 0.04162 0.13537
# Poissons Ratio (z) = 0.10885 0.09893
#
# Static dielectric constant tensor:
#      x y z
#    x 4.149290 0.000000 0.000000 
#    y 0.000000 3.939120 0.000000 
#    z 0.000000 0.000000 4.461760 
# 
# 
# High freq. dielectric constant tensor:
#      x y z
#    x 1.936700 0.000000 0.000000 
#    y 0.000000 1.912970 0.000000 
#    z 0.000000 0.000000 1.938300 
# 
# From -- ./inp_files/2181.got.cif
#   From: 2010.03.12/outbox.cif.g09.slc.cpg/sg56_2_cif.got.tgz:2181.got - 2010.04.16 15:33:40.
