data_PCOD8229930
_publ_section_title
;
Structure prediction by ZEFSAII (Michael W. Deem and Ramdas Pophale) SiO2 
 PCOD8229930
Probable space group: P B C M
;
_chemical_formula_sum "Si O2"
_cell_formula_units_Z 64
_cell_length_a 20.415969
_cell_length_b 22.678483
_cell_length_c 8.944269
_cell_angle_alpha 90.000000
_cell_angle_beta 90.000000
_cell_angle_gamma 90.000000
_cell_volume 4141.225221
_symmetry_space_group_name_H-M "P B C M"
_symmetry_group_IT_number 57
_symmetry_cell_setting 'orthorhombic'
loop_
_space_group_symop_operation_xyz
x,y,z
-x,-y,1/2+z
x,1/2-y,-z
-x,1/2+y,1/2-z
-x,-y,-z
x,y,1/2-z
-x,1/2+y,z
x,1/2-y,1/2+z
loop_
_atom_site_type_symbol
_atom_site_label
_atom_site_fract_x
_atom_site_fract_y
_atom_site_fract_z
Si Si1 0.389505 0.600491 0.579420
Si Si2 0.473605 0.442269 0.077415
Si Si3 0.349220 0.467068 0.575107
Si Si4 0.704667 0.313005 0.573528
Si Si5 0.910021 0.549440 0.421121
Si Si6 0.184349 0.603935 0.077061
Si Si7 0.950883 0.067018 0.077478
Si Si8 0.215663 0.472439 0.426235
O O1 0.369356 0.614561 0.750000
O O2 0.468557 0.606152 0.560763
O O3 0.364395 0.535175 0.536102
O O4 0.357880 0.647600 0.468615
O O5 0.459150 0.455670 0.250000
O O6 0.500000 0.500000 0.000000
O O7 0.405524 0.424903 0.996459
O O8 0.347495 0.455230 0.750000
O O9 0.280519 0.447480 0.503768
O O10 0.698250 0.250000 0.500000
O O11 0.706977 0.304524 0.750000
O O12 0.770210 0.345011 0.506584
O O13 0.886925 0.551154 0.250000
O O14 0.936870 0.484915 0.461369
O O15 0.847418 0.566670 0.522350
O O16 0.974676 0.591649 0.446512
O O17 0.202023 0.603306 0.250000
O O18 0.106411 0.616005 0.048836
O O19 0.203494 0.539198 0.014993
O O20 0.943311 0.044100 0.250000
O O21 0.223371 0.467617 0.250000
#
# Coordination Sequence:
#
# PCOD8229930 Si02
#       8
#     8   8   8   8   8   8   8   8
#     4   9  18  31  44  59  79 102 133 172 208 246
#     4   9  17  28  42  60  81 105 133 166 203 245
#     4  10  18  27  41  62  84 106 136 171 204 243
#     4  11  21  32  45  60  79 105 139 177 217 252
#     4   9  15  22  34  54  76  99 128 164 199 231
#     4   8  15  27  41  55  70  99 136 169 205 245
#     4   8  14  25  38  51  71  98 131 164 198 240
#     4  10  17  26  39  55  79 109 139 165 197 241
#
# _framework density 15.454364
#
# number of rings (size 3 to 8) (size 9 to 14) (size 15 to 20)
#    0.000    2.750    1.250    3.375    0.000    3.000 
#    0.000    0.625    0.000    0.000    0.000    0.000 
#    0.000    0.000    0.000    1.125    0.000   19.250 
#
# Total GULP energy -792838.834130 kJ/mol
# GULP energy per Si atom -12388.106783 kJ/mol
# Density = 1.541919 g / cm^3
# Si number density = 15.454364 Si / 1000 Ang^3
#
#
#
# Elastic Constant Matrix: (Units=GPa)
#
#
# Indices 1 2 3 4 5 6 
#
# 1 154.3898 25.6059 52.7235 0.0000 0.0000 0.0000
# 2 25.6059 28.5786 16.7081 0.0000 0.0000 0.0000
# 3 52.7235 16.7081 75.9635 0.0000 0.0000 0.0000
# 4 0.0000 0.0000 0.0000 11.2473 0.0000 0.0000
# 5 0.0000 0.0000 0.0000 0.0000 28.7223 0.0000
# 6 0.0000 0.0000 0.0000 0.0000 0.0000 9.6991
#
#
#
# Elastic Compliance Matrix: (Units=1/GPa)
#
#
# Indices 1 2 3 4 5 6 
#
# 1 0.009098 -0.005118 -0.005189 0.000000 0.000000 0.000000
# 2 -0.005118 0.043034 -0.005913 0.000000 0.000000 0.000000
# 3 -0.005189 -0.005913 0.018066 0.000000 0.000000 0.000000
# 4 0.000000 0.000000 0.000000 0.088910 0.000000 0.000000
# 5 0.000000 0.000000 0.000000 0.000000 0.034816 0.000000
# 6 0.000000 0.000000 0.000000 0.000000 0.000000 0.103103
#
#
# Mechanical properties :
#
#
# Convention : Reuss Voigt Hill
#
# Bulk Modulus (GPa) = 26.48432 49.88964 38.18698
# Shear Modulus (GPa) = 14.61763 20.86002 17.73882
#
# Velocity S-wave (km/s) = 3.07882 3.67792 3.39162
# Velocity P-wave (km/s) = 5.46014 7.09846 6.33251
#
# Compressibility (1/GPa) = 0.03775820
#
# Stress axis : x y z
#
# Youngs Moduli (GPa) = 109.91542 23.23751 55.35201
#
# Poissons Ratio (x) = 0.11893 0.28721
# Poissons Ratio (y) = 0.56254 0.32730
# Poissons Ratio (z) = 0.57033 0.13741
#
# Static dielectric constant tensor:
#      x y z
#    x 3.592840 0.000000 0.000000 
#    y 0.000000 2.405000 0.000000 
#    z 0.000000 0.000000 2.997900 
# 
# 
# High freq. dielectric constant tensor:
#      x y z
#    x 1.619300 0.000000 0.000000 
#    y 0.000000 1.498790 0.000000 
#    z 0.000000 0.000000 1.599940 
# 
# From -- ./inp_files/8767.got.cif
#   From: 2010.03.12/outbox.cif.g09.slc.cpg/sg57_5_cif.got.tgz:8767.got - 2010.04.16 15:48:40.
