data_PCOD8229523
_publ_section_title
;
Structure prediction by ZEFSAII (Michael W. Deem and Ramdas Pophale) SiO2 
 PCOD8229523
Probable space group: P C C N
;
_chemical_formula_sum "Si O2"
_cell_formula_units_Z 48
_cell_length_a 8.329316
_cell_length_b 14.824054
_cell_length_c 18.830100
_cell_angle_alpha 90.000000
_cell_angle_beta 90.000000
_cell_angle_gamma 90.000000
_cell_volume 2325.032101
_symmetry_space_group_name_H-M "P C C N"
_symmetry_group_IT_number 56
_symmetry_cell_setting 'orthorhombic'
loop_
_space_group_symop_operation_xyz
x,y,z
1/2-x,1/2-y,z
1/2+x,-y,1/2-z
-x,1/2+y,1/2-z
-x,-y,-z
1/2+x,1/2+y,-z
1/2-x,y,1/2+z
x,1/2-y,1/2+z
loop_
_atom_site_type_symbol
_atom_site_label
_atom_site_fract_x
_atom_site_fract_y
_atom_site_fract_z
Si Si1 0.628799 0.075058 0.982939
Si Si2 0.651114 0.666558 0.329472
Si Si3 0.804490 0.343537 0.229531
Si Si4 0.814831 0.011342 0.849396
Si Si5 0.916636 0.731648 0.976599
Si Si6 0.901594 0.100924 0.095756
O O1 0.699166 0.058392 0.905662
O O2 0.547132 0.174518 0.979407
O O3 0.763289 0.067688 0.043451
O O4 0.500000 0.000000 0.000000
O O5 0.750000 0.750000 0.295395
O O6 0.468421 0.674678 0.309954
O O7 0.733677 0.572692 0.308376
O O8 0.656238 0.668640 0.414726
O O9 0.750000 0.250000 0.266356
O O10 0.843914 0.417029 0.288130
O O11 0.671516 0.369824 0.171189
O O12 0.979701 0.982557 0.888120
O O13 0.750000 0.750000 0.021736
O O14 0.001357 0.818938 0.942485
#
# Coordination Sequence:
#
# PCOD8229523 Si02
#       6
#     8   8   8   8   8   8
#     4  12  23  40  63  93 128 162 211 267 319 377
#     4  11  20  41  67  92 121 169 220 260 307 389
#     4  12  23  40  63  94 131 170 212 264 317 384
#     4  12  25  39  63  99 133 161 209 275 329 367
#     4  11  20  39  70  90 117 163 224 255 302 378
#     4  12  22  42  68  91 121 177 219 253 309 395
#
# _framework density 20.644876
#
# number of rings (size 3 to 8) (size 9 to 14) (size 15 to 20)
#    0.000    0.333    8.333    2.000    0.000    1.333 
#    0.000    1.667    0.000    2.000    0.000    0.000 
#    0.000    0.000    0.000    0.000    0.000    0.000 
#
# Total GULP energy -595073.953819 kJ/mol
# GULP energy per Si atom -12397.374038 kJ/mol
# Density = 2.059789 g / cm^3
# Si number density = 20.644876 Si / 1000 Ang^3
#
#
#
# Elastic Constant Matrix: (Units=GPa)
#
#
# Indices 1 2 3 4 5 6 
#
# 1 150.0478 54.9229 33.1016 0.0000 0.0000 0.0000
# 2 54.9229 121.2906 40.9937 0.0000 0.0000 0.0000
# 3 33.1016 40.9937 55.9403 0.0000 0.0000 0.0000
# 4 0.0000 0.0000 0.0000 25.5224 0.0000 0.0000
# 5 0.0000 0.0000 0.0000 0.0000 8.0406 0.0000
# 6 0.0000 0.0000 0.0000 0.0000 0.0000 48.5298
#
#
#
# Elastic Compliance Matrix: (Units=1/GPa)
#
#
# Indices 1 2 3 4 5 6 
#
# 1 0.008323 -0.002797 -0.002875 0.000000 0.000000 0.000000
# 2 -0.002797 0.011899 -0.007065 0.000000 0.000000 0.000000
# 3 -0.002875 -0.007065 0.024755 0.000000 0.000000 0.000000
# 4 0.000000 0.000000 0.000000 0.039181 0.000000 0.000000
# 5 0.000000 0.000000 0.000000 0.000000 0.124368 0.000000
# 6 0.000000 0.000000 0.000000 0.000000 0.000000 0.020606
#
#
# Mechanical properties :
#
#
# Convention : Reuss Voigt Hill
#
# Bulk Modulus (GPa) = 51.27494 65.03500 58.15497
# Shear Modulus (GPa) = 19.14933 29.63594 24.39263
#
# Velocity S-wave (km/s) = 3.04889 3.79292 3.44107
# Velocity P-wave (km/s) = 6.10613 7.12403 6.63463
#
# Compressibility (1/GPa) = 0.01950270
#
# Stress axis : x y z
#
# Youngs Moduli (GPa) = 120.15504 84.04177 40.39665
#
# Poissons Ratio (x) = 0.23506 0.11615
# Poissons Ratio (y) = 0.33606 0.28539
# Poissons Ratio (z) = 0.34546 0.59372
#
# Static dielectric constant tensor:
#      x y z
#    x 4.298400 0.000000 0.000000 
#    y 0.000000 4.000730 0.000000 
#    z 0.000000 0.000000 3.545970 
# 
# 
# High freq. dielectric constant tensor:
#      x y z
#    x 1.838990 0.000000 0.000000 
#    y 0.000000 1.819450 0.000000 
#    z 0.000000 0.000000 1.768160 
# 
# From -- ./inp_files/14834.got.cif
#   From: 2010.03.12/outbox.cif.g09.slc.cpg/sg56_8_cif.got.tgz:14834.got - 2010.04.16 15:33:40.
