data_PCOD8229729
_publ_section_title
;
Structure prediction by ZEFSAII (Michael W. Deem and Ramdas Pophale) SiO2 
 PCOD8229729
Probable space group: P C C N
;
_chemical_formula_sum "Si O2"
_cell_formula_units_Z 36
_cell_length_a 11.264966
_cell_length_b 5.683635
_cell_length_c 22.585235
_cell_angle_alpha 90.000000
_cell_angle_beta 90.000000
_cell_angle_gamma 90.000000
_cell_volume 1446.041240
_symmetry_space_group_name_H-M "P C C N"
_symmetry_group_IT_number 56
_symmetry_cell_setting 'orthorhombic'
loop_
_space_group_symop_operation_xyz
x,y,z
1/2-x,1/2-y,z
1/2+x,-y,1/2-z
-x,1/2+y,1/2-z
-x,-y,-z
1/2+x,1/2+y,-z
1/2-x,y,1/2+z
x,1/2-y,1/2+z
loop_
_atom_site_type_symbol
_atom_site_label
_atom_site_fract_x
_atom_site_fract_y
_atom_site_fract_z
Si Si1 0.662459 0.541630 0.588393
Si Si2 0.750000 0.250000 0.483550
Si Si3 0.352726 0.441669 0.710362
Si Si4 0.429602 0.713838 0.112943
Si Si5 0.421221 0.819765 0.322206
O O1 0.750000 0.750000 0.611433
O O2 0.702239 0.461996 0.523513
O O3 0.527105 0.617695 0.584214
O O4 0.665289 0.324580 0.634430
O O5 0.849406 0.368692 0.441923
O O6 0.250000 0.250000 0.697264
O O7 0.348487 0.642975 0.660130
O O8 0.486497 0.341635 0.713766
O O9 0.333535 0.552060 0.775498
O O10 0.495220 0.492671 0.140573
#
# Coordination Sequence:
#
# PCOD8229729 Si02
#       5
#     8   4   8   8   8
#     4  11  27  47  72 107 146 201 254 318 377 456
#     4  12  26  48  74 104 148 204 254 314 382 454
#     4  11  24  46  76 110 152 195 248 313 386 469
#     4  11  25  48  74 109 150 195 253 313 388 455
#     4  11  24  49  74 113 150 196 251 316 385 466
#
# _framework density 24.895555000000002
#
# number of rings (size 3 to 8) (size 9 to 14) (size 15 to 20)
#    0.000    0.889    2.222    3.333    0.000   10.667 
#    4.000    0.000    0.000    0.000    0.000    0.000 
#    0.000    0.000    0.000    0.000    0.000    0.000 
#
# Total GULP energy -446477.090558 kJ/mol
# GULP energy per Si atom -12402.141404 kJ/mol
# Density = 2.483889 g / cm^3
# Si number density = 24.895555 Si / 1000 Ang^3
#
#
#
# Elastic Constant Matrix: (Units=GPa)
#
#
# Indices 1 2 3 4 5 6 
#
# 1 108.1856 42.9356 79.2813 0.0000 0.0000 0.0000
# 2 42.9356 144.9202 86.6036 0.0000 0.0000 0.0000
# 3 79.2813 86.6036 190.2447 0.0000 0.0000 0.0000
# 4 0.0000 0.0000 0.0000 21.5107 0.0000 0.0000
# 5 0.0000 0.0000 0.0000 0.0000 45.3789 0.0000
# 6 0.0000 0.0000 0.0000 0.0000 0.0000 59.1809
#
#
#
# Elastic Compliance Matrix: (Units=1/GPa)
#
#
# Indices 1 2 3 4 5 6 
#
# 1 0.013386 -0.000869 -0.005183 0.000000 0.000000 0.000000
# 2 -0.000869 0.009535 -0.003979 0.000000 0.000000 0.000000
# 3 -0.005183 -0.003979 0.009228 0.000000 0.000000 0.000000
# 4 0.000000 0.000000 0.000000 0.046488 0.000000 0.000000
# 5 0.000000 0.000000 0.000000 0.000000 0.022037 0.000000
# 6 0.000000 0.000000 0.000000 0.000000 0.000000 0.016897
#
#
# Mechanical properties :
#
#
# Convention : Reuss Voigt Hill
#
# Bulk Modulus (GPa) = 82.72378 95.66571 89.19475
# Shear Modulus (GPa) = 35.29518 40.84943 38.07230
#
# Velocity S-wave (km/s) = 3.76936 4.05511 3.91484
# Velocity P-wave (km/s) = 7.22804 7.77403 7.50600
#
# Compressibility (1/GPa) = 0.01208842
#
# Stress axis : x y z
#
# Youngs Moduli (GPa) = 74.70232 104.87279 108.37045
#
# Poissons Ratio (x) = 0.09109 0.56170
# Poissons Ratio (y) = 0.06488 0.43118
# Poissons Ratio (z) = 0.38720 0.41726
#
# Static dielectric constant tensor:
#      x y z
#    x 4.714070 0.000000 0.000000 
#    y 0.000000 4.634290 0.000000 
#    z 0.000000 0.000000 4.368410 
# 
# 
# High freq. dielectric constant tensor:
#      x y z
#    x 2.018920 0.000000 0.000000 
#    y 0.000000 1.991750 0.000000 
#    z 0.000000 0.000000 1.993650 
# 
# From -- ./inp_files/20802.got.cif
#   From: 2010.03.12/outbox.cif.g09.slc.cpg/sg56_11_cif.got.tgz:20802.got - 2010.04.16 15:33:40.
