data_PCOD8229940
_publ_section_title
;
Structure prediction by ZEFSAII (Michael W. Deem and Ramdas Pophale) SiO2 
 PCOD8229940
Probable space group: P B C M
;
_chemical_formula_sum "Si O2"
_cell_formula_units_Z 48
_cell_length_a 15.416367
_cell_length_b 20.042480
_cell_length_c 8.801282
_cell_angle_alpha 90.000000
_cell_angle_beta 90.000000
_cell_angle_gamma 90.000000
_cell_volume 2719.439715
_symmetry_space_group_name_H-M "P B C M"
_symmetry_group_IT_number 57
_symmetry_cell_setting 'orthorhombic'
loop_
_space_group_symop_operation_xyz
x,y,z
-x,-y,1/2+z
x,1/2-y,-z
-x,1/2+y,1/2-z
-x,-y,-z
x,y,1/2-z
-x,1/2+y,z
x,1/2-y,1/2+z
loop_
_atom_site_type_symbol
_atom_site_label
_atom_site_fract_x
_atom_site_fract_y
_atom_site_fract_z
Si Si1 0.767608 0.178036 0.426990
Si Si2 0.100947 0.568440 0.070508
Si Si3 0.765342 0.677668 0.070171
Si Si4 0.095450 0.431006 0.572022
Si Si5 0.576387 0.177958 0.073016
Si Si6 0.408577 0.176093 0.569382
O O1 0.780860 0.250000 0.500000
O O2 0.783758 0.188727 0.250000
O O3 0.836960 0.126183 0.496523
O O4 0.671416 0.145910 0.454541
O O5 0.109532 0.565906 0.250000
O O6 0.002678 0.584168 0.017876
O O7 0.131896 0.497285 0.007310
O O8 0.753414 0.684423 0.250000
O O9 0.846040 0.631542 0.024467
O O10 0.783445 0.750000 0.000000
O O11 0.679006 0.643386 0.997948
O O12 0.098895 0.443975 0.750000
O O13 0.553749 0.183558 0.250000
O O14 0.583462 0.250000 0.000000
O O15 0.496761 0.138722 0.989189
O O16 0.411700 0.250000 0.500000
O O17 0.405120 0.176587 0.750000
#
# Coordination Sequence:
#
# PCOD8229940 Si02
#       6
#     8   8   8   8   8   8
#     4   9  18  30  47  72  99 126 155 192 234 275
#     4   9  18  34  52  70  94 124 159 194 231 279
#     4  10  19  31  47  70  98 124 155 194 235 277
#     4   9  19  34  51  70  93 124 159 194 233 279
#     4   9  15  25  41  63  92 123 153 185 226 272
#     4  10  17  26  42  65  92 122 155 189 229 274
#
# _framework density 17.650694999999999
#
# number of rings (size 3 to 8) (size 9 to 14) (size 15 to 20)
#    0.000    2.667    0.000    4.500    0.000    3.333 
#    0.000    0.000    0.000    1.000    0.000    0.000 
#    0.000    0.000    0.000    0.000    0.000    0.000 
#
# Total GULP energy -594834.550888 kJ/mol
# GULP energy per Si atom -12392.386477 kJ/mol
# Density = 1.761052 g / cm^3
# Si number density = 17.650695 Si / 1000 Ang^3
#
#
#
# Elastic Constant Matrix: (Units=GPa)
#
#
# Indices 1 2 3 4 5 6 
#
# 1 144.0852 72.7875 53.4293 0.0000 0.0000 0.0000
# 2 72.7875 82.2054 35.3534 0.0000 0.0000 0.0000
# 3 53.4293 35.3534 80.4817 0.0000 0.0000 0.0000
# 4 0.0000 0.0000 0.0000 22.0450 0.0000 0.0000
# 5 0.0000 0.0000 0.0000 0.0000 24.7413 0.0000
# 6 0.0000 0.0000 0.0000 0.0000 0.0000 6.1506
#
#
#
# Elastic Compliance Matrix: (Units=1/GPa)
#
#
# Indices 1 2 3 4 5 6 
#
# 1 0.013863 -0.010254 -0.004699 0.000000 0.000000 0.000000
# 2 -0.010254 0.022582 -0.003113 0.000000 0.000000 0.000000
# 3 -0.004699 -0.003113 0.016912 0.000000 0.000000 0.000000
# 4 0.000000 0.000000 0.000000 0.045362 0.000000 0.000000
# 5 0.000000 0.000000 0.000000 0.000000 0.040418 0.000000
# 6 0.000000 0.000000 0.000000 0.000000 0.000000 0.162585
#
#
# Mechanical properties :
#
#
# Convention : Reuss Voigt Hill
#
# Bulk Modulus (GPa) = 58.05023 69.99030 64.02027
# Shear Modulus (GPa) = 14.55205 20.26753 17.40979
#
# Velocity S-wave (km/s) = 2.87443 3.39227 3.14403
# Velocity P-wave (km/s) = 6.63146 7.42175 7.03771
#
# Compressibility (1/GPa) = 0.01722646
#
# Stress axis : x y z
#
# Youngs Moduli (GPa) = 72.13679 44.28264 59.13004
#
# Poissons Ratio (x) = 0.45406 0.27784
# Poissons Ratio (y) = 0.73966 0.18405
# Poissons Ratio (z) = 0.33895 0.13784
#
# Static dielectric constant tensor:
#      x y z
#    x 4.433110 0.000000 0.000000 
#    y 0.000000 2.934400 0.000000 
#    z 0.000000 0.000000 3.216200 
# 
# 
# High freq. dielectric constant tensor:
#      x y z
#    x 1.705920 0.000000 0.000000 
#    y 0.000000 1.630220 0.000000 
#    z 0.000000 0.000000 1.688010 
# 
# From -- ./inp_files/4920.got.cif
#   From: 2010.03.12/outbox.cif.g09.slc.cpg/sg57_3_cif.got.tgz:4920.got - 2010.04.16 15:48:40.
