data_PCOD8229179
_publ_section_title
;
Structure prediction by ZEFSAII (Michael W. Deem and Ramdas Pophale) SiO2 
 PCOD8229179
Probable space group: P C C N
;
_chemical_formula_sum "Si O2"
_cell_formula_units_Z 40
_cell_length_a 11.151576
_cell_length_b 9.636418
_cell_length_c 16.483833
_cell_angle_alpha 90.000000
_cell_angle_beta 90.000000
_cell_angle_gamma 90.000000
_cell_volume 1771.373261
_symmetry_space_group_name_H-M "P C C N"
_symmetry_group_IT_number 56
_symmetry_cell_setting 'orthorhombic'
loop_
_space_group_symop_operation_xyz
x,y,z
1/2-x,1/2-y,z
1/2+x,-y,1/2-z
-x,1/2+y,1/2-z
-x,-y,-z
1/2+x,1/2+y,-z
1/2-x,y,1/2+z
x,1/2-y,1/2+z
loop_
_atom_site_type_symbol
_atom_site_label
_atom_site_fract_x
_atom_site_fract_y
_atom_site_fract_z
Si Si1 0.241307 0.904834 0.861836
Si Si2 0.929930 0.358518 0.502315
Si Si3 0.505922 0.086711 0.081325
Si Si4 0.889094 0.287089 0.319961
Si Si5 0.950895 0.007541 0.258355
O O1 0.250000 0.750000 0.822459
O O2 0.373772 0.965206 0.871831
O O3 0.158371 0.004894 0.806544
O O4 0.195607 0.892072 0.954665
O O5 0.999297 0.249389 0.560375
O O6 0.912905 0.290067 0.415439
O O7 0.000000 0.500000 0.500000
O O8 0.409180 0.055909 0.153071
O O9 0.500000 0.000000 0.000000
O O10 0.750000 0.250000 0.306290
O O11 0.972810 0.171117 0.276365
O O12 0.930124 0.433423 0.279448
#
# Coordination Sequence:
#
# PCOD8229179 Si02
#       5
#     8   8   8   8   8
#     4  10  22  44  71 102 140 188 241 298 364 443
#     4  11  22  45  74 101 142 195 246 296 372 450
#     4  11  23  43  69 102 144 190 241 301 371 438
#     4  12  25  45  74 107 144 199 248 307 375 446
#     4  12  24  43  73 106 143 186 249 306 365 441
#
# _framework density 22.581351000000002
#
# number of rings (size 3 to 8) (size 9 to 14) (size 15 to 20)
#    0.000    0.800    4.000    6.000    0.000    0.000 
#    0.000    7.000    0.000    0.000    0.000    0.000 
#    0.000    0.000    0.000    0.000    0.000    0.000 
#
# Total GULP energy -495566.941116 kJ/mol
# GULP energy per Si atom -12389.173528 kJ/mol
# Density = 2.252995 g / cm^3
# Si number density = 22.581351 Si / 1000 Ang^3
#
#
#
# Elastic Constant Matrix: (Units=GPa)
#
#
# Indices 1 2 3 4 5 6 
#
# 1 87.3753 62.0068 49.4813 0.0000 0.0000 0.0000
# 2 62.0068 113.2902 47.1012 0.0000 0.0000 0.0000
# 3 49.4813 47.1012 180.3198 0.0000 0.0000 0.0000
# 4 0.0000 0.0000 0.0000 47.2201 0.0000 0.0000
# 5 0.0000 0.0000 0.0000 0.0000 10.8077 0.0000
# 6 0.0000 0.0000 0.0000 0.0000 0.0000 40.0758
#
#
#
# Elastic Compliance Matrix: (Units=1/GPa)
#
#
# Indices 1 2 3 4 5 6 
#
# 1 0.020023 -0.009732 -0.002953 0.000000 0.000000 0.000000
# 2 -0.009732 0.014632 -0.001152 0.000000 0.000000 0.000000
# 3 -0.002953 -0.001152 0.006657 0.000000 0.000000 0.000000
# 4 0.000000 0.000000 0.000000 0.021177 0.000000 0.000000
# 5 0.000000 0.000000 0.000000 0.000000 0.092527 0.000000
# 6 0.000000 0.000000 0.000000 0.000000 0.000000 0.024953
#
#
# Mechanical properties :
#
#
# Convention : Reuss Voigt Hill
#
# Bulk Modulus (GPa) = 73.31182 77.57376 75.44279
# Shear Modulus (GPa) = 23.56412 34.44710 29.00561
#
# Velocity S-wave (km/s) = 3.23386 3.90996 3.58787
# Velocity P-wave (km/s) = 6.81762 7.40347 7.11657
#
# Compressibility (1/GPa) = 0.01364037
#
# Stress axis : x y z
#
# Youngs Moduli (GPa) = 49.94235 68.34300 150.22461
#
# Poissons Ratio (x) = 0.66509 0.44354
# Poissons Ratio (y) = 0.48602 0.17300
# Poissons Ratio (z) = 0.14746 0.07870
#
# Static dielectric constant tensor:
#      x y z
#    x 3.506470 0.000000 0.000000 
#    y 0.000000 4.111200 0.000000 
#    z 0.000000 0.000000 5.198200 
# 
# 
# High freq. dielectric constant tensor:
#      x y z
#    x 1.852460 0.000000 0.000000 
#    y 0.000000 1.876260 0.000000 
#    z 0.000000 0.000000 1.945020 
# 
# From -- ./inp_files/15396.got.cif
#   From: 2010.03.12/outbox.cif.g09.slc.cpg/sg56_8_cif.got.tgz:15396.got - 2010.04.16 15:33:40.
