data_PCOD8229758
_publ_section_title
;
Structure prediction by ZEFSAII (Michael W. Deem and Ramdas Pophale) SiO2 
 PCOD8229758
Probable space group: P C C N
;
_chemical_formula_sum "Si O2"
_cell_formula_units_Z 48
_cell_length_a 9.507150
_cell_length_b 8.316422
_cell_length_c 27.792165
_cell_angle_alpha 90.000000
_cell_angle_beta 90.000000
_cell_angle_gamma 90.000000
_cell_volume 2197.400627
_symmetry_space_group_name_H-M "P C C N"
_symmetry_group_IT_number 56
_symmetry_cell_setting 'orthorhombic'
loop_
_space_group_symop_operation_xyz
x,y,z
1/2-x,1/2-y,z
1/2+x,-y,1/2-z
-x,1/2+y,1/2-z
-x,-y,-z
1/2+x,1/2+y,-z
1/2-x,y,1/2+z
x,1/2-y,1/2+z
loop_
_atom_site_type_symbol
_atom_site_label
_atom_site_fract_x
_atom_site_fract_y
_atom_site_fract_z
Si Si1 0.458822 0.643703 0.385548
Si Si2 0.114975 0.952461 0.036481
Si Si3 0.601015 0.670060 0.206319
Si Si4 0.750000 0.750000 0.408962
Si Si5 0.895179 0.291398 0.714215
Si Si6 0.250000 0.750000 0.463146
Si Si7 0.417697 0.273991 0.398392
O O1 0.623102 0.682088 0.377092
O O2 0.388372 0.686540 0.334901
O O3 0.388050 0.746200 0.428860
O O4 0.441577 0.462489 0.402730
O O5 0.034443 0.821438 0.070312
O O6 0.183392 0.103726 0.062018
O O7 0.240817 0.894060 0.001592
O O8 0.000000 0.000000 0.000000
O O9 0.750000 0.750000 0.214193
O O10 0.517258 0.734712 0.251535
O O11 0.596981 0.478929 0.203766
O O12 0.540597 0.725910 0.155556
O O13 0.750000 0.250000 0.741293
O O14 0.250000 0.250000 0.410654
#
# Coordination Sequence:
#
# PCOD8229758 Si02
#       7
#     8   8   8   4   8   4   8
#     4  12  26  45  74 104 144 188 239 296 367 429
#     4  12  26  44  70 103 143 185 244 296 365 424
#     4  11  25  45  74 107 142 187 240 293 359 428
#     4  12  28  46  68 108 142 192 238 310 356 434
#     4  12  24  47  73 107 144 189 233 295 362 439
#     4  12  26  44  72 100 140 190 240 296 354 438
#     4  11  25  47  75 107 144 192 241 302 360 436
#
# _framework density 21.843992
#
# number of rings (size 3 to 8) (size 9 to 14) (size 15 to 20)
#    0.000    0.333    2.500    7.000    4.667    1.333 
#   10.500    0.000    0.000    0.000    0.000    0.000 
#    0.000    0.000    0.000    0.000    0.000    0.000 
#
# Total GULP energy -594647.229592 kJ/mol
# GULP energy per Si atom -12388.483950 kJ/mol
# Density = 2.179427 g / cm^3
# Si number density = 21.843992 Si / 1000 Ang^3
#
#
#
# Elastic Constant Matrix: (Units=GPa)
#
#
# Indices 1 2 3 4 5 6 
#
# 1 107.3087 32.9307 44.5187 0.0000 0.0000 0.0000
# 2 32.9307 119.8643 35.2911 0.0000 0.0000 0.0000
# 3 44.5187 35.2911 123.7156 0.0000 0.0000 0.0000
# 4 0.0000 0.0000 0.0000 -181.9990 0.0000 0.0000
# 5 0.0000 0.0000 0.0000 0.0000 51.1655 0.0000
# 6 0.0000 0.0000 0.0000 0.0000 0.0000 53.8357
#
#
#
# Elastic Compliance Matrix: (Units=1/GPa)
#
#
# Indices 1 2 3 4 5 6 
#
# 1 0.011421 -0.002104 -0.003509 0.000000 0.000000 0.000000
# 2 -0.002104 0.009495 -0.001951 0.000000 0.000000 0.000000
# 3 -0.003509 -0.001951 0.009903 0.000000 0.000000 0.000000
# 4 0.000000 0.000000 0.000000 -0.005495 0.000000 0.000000
# 5 0.000000 0.000000 0.000000 0.000000 0.019544 0.000000
# 6 0.000000 0.000000 0.000000 0.000000 0.000000 0.018575
#
#
# Mechanical properties :
#
#
# Convention : Reuss Voigt Hill
#
# Bulk Modulus (GPa) = 63.74184 64.04107 63.89146
# Shear Modulus (GPa) = 59.66350 0.47699 30.07025
#
# Velocity S-wave (km/s) = 5.23190 0.46780 3.71427
# Velocity P-wave (km/s) = 8.10807 5.44728 6.90702
#
# Compressibility (1/GPa) = 0.01568828
#
# Stress axis : x y z
#
# Youngs Moduli (GPa) = 87.56090 105.31351 100.98399
#
# Poissons Ratio (x) = 0.22162 0.35439
# Poissons Ratio (y) = 0.18426 0.19706
# Poissons Ratio (z) = 0.30729 0.20551
#
# Static dielectric constant tensor:
#      x y z
#    x 4.040500 0.000000 0.000000 
#    y 0.000000 4.104590 0.000000 
#    z 0.000000 0.000000 3.487650 
# 
# 
# High freq. dielectric constant tensor:
#      x y z
#    x 1.872710 0.000000 0.000000 
#    y 0.000000 1.878590 0.000000 
#    z 0.000000 0.000000 1.863660 
# 
# From -- ./inp_files/23279.got.cif
#   From: 2010.03.12/outbox.cif.g09.slc.cpg/sg56_12_cif.got.tgz:23279.got - 2010.04.16 15:33:40.
