data_PCOD8229140
_publ_section_title
;
Structure prediction by ZEFSAII (Michael W. Deem and Ramdas Pophale) SiO2 
 PCOD8229140
Probable space group: P C C N
;
_chemical_formula_sum "Si O2"
_cell_formula_units_Z 56
_cell_length_a 14.548652
_cell_length_b 8.053600
_cell_length_c 21.609837
_cell_angle_alpha 90.000000
_cell_angle_beta 90.000000
_cell_angle_gamma 90.000000
_cell_volume 2532.003505
_symmetry_space_group_name_H-M "P C C N"
_symmetry_group_IT_number 56
_symmetry_cell_setting 'orthorhombic'
loop_
_space_group_symop_operation_xyz
x,y,z
1/2-x,1/2-y,z
1/2+x,-y,1/2-z
-x,1/2+y,1/2-z
-x,-y,-z
1/2+x,1/2+y,-z
1/2-x,y,1/2+z
x,1/2-y,1/2+z
loop_
_atom_site_type_symbol
_atom_site_label
_atom_site_fract_x
_atom_site_fract_y
_atom_site_fract_z
Si Si1 0.880406 0.619408 0.058578
Si Si2 0.558070 0.390205 0.775311
Si Si3 0.044030 0.839905 0.839739
Si Si4 0.946145 0.605395 0.920923
Si Si5 0.332619 0.859102 0.154833
Si Si6 0.695629 0.548410 0.112389
Si Si7 0.236284 0.071635 0.250924
O O1 0.779937 0.528816 0.063109
O O2 0.870996 0.798128 0.092791
O O3 0.959699 0.500993 0.086452
O O4 0.912276 0.652069 0.988724
O O5 0.470407 0.487841 0.802054
O O6 0.546761 0.310330 0.708417
O O7 0.582298 0.258837 0.828687
O O8 0.632173 0.532514 0.765221
O O9 0.964105 0.782468 0.887208
O O10 0.136562 0.878051 0.879927
O O11 0.862332 0.502218 0.891705
O O12 0.250000 0.750000 0.125010
O O13 0.301473 0.933291 0.220836
O O14 0.746599 0.583990 0.176587
O O15 0.250000 0.250000 0.219307
#
# Coordination Sequence:
#
# PCOD8229140 Si02
#       7
#     8   8   8   8   8   8   8
#     4  10  24  46  70  89 135 178 241 282 329 395
#     4  11  24  38  63 106 140 178 207 274 343 420
#     4  12  25  38  70  99 143 175 225 275 351 413
#     4  11  24  46  65 100 134 180 227 288 337 397
#     4  10  22  43  64  99 141 174 220 271 345 409
#     4  11  23  44  67  98 128 185 226 283 330 411
#     4  11  21  38  67  97 134 174 218 271 341 405
#
# _framework density 22.116873999999999
#
# number of rings (size 3 to 8) (size 9 to 14) (size 15 to 20)
#    0.000    1.143    2.857    3.429    2.000    2.286 
#   18.000    0.000    0.000    0.000    0.000    0.000 
#    0.000    0.000    0.000    0.000    0.000    0.000 
#
# Total GULP energy -694076.291716 kJ/mol
# GULP energy per Si atom -12394.219495 kJ/mol
# Density = 2.206653 g / cm^3
# Si number density = 22.116874 Si / 1000 Ang^3
#
#
#
# Elastic Constant Matrix: (Units=GPa)
#
#
# Indices 1 2 3 4 5 6 
#
# 1 87.0628 29.8619 28.2570 0.0000 0.0000 0.0000
# 2 29.8619 84.6976 30.1348 0.0000 0.0000 0.0000
# 3 28.2570 30.1348 78.1711 0.0000 0.0000 0.0000
# 4 0.0000 0.0000 0.0000 19.9777 0.0000 0.0000
# 5 0.0000 0.0000 0.0000 0.0000 19.8764 0.0000
# 6 0.0000 0.0000 0.0000 0.0000 0.0000 46.2466
#
#
#
# Elastic Compliance Matrix: (Units=1/GPa)
#
#
# Indices 1 2 3 4 5 6 
#
# 1 0.013903 -0.003609 -0.003635 0.000000 0.000000 0.000000
# 2 -0.003609 0.014620 -0.004332 0.000000 0.000000 0.000000
# 3 -0.003635 -0.004332 0.015776 0.000000 0.000000 0.000000
# 4 0.000000 0.000000 0.000000 0.050056 0.000000 0.000000
# 5 0.000000 0.000000 0.000000 0.000000 0.050311 0.000000
# 6 0.000000 0.000000 0.000000 0.000000 0.000000 0.021623
#
#
# Mechanical properties :
#
#
# Convention : Reuss Voigt Hill
#
# Bulk Modulus (GPa) = 47.28172 47.38211 47.33191
# Shear Modulus (GPa) = 25.44667 27.99865 26.72266
#
# Velocity S-wave (km/s) = 3.39566 3.56187 3.47976
# Velocity P-wave (km/s) = 6.06618 6.19563 6.13125
#
# Compressibility (1/GPa) = 0.02114982
#
# Stress axis : x y z
#
# Youngs Moduli (GPa) = 71.92494 68.39846 63.38709
#
# Poissons Ratio (x) = 0.24683 0.23038
# Poissons Ratio (y) = 0.25956 0.27457
# Poissons Ratio (z) = 0.26142 0.29627
#
# Static dielectric constant tensor:
#      x y z
#    x 4.270740 0.000000 0.000000 
#    y 0.000000 4.188230 0.000000 
#    z 0.000000 0.000000 3.781550 
# 
# 
# High freq. dielectric constant tensor:
#      x y z
#    x 1.875450 0.000000 0.000000 
#    y 0.000000 1.876190 0.000000 
#    z 0.000000 0.000000 1.853510 
# 
# From -- ./inp_files/19122.got.cif
#   From: 2010.03.12/outbox.cif.g09.slc.cpg/sg56_10_cif.got.tgz:19122.got - 2010.04.16 15:33:40.
