data_PCOD8229565
_publ_section_title
;
Structure prediction by ZEFSAII (Michael W. Deem and Ramdas Pophale) SiO2 
 PCOD8229565
Probable space group: P C C N
;
_chemical_formula_sum "Si O2"
_cell_formula_units_Z 40
_cell_length_a 13.253201
_cell_length_b 15.422227
_cell_length_c 8.751013
_cell_angle_alpha 90.000000
_cell_angle_beta 90.000000
_cell_angle_gamma 90.000000
_cell_volume 1788.653451
_symmetry_space_group_name_H-M "P C C N"
_symmetry_group_IT_number 56
_symmetry_cell_setting 'orthorhombic'
loop_
_space_group_symop_operation_xyz
x,y,z
1/2-x,1/2-y,z
1/2+x,-y,1/2-z
-x,1/2+y,1/2-z
-x,-y,-z
1/2+x,1/2+y,-z
1/2-x,y,1/2+z
x,1/2-y,1/2+z
loop_
_atom_site_type_symbol
_atom_site_label
_atom_site_fract_x
_atom_site_fract_y
_atom_site_fract_z
Si Si1 0.851990 0.951165 0.318848
Si Si2 0.465998 0.929923 0.627274
Si Si3 0.065570 0.859103 0.688822
Si Si4 0.140968 0.061886 0.318936
Si Si5 0.633621 0.233861 0.532833
O O1 0.747848 0.913026 0.253081
O O2 0.855602 0.937238 0.498900
O O3 0.937076 0.898412 0.225432
O O4 0.870466 0.053190 0.287483
O O5 0.409682 0.851195 0.549098
O O6 0.500000 0.000000 0.500000
O O7 0.387128 0.968548 0.750102
O O8 0.074633 0.821275 0.517295
O O9 0.947968 0.872342 0.731613
O O10 0.113930 0.781532 0.788571
O O11 0.750000 0.250000 0.496970
#
# Coordination Sequence:
#
# PCOD8229565 Si02
#       5
#     8   8   8   8   8
#     4  11  24  42  74 100 137 189 248 295 357 431
#     4  11  21  44  69 100 144 187 241 294 343 438
#     4  11  26  43  68 104 144 180 232 301 363 429
#     4  11  24  43  72 101 135 188 247 290 356 424
#     4  12  26  43  69 104 146 185 228 293 367 420
#
# _framework density 22.363189999999999
#
# number of rings (size 3 to 8) (size 9 to 14) (size 15 to 20)
#    0.000    0.800    4.000    5.400    8.400    0.000 
#    0.000    1.000    0.000    0.000    0.000    0.000 
#    0.000    0.000    0.000    0.000    0.000    0.000 
#
# Total GULP energy -495844.157574 kJ/mol
# GULP energy per Si atom -12396.103939 kJ/mol
# Density = 2.231229 g / cm^3
# Si number density = 22.363190 Si / 1000 Ang^3
#
#
#
# Elastic Constant Matrix: (Units=GPa)
#
#
# Indices 1 2 3 4 5 6 
#
# 1 159.1868 35.7120 45.3522 0.0000 0.0000 0.0000
# 2 35.7120 63.2259 17.5467 0.0000 0.0000 0.0000
# 3 45.3522 17.5467 114.3303 0.0000 0.0000 0.0000
# 4 0.0000 0.0000 0.0000 40.1706 0.0000 0.0000
# 5 0.0000 0.0000 0.0000 0.0000 42.0375 0.0000
# 6 0.0000 0.0000 0.0000 0.0000 0.0000 30.5450
#
#
#
# Elastic Compliance Matrix: (Units=1/GPa)
#
#
# Indices 1 2 3 4 5 6 
#
# 1 0.007841 -0.003724 -0.002539 0.000000 0.000000 0.000000
# 2 -0.003724 0.018289 -0.001330 0.000000 0.000000 0.000000
# 3 -0.002539 -0.001330 0.009958 0.000000 0.000000 0.000000
# 4 0.000000 0.000000 0.000000 0.024894 0.000000 0.000000
# 5 0.000000 0.000000 0.000000 0.000000 0.023788 0.000000
# 6 0.000000 0.000000 0.000000 0.000000 0.000000 0.032739
#
#
# Mechanical properties :
#
#
# Convention : Reuss Voigt Hill
#
# Bulk Modulus (GPa) = 47.84136 59.32944 53.58540
# Shear Modulus (GPa) = 35.80124 38.42610 37.11367
#
# Velocity S-wave (km/s) = 4.00547 4.14970 4.07822
# Velocity P-wave (km/s) = 6.54454 7.03901 6.79627
#
# Compressibility (1/GPa) = 0.02090242
#
# Stress axis : x y z
#
# Youngs Moduli (GPa) = 127.54035 54.67829 100.42509
#
# Poissons Ratio (x) = 0.20363 0.25494
# Poissons Ratio (y) = 0.47497 0.13352
# Poissons Ratio (z) = 0.32378 0.07270
#
# Static dielectric constant tensor:
#      x y z
#    x 6.198650 0.000000 0.000000 
#    y 0.000000 3.822040 0.000000 
#    z 0.000000 0.000000 4.607540 
# 
# 
# High freq. dielectric constant tensor:
#      x y z
#    x 1.889190 0.000000 0.000000 
#    y 0.000000 1.849790 0.000000 
#    z 0.000000 0.000000 1.909480 
# 
# From -- ./inp_files/2563.got.cif
#   From: 2010.03.12/outbox.cif.g09.slc.cpg/sg56_2_cif.got.tgz:2563.got - 2010.04.16 15:33:40.
