data_PCOD8229823
_publ_section_title
;
Structure prediction by ZEFSAII (Michael W. Deem and Ramdas Pophale) SiO2 
 PCOD8229823
Probable space group: P C C N
;
_chemical_formula_sum "Si O2"
_cell_formula_units_Z 32
_cell_length_a 10.928186
_cell_length_b 9.380282
_cell_length_c 13.662616
_cell_angle_alpha 90.000000
_cell_angle_beta 90.000000
_cell_angle_gamma 90.000000
_cell_volume 1400.547476
_symmetry_space_group_name_H-M "P C C N"
_symmetry_group_IT_number 56
_symmetry_cell_setting 'orthorhombic'
loop_
_space_group_symop_operation_xyz
x,y,z
1/2-x,1/2-y,z
1/2+x,-y,1/2-z
-x,1/2+y,1/2-z
-x,-y,-z
1/2+x,1/2+y,-z
1/2-x,y,1/2+z
x,1/2-y,1/2+z
loop_
_atom_site_type_symbol
_atom_site_label
_atom_site_fract_x
_atom_site_fract_y
_atom_site_fract_z
Si Si1 0.725421 0.047479 0.414725
Si Si2 0.750000 0.750000 0.499127
Si Si3 0.110221 0.610332 0.258405
Si Si4 0.750000 0.250000 0.576213
Si Si5 0.527943 0.667152 0.138638
O O1 0.769352 0.102596 0.309381
O O2 0.796656 0.122888 0.505192
O O3 0.583327 0.094873 0.422302
O O4 0.758335 0.882340 0.425208
O O5 0.868041 0.720040 0.565178
O O6 0.138267 0.697089 0.357140
O O7 0.072643 0.450375 0.284351
O O8 0.004480 0.691365 0.199686
#
# Coordination Sequence:
#
# PCOD8229823 Si02
#       5
#     8   4   8   4   8
#     4  12  27  52  75 109 152 198 252 314 378 447
#     4  12  30  44  78 112 150 198 258 308 374 462
#     4  12  28  47  79 106 152 198 250 312 384 446
#     4  12  22  52  76 102 146 194 250 308 378 444
#     4  12  28  49  74 114 148 202 251 312 374 451
#
# _framework density 22.848209000000001
#
# number of rings (size 3 to 8) (size 9 to 14) (size 15 to 20)
#    0.000    0.000    7.500    0.750   10.500    1.000 
#    0.000    0.000    0.000    0.000    0.000    0.000 
#    0.000    0.000    0.000    0.000    0.000    0.000 
#
# Total GULP energy -396805.620143 kJ/mol
# GULP energy per Si atom -12400.175629 kJ/mol
# Density = 2.279621 g / cm^3
# Si number density = 22.848209 Si / 1000 Ang^3
#
#
#
# Elastic Constant Matrix: (Units=GPa)
#
#
# Indices 1 2 3 4 5 6 
#
# 1 112.2924 48.5905 44.8477 0.0000 0.0000 0.0000
# 2 48.5905 135.6824 50.0520 0.0000 0.0000 0.0000
# 3 44.8477 50.0520 128.4520 0.0000 0.0000 0.0000
# 4 0.0000 0.0000 0.0000-1619.1192 0.0000 0.0000
# 5 0.0000 0.0000 0.0000 0.0000 19.9477 0.0000
# 6 0.0000 0.0000 0.0000 0.0000 0.0000 36.8273
#
#
#
# Elastic Compliance Matrix: (Units=1/GPa)
#
#
# Indices 1 2 3 4 5 6 
#
# 1 0.011325 -0.003033 -0.002772 0.000000 0.000000 0.000000
# 2 -0.003033 0.009420 -0.002611 0.000000 0.000000 0.000000
# 3 -0.002772 -0.002611 0.009770 0.000000 0.000000 0.000000
# 4 0.000000 0.000000 0.000000 -0.000618 0.000000 0.000000
# 5 0.000000 0.000000 0.000000 0.000000 0.050131 0.000000
# 6 0.000000 0.000000 0.000000 0.000000 0.000000 0.027154
#
#
# Mechanical properties :
#
#
# Convention : Reuss Voigt Hill
#
# Bulk Modulus (GPa) = 73.09017 73.71192 73.40104
# Shear Modulus (GPa) = 38.88741 -296.93975 -129.02617
#
# Velocity S-wave (km/s) = 4.12999 -11.41245 -7.52287
# Velocity P-wave (km/s) = 7.40279 11.88811 6.57745
#
# Compressibility (1/GPa) = 0.01368173
#
# Stress axis : x y z
#
# Youngs Moduli (GPa) = 88.30090 106.16054 102.34949
#
# Poissons Ratio (x) = 0.32199 0.28373
# Poissons Ratio (y) = 0.26782 0.26728
# Poissons Ratio (z) = 0.24478 0.27724
#
# Static dielectric constant tensor:
#      x y z
#    x 4.076520 0.000000 0.000000 
#    y 0.000000 4.487730 0.000000 
#    z 0.000000 0.000000 4.222480 
# 
# 
# High freq. dielectric constant tensor:
#      x y z
#    x 1.883790 0.000000 0.000000 
#    y 0.000000 1.923900 0.000000 
#    z 0.000000 0.000000 1.918230 
# 
# From -- ./inp_files/10122.got.cif
#   From: 2010.03.12/outbox.cif.g09.slc.cpg/sg56_6_cif.got.tgz:10122.got - 2010.04.16 15:33:40.
