data_PCOD8229964
_publ_section_title
;
Structure prediction by ZEFSAII (Michael W. Deem and Ramdas Pophale) SiO2 
 PCOD8229964
Probable space group: P B C M
;
_chemical_formula_sum "Si O2"
_cell_formula_units_Z 64
_cell_length_a 21.130927
_cell_length_b 19.581323
_cell_length_c 8.885546
_cell_angle_alpha 90.000000
_cell_angle_beta 90.000000
_cell_angle_gamma 90.000000
_cell_volume 3676.585758
_symmetry_space_group_name_H-M "P B C M"
_symmetry_group_IT_number 57
_symmetry_cell_setting 'orthorhombic'
loop_
_space_group_symop_operation_xyz
x,y,z
-x,-y,1/2+z
x,1/2-y,-z
-x,1/2+y,1/2-z
-x,-y,-z
x,y,1/2-z
-x,1/2+y,z
x,1/2-y,1/2+z
loop_
_atom_site_type_symbol
_atom_site_label
_atom_site_fract_x
_atom_site_fract_y
_atom_site_fract_z
Si Si1 0.910443 0.965509 0.081820
Si Si2 0.439339 0.315574 0.572147
Si Si3 0.015065 0.606023 0.081268
Si Si4 0.304674 0.466680 0.423461
Si Si5 0.549772 0.549108 0.927619
Si Si6 0.696975 0.685395 0.573144
Si Si7 0.802355 0.041978 0.573226
Si Si8 0.127344 0.678387 0.928380
O O1 0.893676 0.940986 0.250000
O O2 0.953019 0.032515 0.086924
O O3 0.947148 0.903521 0.999250
O O4 0.846275 0.983008 0.995711
O O5 0.474107 0.250000 0.500000
O O6 0.446234 0.316219 0.750000
O O7 0.472736 0.380152 0.499012
O O8 0.366790 0.315117 0.522177
O O9 0.005259 0.634639 0.250000
O O10 0.057559 0.659456 0.988471
O O11 0.298206 0.487224 0.250000
O O12 0.378041 0.468822 0.473642
O O13 0.273936 0.390596 0.449461
O O14 0.268447 0.524571 0.519184
O O15 0.542995 0.551861 0.750000
O O16 0.500000 0.500000 0.000000
O O17 0.736795 0.750000 0.500000
O O18 0.683782 0.698007 0.750000
O O19 0.807679 0.036256 0.750000
O O20 0.823471 0.118413 0.522614
O O21 0.124243 0.686227 0.750000
O O22 0.150139 0.750000 0.000000
#
# Coordination Sequence:
#
# PCOD8229964 Si02
#       8
#     8   8   8   8   8   8   8   8
#     4   9  16  27  45  68  95 124 152 187 235 287
#     4  10  17  27  45  69  96 125 155 191 235 286
#     4   9  16  27  45  69  95 122 153 192 237 283
#     4   9  19  33  49  71 100 131 165 204 250 304
#     4  10  20  34  51  74 101 130 165 208 258 311
#     4   9  16  27  44  68  95 122 153 190 232 284
#     4  10  20  32  49  73  99 128 168 212 253 302
#     4  10  20  33  49  72  99 130 171 216 258 299
#
# _framework density 17.407454999999999
#
# number of rings (size 3 to 8) (size 9 to 14) (size 15 to 20)
#    0.000    2.500    0.000    4.875    0.000    7.500 
#    0.000    0.000    0.000    1.500    0.000    5.250 
#    0.000    0.000    0.000    0.000    0.000    0.000 
#
# Total GULP energy -793071.293346 kJ/mol
# GULP energy per Si atom -12391.738959 kJ/mol
# Density = 1.736784 g / cm^3
# Si number density = 17.407455 Si / 1000 Ang^3
#
#
#
# Elastic Constant Matrix: (Units=GPa)
#
#
# Indices 1 2 3 4 5 6 
#
# 1 65.1816 52.6283 44.9700 0.0000 0.0000 0.0000
# 2 52.6283 115.1359 57.2870 0.0000 0.0000 0.0000
# 3 44.9700 57.2870 115.5879 0.0000 0.0000 0.0000
# 4 0.0000 0.0000 0.0000 32.1201 0.0000 0.0000
# 5 0.0000 0.0000 0.0000 0.0000 26.3232 0.0000
# 6 0.0000 0.0000 0.0000 0.0000 0.0000 21.6301
#
#
#
# Elastic Compliance Matrix: (Units=1/GPa)
#
#
# Indices 1 2 3 4 5 6 
#
# 1 0.026973 -0.009435 -0.005818 0.000000 0.000000 0.000000
# 2 -0.009435 0.014828 -0.003678 0.000000 0.000000 0.000000
# 3 -0.005818 -0.003678 0.012738 0.000000 0.000000 0.000000
# 4 0.000000 0.000000 0.000000 0.031133 0.000000 0.000000
# 5 0.000000 0.000000 0.000000 0.000000 0.037989 0.000000
# 6 0.000000 0.000000 0.000000 0.000000 0.000000 0.046232
#
#
# Mechanical properties :
#
#
# Convention : Reuss Voigt Hill
#
# Bulk Modulus (GPa) = 59.96224 67.29734 63.62979
# Shear Modulus (GPa) = 23.43944 25.41602 24.42773
#
# Velocity S-wave (km/s) = 3.67347 3.82523 3.75012
# Velocity P-wave (km/s) = 7.24663 7.63242 7.44202
#
# Compressibility (1/GPa) = 0.01667716
#
# Stress axis : x y z
#
# Youngs Moduli (GPa) = 37.07357 67.43928 78.50440
#
# Poissons Ratio (x) = 0.63626 0.45676
# Poissons Ratio (y) = 0.34977 0.28878
# Poissons Ratio (z) = 0.21570 0.24807
#
# Static dielectric constant tensor:
#      x y z
#    x 2.935920 0.000000 0.000000 
#    y 0.000000 3.661640 0.000000 
#    z 0.000000 0.000000 2.939180 
# 
# 
# High freq. dielectric constant tensor:
#      x y z
#    x 1.627580 0.000000 0.000000 
#    y 0.000000 1.665860 0.000000 
#    z 0.000000 0.000000 1.690260 
# 
# From -- ./inp_files/8774.got.cif
#   From: 2010.03.12/outbox.cif.g09.slc.cpg/sg57_5_cif.got.tgz:8774.got - 2010.04.16 15:48:40.
