data_PCOD8229122
_publ_section_title
;
Structure prediction by ZEFSAII (Michael W. Deem and Ramdas Pophale) SiO2 
 PCOD8229122
Probable space group: P C C N
;
_chemical_formula_sum "Si O2"
_cell_formula_units_Z 48
_cell_length_a 9.082254
_cell_length_b 10.912724
_cell_length_c 22.762315
_cell_angle_alpha 90.000000
_cell_angle_beta 90.000000
_cell_angle_gamma 90.000000
_cell_volume 2256.021551
_symmetry_space_group_name_H-M "P C C N"
_symmetry_group_IT_number 56
_symmetry_cell_setting 'orthorhombic'
loop_
_space_group_symop_operation_xyz
x,y,z
1/2-x,1/2-y,z
1/2+x,-y,1/2-z
-x,1/2+y,1/2-z
-x,-y,-z
1/2+x,1/2+y,-z
1/2-x,y,1/2+z
x,1/2-y,1/2+z
loop_
_atom_site_type_symbol
_atom_site_label
_atom_site_fract_x
_atom_site_fract_y
_atom_site_fract_z
Si Si1 0.884626 0.160692 0.230674
Si Si2 0.925926 0.534488 0.440688
Si Si3 0.138847 0.429122 0.344026
Si Si4 0.047038 0.163068 0.345683
Si Si5 0.912984 0.487850 0.938509
Si Si6 0.415316 0.232723 0.129142
O O1 0.750000 0.250000 0.248624
O O2 0.971534 0.110119 0.287397
O O3 0.978863 0.234078 0.182637
O O4 0.834072 0.030162 0.205570
O O5 0.760891 0.485724 0.447313
O O6 0.930229 0.679392 0.427858
O O7 0.000000 0.500000 0.500000
O O8 0.021388 0.472105 0.390969
O O9 0.067355 0.302128 0.323451
O O10 0.301837 0.400521 0.366991
O O11 0.949119 0.139247 0.404112
O O12 0.956297 0.598212 0.894163
O O13 0.000000 0.500000 0.000000
O O14 0.250000 0.250000 0.153867
#
# Coordination Sequence:
#
# PCOD8229122 Si02
#       6
#     8   8   8   8   8   8
#     4  11  25  41  70  98 134 176 230 280 339 419
#     4  10  22  42  68  93 132 176 230 284 339 412
#     4  10  25  44  63  97 135 180 222 280 345 409
#     4  11  26  42  66  97 137 176 224 284 346 403
#     4  11  24  42  68 100 135 179 228 288 341 414
#     4   9  22  43  65  92 130 178 224 275 349 404
#
# _framework density 21.276392000000001
#
# number of rings (size 3 to 8) (size 9 to 14) (size 15 to 20)
#    0.000    1.667    0.000    2.000   11.667    2.667 
#    0.000    0.000    0.000    0.000    0.000    0.000 
#    0.000    0.000    0.000    0.000    0.000    0.000 
#
# Total GULP energy -594770.705756 kJ/mol
# GULP energy per Si atom -12391.056370 kJ/mol
# Density = 2.122797 g / cm^3
# Si number density = 21.276392 Si / 1000 Ang^3
#
#
#
# Elastic Constant Matrix: (Units=GPa)
#
#
# Indices 1 2 3 4 5 6 
#
# 1 130.7952 42.2184 48.4323 0.0000 0.0000 0.0000
# 2 42.2184 93.9859 25.3578 0.0000 0.0000 0.0000
# 3 48.4323 25.3578 101.1515 0.0000 0.0000 0.0000
# 4 0.0000 0.0000 0.0000 16.3859 0.0000 0.0000
# 5 0.0000 0.0000 0.0000 0.0000 34.9113 0.0000
# 6 0.0000 0.0000 0.0000 0.0000 0.0000 31.9796
#
#
#
# Elastic Compliance Matrix: (Units=1/GPa)
#
#
# Indices 1 2 3 4 5 6 
#
# 1 0.010279 -0.003528 -0.004037 0.000000 0.000000 0.000000
# 2 -0.003528 0.012623 -0.001475 0.000000 0.000000 0.000000
# 3 -0.004037 -0.001475 0.012189 0.000000 0.000000 0.000000
# 4 0.000000 0.000000 0.000000 0.061028 0.000000 0.000000
# 5 0.000000 0.000000 0.000000 0.000000 0.028644 0.000000
# 6 0.000000 0.000000 0.000000 0.000000 0.000000 0.031270
#
#
# Mechanical properties :
#
#
# Convention : Reuss Voigt Hill
#
# Bulk Modulus (GPa) = 58.78923 61.99437 60.39180
# Shear Modulus (GPa) = 27.81107 30.65032 29.23070
#
# Velocity S-wave (km/s) = 3.61935 3.79961 3.71058
# Velocity P-wave (km/s) = 6.71993 6.96063 6.84134
#
# Compressibility (1/GPa) = 0.01700992
#
# Stress axis : x y z
#
# Youngs Moduli (GPa) = 97.28219 79.22214 82.04066
#
# Poissons Ratio (x) = 0.27951 0.33123
# Poissons Ratio (y) = 0.34323 0.12102
# Poissons Ratio (z) = 0.39276 0.11686
#
# Static dielectric constant tensor:
#      x y z
#    x 4.026660 0.000000 0.000000 
#    y 0.000000 4.247140 0.000000 
#    z 0.000000 0.000000 3.530300 
# 
# 
# High freq. dielectric constant tensor:
#      x y z
#    x 1.851870 0.000000 0.000000 
#    y 0.000000 1.843080 0.000000 
#    z 0.000000 0.000000 1.828590 
# 
# From -- ./inp_files/20482.got.cif
#   From: 2010.03.12/outbox.cif.g09.slc.cpg/sg56_11_cif.got.tgz:20482.got - 2010.04.16 15:33:40.
