data_PCOD8229171
_publ_section_title
;
Structure prediction by ZEFSAII (Michael W. Deem and Ramdas Pophale) SiO2 
 PCOD8229171
Probable space group: P C C N
;
_chemical_formula_sum "Si O2"
_cell_formula_units_Z 64
_cell_length_a 8.652200
_cell_length_b 27.259806
_cell_length_c 12.258076
_cell_angle_alpha 90.000000
_cell_angle_beta 90.000000
_cell_angle_gamma 90.000000
_cell_volume 2891.156629
_symmetry_space_group_name_H-M "P C C N"
_symmetry_group_IT_number 56
_symmetry_cell_setting 'orthorhombic'
loop_
_space_group_symop_operation_xyz
x,y,z
1/2-x,1/2-y,z
1/2+x,-y,1/2-z
-x,1/2+y,1/2-z
-x,-y,-z
1/2+x,1/2+y,-z
1/2-x,y,1/2+z
x,1/2-y,1/2+z
loop_
_atom_site_type_symbol
_atom_site_label
_atom_site_fract_x
_atom_site_fract_y
_atom_site_fract_z
Si Si1 0.076986 0.260766 0.994043
Si Si2 0.111226 0.576740 0.498136
Si Si3 0.129192 0.792877 0.321031
Si Si4 0.863839 0.462699 0.278639
Si Si5 0.620361 0.863001 0.093220
Si Si6 0.910343 0.107457 0.595936
Si Si7 0.526233 0.837023 0.616612
Si Si8 0.011047 0.561853 0.261869
O O1 0.250000 0.250000 0.028388
O O2 0.060161 0.307040 0.912196
O O3 0.004428 0.215989 0.933032
O O4 0.991116 0.263483 0.107743
O O5 0.075198 0.537986 0.595503
O O6 0.290400 0.571097 0.464160
O O7 0.001743 0.571252 0.392256
O O8 0.094025 0.629614 0.553322
O O9 0.250000 0.750000 0.281084
O O10 0.187409 0.840747 0.389785
O O11 0.029687 0.825408 0.237331
O O12 0.954556 0.420463 0.209382
O O13 0.682718 0.451644 0.274823
O O14 0.899187 0.516600 0.231273
O O15 0.805088 0.862261 0.106988
O O16 0.544960 0.889947 0.196978
O O17 0.565372 0.887433 0.978119
#
# Coordination Sequence:
#
# PCOD8229171 Si02
#       8
#     8   8   8   8   8   8   8   8
#     4   9  22  42  63  95 132 174 228 271 332 409
#     4  11  23  44  65  96 136 169 227 282 345 402
#     4  11  23  39  65  98 135 179 220 276 339 403
#     4  11  24  44  67 100 132 178 232 284 351 413
#     4  10  23  44  66  99 133 183 227 276 349 400
#     4  10  22  44  69  93 136 179 224 286 335 413
#     4  11  24  40  68  99 135 177 225 282 333 420
#     4  11  26  43  71  98 137 182 226 295 346 415
#
# _framework density 22.136468000000001
#
# number of rings (size 3 to 8) (size 9 to 14) (size 15 to 20)
#    0.000    1.500    2.500    1.125    1.750   11.500 
#    0.000    0.000    0.000    0.000    0.000    0.000 
#    0.000    0.000    0.000    0.000    0.000    0.000 
#
# Total GULP energy -792866.783107 kJ/mol
# GULP energy per Si atom -12388.543486 kJ/mol
# Density = 2.208608 g / cm^3
# Si number density = 22.136468 Si / 1000 Ang^3
#
#
#
# Elastic Constant Matrix: (Units=GPa)
#
#
# Indices 1 2 3 4 5 6 
#
# 1 60.4583 49.0314 56.2532 0.0000 0.0000 0.0000
# 2 49.0314 100.4635 34.0544 0.0000 0.0000 0.0000
# 3 56.2532 34.0544 118.3770 0.0000 0.0000 0.0000
# 4 0.0000 0.0000 0.0000 54.4178 0.0000 0.0000
# 5 0.0000 0.0000 0.0000 0.0000 28.8081 0.0000
# 6 0.0000 0.0000 0.0000 0.0000 0.0000 37.8700
#
#
#
# Elastic Compliance Matrix: (Units=1/GPa)
#
#
# Indices 1 2 3 4 5 6 
#
# 1 0.045818 -0.016600 -0.016998 0.000000 0.000000 0.000000
# 2 -0.016600 0.017044 0.002985 0.000000 0.000000 0.000000
# 3 -0.016998 0.002985 0.015666 0.000000 0.000000 0.000000
# 4 0.000000 0.000000 0.000000 0.018376 0.000000 0.000000
# 5 0.000000 0.000000 0.000000 0.000000 0.034712 0.000000
# 6 0.000000 0.000000 0.000000 0.000000 0.000000 0.026406
#
#
# Mechanical properties :
#
#
# Convention : Reuss Voigt Hill
#
# Bulk Modulus (GPa) = 57.79196 61.99743 59.89469
# Shear Modulus (GPa) = 22.22074 33.54981 27.88528
#
# Velocity S-wave (km/s) = 3.17173 3.89728 3.55307
# Velocity P-wave (km/s) = 6.29102 6.95122 6.62934
#
# Compressibility (1/GPa) = 0.01730345
#
# Stress axis : x y z
#
# Youngs Moduli (GPa) = 21.82540 58.67317 63.83216
#
# Poissons Ratio (x) = 0.97397 1.08499
# Poissons Ratio (y) = 0.36230 -0.19056
# Poissons Ratio (z) = 0.37098 -0.17516
#
# Static dielectric constant tensor:
#      x y z
#    x 4.236270 0.000000 0.000000 
#    y 0.000000 4.148580 0.000000 
#    z 0.000000 0.000000 4.317220 
# 
# 
# High freq. dielectric constant tensor:
#      x y z
#    x 1.853080 0.000000 0.000000 
#    y 0.000000 1.883660 0.000000 
#    z 0.000000 0.000000 1.879650 
# 
# From -- ./inp_files/6608.got.cif
#   From: 2010.03.12/outbox.cif.g09.slc.cpg/sg56_4_cif.got.tgz:6608.got - 2010.04.16 15:33:40.
