data_PCOD8229022
_publ_section_title
;
Structure prediction by ZEFSAII (Michael W. Deem and Ramdas Pophale) SiO2 
 PCOD8229022
Probable space group: P C C N
;
_chemical_formula_sum "Si O2"
_cell_formula_units_Z 36
_cell_length_a 7.974011
_cell_length_b 12.784062
_cell_length_c 16.934532
_cell_angle_alpha 90.000000
_cell_angle_beta 90.000000
_cell_angle_gamma 90.000000
_cell_volume 1726.310443
_symmetry_space_group_name_H-M "P C C N"
_symmetry_group_IT_number 56
_symmetry_cell_setting 'orthorhombic'
loop_
_space_group_symop_operation_xyz
x,y,z
1/2-x,1/2-y,z
1/2+x,-y,1/2-z
-x,1/2+y,1/2-z
-x,-y,-z
1/2+x,1/2+y,-z
1/2-x,y,1/2+z
x,1/2-y,1/2+z
loop_
_atom_site_type_symbol
_atom_site_label
_atom_site_fract_x
_atom_site_fract_y
_atom_site_fract_z
Si Si1 0.429326 0.795000 0.564908
Si Si2 0.415329 0.502721 0.160767
Si Si3 0.432428 0.787429 0.379447
Si Si4 0.750000 0.750000 0.657298
Si Si5 0.614265 0.612460 0.284833
O O1 0.250000 0.750000 0.593421
O O2 0.455862 0.779503 0.472677
O O3 0.581912 0.732504 0.605912
O O4 0.437514 0.916915 0.588432
O O5 0.540895 0.406015 0.147846
O O6 0.454353 0.555569 0.245787
O O7 0.221926 0.465810 0.160934
O O8 0.250000 0.750000 0.352745
O O9 0.564955 0.711933 0.337323
O O10 0.767648 0.647823 0.711949
#
# Coordination Sequence:
#
# PCOD8229022 Si02
#       5
#     8   8   8   4   8
#     4  10  25  43  67  96 134 176 217 276 334 400
#     4  11  23  40  67  99 129 173 224 274 332 402
#     4  11  23  45  64  96 136 173 220 274 339 397
#     4  10  22  40  62  92 128 172 212 268 328 388
#     4  11  23  39  66  96 129 172 220 273 332 386
#
# _framework density 20.853722000000001
#
# number of rings (size 3 to 8) (size 9 to 14) (size 15 to 20)
#    0.000    1.333    2.222    2.000    6.222    3.556 
#    0.000    2.222    0.000    0.000    0.000    0.000 
#    0.000    0.000    0.000    0.000    0.000    0.000 
#
# Total GULP energy -446471.854843 kJ/mol
# GULP energy per Si atom -12401.995968 kJ/mol
# Density = 2.080626 g / cm^3
# Si number density = 20.853722 Si / 1000 Ang^3
#
#
#
# Elastic Constant Matrix: (Units=GPa)
#
#
# Indices 1 2 3 4 5 6 
#
# 1 125.5143 56.3978 54.0217 0.0000 0.0000 0.0000
# 2 56.3978 133.4638 46.5603 0.0000 0.0000 0.0000
# 3 54.0217 46.5603 94.8486 0.0000 0.0000 0.0000
# 4 0.0000 0.0000 0.0000 27.3146 0.0000 0.0000
# 5 0.0000 0.0000 0.0000 0.0000 33.5759 0.0000
# 6 0.0000 0.0000 0.0000 0.0000 0.0000 31.6515
#
#
#
# Elastic Compliance Matrix: (Units=1/GPa)
#
#
# Indices 1 2 3 4 5 6 
#
# 1 0.011537 -0.003117 -0.005041 0.000000 0.000000 0.000000
# 2 -0.003117 0.009883 -0.003076 0.000000 0.000000 0.000000
# 3 -0.005041 -0.003076 0.014925 0.000000 0.000000 0.000000
# 4 0.000000 0.000000 0.000000 0.036610 0.000000 0.000000
# 5 0.000000 0.000000 0.000000 0.000000 0.029783 0.000000
# 6 0.000000 0.000000 0.000000 0.000000 0.000000 0.031594
#
#
# Mechanical properties :
#
#
# Convention : Reuss Voigt Hill
#
# Bulk Modulus (GPa) = 72.06500 74.19847 73.13173
# Shear Modulus (GPa) = 30.97383 31.63152 31.30268
#
# Velocity S-wave (km/s) = 3.85813 3.89887 3.87855
# Velocity P-wave (km/s) = 7.38101 7.47837 7.42985
#
# Compressibility (1/GPa) = 0.01387636
#
# Stress axis : x y z
#
# Youngs Moduli (GPa) = 86.67447 101.18511 67.00379
#
# Poissons Ratio (x) = 0.31536 0.33778
# Poissons Ratio (y) = 0.27014 0.20612
# Poissons Ratio (z) = 0.43695 0.31127
#
# Static dielectric constant tensor:
#      x y z
#    x 3.860170 0.000000 0.000000 
#    y 0.000000 3.765920 0.000000 
#    z 0.000000 0.000000 3.711220 
# 
# 
# High freq. dielectric constant tensor:
#      x y z
#    x 1.823890 0.000000 0.000000 
#    y 0.000000 1.819060 0.000000 
#    z 0.000000 0.000000 1.814830 
# 
# From -- ./inp_files/14484.got.cif
#   From: 2010.03.12/outbox.cif.g09.slc.cpg/sg56_8_cif.got.tgz:14484.got - 2010.04.16 15:33:40.
