data_PCOD8229576
_publ_section_title
;
Structure prediction by ZEFSAII (Michael W. Deem and Ramdas Pophale) SiO2 
 PCOD8229576
Probable space group: P C C N
;
_chemical_formula_sum "Si O2"
_cell_formula_units_Z 48
_cell_length_a 12.809724
_cell_length_b 6.691046
_cell_length_c 23.906405
_cell_angle_alpha 90.000000
_cell_angle_beta 90.000000
_cell_angle_gamma 90.000000
_cell_volume 2049.028791
_symmetry_space_group_name_H-M "P C C N"
_symmetry_group_IT_number 56
_symmetry_cell_setting 'orthorhombic'
loop_
_space_group_symop_operation_xyz
x,y,z
1/2-x,1/2-y,z
1/2+x,-y,1/2-z
-x,1/2+y,1/2-z
-x,-y,-z
1/2+x,1/2+y,-z
1/2-x,y,1/2+z
x,1/2-y,1/2+z
loop_
_atom_site_type_symbol
_atom_site_label
_atom_site_fract_x
_atom_site_fract_y
_atom_site_fract_z
Si Si1 0.750000 0.250000 0.025946
Si Si2 0.950162 0.429051 0.194157
Si Si3 0.456686 0.829687 0.410245
Si Si4 0.179149 0.060046 0.062791
Si Si5 0.355980 0.577679 0.750228
Si Si6 0.250000 0.750000 0.149132
Si Si7 0.147198 0.179862 0.850726
O O1 0.857369 0.283875 0.061390
O O2 0.729415 0.451914 0.990976
O O3 0.994916 0.292637 0.143975
O O4 0.858288 0.305433 0.225454
O O5 0.921363 0.636946 0.167757
O O6 0.031833 0.473199 0.243327
O O7 0.559975 0.863039 0.448747
O O8 0.420957 0.048264 0.391770
O O9 0.250000 0.250000 0.078782
O O10 0.175789 0.891348 0.111645
O O11 0.308360 0.588853 0.688403
O O12 0.302614 0.439619 0.797258
O O13 0.250000 0.250000 0.884674
#
# Coordination Sequence:
#
# PCOD8229576 Si02
#       7
#     4   8   8   8   8   4   8
#     4  11  26  49  70 100 132 169 240 295 348 418
#     4  11  22  37  62  95 135 179 224 267 333 405
#     4  11  25  45  71 100 137 175 227 291 343 412
#     4  11  26  46  71 100 131 179 227 286 362 405
#     4  11  22  37  60  93 136 180 227 269 326 399
#     4  11  24  39  62  94 134 175 230 285 324 414
#     4  11  23  39  63  96 136 184 227 277 338 395
#
# _framework density 23.425730999999999
#
# number of rings (size 3 to 8) (size 9 to 14) (size 15 to 20)
#    0.000    1.000    1.667    4.500    2.333   10.000 
#    0.000    0.000    0.000    0.000    0.000    0.000 
#    0.000    0.000    0.000    0.000    0.000    0.000 
#
# Total GULP energy -594891.159440 kJ/mol
# GULP energy per Si atom -12393.565822 kJ/mol
# Density = 2.337241 g / cm^3
# Si number density = 23.425731 Si / 1000 Ang^3
#
#
#
# Elastic Constant Matrix: (Units=GPa)
#
#
# Indices 1 2 3 4 5 6 
#
# 1 125.3182 39.5190 27.0200 0.0000 0.0000 0.0000
# 2 39.5190 112.6414 26.6804 0.0000 0.0000 0.0000
# 3 27.0200 26.6804 73.8278 0.0000 0.0000 0.0000
# 4 0.0000 0.0000 0.0000 20.3393 0.0000 0.0000
# 5 0.0000 0.0000 0.0000 0.0000 34.9855 0.0000
# 6 0.0000 0.0000 0.0000 0.0000 0.0000 40.0001
#
#
#
# Elastic Compliance Matrix: (Units=1/GPa)
#
#
# Indices 1 2 3 4 5 6 
#
# 1 0.009360 -0.002704 -0.002449 0.000000 0.000000 0.000000
# 2 -0.002704 0.010490 -0.002801 0.000000 0.000000 0.000000
# 3 -0.002449 -0.002801 0.015454 0.000000 0.000000 0.000000
# 4 0.000000 0.000000 0.000000 0.049166 0.000000 0.000000
# 5 0.000000 0.000000 0.000000 0.000000 0.028583 0.000000
# 6 0.000000 0.000000 0.000000 0.000000 0.000000 0.025000
#
#
# Mechanical properties :
#
#
# Convention : Reuss Voigt Hill
#
# Bulk Modulus (GPa) = 51.55687 55.35848 53.45767
# Shear Modulus (GPa) = 31.16704 33.63617 32.40161
#
# Velocity S-wave (km/s) = 3.65151 3.79339 3.72312
# Velocity P-wave (km/s) = 6.31145 6.54746 6.43054
#
# Compressibility (1/GPa) = 0.01939606
#
# Stress axis : x y z
#
# Youngs Moduli (GPa) = 106.83377 95.32968 64.71015
#
# Poissons Ratio (x) = 0.25777 0.15845
# Poissons Ratio (y) = 0.28888 0.18127
# Poissons Ratio (z) = 0.26159 0.26705
#
# Static dielectric constant tensor:
#      x y z
#    x 4.484440 0.000000 0.000000 
#    y 0.000000 4.313670 0.000000 
#    z 0.000000 0.000000 4.169310 
# 
# 
# High freq. dielectric constant tensor:
#      x y z
#    x 1.926930 0.000000 0.000000 
#    y 0.000000 1.942410 0.000000 
#    z 0.000000 0.000000 1.917040 
# 
# From -- ./inp_files/22458.got.cif
#   From: 2010.03.12/outbox.cif.g09.slc.cpg/sg56_12_cif.got.tgz:22458.got - 2010.04.16 15:33:40.
