data_PCOD8229189
_publ_section_title
;
Structure prediction by ZEFSAII (Michael W. Deem and Ramdas Pophale) SiO2 
 PCOD8229189
Probable space group: P C C N
;
_chemical_formula_sum "Si O2"
_cell_formula_units_Z 60
_cell_length_a 25.319373
_cell_length_b 6.447647
_cell_length_c 18.697899
_cell_angle_alpha 90.000000
_cell_angle_beta 90.000000
_cell_angle_gamma 90.000000
_cell_volume 3052.439105
_symmetry_space_group_name_H-M "P C C N"
_symmetry_group_IT_number 56
_symmetry_cell_setting 'orthorhombic'
loop_
_space_group_symop_operation_xyz
x,y,z
1/2-x,1/2-y,z
1/2+x,-y,1/2-z
-x,1/2+y,1/2-z
-x,-y,-z
1/2+x,1/2+y,-z
1/2-x,y,1/2+z
x,1/2-y,1/2+z
loop_
_atom_site_type_symbol
_atom_site_label
_atom_site_fract_x
_atom_site_fract_y
_atom_site_fract_z
Si Si1 0.659434 0.512641 0.858449
Si Si2 0.104019 0.084702 0.844442
Si Si3 0.491031 0.700505 0.457324
Si Si4 0.422648 0.767942 0.734623
Si Si5 0.588674 0.520511 0.994525
Si Si6 0.250000 0.750000 0.683237
Si Si7 0.518762 0.563783 0.675452
Si Si8 0.196350 0.359417 0.242264
O O1 0.627237 0.360795 0.806057
O O2 0.716511 0.404632 0.866434
O O3 0.668760 0.743951 0.826029
O O4 0.635188 0.518937 0.937046
O O5 0.114983 0.071655 0.929118
O O6 0.053155 0.234376 0.842348
O O7 0.156213 0.177101 0.807954
O O8 0.093405 0.865746 0.804569
O O9 0.500000 0.500000 0.500000
O O10 0.544353 0.830349 0.461964
O O11 0.477060 0.631836 0.377536
O O12 0.440449 0.803265 0.494261
O O13 0.457203 0.623640 0.681912
O O14 0.459022 0.966736 0.751744
O O15 0.290137 0.602541 0.729166
O O16 0.250000 0.250000 0.265916
#
# Coordination Sequence:
#
# PCOD8229189 Si02
#       8
#     8   8   8   8   8   4   8   8
#     4  11  24  42  67  94 123 170 218 267 325 390
#     4  12  23  43  62  94 130 166 213 271 322 383
#     4  11  23  40  56  86 138 179 204 249 317 378
#     4  12  24  37  63  95 130 169 220 265 313 383
#     4  11  26  39  62  96 134 173 216 256 321 397
#     4  10  22  46  68  92 120 164 220 276 336 380
#     4  12  24  37  60  96 132 177 216 259 310 384
#     4  10  23  43  70  93 120 162 221 275 330 388
#
# _framework density 19.656412
#
# number of rings (size 3 to 8) (size 9 to 14) (size 15 to 20)
#    0.000    0.800    6.667    0.800    5.600    1.067 
#    0.000    2.667    0.000    0.000    0.000    0.000 
#    0.000    0.000    0.000    0.000    0.000    0.000 
#
# Total GULP energy -743454.469117 kJ/mol
# GULP energy per Si atom -12390.907819 kJ/mol
# Density = 1.961167 g / cm^3
# Si number density = 19.656412 Si / 1000 Ang^3
#
#
#
# Elastic Constant Matrix: (Units=GPa)
#
#
# Indices 1 2 3 4 5 6 
#
# 1 92.0474 26.8819 49.5555 0.0000 0.0000 0.0000
# 2 26.8819 93.3254 42.2166 0.0000 0.0000 0.0000
# 3 49.5555 42.2166 121.3149 0.0000 0.0000 0.0000
# 4 0.0000 0.0000 0.0000 34.3353 0.0000 0.0000
# 5 0.0000 0.0000 0.0000 0.0000 29.8397 0.0000
# 6 0.0000 0.0000 0.0000 0.0000 0.0000 35.0177
#
#
#
# Elastic Compliance Matrix: (Units=1/GPa)
#
#
# Indices 1 2 3 4 5 6 
#
# 1 0.014160 -0.001735 -0.005180 0.000000 0.000000 0.000000
# 2 -0.001735 0.012930 -0.003791 0.000000 0.000000 0.000000
# 3 -0.005180 -0.003791 0.011678 0.000000 0.000000 0.000000
# 4 0.000000 0.000000 0.000000 0.029125 0.000000 0.000000
# 5 0.000000 0.000000 0.000000 0.000000 0.033512 0.000000
# 6 0.000000 0.000000 0.000000 0.000000 0.000000 0.028557
#
#
# Mechanical properties :
#
#
# Convention : Reuss Voigt Hill
#
# Bulk Modulus (GPa) = 57.61901 60.44397 59.03149
# Shear Modulus (GPa) = 31.81499 32.37411 32.09455
#
# Velocity S-wave (km/s) = 4.02749 4.06273 4.04515
# Velocity P-wave (km/s) = 7.14173 7.26806 7.20517
#
# Compressibility (1/GPa) = 0.01735538
#
# Stress axis : x y z
#
# Youngs Moduli (GPa) = 70.62358 77.34097 85.63019
#
# Poissons Ratio (x) = 0.13421 0.44357
# Poissons Ratio (y) = 0.12255 0.32459
# Poissons Ratio (z) = 0.36584 0.29317
#
# Static dielectric constant tensor:
#      x y z
#    x 3.614870 0.000000 0.000000 
#    y 0.000000 3.754660 0.000000 
#    z 0.000000 0.000000 3.417550 
# 
# 
# High freq. dielectric constant tensor:
#      x y z
#    x 1.768590 0.000000 0.000000 
#    y 0.000000 1.783900 0.000000 
#    z 0.000000 0.000000 1.750670 
# 
# From -- ./inp_files/17030.got.cif
#   From: 2010.03.12/outbox.cif.g09.slc.cpg/sg56_9_cif.got.tgz:17030.got - 2010.04.16 15:33:40.
