data_PCOD8229346
_publ_section_title
;
Structure prediction by ZEFSAII (Michael W. Deem and Ramdas Pophale) SiO2 
 PCOD8229346
Probable space group: P C C N
;
_chemical_formula_sum "Si O2"
_cell_formula_units_Z 48
_cell_length_a 15.554901
_cell_length_b 6.038127
_cell_length_c 24.256497
_cell_angle_alpha 90.000000
_cell_angle_beta 90.000000
_cell_angle_gamma 90.000000
_cell_volume 2278.230056
_symmetry_space_group_name_H-M "P C C N"
_symmetry_group_IT_number 56
_symmetry_cell_setting 'orthorhombic'
loop_
_space_group_symop_operation_xyz
x,y,z
1/2-x,1/2-y,z
1/2+x,-y,1/2-z
-x,1/2+y,1/2-z
-x,-y,-z
1/2+x,1/2+y,-z
1/2-x,y,1/2+z
x,1/2-y,1/2+z
loop_
_atom_site_type_symbol
_atom_site_label
_atom_site_fract_x
_atom_site_fract_y
_atom_site_fract_z
Si Si1 0.750000 0.750000 0.985465
Si Si2 0.838507 0.140835 0.928951
Si Si3 0.339732 0.634346 0.467713
Si Si4 0.971854 0.158467 0.832891
Si Si5 0.409075 0.003197 0.781612
Si Si6 0.629234 0.379991 0.141009
Si Si7 0.250000 0.250000 0.823493
O O1 0.685953 0.608547 0.946898
O O2 0.818094 0.625229 0.026128
O O3 0.750000 0.250000 0.910710
O O4 0.895097 0.169595 0.875154
O O5 0.890780 0.269700 0.978752
O O6 0.250000 0.750000 0.478388
O O7 0.376915 0.703794 0.409011
O O8 0.938069 0.018363 0.781096
O O9 0.008604 0.399217 0.814881
O O10 0.047649 0.034469 0.864786
O O11 0.377545 0.765255 0.803659
O O12 0.329742 0.176364 0.785369
O O13 0.716268 0.534519 0.140791
#
# Coordination Sequence:
#
# PCOD8229346 Si02
#       7
#     4   8   8   8   8   8   4
#     4   8  18  38  62  90 126 163 210 261 318 380
#     4   9  21  39  61  92 125 168 209 260 317 385
#     4   9  19  37  62  93 127 159 210 261 315 383
#     4  11  24  42  60  88 131 167 213 268 320 374
#     4  11  23  43  62  89 127 167 216 267 319 370
#     4  11  23  40  65  93 125 166 209 265 324 376
#     4  10  24  40  66  94 116 169 216 263 320 380
#
# _framework density 21.068988000000001
#
# number of rings (size 3 to 8) (size 9 to 14) (size 15 to 20)
#    0.000    2.333    1.667    1.500    0.000   14.000 
#    0.000    1.667    0.000    0.000    0.000    0.000 
#    0.000    0.000    0.000    0.000    0.000    0.000 
#
# Total GULP energy -594695.493252 kJ/mol
# GULP energy per Si atom -12389.489443 kJ/mol
# Density = 2.102103 g / cm^3
# Si number density = 21.068988 Si / 1000 Ang^3
#
#
#
# Elastic Constant Matrix: (Units=GPa)
#
#
# Indices 1 2 3 4 5 6 
#
# 1 90.4678 33.8754 53.4500 0.0000 0.0000 0.0000
# 2 33.8754 116.9947 49.0583 0.0000 0.0000 0.0000
# 3 53.4500 49.0583 132.0774 0.0000 0.0000 0.0000
# 4 0.0000 0.0000 0.0000 22.6026 0.0000 0.0000
# 5 0.0000 0.0000 0.0000 0.0000 14.1456 0.0000
# 6 0.0000 0.0000 0.0000 0.0000 0.0000 27.7674
#
#
#
# Elastic Compliance Matrix: (Units=1/GPa)
#
#
# Indices 1 2 3 4 5 6 
#
# 1 0.014960 -0.002124 -0.005265 0.000000 0.000000 0.000000
# 2 -0.002124 0.010426 -0.003013 0.000000 0.000000 0.000000
# 3 -0.005265 -0.003013 0.010821 0.000000 0.000000 0.000000
# 4 0.000000 0.000000 0.000000 0.044243 0.000000 0.000000
# 5 0.000000 0.000000 0.000000 0.000000 0.070693 0.000000
# 6 0.000000 0.000000 0.000000 0.000000 0.000000 0.036013
#
#
# Mechanical properties :
#
#
# Convention : Reuss Voigt Hill
#
# Bulk Modulus (GPa) = 64.92348 68.03415 66.47882
# Shear Modulus (GPa) = 23.46382 26.44688 24.95535
#
# Velocity S-wave (km/s) = 3.34078 3.54680 3.44533
# Velocity P-wave (km/s) = 6.76482 7.00958 6.88829
#
# Compressibility (1/GPa) = 0.01540275
#
# Stress axis : x y z
#
# Youngs Moduli (GPa) = 66.84661 95.91638 92.41114
#
# Poissons Ratio (x) = 0.20370 0.48656
# Poissons Ratio (y) = 0.14196 0.27844
# Poissons Ratio (z) = 0.35196 0.28900
#
# Static dielectric constant tensor:
#      x y z
#    x 5.056540 0.000000 0.000000 
#    y 0.000000 7.332230 0.000000 
#    z 0.000000 0.000000 3.877290 
# 
# 
# High freq. dielectric constant tensor:
#      x y z
#    x 1.808220 0.000000 0.000000 
#    y 0.000000 1.837890 0.000000 
#    z 0.000000 0.000000 1.821450 
# 
# From -- ./inp_files/22438.got.cif
#   From: 2010.03.12/outbox.cif.g09.slc.cpg/sg56_12_cif.got.tgz:22438.got - 2010.04.16 15:33:40.
