data_PCOD8229000
_publ_section_title
;
Structure prediction by ZEFSAII (Michael W. Deem and Ramdas Pophale) SiO2 
 PCOD8229000
Probable space group: P C C N
;
_chemical_formula_sum "Si O2"
_cell_formula_units_Z 64
_cell_length_a 12.677960
_cell_length_b 8.925039
_cell_length_c 26.105506
_cell_angle_alpha 90.000000
_cell_angle_beta 90.000000
_cell_angle_gamma 90.000000
_cell_volume 2953.871613
_symmetry_space_group_name_H-M "P C C N"
_symmetry_group_IT_number 56
_symmetry_cell_setting 'orthorhombic'
loop_
_space_group_symop_operation_xyz
x,y,z
1/2-x,1/2-y,z
1/2+x,-y,1/2-z
-x,1/2+y,1/2-z
-x,-y,-z
1/2+x,1/2+y,-z
1/2-x,y,1/2+z
x,1/2-y,1/2+z
loop_
_atom_site_type_symbol
_atom_site_label
_atom_site_fract_x
_atom_site_fract_y
_atom_site_fract_z
Si Si1 0.013975 0.505232 0.585124
Si Si2 0.725241 0.575675 0.961944
Si Si3 0.723564 0.578476 0.073478
Si Si4 0.039757 0.751316 0.665143
Si Si5 0.378064 0.492248 0.221437
Si Si6 0.025660 0.249760 0.164782
Si Si7 0.806908 0.512821 0.856727
Si Si8 0.638731 0.985467 0.167115
O O1 0.899631 0.551385 0.564718
O O2 0.099379 0.461349 0.541605
O O3 0.057733 0.647682 0.615955
O O4 0.993732 0.360966 0.619734
O O5 0.750000 0.750000 0.954128
O O6 0.786510 0.486551 0.917255
O O7 0.770477 0.526608 0.018078
O O8 0.750000 0.750000 0.083599
O O9 0.774042 0.492466 0.122573
O O10 0.053656 0.646354 0.715875
O O11 0.925713 0.830642 0.660418
O O12 0.129713 0.875473 0.666835
O O13 0.457934 0.349466 0.216809
O O14 0.303107 0.479179 0.172501
O O15 0.313564 0.483148 0.275049
O O16 0.134803 0.330743 0.151338
O O17 0.934714 0.370696 0.168697
#
# Coordination Sequence:
#
# PCOD8229000 Si02
#       8
#     8   8   8   8   8   8   8   8
#     4  11  21  43  68  92 129 174 219 269 323 393
#     4  11  21  41  71  97 129 169 220 279 330 395
#     4  11  25  43  64  97 134 179 215 267 341 397
#     4  10  22  39  65  95 129 164 220 268 322 387
#     4  11  21  39  67  95 129 178 215 269 333 392
#     4  10  22  40  66  92 130 166 223 267 323 393
#     4  11  20  40  65 100 120 162 223 272 321 382
#     4  11  24  44  60  95 138 172 216 271 329 401
#
# _framework density 21.666481000000001
#
# number of rings (size 3 to 8) (size 9 to 14) (size 15 to 20)
#    0.000    1.250    5.000    1.875    0.000    1.500 
#   13.500    6.250    0.000    0.000    0.000    0.000 
#    0.000    0.000    0.000    0.000    0.000    0.000 
#
# Total GULP energy -793046.285216 kJ/mol
# GULP energy per Si atom -12391.348206 kJ/mol
# Density = 2.161717 g / cm^3
# Si number density = 21.666481 Si / 1000 Ang^3
#
#
#
# Elastic Constant Matrix: (Units=GPa)
#
#
# Indices 1 2 3 4 5 6 
#
# 1 81.0459 31.8393 21.5281 0.0000 0.0000 0.0000
# 2 31.8393 100.1526 30.7705 0.0000 0.0000 0.0000
# 3 21.5281 30.7705 150.6444 0.0000 0.0000 0.0000
# 4 0.0000 0.0000 0.0000 60.8553 0.0000 0.0000
# 5 0.0000 0.0000 0.0000 0.0000 -392.5720 0.0000
# 6 0.0000 0.0000 0.0000 0.0000 0.0000 22.7783
#
#
#
# Elastic Compliance Matrix: (Units=1/GPa)
#
#
# Indices 1 2 3 4 5 6 
#
# 1 0.014297 -0.004180 -0.001189 0.000000 0.000000 0.000000
# 2 -0.004180 0.011875 -0.001828 0.000000 0.000000 0.000000
# 3 -0.001189 -0.001828 0.007182 0.000000 0.000000 0.000000
# 4 0.000000 0.000000 0.000000 0.016432 0.000000 0.000000
# 5 0.000000 0.000000 0.000000 0.000000 -0.002547 0.000000
# 6 0.000000 0.000000 0.000000 0.000000 0.000000 0.043901
#
#
# Mechanical properties :
#
#
# Convention : Reuss Voigt Hill
#
# Bulk Modulus (GPa) = 52.74587 55.56873 54.15730
# Shear Modulus (GPa) = 44.70111 -45.27403 -0.28646
#
# Velocity S-wave (km/s) = 4.54711 -4.57616 -0.36401
# Velocity P-wave (km/s) = 7.20872 1.48952 4.98733
#
# Compressibility (1/GPa) = 0.01895883
#
# Stress axis : x y z
#
# Youngs Moduli (GPa) = 69.94675 84.20899 139.24528
#
# Poissons Ratio (x) = 0.35196 0.16561
# Poissons Ratio (y) = 0.29235 0.25459
# Poissons Ratio (z) = 0.08319 0.15396
#
# Static dielectric constant tensor:
#      x y z
#    x 3.849750 0.000000 0.000000 
#    y 0.000000 4.186800 0.000000 
#    z 0.000000 0.000000 4.004310 
# 
# 
# High freq. dielectric constant tensor:
#      x y z
#    x 1.836240 0.000000 0.000000 
#    y 0.000000 1.859250 0.000000 
#    z 0.000000 0.000000 1.853630 
# 
# From -- ./inp_files/23513.got.cif
#   From: 2010.03.12/outbox.cif.g09.slc.cpg/sg56_12_cif.got.tgz:23513.got - 2010.04.16 15:33:40.
