data_PCOD8229885
_publ_section_title
;
Structure prediction by ZEFSAII (Michael W. Deem and Ramdas Pophale) SiO2 
 PCOD8229885
Probable space group: P B C M
;
_chemical_formula_sum "Si O2"
_cell_formula_units_Z 40
_cell_length_a 14.120146
_cell_length_b 18.550257
_cell_length_c 8.662817
_cell_angle_alpha 90.000000
_cell_angle_beta 90.000000
_cell_angle_gamma 90.000000
_cell_volume 2269.071903
_symmetry_space_group_name_H-M "P B C M"
_symmetry_group_IT_number 57
_symmetry_cell_setting 'orthorhombic'
loop_
_space_group_symop_operation_xyz
x,y,z
-x,-y,1/2+z
x,1/2-y,-z
-x,1/2+y,1/2-z
-x,-y,-z
x,y,1/2-z
-x,1/2+y,z
x,1/2-y,1/2+z
loop_
_atom_site_type_symbol
_atom_site_label
_atom_site_fract_x
_atom_site_fract_y
_atom_site_fract_z
Si Si1 0.537507 0.424378 0.933237
Si Si2 0.831480 0.822645 0.425069
Si Si3 0.639259 0.613849 0.571979
Si Si4 0.900402 0.976759 0.433668
Si Si5 0.282493 0.528939 0.569263
O O1 0.534202 0.421851 0.750000
O O2 0.500000 0.500000 0.000000
O O3 0.464835 0.364302 0.005275
O O4 0.645370 0.412399 0.992641
O O5 0.872391 0.750000 0.500000
O O6 0.863414 0.819119 0.250000
O O7 0.716577 0.822665 0.442237
O O8 0.876546 0.895860 0.495637
O O9 0.631767 0.587698 0.750000
O O10 0.676840 0.549659 0.465392
O O11 0.899622 0.979167 0.250000
O O12 0.822199 0.033671 0.495309
O O13 0.000000 0.000000 0.500000
O O14 0.275929 0.543889 0.750000
#
# Coordination Sequence:
#
# PCOD8229885 Si02
#       5
#     8   8   8   8   8
#     4  10  16  23  37  59  86 117 148 180 216 263
#     4   9  19  32  48  69  96 125 158 196 239 290
#     4   9  16  27  40  60  89 119 150 187 224 270
#     4  10  20  34  49  70  96 125 161 206 251 295
#     4  10  17  26  41  62  88 120 151 187 232 278
#
# _framework density 17.628354000000002
#
# number of rings (size 3 to 8) (size 9 to 14) (size 15 to 20)
#    0.000    2.400    0.000    8.400    0.000    4.800 
#    0.000    0.000    0.000    0.000    0.000    1.400 
#    0.000    0.000    0.000    0.000    0.000    0.000 
#
# Total GULP energy -495522.925211 kJ/mol
# GULP energy per Si atom -12388.073130 kJ/mol
# Density = 1.758823 g / cm^3
# Si number density = 17.628354 Si / 1000 Ang^3
#
#
#
# Elastic Constant Matrix: (Units=GPa)
#
#
# Indices 1 2 3 4 5 6 
#
# 1 150.5755 32.0696 51.2192 0.0000 0.0000 0.0000
# 2 32.0696 41.7969 23.2966 0.0000 0.0000 0.0000
# 3 51.2192 23.2966 112.4648 0.0000 0.0000 0.0000
# 4 0.0000 0.0000 0.0000 17.2265 0.0000 0.0000
# 5 0.0000 0.0000 0.0000 0.0000 34.2326 0.0000
# 6 0.0000 0.0000 0.0000 0.0000 0.0000 12.9234
#
#
#
# Elastic Compliance Matrix: (Units=1/GPa)
#
#
# Indices 1 2 3 4 5 6 
#
# 1 0.008711 -0.005056 -0.002920 0.000000 0.000000 0.000000
# 2 -0.005056 0.029983 -0.003908 0.000000 0.000000 0.000000
# 3 -0.002920 -0.003908 0.011031 0.000000 0.000000 0.000000
# 4 0.000000 0.000000 0.000000 0.058050 0.000000 0.000000
# 5 0.000000 0.000000 0.000000 0.000000 0.029212 0.000000
# 6 0.000000 0.000000 0.000000 0.000000 0.000000 0.077379
#
#
# Mechanical properties :
#
#
# Convention : Reuss Voigt Hill
#
# Bulk Modulus (GPa) = 38.52585 57.55647 48.04116
# Shear Modulus (GPa) = 20.26036 26.09330 23.17683
#
# Velocity S-wave (km/s) = 3.39382 3.85150 3.62988
# Velocity P-wave (km/s) = 6.10404 7.24566 6.69921
#
# Compressibility (1/GPa) = 0.02595660
#
# Stress axis : x y z
#
# Youngs Moduli (GPa) = 114.79284 33.35207 90.65354
#
# Poissons Ratio (x) = 0.16864 0.26470
# Poissons Ratio (y) = 0.58045 0.35428
# Poissons Ratio (z) = 0.33519 0.13034
#
# Static dielectric constant tensor:
#      x y z
#    x 3.980440 0.000000 0.000000 
#    y 0.000000 2.709020 0.000000 
#    z 0.000000 0.000000 3.319100 
# 
# 
# High freq. dielectric constant tensor:
#      x y z
#    x 1.688010 0.000000 0.000000 
#    y 0.000000 1.608380 0.000000 
#    z 0.000000 0.000000 1.695560 
# 
# From -- ./inp_files/4804.got.cif
#   From: 2010.03.12/outbox.cif.g09.slc.cpg/sg57_3_cif.got.tgz:4804.got - 2010.04.16 15:48:40.
