data_PCOD8229157
_publ_section_title
;
Structure prediction by ZEFSAII (Michael W. Deem and Ramdas Pophale) SiO2 
 PCOD8229157
Probable space group: P C C N
;
_chemical_formula_sum "Si O2"
_cell_formula_units_Z 40
_cell_length_a 9.659385
_cell_length_b 10.712173
_cell_length_c 16.181465
_cell_angle_alpha 90.000000
_cell_angle_beta 90.000000
_cell_angle_gamma 90.000000
_cell_volume 1674.344780
_symmetry_space_group_name_H-M "P C C N"
_symmetry_group_IT_number 56
_symmetry_cell_setting 'orthorhombic'
loop_
_space_group_symop_operation_xyz
x,y,z
1/2-x,1/2-y,z
1/2+x,-y,1/2-z
-x,1/2+y,1/2-z
-x,-y,-z
1/2+x,1/2+y,-z
1/2-x,y,1/2+z
x,1/2-y,1/2+z
loop_
_atom_site_type_symbol
_atom_site_label
_atom_site_fract_x
_atom_site_fract_y
_atom_site_fract_z
Si Si1 0.464782 0.255537 0.083045
Si Si2 0.175251 0.016983 0.656519
Si Si3 0.839770 0.865300 0.082658
Si Si4 0.646500 0.065834 0.012329
Si Si5 0.978865 0.980116 0.801528
O O1 0.145835 0.345482 0.117829
O O2 0.510798 0.351321 0.152810
O O3 0.399709 0.329455 0.006423
O O4 0.612095 0.198027 0.054186
O O5 0.044703 0.974693 0.710634
O O6 0.205711 0.921389 0.580806
O O7 0.313491 0.012305 0.711711
O O8 0.750000 0.750000 0.119038
O O9 0.959716 0.901264 0.147849
O O10 0.744731 0.987085 0.072101
O O11 0.500000 0.000000 0.000000
#
# Coordination Sequence:
#
# PCOD8229157 Si02
#       5
#     8   8   8   8   8
#     4  11  24  49  80 104 151 196 245 311 363 445
#     4  11  26  49  70 113 154 192 244 307 374 440
#     4  12  23  47  75 106 144 200 249 299 365 442
#     4  10  22  43  77 106 140 193 248 299 364 436
#     4  12  28  46  77 112 149 198 249 301 383 437
#
# _framework density 23.889942999999999
#
# number of rings (size 3 to 8) (size 9 to 14) (size 15 to 20)
#    0.000    0.800    6.000    1.200    5.600    4.000 
#    0.000    2.000    0.000    0.000    0.000    0.000 
#    0.000    0.000    0.000    0.000    0.000    0.000 
#
# Total GULP energy -495973.849352 kJ/mol
# GULP energy per Si atom -12399.346234 kJ/mol
# Density = 2.383557 g / cm^3
# Si number density = 23.889943 Si / 1000 Ang^3
#
#
#
# Elastic Constant Matrix: (Units=GPa)
#
#
# Indices 1 2 3 4 5 6 
#
# 1 116.4612 31.3959 21.5889 0.0000 0.0000 0.0000
# 2 31.3959 77.5587 12.5063 0.0000 0.0000 0.0000
# 3 21.5889 12.5063 57.7334 0.0000 0.0000 0.0000
# 4 0.0000 0.0000 0.0000 27.8595 0.0000 0.0000
# 5 0.0000 0.0000 0.0000 0.0000 38.3915 0.0000
# 6 0.0000 0.0000 0.0000 0.0000 0.0000 39.1389
#
#
#
# Elastic Compliance Matrix: (Units=1/GPa)
#
#
# Indices 1 2 3 4 5 6 
#
# 1 0.010116 -0.003611 -0.003001 0.000000 0.000000 0.000000
# 2 -0.003611 0.014649 -0.001823 0.000000 0.000000 0.000000
# 3 -0.003001 -0.001823 0.018838 0.000000 0.000000 0.000000
# 4 0.000000 0.000000 0.000000 0.035894 0.000000 0.000000
# 5 0.000000 0.000000 0.000000 0.000000 0.026047 0.000000
# 6 0.000000 0.000000 0.000000 0.000000 0.000000 0.025550
#
#
# Mechanical properties :
#
#
# Convention : Reuss Voigt Hill
#
# Bulk Modulus (GPa) = 37.40575 42.52616 39.96595
# Shear Modulus (GPa) = 31.87223 33.49546 32.68384
#
# Velocity S-wave (km/s) = 3.65653 3.74849 3.70280
# Velocity P-wave (km/s) = 5.78952 6.04768 5.92000
#
# Compressibility (1/GPa) = 0.02673386
#
# Stress axis : x y z
#
# Youngs Moduli (GPa) = 98.85011 68.26284 53.08436
#
# Poissons Ratio (x) = 0.24652 0.15929
# Poissons Ratio (y) = 0.35697 0.09677
# Poissons Ratio (z) = 0.29661 0.12444
#
# Static dielectric constant tensor:
#      x y z
#    x 4.619290 0.000000 0.000000 
#    y 0.000000 4.703540 0.000000 
#    z 0.000000 0.000000 4.428260 
# 
# 
# High freq. dielectric constant tensor:
#      x y z
#    x 1.958540 0.000000 0.000000 
#    y 0.000000 1.936570 0.000000 
#    z 0.000000 0.000000 1.943900 
# 
# From -- ./inp_files/14447.got.cif
#   From: 2010.03.12/outbox.cif.g09.slc.cpg/sg56_8_cif.got.tgz:14447.got - 2010.04.16 15:33:40.
