data_PCOD8229904
_publ_section_title
;
Structure prediction by ZEFSAII (Michael W. Deem and Ramdas Pophale) SiO2 
 PCOD8229904
Probable space group: P B C M
;
_chemical_formula_sum "Si O2"
_cell_formula_units_Z 40
_cell_length_a 22.153741
_cell_length_b 5.166605
_cell_length_c 17.532089
_cell_angle_alpha 90.000000
_cell_angle_beta 90.000000
_cell_angle_gamma 90.000000
_cell_volume 2006.716403
_symmetry_space_group_name_H-M "P B C M"
_symmetry_group_IT_number 57
_symmetry_cell_setting 'orthorhombic'
loop_
_space_group_symop_operation_xyz
x,y,z
-x,-y,1/2+z
x,1/2-y,-z
-x,1/2+y,1/2-z
-x,-y,-z
x,y,1/2-z
-x,1/2+y,z
x,1/2-y,1/2+z
loop_
_atom_site_type_symbol
_atom_site_label
_atom_site_fract_x
_atom_site_fract_y
_atom_site_fract_z
Si Si1 0.467489 0.719355 0.910102
Si Si2 0.026224 0.974067 0.914741
Si Si3 0.839511 0.004138 0.048983
Si Si4 0.343936 0.570269 0.663108
Si Si5 0.267366 0.080028 0.662936
O O1 0.512132 0.496912 0.876147
O O2 0.399911 0.640993 0.889784
O O3 0.473133 0.750000 0.000000
O O4 0.007924 0.238579 0.871734
O O5 0.097437 0.917285 0.912346
O O6 0.000000 0.000000 0.000000
O O7 0.792351 0.922696 0.113115
O O8 0.815615 0.250000 0.000000
O O9 0.851697 0.750000 0.000000
O O10 0.366428 0.537953 0.750000
O O11 0.312983 0.304763 0.633650
O O12 0.296682 0.800379 0.655634
O O13 0.249295 0.143093 0.750000
#
# Coordination Sequence:
#
# PCOD8229904 Si02
#       5
#     8   8   8   8   8
#     4  10  21  36  56  84 114 143 175 226 287 327
#     4  10  16  30  49  77 108 139 169 228 277 322
#     4  12  21  33  57  87 107 140 193 232 271 333
#     4  10  21  39  59  78 108 152 191 226 272 334
#     4  10  23  40  55  78 116 153 183 231 292 331
#
# _framework density 19.933060999999999
#
# number of rings (size 3 to 8) (size 9 to 14) (size 15 to 20)
#    0.000    1.600    4.000    2.400    0.000    3.200 
#    0.000    0.000    0.000    1.200    0.000    0.000 
#    0.000    0.000    0.000    0.000    0.000    0.000 
#
# Total GULP energy -495885.712332 kJ/mol
# GULP energy per Si atom -12397.142808 kJ/mol
# Density = 1.988769 g / cm^3
# Si number density = 19.933061 Si / 1000 Ang^3
#
#
#
# Elastic Constant Matrix: (Units=GPa)
#
#
# Indices 1 2 3 4 5 6 
#
# 1 110.4610 24.8709 31.9463 0.0000 0.0000 0.0000
# 2 24.8709 143.0302 24.6586 0.0000 0.0000 0.0000
# 3 31.9463 24.6586 24.6770 0.0000 0.0000 0.0000
# 4 0.0000 0.0000 0.0000 18.1538 0.0000 0.0000
# 5 0.0000 0.0000 0.0000 0.0000 -0.6723 0.0000
# 6 0.0000 0.0000 0.0000 0.0000 0.0000 37.0954
#
#
#
# Elastic Compliance Matrix: (Units=1/GPa)
#
#
# Indices 1 2 3 4 5 6 
#
# 1 0.014559 0.000867 -0.019715 0.000000 0.000000 0.000000
# 2 0.000867 0.008498 -0.009615 0.000000 0.000000 0.000000
# 3 -0.019715 -0.009615 0.075653 0.000000 0.000000 0.000000
# 4 0.000000 0.000000 0.000000 0.055085 0.000000 0.000000
# 5 0.000000 0.000000 0.000000 0.000000 -1.487537 0.000000
# 6 0.000000 0.000000 0.000000 0.000000 0.000000 0.026958
#
#
# Mechanical properties :
#
#
# Convention : Reuss Voigt Hill
#
# Bulk Modulus (GPa) = 23.93114 49.01331 36.47223
# Shear Modulus (GPa) = -4.04554 24.02822 9.99134
#
# Velocity S-wave (km/s) = -1.42617 3.47572 2.24128
# Velocity P-wave (km/s) = 3.05284 6.38356 5.00348
#
# Compressibility (1/GPa) = 0.04178655
#
# Stress axis : x y z
#
# Youngs Moduli (GPa) = 68.68398 117.67054 13.21819
#
# Poissons Ratio (x) = -0.10204 0.26059
# Poissons Ratio (y) = -0.05956 0.12709
# Poissons Ratio (z) = 1.35409 1.13135
#
# Static dielectric constant tensor:
#      x y z
#    x 3.494010 0.000000 0.000000 
#    y 0.000000 1.806070 0.000000 
#    z 0.000000 0.000000 3.242640 
# 
# 
# High freq. dielectric constant tensor:
#      x y z
#    x 1.780280 0.000000 0.000000 
#    y 0.000000 1.814140 0.000000 
#    z 0.000000 0.000000 1.726900 
# 
# From -- ./inp_files/22755.got.cif
#   From: 2010.03.12/outbox.cif.g09.slc.cpg/sg57_12_cif.got.tgz:22755.got - 2010.04.16 15:48:40.
