data_PCOD8229735
_publ_section_title
;
Structure prediction by ZEFSAII (Michael W. Deem and Ramdas Pophale) SiO2 
 PCOD8229735
Probable space group: P C C N
;
_chemical_formula_sum "Si O2"
_cell_formula_units_Z 48
_cell_length_a 8.376753
_cell_length_b 17.473271
_cell_length_c 14.848327
_cell_angle_alpha 90.000000
_cell_angle_beta 90.000000
_cell_angle_gamma 90.000000
_cell_volume 2173.338862
_symmetry_space_group_name_H-M "P C C N"
_symmetry_group_IT_number 56
_symmetry_cell_setting 'orthorhombic'
loop_
_space_group_symop_operation_xyz
x,y,z
1/2-x,1/2-y,z
1/2+x,-y,1/2-z
-x,1/2+y,1/2-z
-x,-y,-z
1/2+x,1/2+y,-z
1/2-x,y,1/2+z
x,1/2-y,1/2+z
loop_
_atom_site_type_symbol
_atom_site_label
_atom_site_fract_x
_atom_site_fract_y
_atom_site_fract_z
Si Si1 0.159882 0.539970 0.308645
Si Si2 0.141127 0.317689 0.499274
Si Si3 0.584880 0.291770 0.834369
Si Si4 0.659892 0.464330 0.854894
Si Si5 0.317733 0.019427 0.976917
Si Si6 0.399691 0.794891 0.343189
O O1 0.198270 0.504819 0.209997
O O2 0.294281 0.507270 0.375353
O O3 0.175247 0.630719 0.296705
O O4 0.987581 0.520256 0.344855
O O5 0.250000 0.250000 0.534128
O O6 0.252415 0.393232 0.486919
O O7 0.053743 0.286423 0.409377
O O8 0.016364 0.326536 0.580271
O O9 0.750000 0.250000 0.864767
O O10 0.609571 0.381387 0.822498
O O11 0.524013 0.255303 0.739105
O O12 0.712816 0.465158 0.958334
O O13 0.500000 0.000000 0.000000
O O14 0.250000 0.750000 0.387628
#
# Coordination Sequence:
#
# PCOD8229735 Si02
#       6
#     8   8   8   8   8   8
#     4  12  24  46  74 103 143 188 245 305 369 441
#     4  12  28  46  70 106 147 192 241 308 366 436
#     4  11  24  47  73 106 140 187 243 300 373 444
#     4  12  24  46  74 103 143 188 245 305 369 441
#     4  12  28  47  70 106 149 197 249 302 372 444
#     4  11  24  47  73 106 140 187 243 300 373 444
#
# _framework density 22.085833000000001
#
# number of rings (size 3 to 8) (size 9 to 14) (size 15 to 20)
#    0.000    0.333    6.667    3.000    4.667    3.333 
#    0.000    0.000    0.000    0.000    0.000    0.000 
#    0.000    0.000    0.000    0.000    0.000    0.000 
#
# Total GULP energy -594788.412845 kJ/mol
# GULP energy per Si atom -12391.425268 kJ/mol
# Density = 2.203556 g / cm^3
# Si number density = 22.085833 Si / 1000 Ang^3
#
#
#
# Elastic Constant Matrix: (Units=GPa)
#
#
# Indices 1 2 3 4 5 6 
#
# 1 83.9013 22.7641 7.0394 0.0000 0.0000 0.0000
# 2 22.7641 129.3507 24.0867 0.0000 0.0000 0.0000
# 3 7.0394 24.0867 85.6387 0.0000 0.0000 0.0000
# 4 0.0000 0.0000 0.0000 31.9893 0.0000 0.0000
# 5 0.0000 0.0000 0.0000 0.0000 32.9799 0.0000
# 6 0.0000 0.0000 0.0000 0.0000 0.0000 39.2634
#
#
#
# Elastic Compliance Matrix: (Units=1/GPa)
#
#
# Indices 1 2 3 4 5 6 
#
# 1 0.012532 -0.002125 -0.000432 0.000000 0.000000 0.000000
# 2 -0.002125 0.008518 -0.002221 0.000000 0.000000 0.000000
# 3 -0.000432 -0.002221 0.012337 0.000000 0.000000 0.000000
# 4 0.000000 0.000000 0.000000 0.031260 0.000000 0.000000
# 5 0.000000 0.000000 0.000000 0.000000 0.030321 0.000000
# 6 0.000000 0.000000 0.000000 0.000000 0.000000 0.025469
#
#
# Mechanical properties :
#
#
# Convention : Reuss Voigt Hill
#
# Bulk Modulus (GPa) = 41.96356 45.18569 43.57462
# Shear Modulus (GPa) = 36.24795 37.17988 36.71392
#
# Velocity S-wave (km/s) = 4.05561 4.10741 4.08159
# Velocity P-wave (km/s) = 6.40094 6.55728 6.47958
#
# Compressibility (1/GPa) = 0.02383020
#
# Stress axis : x y z
#
# Youngs Moduli (GPa) = 79.79844 117.39163 81.05529
#
# Poissons Ratio (x) = 0.24944 0.03505
# Poissons Ratio (y) = 0.16956 0.18004
# Poissons Ratio (z) = 0.03451 0.26076
#
# Static dielectric constant tensor:
#      x y z
#    x 5.242870 0.000000 0.000000 
#    y 0.000000 4.087790 0.000000 
#    z 0.000000 0.000000 4.190530 
# 
# 
# High freq. dielectric constant tensor:
#      x y z
#    x 1.867770 0.000000 0.000000 
#    y 0.000000 1.879440 0.000000 
#    z 0.000000 0.000000 1.883100 
# 
# From -- ./inp_files/10692.got.cif
#   From: 2010.03.12/outbox.cif.g09.slc.cpg/sg56_6_cif.got.tgz:10692.got - 2010.04.16 15:33:40.
