data_PCOD8229183
_publ_section_title
;
Structure prediction by ZEFSAII (Michael W. Deem and Ramdas Pophale) SiO2 
 PCOD8229183
Probable space group: P C C N
;
_chemical_formula_sum "Si O2"
_cell_formula_units_Z 48
_cell_length_a 8.460365
_cell_length_b 15.416491
_cell_length_c 16.498085
_cell_angle_alpha 90.000000
_cell_angle_beta 90.000000
_cell_angle_gamma 90.000000
_cell_volume 2151.831053
_symmetry_space_group_name_H-M "P C C N"
_symmetry_group_IT_number 56
_symmetry_cell_setting 'orthorhombic'
loop_
_space_group_symop_operation_xyz
x,y,z
1/2-x,1/2-y,z
1/2+x,-y,1/2-z
-x,1/2+y,1/2-z
-x,-y,-z
1/2+x,1/2+y,-z
1/2-x,y,1/2+z
x,1/2-y,1/2+z
loop_
_atom_site_type_symbol
_atom_site_label
_atom_site_fract_x
_atom_site_fract_y
_atom_site_fract_z
Si Si1 0.571175 0.272686 0.104574
Si Si2 0.855034 0.574582 0.096211
Si Si3 0.525802 0.400531 0.245261
Si Si4 0.012042 0.095525 0.964645
Si Si5 0.967633 0.588863 0.924030
Si Si6 0.702648 0.475851 0.844636
O O1 0.750000 0.250000 0.082027
O O2 0.553964 0.315730 0.192174
O O3 0.474453 0.183702 0.114507
O O4 0.499272 0.331783 0.033374
O O5 0.677134 0.605051 0.082658
O O6 0.918204 0.622671 0.176669
O O7 0.881096 0.469494 0.104476
O O8 0.968297 0.600956 0.021265
O O9 0.447288 0.475315 0.192085
O O10 0.695975 0.435394 0.272654
O O11 0.866682 0.101795 0.900877
O O12 0.000000 0.000000 0.000000
O O13 0.804077 0.543864 0.897534
#
# Coordination Sequence:
#
# PCOD8229183 Si02
#       6
#     8   8   8   8   8   8
#     4  12  28  45  73 105 148 185 239 302 359 409
#     4  10  22  44  77 101 138 184 244 283 355 434
#     4  11  25  43  70 106 140 179 233 298 364 411
#     4  12  22  45  74 102 138 195 242 280 352 439
#     4  10  23  45  73 103 136 185 237 292 345 427
#     4  11  24  42  76 101 137 190 240 283 354 435
#
# _framework density 22.306583
#
# number of rings (size 3 to 8) (size 9 to 14) (size 15 to 20)
#    0.000    1.000    3.333    2.000    9.333    2.667 
#    3.000    1.667    0.000    0.000    0.000    0.000 
#    0.000    0.000    0.000    0.000    0.000    0.000 
#
# Total GULP energy -595276.055868 kJ/mol
# GULP energy per Si atom -12401.584497 kJ/mol
# Density = 2.225581 g / cm^3
# Si number density = 22.306583 Si / 1000 Ang^3
#
#
#
# Elastic Constant Matrix: (Units=GPa)
#
#
# Indices 1 2 3 4 5 6 
#
# 1 123.3051 47.7301 44.2875 0.0000 0.0000 0.0000
# 2 47.7301 127.7843 57.2338 0.0000 0.0000 0.0000
# 3 44.2875 57.2338 122.2389 0.0000 0.0000 0.0000
# 4 0.0000 0.0000 0.0000 29.9525 0.0000 0.0000
# 5 0.0000 0.0000 0.0000 0.0000 49.8127 0.0000
# 6 0.0000 0.0000 0.0000 0.0000 0.0000 26.2020
#
#
#
# Elastic Compliance Matrix: (Units=1/GPa)
#
#
# Indices 1 2 3 4 5 6 
#
# 1 0.009996 -0.002672 -0.002370 0.000000 0.000000 0.000000
# 2 -0.002672 0.010616 -0.004003 0.000000 0.000000 0.000000
# 3 -0.002370 -0.004003 0.010914 0.000000 0.000000 0.000000
# 4 0.000000 0.000000 0.000000 0.033386 0.000000 0.000000
# 5 0.000000 0.000000 0.000000 0.000000 0.020075 0.000000
# 6 0.000000 0.000000 0.000000 0.000000 0.000000 0.038165
#
#
# Mechanical properties :
#
#
# Convention : Reuss Voigt Hill
#
# Bulk Modulus (GPa) = 74.42884 74.64789 74.53837
# Shear Modulus (GPa) = 34.31218 36.13189 35.22204
#
# Velocity S-wave (km/s) = 3.92626 4.02902 3.97797
# Velocity P-wave (km/s) = 7.34797 7.42840 7.38830
#
# Compressibility (1/GPa) = 0.01343565
#
# Stress axis : x y z
#
# Youngs Moduli (GPa) = 100.04397 94.19307 91.62833
#
# Poissons Ratio (x) = 0.25167 0.21720
# Poissons Ratio (y) = 0.26730 0.36677
# Poissons Ratio (z) = 0.23715 0.37703
#
# Static dielectric constant tensor:
#      x y z
#    x 4.159770 0.000000 0.000000 
#    y 0.000000 3.879190 0.000000 
#    z 0.000000 0.000000 4.424970 
# 
# 
# High freq. dielectric constant tensor:
#      x y z
#    x 1.889960 0.000000 0.000000 
#    y 0.000000 1.849990 0.000000 
#    z 0.000000 0.000000 1.895190 
# 
# From -- ./inp_files/14833.got.cif
#   From: 2010.03.12/outbox.cif.g09.slc.cpg/sg56_8_cif.got.tgz:14833.got - 2010.04.16 15:33:40.
