data_PCOD8229006
_publ_section_title
;
Structure prediction by ZEFSAII (Michael W. Deem and Ramdas Pophale) SiO2 
 PCOD8229006
Probable space group: P C C N
;
_chemical_formula_sum "Si O2"
_cell_formula_units_Z 48
_cell_length_a 9.661239
_cell_length_b 15.910743
_cell_length_c 15.802536
_cell_angle_alpha 90.000000
_cell_angle_beta 90.000000
_cell_angle_gamma 90.000000
_cell_volume 2429.126182
_symmetry_space_group_name_H-M "P C C N"
_symmetry_group_IT_number 56
_symmetry_cell_setting 'orthorhombic'
loop_
_space_group_symop_operation_xyz
x,y,z
1/2-x,1/2-y,z
1/2+x,-y,1/2-z
-x,1/2+y,1/2-z
-x,-y,-z
1/2+x,1/2+y,-z
1/2-x,y,1/2+z
x,1/2-y,1/2+z
loop_
_atom_site_type_symbol
_atom_site_label
_atom_site_fract_x
_atom_site_fract_y
_atom_site_fract_z
Si Si1 0.888455 0.803337 0.160600
Si Si2 0.467258 0.590147 0.295071
Si Si3 0.877203 0.189784 0.373186
Si Si4 0.885256 0.518135 0.570399
Si Si5 0.114759 0.935053 0.476631
Si Si6 0.340996 0.552326 0.754727
O O1 0.750000 0.750000 0.181861
O O2 0.870557 0.886060 0.103160
O O3 0.973091 0.828389 0.246038
O O4 0.983699 0.740493 0.107334
O O5 0.423290 0.614679 0.390271
O O6 0.593469 0.523679 0.299624
O O7 0.328022 0.550793 0.251019
O O8 0.750000 0.250000 0.358812
O O9 0.848269 0.132277 0.453165
O O10 0.896079 0.137783 0.286506
O O11 0.742499 0.497146 0.528012
O O12 0.904583 0.456233 0.650956
O O13 0.000000 0.500000 0.500000
O O14 0.000000 0.000000 0.500000
#
# Coordination Sequence:
#
# PCOD8229006 Si02
#       6
#     8   8   8   8   8   8
#     4  11  24  43  64  95 135 170 216 279 336 379
#     4  10  22  42  62  93 126 171 223 260 321 409
#     4  12  23  42  66  94 132 170 211 278 335 376
#     4  10  23  44  66  95 128 173 220 265 321 404
#     4  11  22  40  67  94 125 167 221 262 321 395
#     4  10  22  39  68  90 124 173 219 257 323 409
#
# _framework density 19.760190999999999
#
# number of rings (size 3 to 8) (size 9 to 14) (size 15 to 20)
#    0.000    1.333    3.333    2.000    7.000    0.000 
#    9.000    0.833    0.000    0.000    0.000    0.000 
#    0.000    0.000    0.000    0.000    0.000    0.000 
#
# Total GULP energy -594868.689458 kJ/mol
# GULP energy per Si atom -12393.097697 kJ/mol
# Density = 1.971522 g / cm^3
# Si number density = 19.760191 Si / 1000 Ang^3
#
#
#
# Elastic Constant Matrix: (Units=GPa)
#
#
# Indices 1 2 3 4 5 6 
#
# 1 124.3847 47.9120 58.5756 0.0000 0.0000 0.0000
# 2 47.9120 114.5114 64.3941 0.0000 0.0000 0.0000
# 3 58.5756 64.3941 119.5647 0.0000 0.0000 0.0000
# 4 0.0000 0.0000 0.0000 -24.7184 0.0000 0.0000
# 5 0.0000 0.0000 0.0000 0.0000 25.5859 0.0000
# 6 0.0000 0.0000 0.0000 0.0000 0.0000 47.2857
#
#
#
# Elastic Compliance Matrix: (Units=1/GPa)
#
#
# Indices 1 2 3 4 5 6 
#
# 1 0.010830 -0.002220 -0.004110 0.000000 0.000000 0.000000
# 2 -0.002220 0.012982 -0.005904 0.000000 0.000000 0.000000
# 3 -0.004110 -0.005904 0.013557 0.000000 0.000000 0.000000
# 4 0.000000 0.000000 0.000000 -0.040456 0.000000 0.000000
# 5 0.000000 0.000000 0.000000 0.000000 0.039084 0.000000
# 6 0.000000 0.000000 0.000000 0.000000 0.000000 0.021148
#
#
# Mechanical properties :
#
#
# Convention : Reuss Voigt Hill
#
# Bulk Modulus (GPa) = 77.51611 77.80270 77.65940
# Shear Modulus (GPa) = 58.19782 22.13590 40.16686
#
# Velocity S-wave (km/s) = 5.43286 3.35061 4.51346
# Velocity P-wave (km/s) = 8.86951 7.37751 8.15769
#
# Compressibility (1/GPa) = 0.01290054
#
# Stress axis : x y z
#
# Youngs Moduli (GPa) = 92.33334 77.03179 73.76307
#
# Poissons Ratio (x) = 0.17102 0.30318
# Poissons Ratio (y) = 0.20499 0.43549
# Poissons Ratio (z) = 0.37950 0.45479
#
# Static dielectric constant tensor:
#      x y z
#    x 4.081500 0.000000 0.000000 
#    y 0.000000 4.156790 0.000000 
#    z 0.000000 0.000000 5.050340 
# 
# 
# High freq. dielectric constant tensor:
#      x y z
#    x 1.787450 0.000000 0.000000 
#    y 0.000000 1.765860 0.000000 
#    z 0.000000 0.000000 1.771190 
# 
# From -- ./inp_files/14763.got.cif
#   From: 2010.03.12/outbox.cif.g09.slc.cpg/sg56_8_cif.got.tgz:14763.got - 2010.04.16 15:33:40.
