data_PCOD8229838
_publ_section_title
;
Structure prediction by ZEFSAII (Michael W. Deem and Ramdas Pophale) SiO2 
 PCOD8229838
Probable space group: P C C N
;
_chemical_formula_sum "Si O2"
_cell_formula_units_Z 32
_cell_length_a 4.948506
_cell_length_b 15.998618
_cell_length_c 16.317824
_cell_angle_alpha 90.000000
_cell_angle_beta 90.000000
_cell_angle_gamma 90.000000
_cell_volume 1291.870005
_symmetry_space_group_name_H-M "P C C N"
_symmetry_group_IT_number 56
_symmetry_cell_setting 'orthorhombic'
loop_
_space_group_symop_operation_xyz
x,y,z
1/2-x,1/2-y,z
1/2+x,-y,1/2-z
-x,1/2+y,1/2-z
-x,-y,-z
1/2+x,1/2+y,-z
1/2-x,y,1/2+z
x,1/2-y,1/2+z
loop_
_atom_site_type_symbol
_atom_site_label
_atom_site_fract_x
_atom_site_fract_y
_atom_site_fract_z
Si Si1 0.250000 0.250000 0.574600
Si Si2 0.862058 0.500272 0.089463
Si Si3 0.250000 0.750000 0.038389
Si Si4 0.605168 0.159418 0.179304
Si Si5 0.155781 0.905435 0.142052
O O1 0.498744 0.227534 0.517645
O O2 0.314639 0.327828 0.635299
O O3 0.751805 0.410430 0.121465
O O4 0.603212 0.561402 0.091507
O O5 0.101682 0.527805 0.152146
O O6 0.000000 0.500000 0.000000
O O7 0.302574 0.830298 0.094199
O O8 0.750000 0.250000 0.177216
O O9 0.557154 0.126291 0.270098
#
# Coordination Sequence:
#
# PCOD8229838 Si02
#       5
#     4   8   4   8   8
#     4  12  28  44  78 108 156 198 262 310 396 466
#     4  12  28  49  78 114 156 205 262 331 391 468
#     4  12  24  48  72 114 146 212 250 334 390 476
#     4  12  28  49  78 113 158 209 262 324 399 471
#     4  12  27  48  78 110 156 199 270 318 397 467
#
# _framework density 24.770292999999999
#
# number of rings (size 3 to 8) (size 9 to 14) (size 15 to 20)
#    0.000    0.000    2.500    6.750    7.000    1.000 
#    0.000    0.000    0.000    0.000    0.000    0.000 
#    0.000    0.000    0.000    0.000    0.000    0.000 
#
# Total GULP energy -396664.195431 kJ/mol
# GULP energy per Si atom -12395.756107 kJ/mol
# Density = 2.471391 g / cm^3
# Si number density = 24.770293 Si / 1000 Ang^3
#
#
#
# Elastic Constant Matrix: (Units=GPa)
#
#
# Indices 1 2 3 4 5 6 
#
# 1 126.1402 46.5853 25.3654 0.0000 0.0000 0.0000
# 2 46.5853 148.6974 62.1891 0.0000 0.0000 0.0000
# 3 25.3654 62.1891 137.8306 0.0000 0.0000 0.0000
# 4 0.0000 0.0000 0.0000 42.1497 0.0000 0.0000
# 5 0.0000 0.0000 0.0000 0.0000 28.3943 0.0000
# 6 0.0000 0.0000 0.0000 0.0000 0.0000 40.8073
#
#
#
# Elastic Compliance Matrix: (Units=1/GPa)
#
#
# Indices 1 2 3 4 5 6 
#
# 1 0.008990 -0.002619 -0.000473 0.000000 0.000000 0.000000
# 2 -0.002619 0.009052 -0.003602 0.000000 0.000000 0.000000
# 3 -0.000473 -0.003602 0.008968 0.000000 0.000000 0.000000
# 4 0.000000 0.000000 0.000000 0.023725 0.000000 0.000000
# 5 0.000000 0.000000 0.000000 0.000000 0.035218 0.000000
# 6 0.000000 0.000000 0.000000 0.000000 0.000000 0.024505
#
#
# Mechanical properties :
#
#
# Convention : Reuss Voigt Hill
#
# Bulk Modulus (GPa) = 73.41173 75.66087 74.53630
# Shear Modulus (GPa) = 38.94480 40.83881 39.89180
#
# Velocity S-wave (km/s) = 3.96945 4.06482 4.01742
# Velocity P-wave (km/s) = 7.12110 7.25546 7.18859
#
# Compressibility (1/GPa) = 0.01362180
#
# Stress axis : x y z
#
# Youngs Moduli (GPa) = 111.23611 110.47205 111.51137
#
# Poissons Ratio (x) = 0.28929 0.05273
# Poissons Ratio (y) = 0.29129 0.40170
# Poissons Ratio (z) = 0.05260 0.39796
#
# Static dielectric constant tensor:
#      x y z
#    x 4.182470 0.000000 0.000000 
#    y 0.000000 4.763790 0.000000 
#    z 0.000000 0.000000 4.584840 
# 
# 
# High freq. dielectric constant tensor:
#      x y z
#    x 1.985230 0.000000 0.000000 
#    y 0.000000 2.003480 0.000000 
#    z 0.000000 0.000000 1.999640 
# 
# From -- ./inp_files/13746.got.cif
#   From: 2010.03.12/outbox.cif.g09.slc.cpg/sg56_7_cif.got.tgz:13746.got - 2010.04.16 15:33:40.
