data_PCOD8229611
_publ_section_title
;
Structure prediction by ZEFSAII (Michael W. Deem and Ramdas Pophale) SiO2 
 PCOD8229611
Probable space group: P C C N
;
_chemical_formula_sum "Si O2"
_cell_formula_units_Z 60
_cell_length_a 8.427964
_cell_length_b 16.166669
_cell_length_c 19.742045
_cell_angle_alpha 90.000000
_cell_angle_beta 90.000000
_cell_angle_gamma 90.000000
_cell_volume 2689.895175
_symmetry_space_group_name_H-M "P C C N"
_symmetry_group_IT_number 56
_symmetry_cell_setting 'orthorhombic'
loop_
_space_group_symop_operation_xyz
x,y,z
1/2-x,1/2-y,z
1/2+x,-y,1/2-z
-x,1/2+y,1/2-z
-x,-y,-z
1/2+x,1/2+y,-z
1/2-x,y,1/2+z
x,1/2-y,1/2+z
loop_
_atom_site_type_symbol
_atom_site_label
_atom_site_fract_x
_atom_site_fract_y
_atom_site_fract_z
Si Si1 0.063379 0.118586 0.540328
Si Si2 0.577774 0.245148 0.291788
Si Si3 0.853010 0.672781 0.816834
Si Si4 0.449435 0.928245 0.182690
Si Si5 0.750000 0.750000 0.533473
Si Si6 0.284875 0.034786 0.285981
Si Si7 0.481503 0.377946 0.897735
Si Si8 0.716521 0.451705 0.459085
O O1 0.063471 0.125119 0.621468
O O2 0.115751 0.206626 0.511173
O O3 0.884802 0.102090 0.512913
O O4 0.192079 0.047560 0.517864
O O5 0.750000 0.250000 0.260553
O O6 0.483040 0.210138 0.230516
O O7 0.504544 0.331911 0.315790
O O8 0.592272 0.183950 0.355691
O O9 0.750000 0.750000 0.843987
O O10 0.759817 0.606612 0.770592
O O11 0.611667 0.981625 0.182429
O O12 0.356736 0.946743 0.114868
O O13 0.344169 0.952315 0.248095
O O14 0.835786 0.677301 0.575281
O O15 0.407445 0.054369 0.346772
O O16 0.597406 0.422488 0.954046
#
# Coordination Sequence:
#
# PCOD8229611 Si02
#       8
#     8   8   8   8   4   8   8   8
#     4  11  25  44  66  94 131 184 228 277 337 405
#     4  11  23  38  66 100 128 165 214 275 340 402
#     4  11  22  43  64  93 134 174 217 271 330 404
#     4  12  22  40  65 101 134 170 220 278 347 411
#     4  12  26  44  68  94 132 180 234 276 330 422
#     4  11  24  38  68 100 133 172 214 281 352 404
#     4  11  24  44  70  99 129 174 230 284 350 407
#     4  11  24  44  71  95 134 177 230 288 337 407
#
# _framework density 22.305700000000002
#
# number of rings (size 3 to 8) (size 9 to 14) (size 15 to 20)
#    0.000    0.800    4.667    3.200    3.733    0.533 
#    2.400    0.000    0.000    0.000    0.000    0.000 
#    0.000    0.000    0.000    0.000    0.000    0.000 
#
# Total GULP energy -743800.555025 kJ/mol
# GULP energy per Si atom -12396.675917 kJ/mol
# Density = 2.225493 g / cm^3
# Si number density = 22.305700 Si / 1000 Ang^3
#
#
#
# Elastic Constant Matrix: (Units=GPa)
#
#
# Indices 1 2 3 4 5 6 
#
# 1 76.9349 7.1475 21.3438 0.0000 0.0000 0.0000
# 2 7.1475 64.4859 9.2218 0.0000 0.0000 0.0000
# 3 21.3438 9.2218 67.3594 0.0000 0.0000 0.0000
# 4 0.0000 0.0000 0.0000 67.5443 0.0000 0.0000
# 5 0.0000 0.0000 0.0000 0.0000 26.6067 0.0000
# 6 0.0000 0.0000 0.0000 0.0000 0.0000 39.1188
#
#
#
# Elastic Compliance Matrix: (Units=1/GPa)
#
#
# Indices 1 2 3 4 5 6 
#
# 1 0.014308 -0.000956 -0.004403 0.000000 0.000000 0.000000
# 2 -0.000956 0.015881 -0.001871 0.000000 0.000000 0.000000
# 3 -0.004403 -0.001871 0.016497 0.000000 0.000000 0.000000
# 4 0.000000 0.000000 0.000000 0.014805 0.000000 0.000000
# 5 0.000000 0.000000 0.000000 0.000000 0.037584 0.000000
# 6 0.000000 0.000000 0.000000 0.000000 0.000000 0.025563
#
#
# Mechanical properties :
#
#
# Convention : Reuss Voigt Hill
#
# Bulk Modulus (GPa) = 31.03127 31.57850 31.30489
# Shear Modulus (GPa) = 33.36863 38.05844 35.71354
#
# Velocity S-wave (km/s) = 3.87197 4.13512 4.00571
# Velocity P-wave (km/s) = 5.82508 6.08168 5.95476
#
# Compressibility (1/GPa) = 0.03222556
#
# Stress axis : x y z
#
# Youngs Moduli (GPa) = 69.88945 62.96895 60.61701
#
# Poissons Ratio (x) = 0.06022 0.26689
# Poissons Ratio (y) = 0.06683 0.11342
# Poissons Ratio (z) = 0.30771 0.11782
#
# Static dielectric constant tensor:
#      x y z
#    x 3.449920 0.000000 0.000000 
#    y 0.000000 3.773630 0.000000 
#    z 0.000000 0.000000 4.014430 
# 
# 
# High freq. dielectric constant tensor:
#      x y z
#    x 1.873540 0.000000 0.000000 
#    y 0.000000 1.888140 0.000000 
#    z 0.000000 0.000000 1.872630 
# 
# From -- ./inp_files/15086.got.cif
#   From: 2010.03.12/outbox.cif.g09.slc.cpg/sg56_8_cif.got.tgz:15086.got - 2010.04.16 15:33:40.
