data_PCOD8229110
_publ_section_title
;
Structure prediction by ZEFSAII (Michael W. Deem and Ramdas Pophale) SiO2 
 PCOD8229110
Probable space group: P C C N
;
_chemical_formula_sum "Si O2"
_cell_formula_units_Z 48
_cell_length_a 14.157796
_cell_length_b 11.863063
_cell_length_c 14.008260
_cell_angle_alpha 90.000000
_cell_angle_beta 90.000000
_cell_angle_gamma 90.000000
_cell_volume 2352.754869
_symmetry_space_group_name_H-M "P C C N"
_symmetry_group_IT_number 56
_symmetry_cell_setting 'orthorhombic'
loop_
_space_group_symop_operation_xyz
x,y,z
1/2-x,1/2-y,z
1/2+x,-y,1/2-z
-x,1/2+y,1/2-z
-x,-y,-z
1/2+x,1/2+y,-z
1/2-x,y,1/2+z
x,1/2-y,1/2+z
loop_
_atom_site_type_symbol
_atom_site_label
_atom_site_fract_x
_atom_site_fract_y
_atom_site_fract_z
Si Si1 0.250000 0.750000 0.878591
Si Si2 0.750000 0.750000 0.227681
Si Si3 0.858580 0.049411 0.041035
Si Si4 0.396392 0.215558 0.121051
Si Si5 0.411062 0.592723 0.331441
Si Si6 0.454693 0.029621 0.637540
Si Si7 0.682698 0.597455 0.564243
O O1 0.193555 0.832160 0.948626
O O2 0.176384 0.679079 0.813478
O O3 0.822817 0.818797 0.295605
O O4 0.811286 0.666481 0.162581
O O5 0.931644 0.034366 0.129089
O O6 0.787105 0.944841 0.038258
O O7 0.915906 0.055977 0.942445
O O8 0.496347 0.159553 0.140345
O O9 0.407574 0.349463 0.120487
O O10 0.356380 0.176118 0.019350
O O11 0.426294 0.518683 0.238643
O O12 0.386263 0.508808 0.418775
#
# Coordination Sequence:
#
# PCOD8229110 Si02
#       7
#     4   4   8   8   8   8   8
#     4  10  22  44  66  96 138 178 226 276 340 404
#     4  12  22  40  68 100 132 174 226 268 348 398
#     4  10  22  42  66  94 133 176 226 280 338 395
#     4  12  24  43  67 102 135 175 227 282 336 405
#     4  11  24  44  67  99 135 180 225 277 336 408
#     4  11  22  43  67  97 133 178 227 276 338 399
#     4  11  24  41  67  97 135 177 218 285 332 405
#
# _framework density 20.401615
#
# number of rings (size 3 to 8) (size 9 to 14) (size 15 to 20)
#    0.000    1.000    3.333    4.000    0.000    2.000 
#    0.000    0.000    0.000    0.000    0.000    0.000 
#    0.000    0.000    0.000    0.000    0.000    0.000 
#
# Total GULP energy -595320.622706 kJ/mol
# GULP energy per Si atom -12402.512973 kJ/mol
# Density = 2.035518 g / cm^3
# Si number density = 20.401615 Si / 1000 Ang^3
#
#
#
# Elastic Constant Matrix: (Units=GPa)
#
#
# Indices 1 2 3 4 5 6 
#
# 1 144.3676 64.8976 64.5103 0.0000 0.0000 0.0000
# 2 64.8976 117.5724 53.0142 0.0000 0.0000 0.0000
# 3 64.5103 53.0142 111.6180 0.0000 0.0000 0.0000
# 4 0.0000 0.0000 0.0000 16.8034 0.0000 0.0000
# 5 0.0000 0.0000 0.0000 0.0000 25.7769 0.0000
# 6 0.0000 0.0000 0.0000 0.0000 0.0000 34.3374
#
#
#
# Elastic Compliance Matrix: (Units=1/GPa)
#
#
# Indices 1 2 3 4 5 6 
#
# 1 0.010595 -0.003929 -0.004258 0.000000 0.000000 0.000000
# 2 -0.003929 0.012280 -0.003562 0.000000 0.000000 0.000000
# 3 -0.004258 -0.003562 0.013112 0.000000 0.000000 0.000000
# 4 0.000000 0.000000 0.000000 0.059512 0.000000 0.000000
# 5 0.000000 0.000000 0.000000 0.000000 0.038794 0.000000
# 6 0.000000 0.000000 0.000000 0.000000 0.000000 0.029123
#
#
# Mechanical properties :
#
#
# Convention : Reuss Voigt Hill
#
# Bulk Modulus (GPa) = 80.06087 82.04469 81.05278
# Shear Modulus (GPa) = 26.16758 28.12593 27.14676
#
# Velocity S-wave (km/s) = 3.58526 3.71700 3.65172
# Velocity P-wave (km/s) = 7.51441 7.66313 7.58913
#
# Compressibility (1/GPa) = 0.01249050
#
# Stress axis : x y z
#
# Youngs Moduli (GPa) = 94.38129 81.43318 76.26778
#
# Poissons Ratio (x) = 0.31992 0.32473
# Poissons Ratio (y) = 0.37078 0.27166
# Poissons Ratio (z) = 0.40185 0.29006
#
# Static dielectric constant tensor:
#      x y z
#    x 4.051040 0.000000 0.000000 
#    y 0.000000 3.847370 0.000000 
#    z 0.000000 0.000000 3.553900 
# 
# 
# High freq. dielectric constant tensor:
#      x y z
#    x 1.818590 0.000000 0.000000 
#    y 0.000000 1.803900 0.000000 
#    z 0.000000 0.000000 1.786720 
# 
# From -- ./inp_files/12243.got.cif
#   From: 2010.03.12/outbox.cif.g09.slc.cpg/sg56_7_cif.got.tgz:12243.got - 2010.04.16 15:33:40.
