data_PCOD8229690
_publ_section_title
;
Structure prediction by ZEFSAII (Michael W. Deem and Ramdas Pophale) SiO2 
 PCOD8229690
Probable space group: P C C N
;
_chemical_formula_sum "Si O2"
_cell_formula_units_Z 60
_cell_length_a 9.274538
_cell_length_b 18.346425
_cell_length_c 15.860566
_cell_angle_alpha 90.000000
_cell_angle_beta 90.000000
_cell_angle_gamma 90.000000
_cell_volume 2698.748515
_symmetry_space_group_name_H-M "P C C N"
_symmetry_group_IT_number 56
_symmetry_cell_setting 'orthorhombic'
loop_
_space_group_symop_operation_xyz
x,y,z
1/2-x,1/2-y,z
1/2+x,-y,1/2-z
-x,1/2+y,1/2-z
-x,-y,-z
1/2+x,1/2+y,-z
1/2-x,y,1/2+z
x,1/2-y,1/2+z
loop_
_atom_site_type_symbol
_atom_site_label
_atom_site_fract_x
_atom_site_fract_y
_atom_site_fract_z
Si Si1 0.028575 0.141834 0.167896
Si Si2 0.294675 0.826483 0.049251
Si Si3 0.487329 0.286625 0.582139
Si Si4 0.024404 0.915912 0.006787
Si Si5 0.214153 0.391759 0.362746
Si Si6 0.649162 0.914641 0.819414
Si Si7 0.474888 0.927550 0.160872
Si Si8 0.750000 0.750000 0.053866
O O1 0.020050 0.229965 0.161017
O O2 0.186498 0.107096 0.166836
O O3 0.946826 0.111155 0.249214
O O4 0.948138 0.114337 0.085671
O O5 0.250000 0.750000 0.095005
O O6 0.163567 0.884409 0.054608
O O7 0.425255 0.868555 0.092940
O O8 0.354073 0.800923 0.956927
O O9 0.440891 0.364264 0.618241
O O10 0.389106 0.250977 0.507857
O O11 0.876960 0.894929 0.051998
O O12 0.000000 0.000000 0.000000
O O13 0.113694 0.403032 0.280108
O O14 0.354836 0.444697 0.356246
O O15 0.273632 0.311142 0.374561
O O16 0.615416 0.997824 0.844662
#
# Coordination Sequence:
#
# PCOD8229690 Si02
#       8
#     8   8   8   8   8   8   8   4
#     4  11  23  47  69 104 143 187 241 300 363 439
#     4  12  26  48  68 107 144 191 244 300 376 436
#     4  12  23  43  73 104 140 184 245 306 359 440
#     4  12  25  45  71 100 148 194 236 296 366 437
#     4  11  25  44  74 102 141 187 241 293 366 428
#     4  11  25  43  72 109 138 187 243 300 364 436
#     4  11  27  46  72 104 150 184 245 299 364 441
#     4  12  20  42  74 104 132 184 242 306 344 430
#
# _framework density 22.232526
#
# number of rings (size 3 to 8) (size 9 to 14) (size 15 to 20)
#    0.000    0.533    5.333    1.600    5.600    1.600 
#    4.800    0.000    0.000    0.000    0.000    0.000 
#    0.000    0.000    0.000    0.000    0.000    0.000 
#
# Total GULP energy -743322.949732 kJ/mol
# GULP energy per Si atom -12388.715829 kJ/mol
# Density = 2.218192 g / cm^3
# Si number density = 22.232526 Si / 1000 Ang^3
#
#
#
# Elastic Constant Matrix: (Units=GPa)
#
#
# Indices 1 2 3 4 5 6 
#
# 1 80.4484 41.5778 25.7401 0.0000 0.0000 0.0000
# 2 41.5778 146.1062 36.3388 0.0000 0.0000 0.0000
# 3 25.7401 36.3388 80.1228 0.0000 0.0000 0.0000
# 4 0.0000 0.0000 0.0000 29.4615 0.0000 0.0000
# 5 0.0000 0.0000 0.0000 0.0000 24.0642 0.0000
# 6 0.0000 0.0000 0.0000 0.0000 0.0000 34.5184
#
#
#
# Elastic Compliance Matrix: (Units=1/GPa)
#
#
# Indices 1 2 3 4 5 6 
#
# 1 0.015318 -0.003534 -0.003318 0.000000 0.000000 0.000000
# 2 -0.003534 0.008530 -0.002733 0.000000 0.000000 0.000000
# 3 -0.003318 -0.002733 0.014787 0.000000 0.000000 0.000000
# 4 0.000000 0.000000 0.000000 0.033943 0.000000 0.000000
# 5 0.000000 0.000000 0.000000 0.000000 0.041556 0.000000
# 6 0.000000 0.000000 0.000000 0.000000 0.000000 0.028970
#
#
# Mechanical properties :
#
#
# Convention : Reuss Voigt Hill
#
# Bulk Modulus (GPa) = 51.37790 57.11008 54.24399
# Shear Modulus (GPa) = 29.62750 31.14353 30.38552
#
# Velocity S-wave (km/s) = 3.65447 3.74680 3.70092
# Velocity P-wave (km/s) = 6.40050 6.66794 6.53558
#
# Compressibility (1/GPa) = 0.01946362
#
# Stress axis : x y z
#
# Youngs Moduli (GPa) = 65.28064 117.23609 67.62887
#
# Poissons Ratio (x) = 0.41430 0.22442
# Poissons Ratio (y) = 0.23069 0.18485
# Poissons Ratio (z) = 0.21663 0.32044
#
# Static dielectric constant tensor:
#      x y z
#    x 3.881610 0.000000 0.000000 
#    y 0.000000 3.921080 0.000000 
#    z 0.000000 0.000000 4.173120 
# 
# 
# High freq. dielectric constant tensor:
#      x y z
#    x 1.870180 0.000000 0.000000 
#    y 0.000000 1.890010 0.000000 
#    z 0.000000 0.000000 1.872600 
# 
# From -- ./inp_files/15102.got.cif
#   From: 2010.03.12/outbox.cif.g09.slc.cpg/sg56_8_cif.got.tgz:15102.got - 2010.04.16 15:33:40.
