data_PCOD8229672
_publ_section_title
;
Structure prediction by ZEFSAII (Michael W. Deem and Ramdas Pophale) SiO2 
 PCOD8229672
Probable space group: P C C N
;
_chemical_formula_sum "Si O2"
_cell_formula_units_Z 48
_cell_length_a 13.560153
_cell_length_b 17.319581
_cell_length_c 9.644143
_cell_angle_alpha 90.000000
_cell_angle_beta 90.000000
_cell_angle_gamma 90.000000
_cell_volume 2264.986471
_symmetry_space_group_name_H-M "P C C N"
_symmetry_group_IT_number 56
_symmetry_cell_setting 'orthorhombic'
loop_
_space_group_symop_operation_xyz
x,y,z
1/2-x,1/2-y,z
1/2+x,-y,1/2-z
-x,1/2+y,1/2-z
-x,-y,-z
1/2+x,1/2+y,-z
1/2-x,y,1/2+z
x,1/2-y,1/2+z
loop_
_atom_site_type_symbol
_atom_site_label
_atom_site_fract_x
_atom_site_fract_y
_atom_site_fract_z
Si Si1 0.470487 0.343875 0.344170
Si Si2 0.844603 0.432246 0.763023
Si Si3 0.161807 0.565489 0.556766
Si Si4 0.389641 0.096737 0.117459
Si Si5 0.162918 0.109610 0.103825
Si Si6 0.974681 0.668135 0.623863
O O1 0.570132 0.368986 0.267790
O O2 0.443048 0.401638 0.468965
O O3 0.382759 0.344663 0.232805
O O4 0.488868 0.258502 0.402487
O O5 0.754591 0.401867 0.857302
O O6 0.808686 0.442594 0.604771
O O7 0.889756 0.511193 0.821266
O O8 0.136710 0.481163 0.618371
O O9 0.070928 0.622675 0.573712
O O10 0.278588 0.127259 0.101399
O O11 0.453229 0.152552 0.215357
O O12 0.120284 0.140055 0.960040
#
# Coordination Sequence:
#
# PCOD8229672 Si02
#       6
#     8   8   8   8   8   8
#     4  12  26  41  67 100 138 170 218 268 331 398
#     4  11  25  46  69  98 126 174 225 276 323 385
#     4  11  25  45  73  93 130 173 225 276 323 384
#     4  11  25  40  70  99 129 175 221 268 322 392
#     4  11  23  45  67  95 134 175 220 269 323 387
#     4  12  24  44  66  98 135 178 210 270 336 385
#
# _framework density 21.192177999999998
#
# number of rings (size 3 to 8) (size 9 to 14) (size 15 to 20)
#    0.000    0.667    3.333    4.000    9.333    4.667 
#    0.000    1.667    0.000    0.000    0.000    0.000 
#    0.000    0.000    0.000    0.000    0.000    0.000 
#
# Total GULP energy -595570.729311 kJ/mol
# GULP energy per Si atom -12407.723527 kJ/mol
# Density = 2.114394 g / cm^3
# Si number density = 21.192178 Si / 1000 Ang^3
#
#
#
# Elastic Constant Matrix: (Units=GPa)
#
#
# Indices 1 2 3 4 5 6 
#
# 1 80.4329 34.1553 32.4180 0.0000 0.0000 0.0000
# 2 34.1553 71.5013 2.7694 0.0000 0.0000 0.0000
# 3 32.4180 2.7694 108.2611 0.0000 0.0000 0.0000
# 4 0.0000 0.0000 0.0000 26.2312 0.0000 0.0000
# 5 0.0000 0.0000 0.0000 0.0000 41.6665 0.0000
# 6 0.0000 0.0000 0.0000 0.0000 0.0000 6.5247
#
#
#
# Elastic Compliance Matrix: (Units=1/GPa)
#
#
# Indices 1 2 3 4 5 6 
#
# 1 0.018123 -0.008455 -0.005211 0.000000 0.000000 0.000000
# 2 -0.008455 0.017945 0.002073 0.000000 0.000000 0.000000
# 3 -0.005211 0.002073 0.010744 0.000000 0.000000 0.000000
# 4 0.000000 0.000000 0.000000 0.038123 0.000000 0.000000
# 5 0.000000 0.000000 0.000000 0.000000 0.024000 0.000000
# 6 0.000000 0.000000 0.000000 0.000000 0.000000 0.153264
#
#
# Mechanical properties :
#
#
# Convention : Reuss Voigt Hill
#
# Bulk Modulus (GPa) = 42.32678 44.32006 43.32342
# Shear Modulus (GPa) = 17.04971 27.60799 22.32885
#
# Velocity S-wave (km/s) = 2.83950 3.61327 3.24950
# Velocity P-wave (km/s) = 5.54676 6.19407 5.87933
#
# Compressibility (1/GPa) = 0.02362571
#
# Stress axis : x y z
#
# Youngs Moduli (GPa) = 55.17731 55.72720 93.07361
#
# Poissons Ratio (x) = 0.47120 0.48497
# Poissons Ratio (y) = 0.46655 -0.19293
# Poissons Ratio (z) = 0.28751 -0.11552
#
# Static dielectric constant tensor:
#      x y z
#    x 3.794450 0.000000 0.000000 
#    y 0.000000 3.672230 0.000000 
#    z 0.000000 0.000000 3.982320 
# 
# 
# High freq. dielectric constant tensor:
#      x y z
#    x 1.833710 0.000000 0.000000 
#    y 0.000000 1.820550 0.000000 
#    z 0.000000 0.000000 1.849020 
# 
# From -- ./inp_files/3388.got.cif
#   From: 2010.03.12/outbox.cif.g09.slc.cpg/sg56_2_cif.got.tgz:3388.got - 2010.04.16 15:33:40.
