data_PCOD8229567
_publ_section_title
;
Structure prediction by ZEFSAII (Michael W. Deem and Ramdas Pophale) SiO2 
 PCOD8229567
Probable space group: P C C N
;
_chemical_formula_sum "Si O2"
_cell_formula_units_Z 48
_cell_length_a 13.829264
_cell_length_b 9.044620
_cell_length_c 18.166481
_cell_angle_alpha 90.000000
_cell_angle_beta 90.000000
_cell_angle_gamma 90.000000
_cell_volume 2272.271396
_symmetry_space_group_name_H-M "P C C N"
_symmetry_group_IT_number 56
_symmetry_cell_setting 'orthorhombic'
loop_
_space_group_symop_operation_xyz
x,y,z
1/2-x,1/2-y,z
1/2+x,-y,1/2-z
-x,1/2+y,1/2-z
-x,-y,-z
1/2+x,1/2+y,-z
1/2-x,y,1/2+z
x,1/2-y,1/2+z
loop_
_atom_site_type_symbol
_atom_site_label
_atom_site_fract_x
_atom_site_fract_y
_atom_site_fract_z
Si Si1 0.110705 0.993688 0.787966
Si Si2 0.357990 0.691904 0.925210
Si Si3 0.838301 0.359749 0.413769
Si Si4 0.211422 0.090211 0.653378
Si Si5 0.996812 0.216524 0.313647
Si Si6 0.001716 0.454635 0.084320
O O1 0.199198 0.997681 0.729541
O O2 0.074417 0.162747 0.789047
O O3 0.141081 0.946171 0.869466
O O4 0.033633 0.873155 0.759341
O O5 0.250000 0.750000 0.926835
O O6 0.431246 0.818570 0.899036
O O7 0.389643 0.634404 0.006155
O O8 0.750000 0.250000 0.417505
O O9 0.796946 0.520434 0.395096
O O10 0.909939 0.306546 0.350797
O O11 0.250000 0.250000 0.672972
O O12 0.110239 0.086996 0.609044
O O13 0.038517 0.096199 0.370934
O O14 0.000000 0.500000 0.000000
#
# Coordination Sequence:
#
# PCOD8229567 Si02
#       6
#     8   8   8   8   8   8
#     4  11  25  42  63 101 131 178 219 281 334 394
#     4  11  25  42  68 100 130 176 230 278 337 402
#     4  11  21  45  69  93 130 179 225 268 343 410
#     4  11  26  43  67  98 140 181 225 280 348 405
#     4  11  24  41  69  96 136 177 224 277 340 404
#     4  11  21  45  69  97 135 175 222 286 333 401
#
# _framework density 21.124236
#
# number of rings (size 3 to 8) (size 9 to 14) (size 15 to 20)
#    0.000    1.000    5.000    3.000    7.000    3.333 
#    0.000    0.833    0.000    0.000    0.000    0.000 
#    0.000    0.000    0.000    0.000    0.000    0.000 
#
# Total GULP energy -595170.975414 kJ/mol
# GULP energy per Si atom -12399.395321 kJ/mol
# Density = 2.107616 g / cm^3
# Si number density = 21.124236 Si / 1000 Ang^3
#
#
#
# Elastic Constant Matrix: (Units=GPa)
#
#
# Indices 1 2 3 4 5 6 
#
# 1 59.8402 34.3324 21.1871 0.0000 0.0000 0.0000
# 2 34.3324 116.4880 31.8330 0.0000 0.0000 0.0000
# 3 21.1871 31.8330 101.5447 0.0000 0.0000 0.0000
# 4 0.0000 0.0000 0.0000 33.7671 0.0000 0.0000
# 5 0.0000 0.0000 0.0000 0.0000 22.9748 0.0000
# 6 0.0000 0.0000 0.0000 0.0000 0.0000 44.9789
#
#
#
# Elastic Compliance Matrix: (Units=1/GPa)
#
#
# Indices 1 2 3 4 5 6 
#
# 1 0.020738 -0.005392 -0.002637 0.000000 0.000000 0.000000
# 2 -0.005392 0.010791 -0.002258 0.000000 0.000000 0.000000
# 3 -0.002637 -0.002258 0.011106 0.000000 0.000000 0.000000
# 4 0.000000 0.000000 0.000000 0.029615 0.000000 0.000000
# 5 0.000000 0.000000 0.000000 0.000000 0.043526 0.000000
# 6 0.000000 0.000000 0.000000 0.000000 0.000000 0.022233
#
#
# Mechanical properties :
#
#
# Convention : Reuss Voigt Hill
#
# Bulk Modulus (GPa) = 45.32623 50.28644 47.80633
# Shear Modulus (GPa) = 30.13245 33.04552 31.58899
#
# Velocity S-wave (km/s) = 3.78092 3.95947 3.87122
# Velocity P-wave (km/s) = 6.36899 6.69029 6.53161
#
# Compressibility (1/GPa) = 0.02206228
#
# Stress axis : x y z
#
# Youngs Moduli (GPa) = 48.22047 92.67316 90.04283
#
# Poissons Ratio (x) = 0.49965 0.23742
# Poissons Ratio (y) = 0.25998 0.20330
# Poissons Ratio (z) = 0.12715 0.20924
#
# Static dielectric constant tensor:
#      x y z
#    x 3.606020 0.000000 0.000000 
#    y 0.000000 3.969660 0.000000 
#    z 0.000000 0.000000 4.382770 
# 
# 
# High freq. dielectric constant tensor:
#      x y z
#    x 1.809810 0.000000 0.000000 
#    y 0.000000 1.836010 0.000000 
#    z 0.000000 0.000000 1.845930 
# 
# From -- ./inp_files/16164.got.cif
#   From: 2010.03.12/outbox.cif.g09.slc.cpg/sg56_9_cif.got.tgz:16164.got - 2010.04.16 15:33:40.
