data_PCOD8229787
_publ_section_title
;
Structure prediction by ZEFSAII (Michael W. Deem and Ramdas Pophale) SiO2 
 PCOD8229787
Probable space group: P C C N
;
_chemical_formula_sum "Si O2"
_cell_formula_units_Z 40
_cell_length_a 9.601241
_cell_length_b 7.423950
_cell_length_c 22.919283
_cell_angle_alpha 90.000000
_cell_angle_beta 90.000000
_cell_angle_gamma 90.000000
_cell_volume 1633.666624
_symmetry_space_group_name_H-M "P C C N"
_symmetry_group_IT_number 56
_symmetry_cell_setting 'orthorhombic'
loop_
_space_group_symop_operation_xyz
x,y,z
1/2-x,1/2-y,z
1/2+x,-y,1/2-z
-x,1/2+y,1/2-z
-x,-y,-z
1/2+x,1/2+y,-z
1/2-x,y,1/2+z
x,1/2-y,1/2+z
loop_
_atom_site_type_symbol
_atom_site_label
_atom_site_fract_x
_atom_site_fract_y
_atom_site_fract_z
Si Si1 0.845401 0.401293 0.887758
Si Si2 0.474129 0.786339 0.499131
Si Si3 0.750000 0.750000 0.942727
Si Si4 0.670901 0.006935 0.698583
Si Si5 0.750000 0.250000 0.095342
Si Si6 0.539301 0.870682 0.212668
O O1 0.750000 0.250000 0.856429
O O2 0.744377 0.570143 0.903057
O O3 0.963472 0.467642 0.842307
O O4 0.912759 0.298055 0.942655
O O5 0.623741 0.704998 0.485716
O O6 0.381154 0.714232 0.445769
O O7 0.500000 0.000000 0.500000
O O8 0.819500 0.975971 0.731195
O O9 0.582227 0.826684 0.691791
O O10 0.708728 0.079468 0.634835
O O11 0.571458 0.143774 0.734239
#
# Coordination Sequence:
#
# PCOD8229787 Si02
#       6
#     8   8   4   8   4   8
#     4  12  26  46  74 110 149 197 250 314 375 457
#     4  12  24  47  72 110 150 197 252 311 376 456
#     4  12  26  42  74 106 150 200 244 308 382 444
#     4  11  26  47  74 108 145 195 247 312 374 452
#     4  12  24  44  72 106 150 192 246 310 374 448
#     4  11  27  47  74 107 146 193 249 310 380 447
#
# _framework density 24.4848
#
# number of rings (size 3 to 8) (size 9 to 14) (size 15 to 20)
#    0.000    0.400    3.000    4.200    4.200    4.800 
#    0.000    0.000    0.000    0.000    0.000    0.000 
#    0.000    0.000    0.000    0.000    0.000    0.000 
#
# Total GULP energy -495808.019874 kJ/mol
# GULP energy per Si atom -12395.200497 kJ/mol
# Density = 2.442907 g / cm^3
# Si number density = 24.484800 Si / 1000 Ang^3
#
#
#
# Elastic Constant Matrix: (Units=GPa)
#
#
# Indices 1 2 3 4 5 6 
#
# 1 164.4640 30.4712 56.5591 0.0000 0.0000 0.0000
# 2 30.4712 77.7672 2.7492 0.0000 0.0000 0.0000
# 3 56.5591 2.7492 101.2781 0.0000 0.0000 0.0000
# 4 0.0000 0.0000 0.0000 32.9427 0.0000 0.0000
# 5 0.0000 0.0000 0.0000 0.0000 31.8701 0.0000
# 6 0.0000 0.0000 0.0000 0.0000 0.0000 45.1890
#
#
#
# Elastic Compliance Matrix: (Units=1/GPa)
#
#
# Indices 1 2 3 4 5 6 
#
# 1 0.008190 -0.003050 -0.004491 0.000000 0.000000 0.000000
# 2 -0.003050 0.014007 0.001323 0.000000 0.000000 0.000000
# 3 -0.004491 0.001323 0.012346 0.000000 0.000000 0.000000
# 4 0.000000 0.000000 0.000000 0.030356 0.000000 0.000000
# 5 0.000000 0.000000 0.000000 0.000000 0.031377 0.000000
# 6 0.000000 0.000000 0.000000 0.000000 0.000000 0.022129
#
#
# Mechanical properties :
#
#
# Convention : Reuss Voigt Hill
#
# Bulk Modulus (GPa) = 45.23425 58.11869 51.67647
# Shear Modulus (GPa) = 36.17673 38.91567 37.54620
#
# Velocity S-wave (km/s) = 3.84802 3.99103 3.92018
# Velocity P-wave (km/s) = 6.18527 6.71014 6.45304
#
# Compressibility (1/GPa) = 0.02210714
#
# Stress axis : x y z
#
# Youngs Moduli (GPa) = 122.10145 71.39140 80.99899
#
# Poissons Ratio (x) = 0.21776 0.36376
# Poissons Ratio (y) = 0.37244 -0.10718
# Poissons Ratio (z) = 0.54834 -0.09446
#
# Static dielectric constant tensor:
#      x y z
#    x 4.933200 0.000000 0.000000 
#    y 0.000000 4.075900 0.000000 
#    z 0.000000 0.000000 4.369380 
# 
# 
# High freq. dielectric constant tensor:
#      x y z
#    x 1.998770 0.000000 0.000000 
#    y 0.000000 1.981160 0.000000 
#    z 0.000000 0.000000 1.959320 
# 
# From -- ./inp_files/20352.got.cif
#   From: 2010.03.12/outbox.cif.g09.slc.cpg/sg56_11_cif.got.tgz:20352.got - 2010.04.16 15:33:40.
