data_PCOD8229405
_publ_section_title
;
Structure prediction by ZEFSAII (Michael W. Deem and Ramdas Pophale) SiO2 
 PCOD8229405
Probable space group: P C C N
;
_chemical_formula_sum "Si O2"
_cell_formula_units_Z 48
_cell_length_a 9.714355
_cell_length_b 8.592213
_cell_length_c 26.039000
_cell_angle_alpha 90.000000
_cell_angle_beta 90.000000
_cell_angle_gamma 90.000000
_cell_volume 2173.418235
_symmetry_space_group_name_H-M "P C C N"
_symmetry_group_IT_number 56
_symmetry_cell_setting 'orthorhombic'
loop_
_space_group_symop_operation_xyz
x,y,z
1/2-x,1/2-y,z
1/2+x,-y,1/2-z
-x,1/2+y,1/2-z
-x,-y,-z
1/2+x,1/2+y,-z
1/2-x,y,1/2+z
x,1/2-y,1/2+z
loop_
_atom_site_type_symbol
_atom_site_label
_atom_site_fract_x
_atom_site_fract_y
_atom_site_fract_z
Si Si1 0.868209 0.863180 0.312067
Si Si2 0.394713 0.681131 0.959014
Si Si3 0.110180 0.682804 0.344607
Si Si4 0.905032 0.810873 0.047495
Si Si5 0.904682 0.190279 0.359379
Si Si6 0.876397 0.854804 0.196283
O O1 0.750000 0.750000 0.333814
O O2 0.842267 0.917703 0.253451
O O3 0.998082 0.751461 0.306756
O O4 0.891963 0.005090 0.351029
O O5 0.250000 0.750000 0.980351
O O6 0.419702 0.746952 0.901905
O O7 0.395065 0.495915 0.953495
O O8 0.517256 0.741963 0.995366
O O9 0.250000 0.750000 0.322577
O O10 0.113175 0.496757 0.343282
O O11 0.750000 0.750000 0.048885
O O12 0.996071 0.737861 0.093550
O O13 0.750000 0.250000 0.367768
O O14 0.978332 0.262115 0.308587
O O15 0.750000 0.750000 0.176602
#
# Coordination Sequence:
#
# PCOD8229405 Si02
#       6
#     8   8   8   8   8   8
#     4  11  26  42  64 100 138 182 226 279 338 400
#     4  10  24  45  69 102 136 170 224 282 338 410
#     4  11  23  41  67  99 133 174 222 275 337 401
#     4  11  25  46  72 101 133 177 223 277 343 409
#     4  12  25  43  68  98 136 179 229 281 338 405
#     4  11  23  43  69  98 136 180 229 276 338 401
#
# _framework density 22.085027
#
# number of rings (size 3 to 8) (size 9 to 14) (size 15 to 20)
#    0.000    1.000    1.667    4.000    4.667    6.667 
#    3.000    0.000    0.000    0.000    0.000    0.000 
#    0.000    0.000    0.000    0.000    0.000    0.000 
#
# Total GULP energy -595037.737218 kJ/mol
# GULP energy per Si atom -12396.619525 kJ/mol
# Density = 2.203476 g / cm^3
# Si number density = 22.085027 Si / 1000 Ang^3
#
#
#
# Elastic Constant Matrix: (Units=GPa)
#
#
# Indices 1 2 3 4 5 6 
#
# 1 193.8026 72.2107 54.8103 0.0000 0.0000 0.0000
# 2 72.2107 132.0321 44.9270 0.0000 0.0000 0.0000
# 3 54.8103 44.9270 79.1094 0.0000 0.0000 0.0000
# 4 0.0000 0.0000 0.0000 22.0462 0.0000 0.0000
# 5 0.0000 0.0000 0.0000 0.0000 36.2207 0.0000
# 6 0.0000 0.0000 0.0000 0.0000 0.0000 47.1790
#
#
#
# Elastic Compliance Matrix: (Units=1/GPa)
#
#
# Indices 1 2 3 4 5 6 
#
# 1 0.007144 -0.002755 -0.003385 0.000000 0.000000 0.000000
# 2 -0.002755 0.010451 -0.004026 0.000000 0.000000 0.000000
# 3 -0.003385 -0.004026 0.017272 0.000000 0.000000 0.000000
# 4 0.000000 0.000000 0.000000 0.045359 0.000000 0.000000
# 5 0.000000 0.000000 0.000000 0.000000 0.027609 0.000000
# 6 0.000000 0.000000 0.000000 0.000000 0.000000 0.021196
#
#
# Mechanical properties :
#
#
# Convention : Reuss Voigt Hill
#
# Bulk Modulus (GPa) = 68.80166 83.20446 76.00306
# Shear Modulus (GPa) = 32.42378 36.62225 34.52302
#
# Velocity S-wave (km/s) = 3.83578 4.07657 3.95800
# Velocity P-wave (km/s) = 7.13010 7.74043 7.44152
#
# Compressibility (1/GPa) = 0.01453453
#
# Stress axis : x y z
#
# Youngs Moduli (GPa) = 139.98199 95.68612 57.89618
#
# Poissons Ratio (x) = 0.26365 0.19596
# Poissons Ratio (y) = 0.38570 0.23310
# Poissons Ratio (z) = 0.47380 0.38524
#
# Static dielectric constant tensor:
#      x y z
#    x 4.182630 0.000000 0.000000 
#    y 0.000000 3.924360 0.000000 
#    z 0.000000 0.000000 3.936010 
# 
# 
# High freq. dielectric constant tensor:
#      x y z
#    x 1.882640 0.000000 0.000000 
#    y 0.000000 1.870700 0.000000 
#    z 0.000000 0.000000 1.870580 
# 
# From -- ./inp_files/23225.got.cif
#   From: 2010.03.12/outbox.cif.g09.slc.cpg/sg56_12_cif.got.tgz:23225.got - 2010.04.16 15:33:40.
