data_PCOD8229881
_publ_section_title
;
Structure prediction by ZEFSAII (Michael W. Deem and Ramdas Pophale) SiO2 
 PCOD8229881
Probable space group: P B C M
;
_chemical_formula_sum "Si O2"
_cell_formula_units_Z 64
_cell_length_a 9.106563
_cell_length_b 24.301292
_cell_length_c 15.445564
_cell_angle_alpha 90.000000
_cell_angle_beta 90.000000
_cell_angle_gamma 90.000000
_cell_volume 3418.122567
_symmetry_space_group_name_H-M "P B C M"
_symmetry_group_IT_number 57
_symmetry_cell_setting 'orthorhombic'
loop_
_space_group_symop_operation_xyz
x,y,z
-x,-y,1/2+z
x,1/2-y,-z
-x,1/2+y,1/2-z
-x,-y,-z
x,y,1/2-z
-x,1/2+y,z
x,1/2-y,1/2+z
loop_
_atom_site_type_symbol
_atom_site_label
_atom_site_fract_x
_atom_site_fract_y
_atom_site_fract_z
Si Si1 0.427273 0.616129 0.654487
Si Si2 0.078231 0.687059 0.495479
Si Si3 0.573511 0.187297 0.004685
Si Si4 0.067400 0.001173 0.093736
Si Si5 0.381852 0.001768 0.349407
Si Si6 0.926257 0.619730 0.347546
Si Si7 0.923087 0.384506 0.155460
Si Si8 0.418615 0.121055 0.348437
O O1 0.481587 0.635769 0.750000
O O2 0.489260 0.656563 0.580881
O O3 0.481319 0.552977 0.636438
O O4 0.252121 0.614498 0.652218
O O5 0.026443 0.750000 0.500000
O O6 0.252621 0.682353 0.489743
O O7 0.017029 0.656054 0.580881
O O8 0.012538 0.660420 0.409909
O O9 0.506655 0.161715 0.090695
O O10 0.521101 0.250000 0.000000
O O11 0.243923 0.000082 0.085910
O O12 0.016883 0.057019 0.141454
O O13 0.013458 0.946143 0.143019
O O14 0.000000 0.000000 0.000000
O O15 0.320528 0.002855 0.250000
O O16 0.473219 0.057942 0.365629
O O17 0.960382 0.638659 0.250000
O O18 0.754048 0.623973 0.368257
O O19 0.975716 0.363134 0.250000
O O20 0.452626 0.138727 0.250000
#
# Coordination Sequence:
#
# PCOD8229881 Si02
#       8
#     8   8   8   8   8   8   8   8
#     4   8  15  29  50  72  96 130 169 209 254 305
#     4  10  21  35  51  77 106 134 175 221 258 304
#     4  10  21  34  51  77 104 134 176 218 257 299
#     4  10  15  25  49  77 100 130 168 214 255 307
#     4   8  15  29  49  74  99 129 172 211 250 311
#     4  10  20  35  54  78 106 139 173 213 262 314
#     4   9  16  29  48  71 100 133 169 209 255 310
#     4   9  19  35  54  75 101 134 173 211 255 311
#
# _framework density 18.723728999999999
#
# number of rings (size 3 to 8) (size 9 to 14) (size 15 to 20)
#    0.000    2.750    1.250    2.625    0.000    2.500 
#    0.000    2.500    0.000    0.750    0.000    0.000 
#    0.000    0.000    0.000    0.000    0.000    0.000 
#
# Total GULP energy -793225.887250 kJ/mol
# GULP energy per Si atom -12394.154488 kJ/mol
# Density = 1.868111 g / cm^3
# Si number density = 18.723729 Si / 1000 Ang^3
#
#
#
# Elastic Constant Matrix: (Units=GPa)
#
#
# Indices 1 2 3 4 5 6 
#
# 1 15.0631 26.7006 25.8254 0.0000 0.0000 0.0000
# 2 26.7006 169.2424 83.3853 0.0000 0.0000 0.0000
# 3 25.8254 83.3853 139.6410 0.0000 0.0000 0.0000
# 4 0.0000 0.0000 0.0000 26.4826 0.0000 0.0000
# 5 0.0000 0.0000 0.0000 0.0000 26.7321 0.0000
# 6 0.0000 0.0000 0.0000 0.0000 0.0000 4.3564
#
#
#
# Elastic Compliance Matrix: (Units=1/GPa)
#
#
# Indices 1 2 3 4 5 6 
#
# 1 0.108439 -0.010240 -0.013940 0.000000 0.000000 0.000000
# 2 -0.010240 0.009339 -0.003683 0.000000 0.000000 0.000000
# 3 -0.013940 -0.003683 0.011938 0.000000 0.000000 0.000000
# 4 0.000000 0.000000 0.000000 0.037761 0.000000 0.000000
# 5 0.000000 0.000000 0.000000 0.000000 0.037408 0.000000
# 6 0.000000 0.000000 0.000000 0.000000 0.000000 0.229546
#
#
# Mechanical properties :
#
#
# Convention : Reuss Voigt Hill
#
# Bulk Modulus (GPa) = 13.51526 66.19657 39.85591
# Shear Modulus (GPa) = 9.71215 24.04989 16.88102
#
# Velocity S-wave (km/s) = 2.27999 3.58783 3.00590
# Velocity P-wave (km/s) = 3.76365 7.25220 5.77752
#
# Compressibility (1/GPa) = 0.07399044
#
# Stress axis : x y z
#
# Youngs Moduli (GPa) = 9.22182 107.08230 83.76273
#
# Poissons Ratio (x) = 1.09647 1.16768
# Poissons Ratio (y) = 0.09443 0.30848
# Poissons Ratio (z) = 0.12855 0.39436
#
# Static dielectric constant tensor:
#      x y z
#    x 2.865860 0.000000 0.000000 
#    y 0.000000 3.741510 0.000000 
#    z 0.000000 0.000000 3.551890 
# 
# 
# High freq. dielectric constant tensor:
#      x y z
#    x 1.666450 0.000000 0.000000 
#    y 0.000000 1.736950 0.000000 
#    z 0.000000 0.000000 1.736340 
# 
# From -- ./inp_files/16988.got.cif
#   From: 2010.03.12/outbox.cif.g09.slc.cpg/sg57_9_cif.got.tgz:16988.got - 2010.04.16 15:48:40.
