data_PCOD8229848
_publ_section_title
;
Structure prediction by ZEFSAII (Michael W. Deem and Ramdas Pophale) SiO2 
 PCOD8229848
Probable space group: P C C N
;
_chemical_formula_sum "Si O2"
_cell_formula_units_Z 40
_cell_length_a 17.414426
_cell_length_b 7.576055
_cell_length_c 11.833652
_cell_angle_alpha 90.000000
_cell_angle_beta 90.000000
_cell_angle_gamma 90.000000
_cell_volume 1561.245058
_symmetry_space_group_name_H-M "P C C N"
_symmetry_group_IT_number 56
_symmetry_cell_setting 'orthorhombic'
loop_
_space_group_symop_operation_xyz
x,y,z
1/2-x,1/2-y,z
1/2+x,-y,1/2-z
-x,1/2+y,1/2-z
-x,-y,-z
1/2+x,1/2+y,-z
1/2-x,y,1/2+z
x,1/2-y,1/2+z
loop_
_atom_site_type_symbol
_atom_site_label
_atom_site_fract_x
_atom_site_fract_y
_atom_site_fract_z
Si Si1 0.901403 0.582695 0.153534
Si Si2 0.927227 0.526965 0.578779
Si Si3 0.071186 0.941718 0.681171
Si Si4 0.158282 0.592711 0.622582
Si Si5 0.199123 0.424964 0.059403
O O1 0.920311 0.788894 0.143833
O O2 0.868319 0.530157 0.274633
O O3 0.986908 0.500742 0.136857
O O4 0.838689 0.521535 0.061153
O O5 0.929863 0.392833 0.685227
O O6 0.854667 0.502551 0.498932
O O7 0.000000 0.500000 0.500000
O O8 0.110074 0.772918 0.619218
O O9 0.127513 0.103703 0.645887
O O10 0.251680 0.589649 0.614491
O O11 0.250000 0.250000 0.053768
#
# Coordination Sequence:
#
# PCOD8229848 Si02
#       5
#     8   8   8   8   8
#     4  12  26  49  82 113 154 208 265 322 392 478
#     4  12  25  48  80 116 155 200 264 324 391 480
#     4  12  27  49  81 112 158 203 267 323 394 475
#     4  12  28  50  76 115 156 204 259 327 399 464
#     4  12  28  49  76 112 154 208 259 327 394 465
#
# _framework density 25.620576
#
# number of rings (size 3 to 8) (size 9 to 14) (size 15 to 20)
#    0.000    0.000    6.000    2.400    5.600    2.400 
#    0.000    0.000    0.000    0.000    0.000    0.000 
#    0.000    0.000    0.000    0.000    0.000    0.000 
#
# Total GULP energy -495576.074905 kJ/mol
# GULP energy per Si atom -12389.401873 kJ/mol
# Density = 2.556226 g / cm^3
# Si number density = 25.620576 Si / 1000 Ang^3
#
#
#
# Elastic Constant Matrix: (Units=GPa)
#
#
# Indices 1 2 3 4 5 6 
#
# 1 204.6453 37.5661 75.8545 0.0000 0.0000 0.0000
# 2 37.5661 55.5152 34.8871 0.0000 0.0000 0.0000
# 3 75.8545 34.8871 154.3767 0.0000 0.0000 0.0000
# 4 0.0000 0.0000 0.0000 36.2217 0.0000 0.0000
# 5 0.0000 0.0000 0.0000 0.0000 51.0644 0.0000
# 6 0.0000 0.0000 0.0000 0.0000 0.0000 32.5918
#
#
#
# Elastic Compliance Matrix: (Units=1/GPa)
#
#
# Indices 1 2 3 4 5 6 
#
# 1 0.006305 -0.002703 -0.002487 0.000000 0.000000 0.000000
# 2 -0.002703 0.022154 -0.003678 0.000000 0.000000 0.000000
# 3 -0.002487 -0.003678 0.008531 0.000000 0.000000 0.000000
# 4 0.000000 0.000000 0.000000 0.027608 0.000000 0.000000
# 5 0.000000 0.000000 0.000000 0.000000 0.019583 0.000000
# 6 0.000000 0.000000 0.000000 0.000000 0.000000 0.030683
#
#
# Mechanical properties :
#
#
# Convention : Reuss Voigt Hill
#
# Bulk Modulus (GPa) = 51.94149 79.01697 65.47923
# Shear Modulus (GPa) = 35.96686 41.72422 38.84554
#
# Velocity S-wave (km/s) = 3.75083 4.03990 3.89805
# Velocity P-wave (km/s) = 6.25106 7.25736 6.77292
#
# Compressibility (1/GPa) = 0.01925243
#
# Stress axis : x y z
#
# Youngs Moduli (GPa) = 158.61572 45.13894 117.22197
#
# Poissons Ratio (x) = 0.12203 0.29152
# Poissons Ratio (y) = 0.42879 0.43116
# Poissons Ratio (z) = 0.39446 0.16603
#
# Static dielectric constant tensor:
#      x y z
#    x 5.455280 0.000000 0.000000 
#    y 0.000000 4.491770 0.000000 
#    z 0.000000 0.000000 4.843030 
# 
# 
# High freq. dielectric constant tensor:
#      x y z
#    x 2.052530 0.000000 0.000000 
#    y 0.000000 2.015190 0.000000 
#    z 0.000000 0.000000 2.030940 
# 
# From -- ./inp_files/6177.got.cif
#   From: 2010.03.12/outbox.cif.g09.slc.cpg/sg56_4_cif.got.tgz:6177.got - 2010.04.16 15:33:40.
