data_PCOD8229986
_publ_section_title
;
Structure prediction by ZEFSAII (Michael W. Deem and Ramdas Pophale) SiO2 
 PCOD8229986
Probable space group: P B C M
;
_chemical_formula_sum "Si O2"
_cell_formula_units_Z 64
_cell_length_a 14.427402
_cell_length_b 30.941609
_cell_length_c 8.642420
_cell_angle_alpha 90.000000
_cell_angle_beta 90.000000
_cell_angle_gamma 90.000000
_cell_volume 3858.037058
_symmetry_space_group_name_H-M "P B C M"
_symmetry_group_IT_number 57
_symmetry_cell_setting 'orthorhombic'
loop_
_space_group_symop_operation_xyz
x,y,z
-x,-y,1/2+z
x,1/2-y,-z
-x,1/2+y,1/2-z
-x,-y,-z
x,y,1/2-z
-x,1/2+y,z
x,1/2-y,1/2+z
loop_
_atom_site_type_symbol
_atom_site_label
_atom_site_fract_x
_atom_site_fract_y
_atom_site_fract_z
Si Si1 0.350661 0.294744 0.564657
Si Si2 0.568528 0.880184 0.922451
Si Si3 0.261542 0.975761 0.430440
Si Si4 0.054621 0.958938 0.065869
Si Si5 0.451425 0.957587 0.932947
Si Si6 0.238814 0.426424 0.921649
Si Si7 0.145585 0.205021 0.565276
Si Si8 0.928728 0.616174 0.929066
O O1 0.391530 0.250000 0.500000
O O2 0.343932 0.294377 0.750000
O O3 0.421971 0.332115 0.504105
O O4 0.248378 0.302767 0.498239
O O5 0.529388 0.874877 0.750000
O O6 0.501227 0.914719 0.006526
O O7 0.672702 0.896710 0.920899
O O8 0.276990 0.966426 0.250000
O O9 0.161623 0.958652 0.487323
O O10 0.343454 0.952892 0.525287
O O11 0.269460 0.026000 0.470460
O O12 0.047031 0.962164 0.250000
O O13 0.010836 0.913845 0.000816
O O14 0.000000 0.000000 0.000000
O O15 0.466657 0.959209 0.750000
O O16 0.500000 0.000000 0.000000
O O17 0.192720 0.427309 0.750000
O O18 0.167066 0.408798 0.045768
O O19 0.104136 0.250000 0.500000
O O20 0.149825 0.206845 0.750000
O O21 0.080158 0.165268 0.504904
O O22 0.947950 0.620624 0.750000
#
# Coordination Sequence:
#
# PCOD8229986 Si02
#       8
#     8   8   8   8   8   8   8   8
#     4  10  18  30  47  67  93 123 154 189 232 281
#     4   9  18  31  46  65  93 127 158 186 230 280
#     4  10  20  34  48  67  96 129 163 200 236 275
#     4  10  20  33  49  69  97 128 161 198 237 281
#     4  11  21  34  50  70  95 126 163 199 235 280
#     4  10  17  29  47  66  94 131 162 189 229 282
#     4  10  19  30  44  66  95 123 155 192 233 280
#     4  10  20  31  45  70  97 124 161 200 235 273
#
# _framework density 16.588747000000001
#
# number of rings (size 3 to 8) (size 9 to 14) (size 15 to 20)
#    0.000    2.000    3.750    1.875    0.000    1.500 
#    0.000    2.500    0.000    0.000    0.000    0.875 
#    0.000    6.000    0.000    0.000    0.000    0.000 
#
# Total GULP energy -793029.428101 kJ/mol
# GULP energy per Si atom -12391.084814 kJ/mol
# Density = 1.655099 g / cm^3
# Si number density = 16.588747 Si / 1000 Ang^3
#
#
#
# Elastic Constant Matrix: (Units=GPa)
#
#
# Indices 1 2 3 4 5 6 
#
# 1 89.0045 59.8220 18.3971 0.0000 0.0000 0.0000
# 2 59.8220 153.2245 30.3007 0.0000 0.0000 0.0000
# 3 18.3971 30.3007 36.2825 0.0000 0.0000 0.0000
# 4 0.0000 0.0000 0.0000 19.2150 0.0000 0.0000
# 5 0.0000 0.0000 0.0000 0.0000 18.7870 0.0000
# 6 0.0000 0.0000 0.0000 0.0000 0.0000 26.0518
#
#
#
# Elastic Compliance Matrix: (Units=1/GPa)
#
#
# Indices 1 2 3 4 5 6 
#
# 1 0.015570 -0.005411 -0.003376 0.000000 0.000000 0.000000
# 2 -0.005411 0.009698 -0.005355 0.000000 0.000000 0.000000
# 3 -0.003376 -0.005355 0.033746 0.000000 0.000000 0.000000
# 4 0.000000 0.000000 0.000000 0.052043 0.000000 0.000000
# 5 0.000000 0.000000 0.000000 0.000000 0.053228 0.000000
# 6 0.000000 0.000000 0.000000 0.000000 0.000000 0.038385
#
#
# Mechanical properties :
#
#
# Convention : Reuss Voigt Hill
#
# Bulk Modulus (GPa) = 32.54246 55.06123 43.80185
# Shear Modulus (GPa) = 20.72985 24.14353 22.43669
#
# Velocity S-wave (km/s) = 3.53885 3.81913 3.68166
# Velocity P-wave (km/s) = 6.02974 7.26028 6.67343
#
# Compressibility (1/GPa) = 0.03072908
#
# Stress axis : x y z
#
# Youngs Moduli (GPa) = 64.22500 103.11261 29.63346
#
# Poissons Ratio (x) = 0.55798 0.10003
# Poissons Ratio (y) = 0.34755 0.15870
# Poissons Ratio (z) = 0.21680 0.55221
#
# Static dielectric constant tensor:
#      x y z
#    x 3.088360 0.000000 0.000000 
#    y 0.000000 3.636500 0.000000 
#    z 0.000000 0.000000 3.062080 
# 
# 
# High freq. dielectric constant tensor:
#      x y z
#    x 1.607790 0.000000 0.000000 
#    y 0.000000 1.645260 0.000000 
#    z 0.000000 0.000000 1.627290 
# 
# From -- ./inp_files/5951.got.cif
#   From: 2010.03.12/outbox.cif.g09.slc.cpg/sg57_3_cif.got.tgz:5951.got - 2010.04.16 15:48:40.
