data_PCOD8229528
_publ_section_title
;
Structure prediction by ZEFSAII (Michael W. Deem and Ramdas Pophale) SiO2 
 PCOD8229528
Probable space group: P C C N
;
_chemical_formula_sum "Si O2"
_cell_formula_units_Z 56
_cell_length_a 15.239741
_cell_length_b 15.274782
_cell_length_c 10.709042
_cell_angle_alpha 90.000000
_cell_angle_beta 90.000000
_cell_angle_gamma 90.000000
_cell_volume 2492.890651
_symmetry_space_group_name_H-M "P C C N"
_symmetry_group_IT_number 56
_symmetry_cell_setting 'orthorhombic'
loop_
_space_group_symop_operation_xyz
x,y,z
1/2-x,1/2-y,z
1/2+x,-y,1/2-z
-x,1/2+y,1/2-z
-x,-y,-z
1/2+x,1/2+y,-z
1/2-x,y,1/2+z
x,1/2-y,1/2+z
loop_
_atom_site_type_symbol
_atom_site_label
_atom_site_fract_x
_atom_site_fract_y
_atom_site_fract_z
Si Si1 0.595350 0.159440 0.069903
Si Si2 0.339439 0.940426 0.707638
Si Si3 0.513852 0.578193 0.770127
Si Si4 0.610877 0.668295 0.413922
Si Si5 0.061578 0.846072 0.014455
Si Si6 0.349154 0.520479 0.632443
Si Si7 0.078198 0.251126 0.341305
O O1 0.641702 0.141015 0.201434
O O2 0.491636 0.145762 0.079327
O O3 0.612671 0.260656 0.036058
O O4 0.639463 0.092793 0.973364
O O5 0.365516 0.911914 0.567293
O O6 0.236983 0.961422 0.713906
O O7 0.396118 0.025020 0.745901
O O8 0.496667 0.605809 0.911436
O O9 0.432364 0.520087 0.724150
O O10 0.522005 0.664214 0.686101
O O11 0.662487 0.576938 0.424624
O O12 0.632728 0.718250 0.281834
O O13 0.636836 0.729757 0.533760
O O14 0.993049 0.824829 0.125396
#
# Coordination Sequence:
#
# PCOD8229528 Si02
#       7
#     8   8   8   8   8   8   8
#     4  11  22  44  68  96 132 180 233 278 347 418
#     4  12  27  43  66 102 140 179 231 288 346 415
#     4  12  22  44  70  98 138 183 233 282 346 417
#     4  11  21  43  74 100 131 181 232 279 348 406
#     4  11  22  42  68 100 131 179 225 284 350 409
#     4  12  26  44  69 101 141 185 227 288 351 420
#     4  11  20  41  76  98 129 183 231 283 342 404
#
# _framework density 22.463882000000002
#
# number of rings (size 3 to 8) (size 9 to 14) (size 15 to 20)
#    0.000    0.571    8.571    1.714    2.000    0.571 
#    0.000    0.714    3.143    0.000    0.000    0.000 
#    0.000    0.000    0.000    0.000    0.000    0.000 
#
# Total GULP energy -694404.111872 kJ/mol
# GULP energy per Si atom -12400.073426 kJ/mol
# Density = 2.241275 g / cm^3
# Si number density = 22.463882 Si / 1000 Ang^3
#
#
#
# Elastic Constant Matrix: (Units=GPa)
#
#
# Indices 1 2 3 4 5 6 
#
# 1 30.6868 5.1403 9.0808 0.0000 0.0000 0.0000
# 2 5.1403 45.4509 9.9510 0.0000 0.0000 0.0000
# 3 9.0808 9.9510 116.7284 0.0000 0.0000 0.0000
# 4 0.0000 0.0000 0.0000 43.1542 0.0000 0.0000
# 5 0.0000 0.0000 0.0000 0.0000 8.5917 0.0000
# 6 0.0000 0.0000 0.0000 0.0000 0.0000 18.6228
#
#
#
# Elastic Compliance Matrix: (Units=1/GPa)
#
#
# Indices 1 2 3 4 5 6 
#
# 1 0.033838 -0.003312 -0.002350 0.000000 0.000000 0.000000
# 2 -0.003312 0.022745 -0.001681 0.000000 0.000000 0.000000
# 3 -0.002350 -0.001681 0.008893 0.000000 0.000000 0.000000
# 4 0.000000 0.000000 0.000000 0.023173 0.000000 0.000000
# 5 0.000000 0.000000 0.000000 0.000000 0.116391 0.000000
# 6 0.000000 0.000000 0.000000 0.000000 0.000000 0.053698
#
#
# Mechanical properties :
#
#
# Convention : Reuss Voigt Hill
#
# Bulk Modulus (GPa) = 19.68977 26.80115 23.24546
# Shear Modulus (GPa) = 17.22041 25.32001 21.27021
#
# Velocity S-wave (km/s) = 2.77173 3.36094 3.08045
# Velocity P-wave (km/s) = 4.36204 5.19787 4.79819
#
# Compressibility (1/GPa) = 0.05078779
#
# Stress axis : x y z
#
# Youngs Moduli (GPa) = 29.55295 43.96667 112.44752
#
# Poissons Ratio (x) = 0.14564 0.26425
# Poissons Ratio (y) = 0.09789 0.18905
# Poissons Ratio (z) = 0.06945 0.07392
#
# Static dielectric constant tensor:
#      x y z
#    x 3.538000 0.000000 0.000000 
#    y 0.000000 4.163650 0.000000 
#    z 0.000000 0.000000 4.340390 
# 
# 
# High freq. dielectric constant tensor:
#      x y z
#    x 1.840620 0.000000 0.000000 
#    y 0.000000 1.893020 0.000000 
#    z 0.000000 0.000000 1.904070 
# 
# From -- ./inp_files/7870.got.cif
#   From: 2010.03.12/outbox.cif.g09.slc.cpg/sg56_4_cif.got.tgz:7870.got - 2010.04.16 15:33:40.
