data_PCOD8229495
_publ_section_title
;
Structure prediction by ZEFSAII (Michael W. Deem and Ramdas Pophale) SiO2 
 PCOD8229495
Probable space group: P C C N
;
_chemical_formula_sum "Si O2"
_cell_formula_units_Z 64
_cell_length_a 17.273627
_cell_length_b 14.550862
_cell_length_c 13.034468
_cell_angle_alpha 90.000000
_cell_angle_beta 90.000000
_cell_angle_gamma 90.000000
_cell_volume 3276.163515
_symmetry_space_group_name_H-M "P C C N"
_symmetry_group_IT_number 56
_symmetry_cell_setting 'orthorhombic'
loop_
_space_group_symop_operation_xyz
x,y,z
1/2-x,1/2-y,z
1/2+x,-y,1/2-z
-x,1/2+y,1/2-z
-x,-y,-z
1/2+x,1/2+y,-z
1/2-x,y,1/2+z
x,1/2-y,1/2+z
loop_
_atom_site_type_symbol
_atom_site_label
_atom_site_fract_x
_atom_site_fract_y
_atom_site_fract_z
Si Si1 0.506606 0.384851 0.674900
Si Si2 0.186136 0.177204 0.980259
Si Si3 0.101412 0.948764 0.705990
Si Si4 0.866570 0.474647 0.029346
Si Si5 0.492279 0.206372 0.777056
Si Si6 0.068050 0.173964 0.481473
Si Si7 0.233663 0.479319 0.342502
Si Si8 0.813555 0.672048 0.283641
O O1 0.449371 0.459858 0.721218
O O2 0.574620 0.433474 0.612573
O O3 0.527990 0.309260 0.761849
O O4 0.464205 0.318315 0.594895
O O5 0.250000 0.250000 0.943880
O O6 0.107154 0.229200 0.960300
O O7 0.180782 0.088060 0.909642
O O8 0.197904 0.147949 0.097535
O O9 0.121660 0.933096 0.584559
O O10 0.054397 0.867704 0.765526
O O11 0.181471 0.959134 0.767880
O O12 0.876420 0.585073 0.024250
O O13 0.781562 0.456428 0.077171
O O14 0.497884 0.172227 0.895370
O O15 0.402526 0.200320 0.739807
O O16 0.295489 0.421345 0.276356
O O17 0.750000 0.750000 0.253206
#
# Coordination Sequence:
#
# PCOD8229495 Si02
#       8
#     8   8   8   8   8   8   8   8
#     4  11  21  38  64  88 119 162 205 246 305 374
#     4  11  20  32  53  90 128 157 190 243 321 375
#     4  11  23  39  62  95 118 159 212 251 308 376
#     4  11  21  40  62  85 122 165 204 245 306 381
#     4  12  21  38  63  88 123 159 203 256 299 366
#     4  11  18  35  59  89 121 155 195 246 301 383
#     4  12  22  35  58  86 127 161 202 261 302 358
#     4  11  21  33  55  91 125 158 195 244 319 380
#
# _framework density 19.535043000000002
#
# number of rings (size 3 to 8) (size 9 to 14) (size 15 to 20)
#    0.000    0.750    6.250    4.125    3.500    0.000 
#    0.000    1.250    5.500    1.500    0.000    0.000 
#    0.000    0.000    0.000    0.000    0.000    0.000 
#
# Total GULP energy -792918.808463 kJ/mol
# GULP energy per Si atom -12389.356382 kJ/mol
# Density = 1.949058 g / cm^3
# Si number density = 19.535043 Si / 1000 Ang^3
#
#
#
# Elastic Constant Matrix: (Units=GPa)
#
#
# Indices 1 2 3 4 5 6 
#
# 1 96.5987 40.5208 25.9440 0.0000 0.0000 0.0000
# 2 40.5208 52.0819 22.3755 0.0000 0.0000 0.0000
# 3 25.9440 22.3755 66.5296 0.0000 0.0000 0.0000
# 4 0.0000 0.0000 0.0000 9.6864 0.0000 0.0000
# 5 0.0000 0.0000 0.0000 0.0000 24.5774 0.0000
# 6 0.0000 0.0000 0.0000 0.0000 0.0000 32.3359
#
#
#
# Elastic Compliance Matrix: (Units=1/GPa)
#
#
# Indices 1 2 3 4 5 6 
#
# 1 0.015676 -0.011186 -0.002351 0.000000 0.000000 0.000000
# 2 -0.011186 0.030426 -0.005871 0.000000 0.000000 0.000000
# 3 -0.002351 -0.005871 0.017922 0.000000 0.000000 0.000000
# 4 0.000000 0.000000 0.000000 0.103237 0.000000 0.000000
# 5 0.000000 0.000000 0.000000 0.000000 0.040688 0.000000
# 6 0.000000 0.000000 0.000000 0.000000 0.000000 0.030925
#
#
# Mechanical properties :
#
#
# Convention : Reuss Voigt Hill
#
# Bulk Modulus (GPa) = 39.66947 43.65453 41.66200
# Shear Modulus (GPa) = 17.47689 21.74461 19.61075
#
# Velocity S-wave (km/s) = 2.99430 3.33995 3.17184
# Velocity P-wave (km/s) = 5.68378 6.10483 5.89806
#
# Compressibility (1/GPa) = 0.02520830
#
# Stress axis : x y z
#
# Youngs Moduli (GPa) = 63.79277 32.86692 55.79711
#
# Poissons Ratio (x) = 0.36765 0.13117
# Poissons Ratio (y) = 0.71359 0.32757
# Poissons Ratio (z) = 0.14996 0.19295
#
# Static dielectric constant tensor:
#      x y z
#    x 3.732820 0.000000 0.000000 
#    y 0.000000 3.428410 0.000000 
#    z 0.000000 0.000000 3.853820 
# 
# 
# High freq. dielectric constant tensor:
#      x y z
#    x 1.745590 0.000000 0.000000 
#    y 0.000000 1.732160 0.000000 
#    z 0.000000 0.000000 1.774060 
# 
# From -- ./inp_files/12914.got.cif
#   From: 2010.03.12/outbox.cif.g09.slc.cpg/sg56_7_cif.got.tgz:12914.got - 2010.04.16 15:33:40.
