data_PCOD8229824
_publ_section_title
;
Structure prediction by ZEFSAII (Michael W. Deem and Ramdas Pophale) SiO2 
 PCOD8229824
Probable space group: P C C N
;
_chemical_formula_sum "Si O2"
_cell_formula_units_Z 64
_cell_length_a 14.587421
_cell_length_b 21.848172
_cell_length_c 8.854030
_cell_angle_alpha 90.000000
_cell_angle_beta 90.000000
_cell_angle_gamma 90.000000
_cell_volume 2821.854470
_symmetry_space_group_name_H-M "P C C N"
_symmetry_group_IT_number 56
_symmetry_cell_setting 'orthorhombic'
loop_
_space_group_symop_operation_xyz
x,y,z
1/2-x,1/2-y,z
1/2+x,-y,1/2-z
-x,1/2+y,1/2-z
-x,-y,-z
1/2+x,1/2+y,-z
1/2-x,y,1/2+z
x,1/2-y,1/2+z
loop_
_atom_site_type_symbol
_atom_site_label
_atom_site_fract_x
_atom_site_fract_y
_atom_site_fract_z
Si Si1 0.376781 0.077965 0.061094
Si Si2 0.498200 0.687686 0.445269
Si Si3 0.832194 0.369399 0.205532
Si Si4 0.396597 0.001564 0.780437
Si Si5 0.143839 0.618083 0.442229
Si Si6 0.325912 0.095167 0.581650
Si Si7 0.471590 0.315034 0.198416
Si Si8 0.410405 0.486568 0.850446
O O1 0.443569 0.131092 0.119679
O O2 0.277708 0.109052 0.028205
O O3 0.371536 0.023628 0.182778
O O4 0.424201 0.046628 0.916422
O O5 0.394345 0.679213 0.385754
O O6 0.539389 0.748895 0.374952
O O7 0.505726 0.690596 0.625409
O O8 0.862051 0.437451 0.154783
O O9 0.728131 0.356769 0.156821
O O10 0.842103 0.361809 0.384951
O O11 0.315945 0.036261 0.691612
O O12 0.479791 0.995304 0.659986
O O13 0.051665 0.647413 0.380841
O O14 0.138642 0.544659 0.427335
O O15 0.374287 0.151222 0.669585
O O16 0.387909 0.076106 0.438961
#
# Coordination Sequence:
#
# PCOD8229824 Si02
#       8
#     8   8   8   8   8   8   8   8
#     4  12  26  43  70 107 145 186 238 288 352 423
#     4  12  28  50  71 100 134 189 242 297 354 420
#     4  12  26  44  74 107 145 183 235 288 360 424
#     4  12  23  43  67 107 147 188 228 286 356 426
#     4  12  25  45  72 109 144 186 232 293 356 428
#     4  12  24  45  69 107 144 186 230 292 350 422
#     4  12  28  49  73  97 138 184 244 294 356 417
#     4  12  24  40  73 105 152 187 229 285 357 425
#
# _framework density 22.680121
#
# number of rings (size 3 to 8) (size 9 to 14) (size 15 to 20)
#    0.000    0.000    5.000    5.250    5.250    1.000 
#    0.000    3.750    0.000    0.000    0.000    0.000 
#    0.000    0.000    0.000    0.000    0.000    0.000 
#
# Total GULP energy -793786.333979 kJ/mol
# GULP energy per Si atom -12402.911468 kJ/mol
# Density = 2.262850 g / cm^3
# Si number density = 22.680121 Si / 1000 Ang^3
#
#
#
# Elastic Constant Matrix: (Units=GPa)
#
#
# Indices 1 2 3 4 5 6 
#
# 1 94.7690 1.8806 3.3040 0.0000 0.0000 0.0000
# 2 1.8806 61.0636 11.0322 0.0000 0.0000 0.0000
# 3 3.3040 11.0322 115.4424 0.0000 0.0000 0.0000
# 4 0.0000 0.0000 0.0000 37.3219 0.0000 0.0000
# 5 0.0000 0.0000 0.0000 0.0000 28.7759 0.0000
# 6 0.0000 0.0000 0.0000 0.0000 0.0000 16.6300
#
#
#
# Elastic Compliance Matrix: (Units=1/GPa)
#
#
# Indices 1 2 3 4 5 6 
#
# 1 0.010567 -0.000276 -0.000276 0.000000 0.000000 0.000000
# 2 -0.000276 0.016671 -0.001585 0.000000 0.000000 0.000000
# 3 -0.000276 -0.001585 0.008822 0.000000 0.000000 0.000000
# 4 0.000000 0.000000 0.000000 0.026794 0.000000 0.000000
# 5 0.000000 0.000000 0.000000 0.000000 0.034751 0.000000
# 6 0.000000 0.000000 0.000000 0.000000 0.000000 0.060132
#
#
# Mechanical properties :
#
#
# Convention : Reuss Voigt Hill
#
# Bulk Modulus (GPa) = 31.46021 33.74538 32.60280
# Shear Modulus (GPa) = 28.96759 33.54946 31.25852
#
# Velocity S-wave (km/s) = 3.57770 3.85027 3.71649
# Velocity P-wave (km/s) = 5.56489 5.88874 5.72910
#
# Compressibility (1/GPa) = 0.03178618
#
# Stress axis : x y z
#
# Youngs Moduli (GPa) = 94.63365 59.98345 113.35646
#
# Poissons Ratio (x) = 0.01653 0.03130
# Poissons Ratio (y) = 0.02608 0.17970
# Poissons Ratio (z) = 0.02613 0.09509
#
# Static dielectric constant tensor:
#      x y z
#    x 4.088750 0.000000 0.000000 
#    y 0.000000 3.981820 0.000000 
#    z 0.000000 0.000000 4.269370 
# 
# 
# High freq. dielectric constant tensor:
#      x y z
#    x 1.898940 0.000000 0.000000 
#    y 0.000000 1.876570 0.000000 
#    z 0.000000 0.000000 1.915560 
# 
# From -- ./inp_files/3704.got.cif
#   From: 2010.03.12/outbox.cif.g09.slc.cpg/sg56_2_cif.got.tgz:3704.got - 2010.04.16 15:33:40.
