data_PCOD8229548
_publ_section_title
;
Structure prediction by ZEFSAII (Michael W. Deem and Ramdas Pophale) SiO2 
 PCOD8229548
Probable space group: P C C N
;
_chemical_formula_sum "Si O2"
_cell_formula_units_Z 56
_cell_length_a 14.131436
_cell_length_b 17.040841
_cell_length_c 10.792228
_cell_angle_alpha 90.000000
_cell_angle_beta 90.000000
_cell_angle_gamma 90.000000
_cell_volume 2598.893196
_symmetry_space_group_name_H-M "P C C N"
_symmetry_group_IT_number 56
_symmetry_cell_setting 'orthorhombic'
loop_
_space_group_symop_operation_xyz
x,y,z
1/2-x,1/2-y,z
1/2+x,-y,1/2-z
-x,1/2+y,1/2-z
-x,-y,-z
1/2+x,1/2+y,-z
1/2-x,y,1/2+z
x,1/2-y,1/2+z
loop_
_atom_site_type_symbol
_atom_site_label
_atom_site_fract_x
_atom_site_fract_y
_atom_site_fract_z
Si Si1 0.837106 0.595918 0.924729
Si Si2 0.475999 0.814228 0.889633
Si Si3 0.654716 0.492798 0.190615
Si Si4 0.966270 0.592582 0.270011
Si Si5 0.017973 0.244703 0.364671
Si Si6 0.140407 0.529868 0.871384
Si Si7 0.366348 0.127754 0.485395
O O1 0.815094 0.554661 0.795009
O O2 0.913300 0.664229 0.903905
O O3 0.875398 0.527103 0.012714
O O4 0.743137 0.637482 0.977380
O O5 0.458650 0.771950 0.757039
O O6 0.411845 0.890052 0.897804
O O7 0.452838 0.759333 0.009956
O O8 0.577521 0.428767 0.230203
O O9 0.750475 0.448186 0.151899
O O10 0.614975 0.542909 0.075534
O O11 0.905968 0.513611 0.247153
O O12 0.935673 0.633239 0.397424
O O13 0.945107 0.656177 0.161925
O O14 0.105552 0.303405 0.389381
#
# Coordination Sequence:
#
# PCOD8229548 Si02
#       7
#     8   8   8   8   8   8   8
#     4  11  21  39  66 101 129 168 223 264 333 395
#     4  12  24  45  67  95 138 176 218 266 335 397
#     4  11  23  41  69  99 124 171 225 284 322 387
#     4  12  22  42  69  94 134 173 228 269 334 391
#     4  12  25  43  66  96 136 182 212 266 337 399
#     4  11  23  42  70  95 129 175 224 277 323 393
#     4  11  24  41  63  99 136 168 220 273 339 388
#
# _framework density 21.547635
#
# number of rings (size 3 to 8) (size 9 to 14) (size 15 to 20)
#    0.000    0.571    7.143    1.714    0.000    0.571 
#    2.571    0.714    3.143    0.000    0.000    0.000 
#    0.000    0.000    0.000    0.000    0.000    0.000 
#
# Total GULP energy -694498.602668 kJ/mol
# GULP energy per Si atom -12401.760762 kJ/mol
# Density = 2.149859 g / cm^3
# Si number density = 21.547635 Si / 1000 Ang^3
#
#
#
# Elastic Constant Matrix: (Units=GPa)
#
#
# Indices 1 2 3 4 5 6 
#
# 1 96.7966 51.4747 26.5469 0.0000 0.0000 0.0000
# 2 51.4747 84.6767 33.8467 0.0000 0.0000 0.0000
# 3 26.5469 33.8467 131.6764 0.0000 0.0000 0.0000
# 4 0.0000 0.0000 0.0000 34.2733 0.0000 0.0000
# 5 0.0000 0.0000 0.0000 0.0000 22.2840 0.0000
# 6 0.0000 0.0000 0.0000 0.0000 0.0000 26.6713
#
#
#
# Elastic Compliance Matrix: (Units=1/GPa)
#
#
# Indices 1 2 3 4 5 6 
#
# 1 0.015337 -0.009013 -0.000775 0.000000 0.000000 0.000000
# 2 -0.009013 0.018459 -0.002928 0.000000 0.000000 0.000000
# 3 -0.000775 -0.002928 0.008503 0.000000 0.000000 0.000000
# 4 0.000000 0.000000 0.000000 0.029177 0.000000 0.000000
# 5 0.000000 0.000000 0.000000 0.000000 0.044875 0.000000
# 6 0.000000 0.000000 0.000000 0.000000 0.000000 0.037494
#
#
# Mechanical properties :
#
#
# Convention : Reuss Voigt Hill
#
# Bulk Modulus (GPa) = 59.28848 59.65403 59.47126
# Shear Modulus (GPa) = 27.04174 30.06446 28.55310
#
# Velocity S-wave (km/s) = 3.54641 3.73936 3.64416
# Velocity P-wave (km/s) = 6.65914 6.81092 6.73546
#
# Compressibility (1/GPa) = 0.01686668
#
# Stress axis : x y z
#
# Youngs Moduli (GPa) = 65.20338 54.17411 117.60294
#
# Poissons Ratio (x) = 0.48829 0.09116
# Poissons Ratio (y) = 0.58769 0.34430
# Poissons Ratio (z) = 0.05054 0.15860
#
# Static dielectric constant tensor:
#      x y z
#    x 3.569940 0.000000 0.000000 
#    y 0.000000 3.744590 0.000000 
#    z 0.000000 0.000000 4.249480 
# 
# 
# High freq. dielectric constant tensor:
#      x y z
#    x 1.817420 0.000000 0.000000 
#    y 0.000000 1.838910 0.000000 
#    z 0.000000 0.000000 1.870910 
# 
# From -- ./inp_files/7877.got.cif
#   From: 2010.03.12/outbox.cif.g09.slc.cpg/sg56_4_cif.got.tgz:7877.got - 2010.04.16 15:33:40.
