data_PCOD8229401
_publ_section_title
;
Structure prediction by ZEFSAII (Michael W. Deem and Ramdas Pophale) SiO2 
 PCOD8229401
Probable space group: P C C N
;
_chemical_formula_sum "Si O2"
_cell_formula_units_Z 20
_cell_length_a 7.606803
_cell_length_b 5.159023
_cell_length_c 20.168807
_cell_angle_alpha 90.000000
_cell_angle_beta 90.000000
_cell_angle_gamma 90.000000
_cell_volume 791.498039
_symmetry_space_group_name_H-M "P C C N"
_symmetry_group_IT_number 56
_symmetry_cell_setting 'orthorhombic'
loop_
_space_group_symop_operation_xyz
x,y,z
1/2-x,1/2-y,z
1/2+x,-y,1/2-z
-x,1/2+y,1/2-z
-x,-y,-z
1/2+x,1/2+y,-z
1/2-x,y,1/2+z
x,1/2-y,1/2+z
loop_
_atom_site_type_symbol
_atom_site_label
_atom_site_fract_x
_atom_site_fract_y
_atom_site_fract_z
Si Si1 0.750000 0.750000 0.478125
Si Si2 0.588389 0.107879 0.586124
Si Si3 0.560597 0.641937 0.216863
O O1 0.809793 0.505514 0.521720
O O2 0.574497 0.700483 0.433345
O O3 0.750000 0.250000 0.624041
O O4 0.517648 0.894210 0.638134
O O5 0.750000 0.750000 0.230192
O O6 0.564179 0.364683 0.254056
#
# Coordination Sequence:
#
# PCOD8229401 Si02
#       3
#     4   8   8
#     4  10  24  44  78 112 150 204 254 312 406 454
#     4  11  23  47  73 113 156 199 258 325 382 468
#     4  12  27  50  77 111 154 206 260 321 386 458
#
# _framework density 25.268540999999999
#
# number of rings (size 3 to 8) (size 9 to 14) (size 15 to 20)
#    0.000    0.800    2.000    4.800    2.800    0.000 
#    7.200    0.000    0.000    0.000    0.000    0.000 
#    0.000    0.000    0.000    0.000    0.000    0.000 
#
# Total GULP energy -247769.991697 kJ/mol
# GULP energy per Si atom -12388.499585 kJ/mol
# Density = 2.521103 g / cm^3
# Si number density = 25.268541 Si / 1000 Ang^3
#
#
#
# Elastic Constant Matrix: (Units=GPa)
#
#
# Indices 1 2 3 4 5 6 
#
# 1 190.0965 58.5409 75.0031 0.0000 0.0000 0.0000
# 2 58.5409 122.2007 60.0793 0.0000 0.0000 0.0000
# 3 75.0031 60.0793 133.6337 0.0000 0.0000 0.0000
# 4 0.0000 0.0000 0.0000 33.8874 0.0000 0.0000
# 5 0.0000 0.0000 0.0000 0.0000 27.6584 0.0000
# 6 0.0000 0.0000 0.0000 0.0000 0.0000 50.2750
#
#
#
# Elastic Compliance Matrix: (Units=1/GPa)
#
#
# Indices 1 2 3 4 5 6 
#
# 1 0.007066 -0.001842 -0.003137 0.000000 0.000000 0.000000
# 2 -0.001842 0.010986 -0.003905 0.000000 0.000000 0.000000
# 3 -0.003137 -0.003905 0.011000 0.000000 0.000000 0.000000
# 4 0.000000 0.000000 0.000000 0.029509 0.000000 0.000000
# 5 0.000000 0.000000 0.000000 0.000000 0.036155 0.000000
# 6 0.000000 0.000000 0.000000 0.000000 0.000000 0.019891
#
#
# Mechanical properties :
#
#
# Convention : Reuss Voigt Hill
#
# Bulk Modulus (GPa) = 88.63963 92.57528 90.60746
# Shear Modulus (GPa) = 36.72788 39.18468 37.95628
#
# Velocity S-wave (km/s) = 3.81662 3.94220 3.87992
# Velocity P-wave (km/s) = 7.38764 7.57875 7.48381
#
# Compressibility (1/GPa) = 0.01128164
#
# Stress axis : x y z
#
# Youngs Moduli (GPa) = 141.52828 91.02746 90.91236
#
# Poissons Ratio (x) = 0.16771 0.28523
# Poissons Ratio (y) = 0.26075 0.35500
# Poissons Ratio (z) = 0.44403 0.35545
#
# Static dielectric constant tensor:
#      x y z
#    x 5.129480 0.000000 0.000000 
#    y 0.000000 5.906350 0.000000 
#    z 0.000000 0.000000 4.594790 
# 
# 
# High freq. dielectric constant tensor:
#      x y z
#    x 2.024660 0.000000 0.000000 
#    y 0.000000 1.994410 0.000000 
#    z 0.000000 0.000000 2.008950 
# 
# From -- ./inp_files/14214.got.cif
#   From: 2010.03.12/outbox.cif.g09.slc.cpg/sg56_8_cif.got.tgz:14214.got - 2010.04.16 15:33:40.
