data_PCOD8229703
_publ_section_title
;
Structure prediction by ZEFSAII (Michael W. Deem and Ramdas Pophale) SiO2 
 PCOD8229703
Probable space group: P C C N
;
_chemical_formula_sum "Si O2"
_cell_formula_units_Z 32
_cell_length_a 4.905972
_cell_length_b 19.956190
_cell_length_c 12.892321
_cell_angle_alpha 90.000000
_cell_angle_beta 90.000000
_cell_angle_gamma 90.000000
_cell_volume 1262.216362
_symmetry_space_group_name_H-M "P C C N"
_symmetry_group_IT_number 56
_symmetry_cell_setting 'orthorhombic'
loop_
_space_group_symop_operation_xyz
x,y,z
1/2-x,1/2-y,z
1/2+x,-y,1/2-z
-x,1/2+y,1/2-z
-x,-y,-z
1/2+x,1/2+y,-z
1/2-x,y,1/2+z
x,1/2-y,1/2+z
loop_
_atom_site_type_symbol
_atom_site_label
_atom_site_fract_x
_atom_site_fract_y
_atom_site_fract_z
Si Si1 0.492341 0.204839 0.188942
Si Si2 0.232935 0.098791 0.320575
Si Si3 0.435006 0.473188 0.124404
Si Si4 0.433674 0.912782 0.970569
O O1 0.250000 0.250000 0.143096
O O2 0.383281 0.168220 0.293092
O O3 0.568970 0.152438 0.100303
O O4 0.750000 0.250000 0.219886
O O5 0.029220 0.109540 0.416264
O O6 0.044628 0.075371 0.224082
O O7 0.475547 0.046263 0.340197
O O8 0.125700 0.471558 0.079754
O O9 0.628041 0.443824 0.031631
#
# Coordination Sequence:
#
# PCOD8229703 Si02
#       4
#     8   8   8   8
#     4  11  25  45  65  95 136 179 237 287 325 405
#     4  11  24  45  73 103 141 188 224 287 364 414
#     4  11  24  42  69 107 139 170 231 291 348 434
#     4  11  25  44  69 101 140 181 227 289 353 415
#
# _framework density 25.352229999999999
#
# number of rings (size 3 to 8) (size 9 to 14) (size 15 to 20)
#    0.000    1.000    0.000    7.500    0.000   11.000 
#    0.000    5.000    0.000    0.000    0.000    0.000 
#    0.000    0.000    0.000    0.000    0.000    0.000 
#
# Total GULP energy -397052.470533 kJ/mol
# GULP energy per Si atom -12407.889704 kJ/mol
# Density = 2.529453 g / cm^3
# Si number density = 25.352230 Si / 1000 Ang^3
#
#
#
# Elastic Constant Matrix: (Units=GPa)
#
#
# Indices 1 2 3 4 5 6 
#
# 1 151.2156 56.9448 39.8412 0.0000 0.0000 0.0000
# 2 56.9448 114.6329 14.5730 0.0000 0.0000 0.0000
# 3 39.8412 14.5730 137.5126 0.0000 0.0000 0.0000
# 4 0.0000 0.0000 0.0000 3.6941 0.0000 0.0000
# 5 0.0000 0.0000 0.0000 0.0000 41.5401 0.0000
# 6 0.0000 0.0000 0.0000 0.0000 0.0000 54.0167
#
#
#
# Elastic Compliance Matrix: (Units=1/GPa)
#
#
# Indices 1 2 3 4 5 6 
#
# 1 0.008689 -0.004051 -0.002088 0.000000 0.000000 0.000000
# 2 -0.004051 0.010731 0.000036 0.000000 0.000000 0.000000
# 3 -0.002088 0.000036 0.007873 0.000000 0.000000 0.000000
# 4 0.000000 0.000000 0.000000 0.270702 0.000000 0.000000
# 5 0.000000 0.000000 0.000000 0.000000 0.024073 0.000000
# 6 0.000000 0.000000 0.000000 0.000000 0.000000 0.018513
#
#
# Mechanical properties :
#
#
# Convention : Reuss Voigt Hill
#
# Bulk Modulus (GPa) = 66.27734 69.56434 67.92084
# Shear Modulus (GPa) = 13.97371 39.31699 26.64535
#
# Velocity S-wave (km/s) = 2.35028 3.94233 3.24544
# Velocity P-wave (km/s) = 5.79348 6.94416 6.39475
#
# Compressibility (1/GPa) = 0.01508811
#
# Stress axis : x y z
#
# Youngs Moduli (GPa) = 115.09290 93.18715 127.01358
#
# Poissons Ratio (x) = 0.37747 0.26521
# Poissons Ratio (y) = 0.46621 -0.00462
# Poissons Ratio (z) = 0.24032 -0.00339
#
# Static dielectric constant tensor:
#      x y z
#    x 4.655710 0.000000 0.000000 
#    y 0.000000 4.735400 0.000000 
#    z 0.000000 0.000000 4.903890 
# 
# 
# High freq. dielectric constant tensor:
#      x y z
#    x 2.028440 0.000000 0.000000 
#    y 0.000000 2.009690 0.000000 
#    z 0.000000 0.000000 2.027100 
# 
# From -- ./inp_files/9425.got.cif
#   From: 2010.03.12/outbox.cif.g09.slc.cpg/sg56_5_cif.got.tgz:9425.got - 2010.04.16 15:33:40.
