data_PCOD8229358
_publ_section_title
;
Structure prediction by ZEFSAII (Michael W. Deem and Ramdas Pophale) SiO2 
 PCOD8229358
Probable space group: P C C N
;
_chemical_formula_sum "Si O2"
_cell_formula_units_Z 28
_cell_length_a 4.970550
_cell_length_b 16.376534
_cell_length_c 13.137456
_cell_angle_alpha 90.000000
_cell_angle_beta 90.000000
_cell_angle_gamma 90.000000
_cell_volume 1069.393925
_symmetry_space_group_name_H-M "P C C N"
_symmetry_group_IT_number 56
_symmetry_cell_setting 'orthorhombic'
loop_
_space_group_symop_operation_xyz
x,y,z
1/2-x,1/2-y,z
1/2+x,-y,1/2-z
-x,1/2+y,1/2-z
-x,-y,-z
1/2+x,1/2+y,-z
1/2-x,y,1/2+z
x,1/2-y,1/2+z
loop_
_atom_site_type_symbol
_atom_site_label
_atom_site_fract_x
_atom_site_fract_y
_atom_site_fract_z
Si Si1 0.489540 0.522706 0.849413
Si Si2 0.250000 0.750000 0.803899
Si Si3 0.873546 0.390415 0.842471
Si Si4 0.010428 0.113714 0.568341
O O1 0.570920 0.426878 0.864162
O O2 0.511379 0.538295 0.726747
O O3 0.204724 0.543143 0.902338
O O4 0.695262 0.583228 0.905321
O O5 0.399114 0.688329 0.728612
O O6 0.454233 0.800528 0.875071
O O7 0.016517 0.370371 0.947609
#
# Coordination Sequence:
#
# PCOD8229358 Si02
#       4
#     8   4   8   8
#     4  11  25  43  70 101 128 172 230 268 329 394
#     4  10  24  42  66 102 134 176 222 262 334 402
#     4  11  23  45  70  97 137 173 217 281 325 387
#     4  11  25  45  67  99 134 175 220 273 331 392
#
# _framework density 26.183053000000001
#
# number of rings (size 3 to 8) (size 9 to 14) (size 15 to 20)
#    0.000    1.143    0.000    6.000    0.000   11.429 
#    0.000    5.714    0.000    0.000    0.000    0.000 
#    0.000    0.000    0.000    0.000    0.000    0.000 
#
# Total GULP energy -347061.215293 kJ/mol
# GULP energy per Si atom -12395.043403 kJ/mol
# Density = 2.612346 g / cm^3
# Si number density = 26.183053 Si / 1000 Ang^3
#
#
#
# Elastic Constant Matrix: (Units=GPa)
#
#
# Indices 1 2 3 4 5 6 
#
# 1 54.5782 -8.3971 19.9264 0.0000 0.0000 0.0000
# 2 -8.3971 103.2801 14.7357 0.0000 0.0000 0.0000
# 3 19.9264 14.7357 219.5191 0.0000 0.0000 0.0000
# 4 0.0000 0.0000 0.0000 24.8780 0.0000 0.0000
# 5 0.0000 0.0000 0.0000 0.0000 30.3038 0.0000
# 6 0.0000 0.0000 0.0000 0.0000 0.0000 11.8037
#
#
#
# Elastic Compliance Matrix: (Units=1/GPa)
#
#
# Indices 1 2 3 4 5 6 
#
# 1 0.019289 0.001836 -0.001874 0.000000 0.000000 0.000000
# 2 0.001836 0.009951 -0.000835 0.000000 0.000000 0.000000
# 3 -0.001874 -0.000835 0.004782 0.000000 0.000000 0.000000
# 4 0.000000 0.000000 0.000000 0.040196 0.000000 0.000000
# 5 0.000000 0.000000 0.000000 0.000000 0.032999 0.000000
# 6 0.000000 0.000000 0.000000 0.000000 0.000000 0.084719
#
#
# Mechanical properties :
#
#
# Convention : Reuss Voigt Hill
#
# Bulk Modulus (GPa) = 30.98360 47.76751 39.37556
# Shear Modulus (GPa) = 24.45703 36.80459 30.63081
#
# Velocity S-wave (km/s) = 3.05959 3.75329 3.42405
# Velocity P-wave (km/s) = 4.93362 6.08820 5.54106
#
# Compressibility (1/GPa) = 0.03227514
#
# Stress axis : x y z
#
# Youngs Moduli (GPa) = 51.84304 100.49511 209.13689
#
# Poissons Ratio (x) = -0.18448 0.39195
# Poissons Ratio (y) = -0.09517 0.17454
# Poissons Ratio (z) = 0.09716 0.08387
#
# Static dielectric constant tensor:
#      x y z
#    x 4.585080 0.000000 0.000000 
#    y 0.000000 4.922330 0.000000 
#    z 0.000000 0.000000 5.138330 
# 
# 
# High freq. dielectric constant tensor:
#      x y z
#    x 2.036370 0.000000 0.000000 
#    y 0.000000 2.041820 0.000000 
#    z 0.000000 0.000000 2.083280 
# 
# From -- ./inp_files/9350.got.cif
#   From: 2010.03.12/outbox.cif.g09.slc.cpg/sg56_5_cif.got.tgz:9350.got - 2010.04.16 15:33:40.
