data_PCOD8229670
_publ_section_title
;
Structure prediction by ZEFSAII (Michael W. Deem and Ramdas Pophale) SiO2 
 PCOD8229670
Probable space group: P C C N
;
_chemical_formula_sum "Si O2"
_cell_formula_units_Z 48
_cell_length_a 17.763306
_cell_length_b 8.918190
_cell_length_c 14.370221
_cell_angle_alpha 90.000000
_cell_angle_beta 90.000000
_cell_angle_gamma 90.000000
_cell_volume 2276.480660
_symmetry_space_group_name_H-M "P C C N"
_symmetry_group_IT_number 56
_symmetry_cell_setting 'orthorhombic'
loop_
_space_group_symop_operation_xyz
x,y,z
1/2-x,1/2-y,z
1/2+x,-y,1/2-z
-x,1/2+y,1/2-z
-x,-y,-z
1/2+x,1/2+y,-z
1/2-x,y,1/2+z
x,1/2-y,1/2+z
loop_
_atom_site_type_symbol
_atom_site_label
_atom_site_fract_x
_atom_site_fract_y
_atom_site_fract_z
Si Si1 0.655111 0.390837 0.602163
Si Si2 0.330168 0.165356 0.564471
Si Si3 0.174626 0.944668 0.896437
Si Si4 0.562259 0.584429 0.237094
Si Si5 0.923006 0.548710 0.950325
Si Si6 0.418484 0.077116 0.736588
O O1 0.632996 0.215715 0.600898
O O2 0.739881 0.419160 0.633183
O O3 0.642476 0.448920 0.496937
O O4 0.602820 0.479984 0.673499
O O5 0.250000 0.250000 0.568437
O O6 0.398016 0.277627 0.534795
O O7 0.348982 0.095030 0.665477
O O8 0.329242 0.026755 0.494919
O O9 0.137805 0.047009 0.818138
O O10 0.571749 0.517969 0.340875
O O11 0.551785 0.761641 0.231631
O O12 0.489204 0.508539 0.189351
O O13 0.000000 0.500000 0.000000
#
# Coordination Sequence:
#
# PCOD8229670 Si02
#       6
#     8   8   8   8   8   8
#     4  11  24  45  67  98 140 184 228 294 348 411
#     4  11  25  46  72 104 135 185 239 286 355 428
#     4  11  26  42  68 101 136 182 238 285 351 416
#     4  11  25  41  68 103 132 184 230 290 350 414
#     4  11  23  44  70  98 137 181 227 288 351 415
#     4  11  25  43  70 100 142 180 236 290 351 422
#
# _framework density 21.085176000000001
#
# number of rings (size 3 to 8) (size 9 to 14) (size 15 to 20)
#    0.000    1.000    3.333    2.000    7.000    3.333 
#    0.000    3.333    0.000    0.000    0.000    0.000 
#    0.000    0.000    0.000    0.000    0.000    0.000 
#
# Total GULP energy -595222.534789 kJ/mol
# GULP energy per Si atom -12400.469475 kJ/mol
# Density = 2.103719 g / cm^3
# Si number density = 21.085176 Si / 1000 Ang^3
#
#
#
# Elastic Constant Matrix: (Units=GPa)
#
#
# Indices 1 2 3 4 5 6 
#
# 1 100.0903 56.9148 40.6337 0.0000 0.0000 0.0000
# 2 56.9148 141.9786 54.7801 0.0000 0.0000 0.0000
# 3 40.6337 54.7801 92.8045 0.0000 0.0000 0.0000
# 4 0.0000 0.0000 0.0000 33.8759 0.0000 0.0000
# 5 0.0000 0.0000 0.0000 0.0000 37.9877 0.0000
# 6 0.0000 0.0000 0.0000 0.0000 0.0000 38.0016
#
#
#
# Elastic Compliance Matrix: (Units=1/GPa)
#
#
# Indices 1 2 3 4 5 6 
#
# 1 0.013810 -0.004148 -0.003598 0.000000 0.000000 0.000000
# 2 -0.004148 0.010366 -0.004303 0.000000 0.000000 0.000000
# 3 -0.003598 -0.004303 0.014891 0.000000 0.000000 0.000000
# 4 0.000000 0.000000 0.000000 0.029520 0.000000 0.000000
# 5 0.000000 0.000000 0.000000 0.000000 0.026324 0.000000
# 6 0.000000 0.000000 0.000000 0.000000 0.000000 0.026315
#
#
# Mechanical properties :
#
#
# Convention : Reuss Voigt Hill
#
# Bulk Modulus (GPa) = 66.80364 71.05896 68.93130
# Shear Modulus (GPa) = 33.26376 34.14269 33.70323
#
# Velocity S-wave (km/s) = 3.97620 4.02839 4.00238
# Velocity P-wave (km/s) = 7.26854 7.44387 7.35673
#
# Compressibility (1/GPa) = 0.01496924
#
# Stress axis : x y z
#
# Youngs Moduli (GPa) = 72.40918 96.46735 67.15574
#
# Poissons Ratio (x) = 0.40012 0.24166
# Poissons Ratio (y) = 0.30034 0.28896
# Poissons Ratio (z) = 0.26056 0.41508
#
# Static dielectric constant tensor:
#      x y z
#    x 3.962750 0.000000 0.000000 
#    y 0.000000 4.008820 0.000000 
#    z 0.000000 0.000000 3.784470 
# 
# 
# High freq. dielectric constant tensor:
#      x y z
#    x 1.836570 0.000000 0.000000 
#    y 0.000000 1.837530 0.000000 
#    z 0.000000 0.000000 1.821170 
# 
# From -- ./inp_files/10625.got.cif
#   From: 2010.03.12/outbox.cif.g09.slc.cpg/sg56_6_cif.got.tgz:10625.got - 2010.04.16 15:33:40.
