data_PCOD8229299
_publ_section_title
;
Structure prediction by ZEFSAII (Michael W. Deem and Ramdas Pophale) SiO2 
 PCOD8229299
Probable space group: P C C N
;
_chemical_formula_sum "Si O2"
_cell_formula_units_Z 56
_cell_length_a 12.781667
_cell_length_b 13.283427
_cell_length_c 13.591064
_cell_angle_alpha 90.000000
_cell_angle_beta 90.000000
_cell_angle_gamma 90.000000
_cell_volume 2307.549838
_symmetry_space_group_name_H-M "P C C N"
_symmetry_group_IT_number 56
_symmetry_cell_setting 'orthorhombic'
loop_
_space_group_symop_operation_xyz
x,y,z
1/2-x,1/2-y,z
1/2+x,-y,1/2-z
-x,1/2+y,1/2-z
-x,-y,-z
1/2+x,1/2+y,-z
1/2-x,y,1/2+z
x,1/2-y,1/2+z
loop_
_atom_site_type_symbol
_atom_site_label
_atom_site_fract_x
_atom_site_fract_y
_atom_site_fract_z
Si Si1 0.750000 0.250000 0.818819
Si Si2 0.834222 0.646056 0.084801
Si Si3 0.951004 0.483206 0.174876
Si Si4 0.567968 0.708272 0.391900
Si Si5 0.917672 0.126270 0.199199
Si Si6 0.250000 0.250000 0.739375
Si Si7 0.104674 0.583757 0.617894
Si Si8 0.879105 0.554440 0.557659
O O1 0.670219 0.196580 0.744937
O O2 0.686175 0.323897 0.893407
O O3 0.879371 0.533393 0.090845
O O4 0.835546 0.690129 0.195277
O O5 0.710060 0.638729 0.063759
O O6 0.896115 0.714343 0.005975
O O7 0.884680 0.447030 0.268521
O O8 0.997592 0.388567 0.120185
O O9 0.034443 0.566766 0.208586
O O10 0.504433 0.808956 0.361719
O O11 0.673020 0.685125 0.329215
O O12 0.866122 0.044416 0.126173
O O13 0.129547 0.484801 0.554120
O O14 0.985837 0.613600 0.587178
#
# Coordination Sequence:
#
# PCOD8229299 Si02
#       8
#     4   8   8   8   8   4   8   8
#     4  12  24  42  74 106 142 208 250 308 394 458
#     4  12  27  45  77 108 145 199 252 316 384 461
#     4  11  24  48  72 104 150 192 245 320 383 452
#     4  12  27  47  75 110 151 198 258 314 384 472
#     4  11  25  46  72 106 152 199 247 322 382 454
#     4  12  26  46  74 106 150 194 252 310 388 460
#     4  10  23  44  71 102 150 195 246 306 386 452
#     4  10  25  44  72 109 147 197 254 312 383 464
#
# _framework density 24.268166000000001
#
# number of rings (size 3 to 8) (size 9 to 14) (size 15 to 20)
#    0.000    0.857    2.857    3.429    4.000    7.429 
#    0.000    0.000    0.000    0.000    0.000    0.000 
#    0.000    0.000    0.000    0.000    0.000    0.000 
#
# Total GULP energy -694127.816650 kJ/mol
# GULP energy per Si atom -12395.139583 kJ/mol
# Density = 2.421293 g / cm^3
# Si number density = 24.268166 Si / 1000 Ang^3
#
#
#
# Elastic Constant Matrix: (Units=GPa)
#
#
# Indices 1 2 3 4 5 6 
#
# 1 60.3023 14.3437 21.7074 0.0000 0.0000 0.0000
# 2 14.3437 64.3676 8.9887 0.0000 0.0000 0.0000
# 3 21.7074 8.9887 81.6179 0.0000 0.0000 0.0000
# 4 0.0000 0.0000 0.0000 22.5736 0.0000 0.0000
# 5 0.0000 0.0000 0.0000 0.0000 23.7464 0.0000
# 6 0.0000 0.0000 0.0000 0.0000 0.0000 65.5410
#
#
#
# Elastic Compliance Matrix: (Units=1/GPa)
#
#
# Indices 1 2 3 4 5 6 
#
# 1 0.019130 -0.003608 -0.004690 0.000000 0.000000 0.000000
# 2 -0.003608 0.016459 -0.000853 0.000000 0.000000 0.000000
# 3 -0.004690 -0.000853 0.013594 0.000000 0.000000 0.000000
# 4 0.000000 0.000000 0.000000 0.044299 0.000000 0.000000
# 5 0.000000 0.000000 0.000000 0.000000 0.042112 0.000000
# 6 0.000000 0.000000 0.000000 0.000000 0.000000 0.015258
#
#
# Mechanical properties :
#
#
# Convention : Reuss Voigt Hill
#
# Bulk Modulus (GPa) = 32.38400 32.92970 32.65685
# Shear Modulus (GPa) = 27.86335 33.12205 30.49270
#
# Velocity S-wave (km/s) = 3.39210 3.69838 3.54855
# Velocity P-wave (km/s) = 5.35864 5.64233 5.50231
#
# Compressibility (1/GPa) = 0.03087944
#
# Stress axis : x y z
#
# Youngs Moduli (GPa) = 52.27457 60.75745 73.56364
#
# Poissons Ratio (x) = 0.21921 0.34505
# Poissons Ratio (y) = 0.18860 0.06275
# Poissons Ratio (z) = 0.24519 0.05183
#
# Static dielectric constant tensor:
#      x y z
#    x 4.439590 0.000000 0.000000 
#    y 0.000000 4.414820 0.000000 
#    z 0.000000 0.000000 4.451290 
# 
# 
# High freq. dielectric constant tensor:
#      x y z
#    x 1.964270 0.000000 0.000000 
#    y 0.000000 1.974200 0.000000 
#    z 0.000000 0.000000 1.964660 
# 
# From -- ./inp_files/11727.got.cif
#   From: 2010.03.12/outbox.cif.g09.slc.cpg/sg56_6_cif.got.tgz:11727.got - 2010.04.16 15:33:40.
