data_PCOD8229195
_publ_section_title
;
Structure prediction by ZEFSAII (Michael W. Deem and Ramdas Pophale) SiO2 
 PCOD8229195
Probable space group: P C C N
;
_chemical_formula_sum "Si O2"
_cell_formula_units_Z 40
_cell_length_a 17.886701
_cell_length_b 10.167459
_cell_length_c 9.146622
_cell_angle_alpha 90.000000
_cell_angle_beta 90.000000
_cell_angle_gamma 90.000000
_cell_volume 1663.425706
_symmetry_space_group_name_H-M "P C C N"
_symmetry_group_IT_number 56
_symmetry_cell_setting 'orthorhombic'
loop_
_space_group_symop_operation_xyz
x,y,z
1/2-x,1/2-y,z
1/2+x,-y,1/2-z
-x,1/2+y,1/2-z
-x,-y,-z
1/2+x,1/2+y,-z
1/2-x,y,1/2+z
x,1/2-y,1/2+z
loop_
_atom_site_type_symbol
_atom_site_label
_atom_site_fract_x
_atom_site_fract_y
_atom_site_fract_z
Si Si1 0.250000 0.250000 0.181003
Si Si2 0.126518 0.437365 0.775452
Si Si3 0.329986 0.996795 0.078164
Si Si4 0.899186 0.140610 0.966384
Si Si5 0.540270 0.372077 0.274780
Si Si6 0.250000 0.750000 0.547583
O O1 0.316250 0.314753 0.275007
O O2 0.210633 0.363486 0.086412
O O3 0.121856 0.506072 0.616941
O O4 0.044796 0.388237 0.823140
O O5 0.154137 0.532678 0.906346
O O6 0.408263 0.992755 0.166871
O O7 0.277303 0.878228 0.141285
O O8 0.932282 0.234790 0.841578
O O9 0.957193 0.122983 0.097934
O O10 0.823264 0.200218 0.040343
#
# Coordination Sequence:
#
# PCOD8229195 Si02
#       6
#     4   8   8   8   8   4
#     4  12  28  46  76 112 154 196 250 314 390 444
#     4  12  27  47  73 108 152 196 252 310 384 450
#     4  11  26  47  76 108 149 199 251 314 374 454
#     4  11  24  45  72 109 142 200 246 318 361 459
#     4  11  27  45  77 104 150 193 257 307 381 440
#     4  10  22  46  74 104 144 182 260 296 372 430
#
# _framework density 24.046759999999999
#
# number of rings (size 3 to 8) (size 9 to 14) (size 15 to 20)
#    0.000    0.800    2.000    4.200    8.400    5.600 
#    0.000    0.000    0.000    0.000    0.000    0.000 
#    0.000    0.000    0.000    0.000    0.000    0.000 
#
# Total GULP energy -495634.596662 kJ/mol
# GULP energy per Si atom -12390.864917 kJ/mol
# Density = 2.399203 g / cm^3
# Si number density = 24.046760 Si / 1000 Ang^3
#
#
#
# Elastic Constant Matrix: (Units=GPa)
#
#
# Indices 1 2 3 4 5 6 
#
# 1 173.8314 65.9408 32.8317 0.0000 0.0000 0.0000
# 2 65.9408 137.3723 43.5874 0.0000 0.0000 0.0000
# 3 32.8317 43.5874 125.2889 0.0000 0.0000 0.0000
# 4 0.0000 0.0000 0.0000 31.5798 0.0000 0.0000
# 5 0.0000 0.0000 0.0000 0.0000 17.1070 0.0000
# 6 0.0000 0.0000 0.0000 0.0000 0.0000 28.2537
#
#
#
# Elastic Compliance Matrix: (Units=1/GPa)
#
#
# Indices 1 2 3 4 5 6 
#
# 1 0.007097 -0.003166 -0.000758 0.000000 0.000000 0.000000
# 2 -0.003166 0.009595 -0.002508 0.000000 0.000000 0.000000
# 3 -0.000758 -0.002508 0.009053 0.000000 0.000000 0.000000
# 4 0.000000 0.000000 0.000000 0.031666 0.000000 0.000000
# 5 0.000000 0.000000 0.000000 0.000000 0.058456 0.000000
# 6 0.000000 0.000000 0.000000 0.000000 0.000000 0.035394
#
#
# Mechanical properties :
#
#
# Convention : Reuss Voigt Hill
#
# Bulk Modulus (GPa) = 77.64298 80.13471 78.88885
# Shear Modulus (GPa) = 29.68790 34.99695 32.34242
#
# Velocity S-wave (km/s) = 3.51749 3.81907 3.67138
# Velocity P-wave (km/s) = 6.98966 7.26938 7.13089
#
# Compressibility (1/GPa) = 0.01287946
#
# Stress axis : x y z
#
# Youngs Moduli (GPa) = 140.90637 104.21937 110.46142
#
# Poissons Ratio (x) = 0.32996 0.08376
# Poissons Ratio (y) = 0.44611 0.27709
# Poissons Ratio (z) = 0.10685 0.26143
#
# Static dielectric constant tensor:
#      x y z
#    x 4.689560 0.000000 0.000000 
#    y 0.000000 4.286840 0.000000 
#    z 0.000000 0.000000 3.818190 
# 
# 
# High freq. dielectric constant tensor:
#      x y z
#    x 1.977750 0.000000 0.000000 
#    y 0.000000 1.953610 0.000000 
#    z 0.000000 0.000000 1.929110 
# 
# From -- ./inp_files/2601.got.cif
#   From: 2010.03.12/outbox.cif.g09.slc.cpg/sg56_2_cif.got.tgz:2601.got - 2010.04.16 15:33:40.
