data_PCOD8229040
_publ_section_title
;
Structure prediction by ZEFSAII (Michael W. Deem and Ramdas Pophale) SiO2 
 PCOD8229040
Probable space group: P C C N
;
_chemical_formula_sum "Si O2"
_cell_formula_units_Z 56
_cell_length_a 10.704345
_cell_length_b 17.386349
_cell_length_c 13.991080
_cell_angle_alpha 90.000000
_cell_angle_beta 90.000000
_cell_angle_gamma 90.000000
_cell_volume 2603.872595
_symmetry_space_group_name_H-M "P C C N"
_symmetry_group_IT_number 56
_symmetry_cell_setting 'orthorhombic'
loop_
_space_group_symop_operation_xyz
x,y,z
1/2-x,1/2-y,z
1/2+x,-y,1/2-z
-x,1/2+y,1/2-z
-x,-y,-z
1/2+x,1/2+y,-z
1/2-x,y,1/2+z
x,1/2-y,1/2+z
loop_
_atom_site_type_symbol
_atom_site_label
_atom_site_fract_x
_atom_site_fract_y
_atom_site_fract_z
Si Si1 0.750000 0.750000 0.559562
Si Si2 0.382446 0.882533 0.980177
Si Si3 0.648760 0.450195 0.914966
Si Si4 0.579387 0.628414 0.629444
Si Si5 0.082570 0.387039 0.520107
Si Si6 0.585945 0.125134 0.695807
Si Si7 0.250000 0.750000 0.394152
Si Si8 0.306360 0.522938 0.305371
O O1 0.648005 0.710077 0.626463
O O2 0.819041 0.681596 0.500513
O O3 0.353394 0.792547 0.959475
O O4 0.388296 0.928331 0.880434
O O5 0.276192 0.910564 0.053093
O O6 0.519968 0.891464 0.025937
O O7 0.651328 0.530870 0.972504
O O8 0.642268 0.461790 0.801052
O O9 0.531645 0.395718 0.944711
O O10 0.461569 0.636500 0.698054
O O11 0.678721 0.565991 0.666431
O O12 0.028498 0.369269 0.624241
O O13 0.687492 0.189575 0.676123
O O14 0.659055 0.043465 0.686107
#
# Coordination Sequence:
#
# PCOD8229040 Si02
#       8
#     4   8   8   8   8   8   4   8
#     4  12  30  44  66  98 144 186 224 282 370 410
#     4  11  23  43  70 101 138 176 230 287 337 404
#     4  11  22  42  80  97 135 185 235 285 340 411
#     4  12  26  44  67 103 142 177 227 287 348 417
#     4  11  24  47  69 100 137 187 223 286 347 416
#     4  11  23  44  70  96 138 178 232 279 337 412
#     4  10  22  40  66 102 136 180 232 272 342 408
#     4  11  23  43  70 109 129 177 237 284 336 404
#
# _framework density 21.506429000000001
#
# number of rings (size 3 to 8) (size 9 to 14) (size 15 to 20)
#    0.000    0.857    5.714    2.143    2.000    3.429 
#    0.000    1.429    0.000    0.000    0.000    0.000 
#    0.000    0.000    0.000    0.000    0.000    0.000 
#
# Total GULP energy -694371.221941 kJ/mol
# GULP energy per Si atom -12399.486106 kJ/mol
# Density = 2.145748 g / cm^3
# Si number density = 21.506429 Si / 1000 Ang^3
#
#
#
# Elastic Constant Matrix: (Units=GPa)
#
#
# Indices 1 2 3 4 5 6 
#
# 1 103.1624 56.5206 34.4220 0.0000 0.0000 0.0000
# 2 56.5206 115.5063 42.9869 0.0000 0.0000 0.0000
# 3 34.4220 42.9869 114.4496 0.0000 0.0000 0.0000
# 4 0.0000 0.0000 0.0000 20.4007 0.0000 0.0000
# 5 0.0000 0.0000 0.0000 0.0000 34.5482 0.0000
# 6 0.0000 0.0000 0.0000 0.0000 0.0000 38.6037
#
#
#
# Elastic Compliance Matrix: (Units=1/GPa)
#
#
# Indices 1 2 3 4 5 6 
#
# 1 0.013571 -0.005954 -0.001845 0.000000 0.000000 0.000000
# 2 -0.005954 0.012677 -0.002971 0.000000 0.000000 0.000000
# 3 -0.001845 -0.002971 0.010408 0.000000 0.000000 0.000000
# 4 0.000000 0.000000 0.000000 0.049018 0.000000 0.000000
# 5 0.000000 0.000000 0.000000 0.000000 0.028945 0.000000
# 6 0.000000 0.000000 0.000000 0.000000 0.000000 0.025904
#
#
# Mechanical properties :
#
#
# Convention : Reuss Voigt Hill
#
# Bulk Modulus (GPa) = 66.15458 66.77528 66.46493
# Shear Modulus (GPa) = 29.92185 31.98978 30.95581
#
# Velocity S-wave (km/s) = 3.73406 3.86093 3.79803
# Velocity P-wave (km/s) = 7.02980 7.14088 7.08556
#
# Compressibility (1/GPa) = 0.01511611
#
# Stress axis : x y z
#
# Youngs Moduli (GPa) = 73.68488 78.88591 96.07793
#
# Poissons Ratio (x) = 0.46969 0.17730
# Poissons Ratio (y) = 0.43872 0.28540
# Poissons Ratio (z) = 0.13598 0.23433
#
# Static dielectric constant tensor:
#      x y z
#    x 3.832570 0.000000 0.000000 
#    y 0.000000 4.080710 0.000000 
#    z 0.000000 0.000000 3.923250 
# 
# 
# High freq. dielectric constant tensor:
#      x y z
#    x 1.843560 0.000000 0.000000 
#    y 0.000000 1.847080 0.000000 
#    z 0.000000 0.000000 1.848030 
# 
# From -- ./inp_files/11719.got.cif
#   From: 2010.03.12/outbox.cif.g09.slc.cpg/sg56_6_cif.got.tgz:11719.got - 2010.04.16 15:33:40.
