data_PCOD8229982
_publ_section_title
;
Structure prediction by ZEFSAII (Michael W. Deem and Ramdas Pophale) SiO2 
 PCOD8229982
Probable space group: P B C M
;
_chemical_formula_sum "Si O2"
_cell_formula_units_Z 64
_cell_length_a 12.355719
_cell_length_b 29.411791
_cell_length_c 8.818662
_cell_angle_alpha 90.000000
_cell_angle_beta 90.000000
_cell_angle_gamma 90.000000
_cell_volume 3204.735501
_symmetry_space_group_name_H-M "P B C M"
_symmetry_group_IT_number 57
_symmetry_cell_setting 'orthorhombic'
loop_
_space_group_symop_operation_xyz
x,y,z
-x,-y,1/2+z
x,1/2-y,-z
-x,1/2+y,1/2-z
-x,-y,-z
x,y,1/2-z
-x,1/2+y,z
x,1/2-y,1/2+z
loop_
_atom_site_type_symbol
_atom_site_label
_atom_site_fract_x
_atom_site_fract_y
_atom_site_fract_z
Si Si1 0.661787 0.362184 0.573998
Si Si2 0.005497 0.931331 0.927460
Si Si3 0.212913 0.449543 0.072484
Si Si4 0.035068 0.338460 0.076705
Si Si5 0.150595 0.706438 0.426011
Si Si6 0.242316 0.952620 0.571115
Si Si7 0.470735 0.200242 0.070367
Si Si8 0.278650 0.148730 0.923513
O O1 0.634193 0.365653 0.750000
O O2 0.775359 0.337336 0.545455
O O3 0.676471 0.413581 0.504537
O O4 0.563457 0.333366 0.501181
O O5 0.997054 0.940088 0.750000
O O6 0.120819 0.947653 0.993940
O O7 0.906687 0.957759 0.006140
O O8 0.994247 0.878446 0.962146
O O9 0.195604 0.442822 0.250000
O O10 0.282184 0.495549 0.034975
O O11 0.271515 0.403631 0.013057
O O12 0.006040 0.351247 0.250000
O O13 0.162092 0.327059 0.064643
O O14 0.962703 0.296912 0.017419
O O15 0.210733 0.750000 0.500000
O O16 0.128488 0.714537 0.250000
O O17 0.236224 0.944001 0.750000
O O18 0.480689 0.205708 0.250000
O O19 0.483142 0.250000 0.000000
O O20 0.356681 0.177753 0.029311
O O21 0.320724 0.149254 0.750000
#
# Coordination Sequence:
#
# PCOD8229982 Si02
#       8
#     8   8   8   8   8   8   8   8
#     4   9  19  36  57  83 112 143 184 229 278 332
#     4  10  17  28  50  78 113 152 186 226 266 317
#     4   9  18  32  53  80 113 153 190 227 270 325
#     4  10  20  35  54  79 111 147 184 224 275 333
#     4  11  21  35  55  80 112 145 179 224 280 342
#     4   9  16  30  53  80 112 151 189 222 271 329
#     4  11  23  40  64  85 105 139 185 237 285 337
#     4   9  20  38  57  80 113 146 184 231 276 326
#
# _framework density 19.970447
#
# number of rings (size 3 to 8) (size 9 to 14) (size 15 to 20)
#    0.000    2.250    1.250    3.000    0.000    3.000 
#    0.000    3.125    0.000    0.000    0.000    0.000 
#    0.000    0.000    0.000    0.000    0.000    0.000 
#
# Total GULP energy -793105.663603 kJ/mol
# GULP energy per Si atom -12392.275994 kJ/mol
# Density = 1.992499 g / cm^3
# Si number density = 19.970447 Si / 1000 Ang^3
#
#
#
# Elastic Constant Matrix: (Units=GPa)
#
#
# Indices 1 2 3 4 5 6 
#
# 1 75.8698 30.7853 23.9222 0.0000 0.0000 0.0000
# 2 30.7853 85.1727 15.8956 0.0000 0.0000 0.0000
# 3 23.9222 15.8956 42.3111 0.0000 0.0000 0.0000
# 4 0.0000 0.0000 0.0000 21.5321 0.0000 0.0000
# 5 0.0000 0.0000 0.0000 0.0000 19.1216 0.0000
# 6 0.0000 0.0000 0.0000 0.0000 0.0000 21.8229
#
#
#
# Elastic Compliance Matrix: (Units=1/GPa)
#
#
# Indices 1 2 3 4 5 6 
#
# 1 0.017748 -0.004885 -0.008199 0.000000 0.000000 0.000000
# 2 -0.004885 0.013970 -0.002487 0.000000 0.000000 0.000000
# 3 -0.008199 -0.002487 0.029204 0.000000 0.000000 0.000000
# 4 0.000000 0.000000 0.000000 0.046442 0.000000 0.000000
# 5 0.000000 0.000000 0.000000 0.000000 0.052297 0.000000
# 6 0.000000 0.000000 0.000000 0.000000 0.000000 0.045823
#
#
# Mechanical properties :
#
#
# Convention : Reuss Voigt Hill
#
# Bulk Modulus (GPa) = 33.57809 38.28443 35.93126
# Shear Modulus (GPa) = 20.27954 21.34536 20.81245
#
# Velocity S-wave (km/s) = 3.19011 3.27287 3.23176
# Velocity P-wave (km/s) = 5.51539 5.78743 5.65305
#
# Compressibility (1/GPa) = 0.02978132
#
# Stress axis : x y z
#
# Youngs Moduli (GPa) = 56.34502 71.57952 34.24131
#
# Poissons Ratio (x) = 0.34964 0.28076
# Poissons Ratio (y) = 0.27523 0.08515
# Poissons Ratio (z) = 0.46199 0.17800
#
# Static dielectric constant tensor:
#      x y z
#    x 3.529120 0.000000 0.000000 
#    y 0.000000 3.968900 0.000000 
#    z 0.000000 0.000000 3.373740 
# 
# 
# High freq. dielectric constant tensor:
#      x y z
#    x 1.756270 0.000000 0.000000 
#    y 0.000000 1.794450 0.000000 
#    z 0.000000 0.000000 1.752960 
# 
# From -- ./inp_files/3855.got.cif
#   From: 2010.03.12/outbox.cif.g09.slc.cpg/sg57_2_cif.got.tgz:3855.got - 2010.04.16 15:48:40.
