data_PCOD8229393
_publ_section_title
;
Structure prediction by ZEFSAII (Michael W. Deem and Ramdas Pophale) SiO2 
 PCOD8229393
Probable space group: P C C N
;
_chemical_formula_sum "Si O2"
_cell_formula_units_Z 64
_cell_length_a 11.827715
_cell_length_b 14.481907
_cell_length_c 16.319591
_cell_angle_alpha 90.000000
_cell_angle_beta 90.000000
_cell_angle_gamma 90.000000
_cell_volume 2795.347960
_symmetry_space_group_name_H-M "P C C N"
_symmetry_group_IT_number 56
_symmetry_cell_setting 'orthorhombic'
loop_
_space_group_symop_operation_xyz
x,y,z
1/2-x,1/2-y,z
1/2+x,-y,1/2-z
-x,1/2+y,1/2-z
-x,-y,-z
1/2+x,1/2+y,-z
1/2-x,y,1/2+z
x,1/2-y,1/2+z
loop_
_atom_site_type_symbol
_atom_site_label
_atom_site_fract_x
_atom_site_fract_y
_atom_site_fract_z
Si Si1 0.360903 0.202836 0.780398
Si Si2 0.452799 0.754707 0.098736
Si Si3 0.437299 0.141728 0.166736
Si Si4 0.643817 0.376725 0.777200
Si Si5 0.004730 0.397994 0.535822
Si Si6 0.726903 0.355372 0.115182
Si Si7 0.303675 0.436215 0.155907
Si Si8 0.926922 0.408686 0.019823
O O1 0.250000 0.250000 0.816764
O O2 0.442306 0.198440 0.856421
O O3 0.401095 0.259232 0.700135
O O4 0.337620 0.100872 0.746190
O O5 0.368257 0.715111 0.167497
O O6 0.496190 0.675574 0.037342
O O7 0.396353 0.843849 0.056942
O O8 0.524238 0.097751 0.233047
O O9 0.330391 0.077618 0.145332
O O10 0.502023 0.156639 0.081475
O O11 0.744316 0.363106 0.711640
O O12 0.673093 0.455342 0.842631
O O13 0.902717 0.382996 0.600816
O O14 0.000000 0.500000 0.500000
O O15 0.124291 0.387903 0.583487
O O16 0.750000 0.250000 0.085499
O O17 0.805767 0.427596 0.063321
O O18 0.000000 0.500000 0.000000
#
# Coordination Sequence:
#
# PCOD8229393 Si02
#       8
#     8   8   8   8   8   8   8   8
#     4   9  21  39  65  94 132 181 225 288 353 421
#     4  11  23  44  66 102 140 175 246 294 358 440
#     4   9  22  44  62  95 141 175 239 288 361 430
#     4  10  24  44  70 104 135 188 247 294 360 440
#     4  12  26  44  70 104 148 188 237 304 374 437
#     4  11  26  50  69  99 149 193 236 299 370 436
#     4  11  23  41  70 100 138 187 234 302 359 435
#     4  11  25  44  72  99 141 188 239 302 360 437
#
# _framework density 22.895182999999999
#
# number of rings (size 3 to 8) (size 9 to 14) (size 15 to 20)
#    0.000    1.500    2.500    0.750   10.500    2.000 
#    4.500    0.000    0.000    0.000    0.000    0.000 
#    0.000    0.000    0.000    0.000    0.000    0.000 
#
# Total GULP energy -793379.308969 kJ/mol
# GULP energy per Si atom -12396.551703 kJ/mol
# Density = 2.284307 g / cm^3
# Si number density = 22.895183 Si / 1000 Ang^3
#
#
#
# Elastic Constant Matrix: (Units=GPa)
#
#
# Indices 1 2 3 4 5 6 
#
# 1 103.7410 6.0956 33.2147 0.0000 0.0000 0.0000
# 2 6.0956 68.8585 13.6655 0.0000 0.0000 0.0000
# 3 33.2147 13.6655 101.5352 0.0000 0.0000 0.0000
# 4 0.0000 0.0000 0.0000 5.2866 0.0000 0.0000
# 5 0.0000 0.0000 0.0000 0.0000 23.8729 0.0000
# 6 0.0000 0.0000 0.0000 0.0000 0.0000 31.2603
#
#
#
# Elastic Compliance Matrix: (Units=1/GPa)
#
#
# Indices 1 2 3 4 5 6 
#
# 1 0.010772 -0.000261 -0.003489 0.000000 0.000000 0.000000
# 2 -0.000261 0.014927 -0.001924 0.000000 0.000000 0.000000
# 3 -0.003489 -0.001924 0.011249 0.000000 0.000000 0.000000
# 4 0.000000 0.000000 0.000000 0.189157 0.000000 0.000000
# 5 0.000000 0.000000 0.000000 0.000000 0.041888 0.000000
# 6 0.000000 0.000000 0.000000 0.000000 0.000000 0.031989
#
#
# Mechanical properties :
#
#
# Convention : Reuss Voigt Hill
#
# Bulk Modulus (GPa) = 39.06060 42.23181 40.64620
# Shear Modulus (GPa) = 15.63169 26.82790 21.22980
#
# Velocity S-wave (km/s) = 2.61578 3.42683 3.04840
# Velocity P-wave (km/s) = 5.12062 5.84323 5.49382
#
# Compressibility (1/GPa) = 0.02560124
#
# Stress axis : x y z
#
# Youngs Moduli (GPa) = 92.83622 66.99087 88.89774
#
# Poissons Ratio (x) = 0.01750 0.31012
# Poissons Ratio (y) = 0.02425 0.17100
# Poissons Ratio (z) = 0.32386 0.12886
#
# Static dielectric constant tensor:
#      x y z
#    x 3.637130 0.000000 0.000000 
#    y 0.000000 3.936330 0.000000 
#    z 0.000000 0.000000 4.119650 
# 
# 
# High freq. dielectric constant tensor:
#      x y z
#    x 1.908110 0.000000 0.000000 
#    y 0.000000 1.894450 0.000000 
#    z 0.000000 0.000000 1.908250 
# 
# From -- ./inp_files/15828.got.cif
#   From: 2010.03.12/outbox.cif.g09.slc.cpg/sg56_8_cif.got.tgz:15828.got - 2010.04.16 15:33:40.
