data_PCOD8229097
_publ_section_title
;
Structure prediction by ZEFSAII (Michael W. Deem and Ramdas Pophale) SiO2 
 PCOD8229097
Probable space group: P C C N
;
_chemical_formula_sum "Si O2"
_cell_formula_units_Z 64
_cell_length_a 17.207950
_cell_length_b 12.834358
_cell_length_c 13.684928
_cell_angle_alpha 90.000000
_cell_angle_beta 90.000000
_cell_angle_gamma 90.000000
_cell_volume 3022.357277
_symmetry_space_group_name_H-M "P C C N"
_symmetry_group_IT_number 56
_symmetry_cell_setting 'orthorhombic'
loop_
_space_group_symop_operation_xyz
x,y,z
1/2-x,1/2-y,z
1/2+x,-y,1/2-z
-x,1/2+y,1/2-z
-x,-y,-z
1/2+x,1/2+y,-z
1/2-x,y,1/2+z
x,1/2-y,1/2+z
loop_
_atom_site_type_symbol
_atom_site_label
_atom_site_fract_x
_atom_site_fract_y
_atom_site_fract_z
Si Si1 0.316916 0.185524 0.235918
Si Si2 0.578823 0.583380 0.102507
Si Si3 0.248105 0.977547 0.657034
Si Si4 0.930364 0.315889 0.131265
Si Si5 0.076347 0.318904 0.608050
Si Si6 0.573233 0.033282 0.303982
Si Si7 0.715177 0.145393 0.019653
Si Si8 0.659832 0.380784 0.177105
O O1 0.250000 0.250000 0.292495
O O2 0.381024 0.154259 0.314940
O O3 0.351835 0.253056 0.147841
O O4 0.268157 0.095255 0.183794
O O5 0.485302 0.587397 0.117667
O O6 0.607888 0.465041 0.118149
O O7 0.598701 0.623886 0.993951
O O8 0.336920 0.943618 0.675078
O O9 0.230453 0.956763 0.544009
O O10 0.183946 0.911103 0.714542
O O11 0.947551 0.417923 0.197825
O O12 0.885888 0.226449 0.191660
O O13 0.008736 0.265033 0.090238
O O14 0.877106 0.347518 0.039139
O O15 0.056869 0.408522 0.689073
O O16 0.750000 0.250000 0.967955
O O17 0.758833 0.132185 0.121909
#
# Coordination Sequence:
#
# PCOD8229097 Si02
#       8
#     8   8   8   8   8   8   8   8
#     4  11  25  49  68 102 137 182 230 289 349 406
#     4  11  25  43  72  98 133 182 232 282 337 417
#     4  11  24  41  69  95 136 174 231 280 347 411
#     4  11  24  42  66  96 143 173 221 286 346 400
#     4  12  25  46  69 103 135 182 237 278 341 423
#     4  12  23  42  68  99 135 183 227 283 341 406
#     4  10  23  39  63 100 131 174 218 276 347 411
#     4  10  22  42  62  97 133 168 223 282 330 405
#
# _framework density 21.175523999999999
#
# number of rings (size 3 to 8) (size 9 to 14) (size 15 to 20)
#    0.000    1.000    5.000    1.125    5.250    0.500 
#    4.500    0.625    0.000    0.000    0.000    0.000 
#    0.000    0.000    0.000    0.000    0.000    0.000 
#
# Total GULP energy -793277.008105 kJ/mol
# GULP energy per Si atom -12394.953252 kJ/mol
# Density = 2.112733 g / cm^3
# Si number density = 21.175524 Si / 1000 Ang^3
#
#
#
# Elastic Constant Matrix: (Units=GPa)
#
#
# Indices 1 2 3 4 5 6 
#
# 1 111.4669 32.5551 23.6722 0.0000 0.0000 0.0000
# 2 32.5551 86.6851 38.4679 0.0000 0.0000 0.0000
# 3 23.6722 38.4679 65.8032 0.0000 0.0000 0.0000
# 4 0.0000 0.0000 0.0000 19.6918 0.0000 0.0000
# 5 0.0000 0.0000 0.0000 0.0000 19.9957 0.0000
# 6 0.0000 0.0000 0.0000 0.0000 0.0000 35.9340
#
#
#
# Elastic Compliance Matrix: (Units=1/GPa)
#
#
# Indices 1 2 3 4 5 6 
#
# 1 0.010257 -0.002990 -0.001942 0.000000 0.000000 0.000000
# 2 -0.002990 0.016449 -0.008540 0.000000 0.000000 0.000000
# 3 -0.001942 -0.008540 0.020888 0.000000 0.000000 0.000000
# 4 0.000000 0.000000 0.000000 0.050783 0.000000 0.000000
# 5 0.000000 0.000000 0.000000 0.000000 0.050011 0.000000
# 6 0.000000 0.000000 0.000000 0.000000 0.000000 0.027829
#
#
# Mechanical properties :
#
#
# Convention : Reuss Voigt Hill
#
# Bulk Modulus (GPa) = 48.42784 50.37172 49.39978
# Shear Modulus (GPa) = 23.80462 26.40830 25.10646
#
# Velocity S-wave (km/s) = 3.35648 3.53528 3.44704
# Velocity P-wave (km/s) = 6.15960 6.36425 6.26276
#
# Compressibility (1/GPa) = 0.02064928
#
# Stress axis : x y z
#
# Youngs Moduli (GPa) = 97.49429 60.79445 47.87483
#
# Poissons Ratio (x) = 0.18180 0.09296
# Poissons Ratio (y) = 0.29155 0.40885
# Poissons Ratio (z) = 0.18931 0.51919
#
# Static dielectric constant tensor:
#      x y z
#    x 3.989750 0.000000 0.000000 
#    y 0.000000 4.021860 0.000000 
#    z 0.000000 0.000000 3.479370 
# 
# 
# High freq. dielectric constant tensor:
#      x y z
#    x 1.848120 0.000000 0.000000 
#    y 0.000000 1.835640 0.000000 
#    z 0.000000 0.000000 1.803070 
# 
# From -- ./inp_files/12877.got.cif
#   From: 2010.03.12/outbox.cif.g09.slc.cpg/sg56_7_cif.got.tgz:12877.got - 2010.04.16 15:33:40.
