data_PCOD8229902
_publ_section_title
;
Structure prediction by ZEFSAII (Michael W. Deem and Ramdas Pophale) SiO2 
 PCOD8229902
Probable space group: P B C M
;
_chemical_formula_sum "Si O2"
_cell_formula_units_Z 40
_cell_length_a 10.162362
_cell_length_b 9.503691
_cell_length_c 26.023631
_cell_angle_alpha 90.000000
_cell_angle_beta 90.000000
_cell_angle_gamma 90.000000
_cell_volume 2513.360936
_symmetry_space_group_name_H-M "P B C M"
_symmetry_group_IT_number 57
_symmetry_cell_setting 'orthorhombic'
loop_
_space_group_symop_operation_xyz
x,y,z
-x,-y,1/2+z
x,1/2-y,-z
-x,1/2+y,1/2-z
-x,-y,-z
x,y,1/2-z
-x,1/2+y,z
x,1/2-y,1/2+z
loop_
_atom_site_type_symbol
_atom_site_label
_atom_site_fract_x
_atom_site_fract_y
_atom_site_fract_z
Si Si1 0.595875 0.986860 0.190752
Si Si2 0.144725 0.965009 0.864736
Si Si3 0.907565 0.711601 0.132478
Si Si4 0.957054 0.125491 0.035628
Si Si5 0.649840 0.667473 0.309688
O O1 0.622122 0.020642 0.250000
O O2 0.714084 0.061094 0.160143
O O3 0.458187 0.053634 0.173128
O O4 0.589694 0.821329 0.179661
O O5 0.156950 0.930474 0.925837
O O6 0.035271 0.859851 0.840001
O O7 0.093772 0.123304 0.855478
O O8 0.776600 0.639709 0.155006
O O9 0.919742 0.680746 0.070939
O O10 0.901404 0.250000 0.000000
O O11 0.000000 0.000000 0.000000
O O12 0.689555 0.651134 0.250000
#
# Coordination Sequence:
#
# PCOD8229902 Si02
#       5
#     8   8   8   8   8
#     4   9  18  33  50  69  98 130 157 190 233 281
#     4   9  18  30  48  74  95 123 157 197 234 277
#     4   9  18  30  48  74  95 124 156 198 233 279
#     4  10  16  30  49  70  93 123 155 194 243 282
#     4   9  18  33  50  69  98 131 158 188 233 283
#
# _framework density 15.914944999999999
#
# number of rings (size 3 to 8) (size 9 to 14) (size 15 to 20)
#    1.200    1.600    2.000    0.000    0.000    2.400 
#    0.000    0.000    0.000    2.400    0.000    0.000 
#    0.000    0.000    0.000    0.000    0.000    0.000 
#
# Total GULP energy -495641.039794 kJ/mol
# GULP energy per Si atom -12391.025995 kJ/mol
# Density = 1.587872 g / cm^3
# Si number density = 15.914945 Si / 1000 Ang^3
#
#
#
# Elastic Constant Matrix: (Units=GPa)
#
#
# Indices 1 2 3 4 5 6 
#
# 1 61.6330 12.2807 29.6182 0.0000 0.0000 0.0000
# 2 12.2807 45.8229 9.8212 0.0000 0.0000 0.0000
# 3 29.6182 9.8212 52.0916 0.0000 0.0000 0.0000
# 4 0.0000 0.0000 0.0000 23.9195 0.0000 0.0000
# 5 0.0000 0.0000 0.0000 0.0000 11.7850 0.0000
# 6 0.0000 0.0000 0.0000 0.0000 0.0000 29.8982
#
#
#
# Elastic Compliance Matrix: (Units=1/GPa)
#
#
# Indices 1 2 3 4 5 6 
#
# 1 0.022845 -0.003479 -0.012333 0.000000 0.000000 0.000000
# 2 -0.003479 0.023272 -0.002409 0.000000 0.000000 0.000000
# 3 -0.012333 -0.002409 0.026664 0.000000 0.000000 0.000000
# 4 0.000000 0.000000 0.000000 0.041807 0.000000 0.000000
# 5 0.000000 0.000000 0.000000 0.000000 0.084854 0.000000
# 6 0.000000 0.000000 0.000000 0.000000 0.000000 0.033447
#
#
# Mechanical properties :
#
#
# Convention : Reuss Voigt Hill
#
# Bulk Modulus (GPa) = 27.52020 29.22086 28.37053
# Shear Modulus (GPa) = 17.76547 20.30902 19.03725
#
# Velocity S-wave (km/s) = 3.34470 3.57613 3.46235
# Velocity P-wave (km/s) = 5.67852 5.95416 5.81797
#
# Compressibility (1/GPa) = 0.03633694
#
# Stress axis : x y z
#
# Youngs Moduli (GPa) = 43.77283 42.97015 37.50417
#
# Poissons Ratio (x) = 0.14950 0.46255
# Poissons Ratio (y) = 0.15229 0.09036
# Poissons Ratio (z) = 0.53987 0.10353
#
# Static dielectric constant tensor:
#      x y z
#    x 2.871670 0.000000 0.000000 
#    y 0.000000 2.679260 0.000000 
#    z 0.000000 0.000000 2.408790 
# 
# 
# High freq. dielectric constant tensor:
#      x y z
#    x 1.588410 0.000000 0.000000 
#    y 0.000000 1.621940 0.000000 
#    z 0.000000 0.000000 1.599760 
# 
# From -- ./inp_files/24867.got.cif
#   From: 2010.03.12/outbox.cif.g09.slc.cpg/sg57_13_cif.got.tgz:24867.got - 2010.04.16 15:48:40.
