data_PCOD8229794
_publ_section_title
;
Structure prediction by ZEFSAII (Michael W. Deem and Ramdas Pophale) SiO2 
 PCOD8229794
Probable space group: P C C N
;
_chemical_formula_sum "Si O2"
_cell_formula_units_Z 28
_cell_length_a 7.713700
_cell_length_b 11.758789
_cell_length_c 13.255727
_cell_angle_alpha 90.000000
_cell_angle_beta 90.000000
_cell_angle_gamma 90.000000
_cell_volume 1202.344422
_symmetry_space_group_name_H-M "P C C N"
_symmetry_group_IT_number 56
_symmetry_cell_setting 'orthorhombic'
loop_
_space_group_symop_operation_xyz
x,y,z
1/2-x,1/2-y,z
1/2+x,-y,1/2-z
-x,1/2+y,1/2-z
-x,-y,-z
1/2+x,1/2+y,-z
1/2-x,y,1/2+z
x,1/2-y,1/2+z
loop_
_atom_site_type_symbol
_atom_site_label
_atom_site_fract_x
_atom_site_fract_y
_atom_site_fract_z
Si Si1 0.250000 0.750000 0.171515
Si Si2 0.602376 0.656772 0.584140
Si Si3 0.711609 0.621405 0.364761
Si Si4 0.405114 0.530982 0.253279
O O1 0.414825 0.784390 0.101947
O O2 0.287416 0.644016 0.245238
O O3 0.750000 0.750000 0.599021
O O4 0.612948 0.608235 0.469957
O O5 0.645228 0.550174 0.653642
O O6 0.750000 0.750000 0.337917
O O7 0.600155 0.571819 0.271172
O O8 0.885427 0.543413 0.351487
#
# Coordination Sequence:
#
# PCOD8229794 Si02
#       4
#     4   8   8   8
#     4  12  26  42  78 110 142 206 240 298 384 434
#     4  11  26  51  73 110 152 190 253 309 368 444
#     4  11  26  48  74 107 148 191 246 313 368 441
#     4  12  23  46  75 104 146 192 243 304 366 441
#
# _framework density 23.287835999999999
#
# number of rings (size 3 to 8) (size 9 to 14) (size 15 to 20)
#    0.000    0.571    2.857    5.143    0.000    1.143 
#    5.143    4.286    0.000    0.000    0.000    0.000 
#    0.000    0.000    0.000    0.000    0.000    0.000 
#
# Total GULP energy -346916.103979 kJ/mol
# GULP energy per Si atom -12389.860856 kJ/mol
# Density = 2.323483 g / cm^3
# Si number density = 23.287836 Si / 1000 Ang^3
#
#
#
# Elastic Constant Matrix: (Units=GPa)
#
#
# Indices 1 2 3 4 5 6 
#
# 1 125.9439 47.9370 88.3948 0.0000 0.0000 0.0000
# 2 47.9370 170.9746 83.1317 0.0000 0.0000 0.0000
# 3 88.3948 83.1317 126.5686 0.0000 0.0000 0.0000
# 4 0.0000 0.0000 0.0000 7.6770 0.0000 0.0000
# 5 0.0000 0.0000 0.0000 0.0000 35.7823 0.0000
# 6 0.0000 0.0000 0.0000 0.0000 0.0000 45.3841
#
#
#
# Elastic Compliance Matrix: (Units=1/GPa)
#
#
# Indices 1 2 3 4 5 6 
#
# 1 0.015791 0.001373 -0.011930 0.000000 0.000000 0.000000
# 2 0.001373 0.008713 -0.006682 0.000000 0.000000 0.000000
# 3 -0.011930 -0.006682 0.020621 0.000000 0.000000 0.000000
# 4 0.000000 0.000000 0.000000 0.130260 0.000000 0.000000
# 5 0.000000 0.000000 0.000000 0.000000 0.027947 0.000000
# 6 0.000000 0.000000 0.000000 0.000000 0.000000 0.022034
#
#
# Mechanical properties :
#
#
# Convention : Reuss Voigt Hill
#
# Bulk Modulus (GPa) = 93.91685 95.82380 94.87032
# Shear Modulus (GPa) = 18.98318 31.37026 25.17672
#
# Velocity S-wave (km/s) = 2.85819 3.67422 3.29159
# Velocity P-wave (km/s) = 7.16300 7.69654 7.43456
#
# Compressibility (1/GPa) = 0.01064772
#
# Stress axis : x y z
#
# Youngs Moduli (GPa) = 63.32910 114.77729 48.49344
#
# Poissons Ratio (x) = -0.15764 0.57853
# Poissons Ratio (y) = -0.08698 0.32402
# Poissons Ratio (z) = 0.75552 0.76690
#
# Static dielectric constant tensor:
#      x y z
#    x 4.406600 0.000000 0.000000 
#    y 0.000000 4.733260 0.000000 
#    z 0.000000 0.000000 4.274450 
# 
# 
# High freq. dielectric constant tensor:
#      x y z
#    x 1.926650 0.000000 0.000000 
#    y 0.000000 1.956740 0.000000 
#    z 0.000000 0.000000 1.903190 
# 
# From -- ./inp_files/9978.got.cif
#   From: 2010.03.12/outbox.cif.g09.slc.cpg/sg56_5_cif.got.tgz:9978.got - 2010.04.16 15:33:40.
