data_PCOD8229864
_publ_section_title
;
Structure prediction by ZEFSAII (Michael W. Deem and Ramdas Pophale) SiO2 
 PCOD8229864
Probable space group: P C C N
;
_chemical_formula_sum "Si O2"
_cell_formula_units_Z 24
_cell_length_a 7.073759
_cell_length_b 13.054874
_cell_length_c 9.449007
_cell_angle_alpha 90.000000
_cell_angle_beta 90.000000
_cell_angle_gamma 90.000000
_cell_volume 872.587756
_symmetry_space_group_name_H-M "P C C N"
_symmetry_group_IT_number 56
_symmetry_cell_setting 'orthorhombic'
loop_
_space_group_symop_operation_xyz
x,y,z
1/2-x,1/2-y,z
1/2+x,-y,1/2-z
-x,1/2+y,1/2-z
-x,-y,-z
1/2+x,1/2+y,-z
1/2-x,y,1/2+z
x,1/2-y,1/2+z
loop_
_atom_site_type_symbol
_atom_site_label
_atom_site_fract_x
_atom_site_fract_y
_atom_site_fract_z
Si Si1 0.791601 0.362392 0.347075
Si Si2 0.861119 0.646737 0.465845
Si Si3 0.899242 0.545133 0.172853
O O1 0.750000 0.250000 0.282582
O O2 0.902626 0.427699 0.227139
O O3 0.602545 0.424630 0.392368
O O4 0.921207 0.346710 0.485515
O O5 0.750000 0.750000 0.500146
O O6 0.855143 0.622730 0.300901
O O7 0.761931 0.555676 0.554298
#
# Coordination Sequence:
#
# PCOD8229864 Si02
#       3
#     8   8   8
#     4  12  27  49  79 119 151 211 258 321 392 458
#     4  12  27  51  77 114 158 205 260 321 387 464
#     4  12  28  50  77 114 161 202 262 323 385 461
#
# _framework density 27.504397999999998
#
# number of rings (size 3 to 8) (size 9 to 14) (size 15 to 20)
#    0.000    0.000    6.667    2.000    0.000    5.333 
#    0.000    0.000    0.000    0.000    0.000    0.000 
#    0.000    0.000    0.000    0.000    0.000    0.000 
#
# Total GULP energy -297818.899405 kJ/mol
# GULP energy per Si atom -12409.120809 kJ/mol
# Density = 2.744180 g / cm^3
# Si number density = 27.504398 Si / 1000 Ang^3
#
#
#
# Elastic Constant Matrix: (Units=GPa)
#
#
# Indices 1 2 3 4 5 6 
#
# 1 175.3217 29.1196 34.5308 0.0000 0.0000 0.0000
# 2 29.1196 146.0040 -15.0098 0.0000 0.0000 0.0000
# 3 34.5308 -15.0098 98.5704 0.0000 0.0000 0.0000
# 4 0.0000 0.0000 0.0000 7.4124 0.0000 0.0000
# 5 0.0000 0.0000 0.0000 0.0000 36.4267 0.0000
# 6 0.0000 0.0000 0.0000 0.0000 0.0000 57.9138
#
#
#
# Elastic Compliance Matrix: (Units=1/GPa)
#
#
# Indices 1 2 3 4 5 6 
#
# 1 0.006452 -0.001543 -0.002495 0.000000 0.000000 0.000000
# 2 -0.001543 0.007327 0.001656 0.000000 0.000000 0.000000
# 3 -0.002495 0.001656 0.011271 0.000000 0.000000 0.000000
# 4 0.000000 0.000000 0.000000 0.134908 0.000000 0.000000
# 5 0.000000 0.000000 0.000000 0.000000 0.027452 0.000000
# 6 0.000000 0.000000 0.000000 0.000000 0.000000 0.017267
#
#
# Mechanical properties :
#
#
# Convention : Reuss Voigt Hill
#
# Bulk Modulus (GPa) = 49.29463 57.46416 53.37939
# Shear Modulus (GPa) = 23.12634 45.10094 34.11364
#
# Velocity S-wave (km/s) = 2.90284 4.05380 3.52561
# Velocity P-wave (km/s) = 5.40339 6.54593 6.00191
#
# Compressibility (1/GPa) = 0.02028619
#
# Stress axis : x y z
#
# Youngs Moduli (GPa) = 155.00172 136.47790 88.72073
#
# Poissons Ratio (x) = 0.21062 0.22136
# Poissons Ratio (y) = 0.23920 -0.14695
# Poissons Ratio (z) = 0.38674 -0.22606
#
# Static dielectric constant tensor:
#      x y z
#    x 5.364770 0.000000 0.000000 
#    y 0.000000 5.248520 0.000000 
#    z 0.000000 0.000000 4.611190 
# 
# 
# High freq. dielectric constant tensor:
#      x y z
#    x 2.124500 0.000000 0.000000 
#    y 0.000000 2.120930 0.000000 
#    z 0.000000 0.000000 2.100940 
# 
# From -- ./inp_files/1789.got.cif
#   From: 2010.03.12/outbox.cif.g09.slc.cpg/sg56_1_cif.got.tgz:1789.got - 2010.04.16 15:33:40.
