data_PCOD8229241
_publ_section_title
;
Structure prediction by ZEFSAII (Michael W. Deem and Ramdas Pophale) SiO2 
 PCOD8229241
Probable space group: P C C N
;
_chemical_formula_sum "Si O2"
_cell_formula_units_Z 60
_cell_length_a 15.029310
_cell_length_b 12.679499
_cell_length_c 13.942220
_cell_angle_alpha 90.000000
_cell_angle_beta 90.000000
_cell_angle_gamma 90.000000
_cell_volume 2656.886901
_symmetry_space_group_name_H-M "P C C N"
_symmetry_group_IT_number 56
_symmetry_cell_setting 'orthorhombic'
loop_
_space_group_symop_operation_xyz
x,y,z
1/2-x,1/2-y,z
1/2+x,-y,1/2-z
-x,1/2+y,1/2-z
-x,-y,-z
1/2+x,1/2+y,-z
1/2-x,y,1/2+z
x,1/2-y,1/2+z
loop_
_atom_site_type_symbol
_atom_site_label
_atom_site_fract_x
_atom_site_fract_y
_atom_site_fract_z
Si Si1 0.343577 0.620492 0.718765
Si Si2 0.541282 0.965080 0.898531
Si Si3 0.068914 0.285631 0.362246
Si Si4 0.532814 0.270320 0.684062
Si Si5 0.316577 0.346584 0.497144
Si Si6 0.750000 0.250000 0.926492
Si Si7 0.320476 0.481607 0.895850
Si Si8 0.421920 0.846004 0.496325
O O1 0.428233 0.562480 0.668367
O O2 0.376831 0.732049 0.763505
O O3 0.270296 0.647157 0.638732
O O4 0.298449 0.555598 0.805135
O O5 0.467234 0.895175 0.842108
O O6 0.628519 0.889758 0.911900
O O7 0.500000 0.000000 0.000000
O O8 0.108740 0.188824 0.421188
O O9 0.141817 0.375259 0.351846
O O10 0.048189 0.244837 0.256032
O O11 0.979755 0.338294 0.407647
O O12 0.517409 0.201554 0.588499
O O13 0.250000 0.250000 0.525230
O O14 0.267137 0.449487 0.454563
O O15 0.833290 0.224813 0.993994
O O16 0.391718 0.535410 0.968814
#
# Coordination Sequence:
#
# PCOD8229241 Si02
#       8
#     8   8   8   8   8   4   8   8
#     4  11  24  41  64 102 136 177 228 281 345 416
#     4  12  23  43  71 101 135 181 238 278 348 419
#     4  11  20  45  68  98 132 181 227 286 338 411
#     4  11  23  42  69 100 133 178 231 292 333 411
#     4  10  23  44  68  99 141 182 229 294 344 406
#     4  12  24  42  66  92 140 172 222 280 340 406
#     4  10  23  41  65  99 140 171 231 276 350 408
#     4  11  23  42  68  97 134 182 218 284 343 409
#
# _framework density 22.582820999999999
#
# number of rings (size 3 to 8) (size 9 to 14) (size 15 to 20)
#    0.000    1.067    4.000    2.800    0.000    3.200 
#    2.400    1.333    0.000    0.000    0.000    0.000 
#    0.000    0.000    0.000    0.000    0.000    0.000 
#
# Total GULP energy -743893.272759 kJ/mol
# GULP energy per Si atom -12398.221213 kJ/mol
# Density = 2.253142 g / cm^3
# Si number density = 22.582821 Si / 1000 Ang^3
#
#
#
# Elastic Constant Matrix: (Units=GPa)
#
#
# Indices 1 2 3 4 5 6 
#
# 1 65.4430 27.4275 27.9258 0.0000 0.0000 0.0000
# 2 27.4275 94.6903 37.6790 0.0000 0.0000 0.0000
# 3 27.9258 37.6790 96.3245 0.0000 0.0000 0.0000
# 4 0.0000 0.0000 0.0000 40.2485 0.0000 0.0000
# 5 0.0000 0.0000 0.0000 0.0000 25.7736 0.0000
# 6 0.0000 0.0000 0.0000 0.0000 0.0000 45.2443
#
#
#
# Elastic Compliance Matrix: (Units=1/GPa)
#
#
# Indices 1 2 3 4 5 6 
#
# 1 0.018539 -0.003827 -0.003878 0.000000 0.000000 0.000000
# 2 -0.003827 0.013298 -0.004092 0.000000 0.000000 0.000000
# 3 -0.003878 -0.004092 0.013106 0.000000 0.000000 0.000000
# 4 0.000000 0.000000 0.000000 0.024846 0.000000 0.000000
# 5 0.000000 0.000000 0.000000 0.000000 0.038799 0.000000
# 6 0.000000 0.000000 0.000000 0.000000 0.000000 0.022102
#
#
# Mechanical properties :
#
#
# Convention : Reuss Voigt Hill
#
# Bulk Modulus (GPa) = 46.83936 49.16917 48.00427
# Shear Modulus (GPa) = 30.97885 33.14831 32.06358
#
# Velocity S-wave (km/s) = 3.70778 3.83542 3.77214
# Velocity P-wave (km/s) = 6.25431 6.43692 6.34627
#
# Compressibility (1/GPa) = 0.02134956
#
# Stress axis : x y z
#
# Youngs Moduli (GPa) = 53.94019 75.20182 76.29812
#
# Poissons Ratio (x) = 0.28779 0.29587
# Poissons Ratio (y) = 0.20642 0.31222
# Poissons Ratio (z) = 0.20917 0.30773
#
# Static dielectric constant tensor:
#      x y z
#    x 3.975230 0.000000 0.000000 
#    y 0.000000 4.204870 0.000000 
#    z 0.000000 0.000000 4.128020 
# 
# 
# High freq. dielectric constant tensor:
#      x y z
#    x 1.876240 0.000000 0.000000 
#    y 0.000000 1.892660 0.000000 
#    z 0.000000 0.000000 1.894410 
# 
# From -- ./inp_files/12417.got.cif
#   From: 2010.03.12/outbox.cif.g09.slc.cpg/sg56_7_cif.got.tgz:12417.got - 2010.04.16 15:33:40.
