data_PCOD8229782
_publ_section_title
;
Structure prediction by ZEFSAII (Michael W. Deem and Ramdas Pophale) SiO2 
 PCOD8229782
Probable space group: P C C N
;
_chemical_formula_sum "Si O2"
_cell_formula_units_Z 48
_cell_length_a 8.647290
_cell_length_b 14.770385
_cell_length_c 16.707609
_cell_angle_alpha 90.000000
_cell_angle_beta 90.000000
_cell_angle_gamma 90.000000
_cell_volume 2133.959352
_symmetry_space_group_name_H-M "P C C N"
_symmetry_group_IT_number 56
_symmetry_cell_setting 'orthorhombic'
loop_
_space_group_symop_operation_xyz
x,y,z
1/2-x,1/2-y,z
1/2+x,-y,1/2-z
-x,1/2+y,1/2-z
-x,-y,-z
1/2+x,1/2+y,-z
1/2-x,y,1/2+z
x,1/2-y,1/2+z
loop_
_atom_site_type_symbol
_atom_site_label
_atom_site_fract_x
_atom_site_fract_y
_atom_site_fract_z
Si Si1 0.613762 0.089795 0.820715
Si Si2 0.610687 0.416147 0.502764
Si Si3 0.574729 0.736252 0.236247
Si Si4 0.073654 0.246989 0.575814
Si Si5 0.564487 0.060763 0.569376
Si Si6 0.052006 0.955313 0.221450
O O1 0.669456 0.098270 0.912045
O O2 0.537505 0.184533 0.794286
O O3 0.766387 0.064791 0.770065
O O4 0.498035 0.004650 0.804668
O O5 0.500000 0.500000 0.500000
O O6 0.515661 0.329282 0.528232
O O7 0.749697 0.436198 0.564273
O O8 0.750000 0.750000 0.207311
O O9 0.561994 0.727642 0.330790
O O10 0.528737 0.639339 0.200764
O O11 0.250000 0.250000 0.546555
O O12 0.994321 0.339506 0.552309
O O13 0.500000 0.000000 0.500000
O O14 0.497617 0.027549 0.653867
#
# Coordination Sequence:
#
# PCOD8229782 Si02
#       6
#     8   8   8   8   8   8
#     4  12  27  47  72 111 142 191 246 298 365 442
#     4  12  28  45  75 107 146 186 247 298 367 434
#     4  11  26  46  73 105 145 193 245 302 368 437
#     4  11  26  49  73 106 149 193 242 302 371 436
#     4  12  26  48  73 105 145 196 237 303 364 433
#     4  12  27  46  76 103 149 187 247 302 363 441
#
# _framework density 22.493399
#
# number of rings (size 3 to 8) (size 9 to 14) (size 15 to 20)
#    0.000    0.333    3.333    4.000   11.667    3.333 
#    0.000    0.000    0.000    0.000    0.000    0.000 
#    0.000    0.000    0.000    0.000    0.000    0.000 
#
# Total GULP energy -595392.186380 kJ/mol
# GULP energy per Si atom -12404.003883 kJ/mol
# Density = 2.244220 g / cm^3
# Si number density = 22.493399 Si / 1000 Ang^3
#
#
#
# Elastic Constant Matrix: (Units=GPa)
#
#
# Indices 1 2 3 4 5 6 
#
# 1 143.5364 65.4366 24.7170 0.0000 0.0000 0.0000
# 2 65.4366 188.6179 14.1663 0.0000 0.0000 0.0000
# 3 24.7170 14.1663 53.9915 0.0000 0.0000 0.0000
# 4 0.0000 0.0000 0.0000 37.7965 0.0000 0.0000
# 5 0.0000 0.0000 0.0000 0.0000 34.7022 0.0000
# 6 0.0000 0.0000 0.0000 0.0000 0.0000 48.9098
#
#
#
# Elastic Compliance Matrix: (Units=1/GPa)
#
#
# Indices 1 2 3 4 5 6 
#
# 1 0.008816 -0.002811 -0.003299 0.000000 0.000000 0.000000
# 2 -0.002811 0.006304 -0.000367 0.000000 0.000000 0.000000
# 3 -0.003299 -0.000367 0.020128 0.000000 0.000000 0.000000
# 4 0.000000 0.000000 0.000000 0.026457 0.000000 0.000000
# 5 0.000000 0.000000 0.000000 0.000000 0.028817 0.000000
# 6 0.000000 0.000000 0.000000 0.000000 0.000000 0.020446
#
#
# Mechanical properties :
#
#
# Convention : Reuss Voigt Hill
#
# Bulk Modulus (GPa) = 44.85289 66.08729 55.47009
# Shear Modulus (GPa) = 38.06511 43.07009 40.56760
#
# Velocity S-wave (km/s) = 4.11819 4.38058 4.25141
# Velocity P-wave (km/s) = 6.52660 7.41825 6.98666
#
# Compressibility (1/GPa) = 0.02229511
#
# Stress axis : x y z
#
# Youngs Moduli (GPa) = 113.42582 158.61727 49.68232
#
# Poissons Ratio (x) = 0.44585 0.16388
# Poissons Ratio (y) = 0.31883 0.01825
# Poissons Ratio (z) = 0.37414 0.05827
#
# Static dielectric constant tensor:
#      x y z
#    x 4.392420 0.000000 0.000000 
#    y 0.000000 4.187970 0.000000 
#    z 0.000000 0.000000 4.548650 
# 
# 
# High freq. dielectric constant tensor:
#      x y z
#    x 1.902210 0.000000 0.000000 
#    y 0.000000 1.909240 0.000000 
#    z 0.000000 0.000000 1.887160 
# 
# From -- ./inp_files/14825.got.cif
#   From: 2010.03.12/outbox.cif.g09.slc.cpg/sg56_8_cif.got.tgz:14825.got - 2010.04.16 15:33:40.
