data_PCOD8229679
_publ_section_title
;
Structure prediction by ZEFSAII (Michael W. Deem and Ramdas Pophale) SiO2 
 PCOD8229679
Probable space group: P C C N
;
_chemical_formula_sum "Si O2"
_cell_formula_units_Z 36
_cell_length_a 12.954912
_cell_length_b 6.491113
_cell_length_c 20.172856
_cell_angle_alpha 90.000000
_cell_angle_beta 90.000000
_cell_angle_gamma 90.000000
_cell_volume 1696.371726
_symmetry_space_group_name_H-M "P C C N"
_symmetry_group_IT_number 56
_symmetry_cell_setting 'orthorhombic'
loop_
_space_group_symop_operation_xyz
x,y,z
1/2-x,1/2-y,z
1/2+x,-y,1/2-z
-x,1/2+y,1/2-z
-x,-y,-z
1/2+x,1/2+y,-z
1/2-x,y,1/2+z
x,1/2-y,1/2+z
loop_
_atom_site_type_symbol
_atom_site_label
_atom_site_fract_x
_atom_site_fract_y
_atom_site_fract_z
Si Si1 0.478210 0.376806 0.831799
Si Si2 0.750000 0.750000 0.010815
Si Si3 0.460396 0.346454 0.054881
Si Si4 0.613263 0.008997 0.098282
Si Si5 0.639677 0.222727 0.726193
O O1 0.539521 0.551499 0.872426
O O2 0.549485 0.283679 0.775447
O O3 0.380353 0.487503 0.796759
O O4 0.441947 0.204506 0.882980
O O5 0.784432 0.553051 0.055974
O O6 0.656828 0.702659 0.961715
O O7 0.532798 0.143341 0.055177
O O8 0.500000 0.500000 0.000000
O O9 0.648255 0.126748 0.163454
O O10 0.750000 0.250000 0.762749
#
# Coordination Sequence:
#
# PCOD8229679 Si02
#       5
#     8   4   8   8   8
#     4  11  23  46  66  97 138 169 222 286 328 395
#     4  12  24  44  70  96 134 186 222 272 336 406
#     4  11  26  44  65 100 137 174 222 278 332 398
#     4  11  24  45  69  98 134 176 227 278 332 400
#     4  11  24  42  69  99 129 178 222 274 341 398
#
# _framework density 21.221762999999999
#
# number of rings (size 3 to 8) (size 9 to 14) (size 15 to 20)
#    0.000    0.889    4.444    2.000    3.111    1.778 
#    0.000    0.000    0.000    0.000    0.000    0.000 
#    0.000    0.000    0.000    0.000    0.000    0.000 
#
# Total GULP energy -446414.568402 kJ/mol
# GULP energy per Si atom -12400.404678 kJ/mol
# Density = 2.117346 g / cm^3
# Si number density = 21.221763 Si / 1000 Ang^3
#
#
#
# Elastic Constant Matrix: (Units=GPa)
#
#
# Indices 1 2 3 4 5 6 
#
# 1 117.9093 41.4866 20.1510 0.0000 0.0000 0.0000
# 2 41.4866 120.9703 30.0699 0.0000 0.0000 0.0000
# 3 20.1510 30.0699 58.7886 0.0000 0.0000 0.0000
# 4 0.0000 0.0000 0.0000 43.5392 0.0000 0.0000
# 5 0.0000 0.0000 0.0000 0.0000 28.5212 0.0000
# 6 0.0000 0.0000 0.0000 0.0000 0.0000 29.5402
#
#
#
# Elastic Compliance Matrix: (Units=1/GPa)
#
#
# Indices 1 2 3 4 5 6 
#
# 1 0.009824 -0.002901 -0.001884 0.000000 0.000000 0.000000
# 2 -0.002901 0.010327 -0.004288 0.000000 0.000000 0.000000
# 3 -0.001884 -0.004288 0.019849 0.000000 0.000000 0.000000
# 4 0.000000 0.000000 0.000000 0.022968 0.000000 0.000000
# 5 0.000000 0.000000 0.000000 0.000000 0.035062 0.000000
# 6 0.000000 0.000000 0.000000 0.000000 0.000000 0.033852
#
#
# Mechanical properties :
#
#
# Convention : Reuss Voigt Hill
#
# Bulk Modulus (GPa) = 45.75564 53.45369 49.60467
# Shear Modulus (GPa) = 31.78413 34.05081 32.91747
#
# Velocity S-wave (km/s) = 3.87423 4.01000 3.94270
# Velocity P-wave (km/s) = 6.45139 6.83249 6.64467
#
# Compressibility (1/GPa) = 0.02185523
#
# Stress axis : x y z
#
# Youngs Moduli (GPa) = 101.79512 96.83175 50.38042
#
# Poissons Ratio (x) = 0.28089 0.09489
# Poissons Ratio (y) = 0.29529 0.21603
# Poissons Ratio (z) = 0.19173 0.41521
#
# Static dielectric constant tensor:
#      x y z
#    x 3.620980 0.000000 0.000000 
#    y 0.000000 3.903470 0.000000 
#    z 0.000000 0.000000 3.917850 
# 
# 
# High freq. dielectric constant tensor:
#      x y z
#    x 1.831960 0.000000 0.000000 
#    y 0.000000 1.845280 0.000000 
#    z 0.000000 0.000000 1.837110 
# 
# From -- ./inp_files/19852.got.cif
#   From: 2010.03.12/outbox.cif.g09.slc.cpg/sg56_10_cif.got.tgz:19852.got - 2010.04.16 15:33:40.
