data_PCOD8229707
_publ_section_title
;
Structure prediction by ZEFSAII (Michael W. Deem and Ramdas Pophale) SiO2 
 PCOD8229707
Probable space group: P C C N
;
_chemical_formula_sum "Si O2"
_cell_formula_units_Z 48
_cell_length_a 16.269791
_cell_length_b 14.245999
_cell_length_c 9.214254
_cell_angle_alpha 90.000000
_cell_angle_beta 90.000000
_cell_angle_gamma 90.000000
_cell_volume 2135.674506
_symmetry_space_group_name_H-M "P C C N"
_symmetry_group_IT_number 56
_symmetry_cell_setting 'orthorhombic'
loop_
_space_group_symop_operation_xyz
x,y,z
1/2-x,1/2-y,z
1/2+x,-y,1/2-z
-x,1/2+y,1/2-z
-x,-y,-z
1/2+x,1/2+y,-z
1/2-x,y,1/2+z
x,1/2-y,1/2+z
loop_
_atom_site_type_symbol
_atom_site_label
_atom_site_fract_x
_atom_site_fract_y
_atom_site_fract_z
Si Si1 0.570111 0.426646 0.023104
Si Si2 0.953927 0.800568 0.145473
Si Si3 0.773763 0.980537 0.877290
Si Si4 0.602882 0.448742 0.359012
Si Si5 0.476491 0.144320 0.049873
Si Si6 0.774696 0.644455 0.629966
O O1 0.530950 0.332576 0.954649
O O2 0.647123 0.461186 0.926525
O O3 0.500000 0.500000 0.000000
O O4 0.588466 0.415646 0.193389
O O5 0.987881 0.788939 0.309092
O O6 0.873621 0.868496 0.152308
O O7 0.924089 0.701411 0.073113
O O8 0.775871 0.936008 0.716695
O O9 0.699458 0.053903 0.890004
O O10 0.756755 0.884100 0.965592
O O11 0.567262 0.551256 0.393716
O O12 0.563250 0.376631 0.472813
O O13 0.750000 0.750000 0.669191
#
# Coordination Sequence:
#
# PCOD8229707 Si02
#       6
#     8   8   8   8   8   8
#     4  12  23  45  68  95 141 182 230 278 345 410
#     4  12  25  46  66 106 135 189 228 285 347 416
#     4  12  23  43  66  99 135 178 233 278 342 415
#     4  11  24  46  66 105 133 186 230 281 345 414
#     4  11  24  42  72  95 143 178 231 279 347 407
#     4  12  26  40  64 101 143 175 224 284 349 410
#
# _framework density 22.475334
#
# number of rings (size 3 to 8) (size 9 to 14) (size 15 to 20)
#    0.000    0.333    6.667    2.500    4.667    1.333 
#    0.000    0.833    0.000    4.000    0.000    0.000 
#    0.000    0.000    0.000    0.000    0.000    0.000 
#
# Total GULP energy -594819.115997 kJ/mol
# GULP energy per Si atom -12392.064917 kJ/mol
# Density = 2.242418 g / cm^3
# Si number density = 22.475334 Si / 1000 Ang^3
#
#
#
# Elastic Constant Matrix: (Units=GPa)
#
#
# Indices 1 2 3 4 5 6 
#
# 1 117.6319 3.0677 54.9832 0.0000 0.0000 0.0000
# 2 3.0677 36.1625 37.7523 0.0000 0.0000 0.0000
# 3 54.9832 37.7523 123.8660 0.0000 0.0000 0.0000
# 4 0.0000 0.0000 0.0000 47.7423 0.0000 0.0000
# 5 0.0000 0.0000 0.0000 0.0000 37.5425 0.0000
# 6 0.0000 0.0000 0.0000 0.0000 0.0000 26.1932
#
#
#
# Elastic Compliance Matrix: (Units=1/GPa)
#
#
# Indices 1 2 3 4 5 6 
#
# 1 0.011679 0.006485 -0.007161 0.000000 0.000000 0.000000
# 2 0.006485 0.044158 -0.016337 0.000000 0.000000 0.000000
# 3 -0.007161 -0.016337 0.016231 0.000000 0.000000 0.000000
# 4 0.000000 0.000000 0.000000 0.020946 0.000000 0.000000
# 5 0.000000 0.000000 0.000000 0.000000 0.026636 0.000000
# 6 0.000000 0.000000 0.000000 0.000000 0.000000 0.038178
#
#
# Mechanical properties :
#
#
# Convention : Reuss Voigt Hill
#
# Bulk Modulus (GPa) = 26.28667 52.14075 39.21371
# Shear Modulus (GPa) = 24.44561 34.41941 29.43251
#
# Velocity S-wave (km/s) = 3.30155 3.91759 3.62269
# Velocity P-wave (km/s) = 5.12395 6.61157 5.91471
#
# Compressibility (1/GPa) = 0.03804210
#
# Stress axis : x y z
#
# Youngs Moduli (GPa) = 85.62377 22.64577 61.61000
#
# Poissons Ratio (x) = -0.14685 0.44117
# Poissons Ratio (y) = -0.55525 1.00654
# Poissons Ratio (z) = 0.61312 0.36997
#
# Static dielectric constant tensor:
#      x y z
#    x 3.546230 0.000000 0.000000 
#    y 0.000000 5.696770 0.000000 
#    z 0.000000 0.000000 2.497120 
# 
# 
# High freq. dielectric constant tensor:
#      x y z
#    x 1.878960 0.000000 0.000000 
#    y 0.000000 1.867510 0.000000 
#    z 0.000000 0.000000 1.908600 
# 
# From -- ./inp_files/3990.got.cif
#   From: 2010.03.12/outbox.cif.g09.slc.cpg/sg56_2_cif.got.tgz:3990.got - 2010.04.16 15:33:40.
