data_PCOD8229129
_publ_section_title
;
Structure prediction by ZEFSAII (Michael W. Deem and Ramdas Pophale) SiO2 
 PCOD8229129
Probable space group: P C C N
;
_chemical_formula_sum "Si O2"
_cell_formula_units_Z 48
_cell_length_a 8.872678
_cell_length_b 13.220789
_cell_length_c 17.504709
_cell_angle_alpha 90.000000
_cell_angle_beta 90.000000
_cell_angle_gamma 90.000000
_cell_volume 2053.368948
_symmetry_space_group_name_H-M "P C C N"
_symmetry_group_IT_number 56
_symmetry_cell_setting 'orthorhombic'
loop_
_space_group_symop_operation_xyz
x,y,z
1/2-x,1/2-y,z
1/2+x,-y,1/2-z
-x,1/2+y,1/2-z
-x,-y,-z
1/2+x,1/2+y,-z
1/2-x,y,1/2+z
x,1/2-y,1/2+z
loop_
_atom_site_type_symbol
_atom_site_label
_atom_site_fract_x
_atom_site_fract_y
_atom_site_fract_z
Si Si1 0.497332 0.833170 0.406895
Si Si2 0.496980 0.897653 0.767198
Si Si3 0.750000 0.250000 0.690189
Si Si4 0.941474 0.472514 0.914857
Si Si5 0.912503 0.461899 0.387244
Si Si6 0.071465 0.747368 0.058413
Si Si7 0.750000 0.750000 0.801760
O O1 0.342091 0.826480 0.362092
O O2 0.501544 0.751030 0.474233
O O3 0.639807 0.815093 0.353837
O O4 0.503919 0.949893 0.435643
O O5 0.360718 0.817118 0.758343
O O6 0.460578 0.980244 0.701963
O O7 0.652460 0.833622 0.754693
O O8 0.491122 0.953242 0.850156
O O9 0.761895 0.474116 0.907914
O O10 0.988143 0.354392 0.899921
O O11 0.000000 0.500000 0.000000
O O12 0.980649 0.350364 0.400776
O O13 0.250000 0.750000 0.050149
#
# Coordination Sequence:
#
# PCOD8229129 Si02
#       7
#     8   8   4   8   8   8   4
#     4  11  21  43  68 102 140 189 243 293 368 433
#     4  11  25  45  73 110 146 196 241 302 373 447
#     4  10  24  38  74  98 146 192 236 296 370 434
#     4  11  24  47  75 103 146 197 250 305 370 448
#     4  11  26  42  73 105 148 188 244 311 369 452
#     4  10  23  43  70 101 141 183 244 306 367 430
#     4  10  22  42  70  98 148 184 242 294 362 442
#
# _framework density 23.376217
#
# number of rings (size 3 to 8) (size 9 to 14) (size 15 to 20)
#    0.000    1.333    2.500    2.500    8.167    1.333 
#    0.000    0.833    0.000    0.000    0.000    0.000 
#    0.000    0.000    0.000    0.000    0.000    0.000 
#
# Total GULP energy -594680.247142 kJ/mol
# GULP energy per Si atom -12389.171815 kJ/mol
# Density = 2.332301 g / cm^3
# Si number density = 23.376217 Si / 1000 Ang^3
#
#
#
# Elastic Constant Matrix: (Units=GPa)
#
#
# Indices 1 2 3 4 5 6 
#
# 1 96.3297 26.3727 10.0834 0.0000 0.0000 0.0000
# 2 26.3727 135.5424 -0.8873 0.0000 0.0000 0.0000
# 3 10.0834 -0.8873 41.6792 0.0000 0.0000 0.0000
# 4 0.0000 0.0000 0.0000 41.1204 0.0000 0.0000
# 5 0.0000 0.0000 0.0000 0.0000 44.5641 0.0000
# 6 0.0000 0.0000 0.0000 0.0000 0.0000 36.6441
#
#
#
# Elastic Compliance Matrix: (Units=1/GPa)
#
#
# Indices 1 2 3 4 5 6 
#
# 1 0.011277 -0.002212 -0.002775 0.000000 0.000000 0.000000
# 2 -0.002212 0.007813 0.000702 0.000000 0.000000 0.000000
# 3 -0.002775 0.000702 0.024679 0.000000 0.000000 0.000000
# 4 0.000000 0.000000 0.000000 0.024319 0.000000 0.000000
# 5 0.000000 0.000000 0.000000 0.000000 0.022440 0.000000
# 6 0.000000 0.000000 0.000000 0.000000 0.000000 0.027290
#
#
# Mechanical properties :
#
#
# Convention : Reuss Voigt Hill
#
# Bulk Modulus (GPa) = 28.41171 38.29877 33.35524
# Shear Modulus (GPa) = 36.19993 40.33122 38.26557
#
# Velocity S-wave (km/s) = 3.93947 4.15819 4.05031
# Velocity P-wave (km/s) = 5.73350 6.28278 6.01441
#
# Compressibility (1/GPa) = 0.03519676
#
# Stress axis : x y z
#
# Youngs Moduli (GPa) = 88.67423 127.99463 40.52006
#
# Poissons Ratio (x) = 0.28317 0.11246
# Poissons Ratio (y) = 0.19618 -0.02843
# Poissons Ratio (z) = 0.24611 -0.08980
#
# Static dielectric constant tensor:
#      x y z
#    x 2.400010 0.000000 0.000000 
#    y 0.000000 7.261500 0.000000 
#    z 0.000000 0.000000 4.222280 
# 
# 
# High freq. dielectric constant tensor:
#      x y z
#    x 1.912830 0.000000 0.000000 
#    y 0.000000 1.949690 0.000000 
#    z 0.000000 0.000000 1.913290 
# 
# From -- ./inp_files/14897.got.cif
#   From: 2010.03.12/outbox.cif.g09.slc.cpg/sg56_8_cif.got.tgz:14897.got - 2010.04.16 15:33:40.
