data_PCOD8229733
_publ_section_title
;
Structure prediction by ZEFSAII (Michael W. Deem and Ramdas Pophale) SiO2 
 PCOD8229733
Probable space group: P C C N
;
_chemical_formula_sum "Si O2"
_cell_formula_units_Z 48
_cell_length_a 17.565695
_cell_length_b 9.342486
_cell_length_c 13.145805
_cell_angle_alpha 90.000000
_cell_angle_beta 90.000000
_cell_angle_gamma 90.000000
_cell_volume 2157.322034
_symmetry_space_group_name_H-M "P C C N"
_symmetry_group_IT_number 56
_symmetry_cell_setting 'orthorhombic'
loop_
_space_group_symop_operation_xyz
x,y,z
1/2-x,1/2-y,z
1/2+x,-y,1/2-z
-x,1/2+y,1/2-z
-x,-y,-z
1/2+x,1/2+y,-z
1/2-x,y,1/2+z
x,1/2-y,1/2+z
loop_
_atom_site_type_symbol
_atom_site_label
_atom_site_fract_x
_atom_site_fract_y
_atom_site_fract_z
Si Si1 0.102696 0.417513 0.939252
Si Si2 0.638036 0.365742 0.130025
Si Si3 0.619892 0.823049 0.719811
Si Si4 0.748216 0.466466 0.963847
Si Si5 0.250000 0.750000 0.213348
Si Si6 0.499970 0.669989 0.383420
Si Si7 0.750000 0.750000 0.370464
O O1 0.135732 0.306100 0.857796
O O2 0.041018 0.516318 0.883465
O O3 0.168882 0.520171 0.983493
O O4 0.064031 0.326622 0.029246
O O5 0.623330 0.526093 0.164938
O O6 0.674822 0.263834 0.216455
O O7 0.558541 0.298069 0.095085
O O8 0.693977 0.371218 0.033822
O O9 0.537894 0.806610 0.773265
O O10 0.684683 0.821624 0.804478
O O11 0.748632 0.391679 0.854292
O O12 0.716206 0.626424 0.943999
#
# Coordination Sequence:
#
# PCOD8229733 Si02
#       7
#     8   8   8   8   4   8   4
#     4  11  24  47  71 100 145 189 233 297 356 428
#     4  12  26  44  71 108 136 188 236 292 356 427
#     4  12  25  45  68 102 141 184 240 287 357 425
#     4  12  25  46  73 102 140 183 240 294 354 419
#     4  12  24  46  70 104 140 178 236 294 354 428
#     4  11  25  45  69 102 142 187 232 290 365 421
#     4  12  24  46  70 100 134 188 236 296 344 418
#
# _framework density 22.249808999999999
#
# number of rings (size 3 to 8) (size 9 to 14) (size 15 to 20)
#    0.000    0.333    3.333    5.500    2.333    4.667 
#    0.000    0.000    0.000    0.000    0.000    0.000 
#    0.000    0.000    0.000    0.000    0.000    0.000 
#
# Total GULP energy -595472.324236 kJ/mol
# GULP energy per Si atom -12405.673422 kJ/mol
# Density = 2.219917 g / cm^3
# Si number density = 22.249809 Si / 1000 Ang^3
#
#
#
# Elastic Constant Matrix: (Units=GPa)
#
#
# Indices 1 2 3 4 5 6 
#
# 1 93.6087 7.1025 25.4011 0.0000 0.0000 0.0000
# 2 7.1025 69.4349 16.3472 0.0000 0.0000 0.0000
# 3 25.4011 16.3472 84.8760 0.0000 0.0000 0.0000
# 4 0.0000 0.0000 0.0000 50.9401 0.0000 0.0000
# 5 0.0000 0.0000 0.0000 0.0000 31.7464 0.0000
# 6 0.0000 0.0000 0.0000 0.0000 0.0000 48.8662
#
#
#
# Elastic Compliance Matrix: (Units=1/GPa)
#
#
# Indices 1 2 3 4 5 6 
#
# 1 0.011637 -0.000388 -0.003408 0.000000 0.000000 0.000000
# 2 -0.000388 0.015099 -0.002792 0.000000 0.000000 0.000000
# 3 -0.003408 -0.002792 0.013340 0.000000 0.000000 0.000000
# 4 0.000000 0.000000 0.000000 0.019631 0.000000 0.000000
# 5 0.000000 0.000000 0.000000 0.000000 0.031500 0.000000
# 6 0.000000 0.000000 0.000000 0.000000 0.000000 0.020464
#
#
# Mechanical properties :
#
#
# Convention : Reuss Voigt Hill
#
# Bulk Modulus (GPa) = 37.17513 38.40238 37.78875
# Shear Modulus (GPa) = 37.36576 39.58178 38.47377
#
# Velocity S-wave (km/s) = 4.10246 4.22236 4.16284
# Velocity P-wave (km/s) = 6.25976 6.40845 6.33454
#
# Compressibility (1/GPa) = 0.02689971
#
# Stress axis : x y z
#
# Youngs Moduli (GPa) = 85.93316 66.22963 74.96521
#
# Poissons Ratio (x) = 0.02570 0.25547
# Poissons Ratio (y) = 0.03334 0.20930
# Poissons Ratio (z) = 0.29285 0.18491
#
# Static dielectric constant tensor:
#      x y z
#    x 4.114030 0.000000 0.000000 
#    y 0.000000 4.005270 0.000000 
#    z 0.000000 0.000000 4.142520 
# 
# 
# High freq. dielectric constant tensor:
#      x y z
#    x 1.874800 0.000000 0.000000 
#    y 0.000000 1.891250 0.000000 
#    z 0.000000 0.000000 1.885850 
# 
# From -- ./inp_files/12727.got.cif
#   From: 2010.03.12/outbox.cif.g09.slc.cpg/sg56_7_cif.got.tgz:12727.got - 2010.04.16 15:33:40.
