data_PCOD8229564
_publ_section_title
;
Structure prediction by ZEFSAII (Michael W. Deem and Ramdas Pophale) SiO2 
 PCOD8229564
Probable space group: P C C N
;
_chemical_formula_sum "Si O2"
_cell_formula_units_Z 60
_cell_length_a 11.438205
_cell_length_b 11.891999
_cell_length_c 20.613007
_cell_angle_alpha 90.000000
_cell_angle_beta 90.000000
_cell_angle_gamma 90.000000
_cell_volume 2803.845575
_symmetry_space_group_name_H-M "P C C N"
_symmetry_group_IT_number 56
_symmetry_cell_setting 'orthorhombic'
loop_
_space_group_symop_operation_xyz
x,y,z
1/2-x,1/2-y,z
1/2+x,-y,1/2-z
-x,1/2+y,1/2-z
-x,-y,-z
1/2+x,1/2+y,-z
1/2-x,y,1/2+z
x,1/2-y,1/2+z
loop_
_atom_site_type_symbol
_atom_site_label
_atom_site_fract_x
_atom_site_fract_y
_atom_site_fract_z
Si Si1 0.396870 0.062190 0.122834
Si Si2 0.732103 0.578457 0.987489
Si Si3 0.861038 0.329149 0.490241
Si Si4 0.250000 0.250000 0.903070
Si Si5 0.062084 0.124625 0.325305
Si Si6 0.651828 0.532510 0.804858
Si Si7 0.447488 0.194264 0.597844
Si Si8 0.880578 0.209041 0.846136
O O1 0.356717 0.053213 0.047270
O O2 0.285218 0.040362 0.169707
O O3 0.441931 0.187661 0.135547
O O4 0.505785 0.977609 0.132947
O O5 0.666428 0.673299 0.945615
O O6 0.664983 0.461359 0.990766
O O7 0.738413 0.632989 0.057956
O O8 0.750000 0.250000 0.500178
O O9 0.924624 0.302777 0.421436
O O10 0.940487 0.306599 0.552206
O O11 0.363292 0.220682 0.861344
O O12 0.142541 0.076162 0.268413
O O13 0.950623 0.198877 0.304170
O O14 0.555289 0.599141 0.846932
O O15 0.609583 0.405022 0.806187
O O16 0.750000 0.250000 0.851932
#
# Coordination Sequence:
#
# PCOD8229564 Si02
#       8
#     8   8   8   4   8   8   8   8
#     4  11  23  48  72  96 138 196 234 283 372 429
#     4  11  21  44  68 102 140 181 231 291 360 431
#     4  11  23  40  68 104 141 177 233 295 360 430
#     4  12  28  42  68 112 146 174 240 310 352 412
#     4  12  29  44  73 106 143 188 241 305 347 433
#     4  11  25  46  70  97 138 192 240 283 350 437
#     4  11  23  41  70  99 135 186 233 284 357 431
#     4  11  22  48  72 101 135 186 235 287 367 428
#
# _framework density 21.399180999999999
#
# number of rings (size 3 to 8) (size 9 to 14) (size 15 to 20)
#    0.000    0.800    5.333    3.200    7.467    0.533 
#    0.000    0.667    0.000    0.000    0.000    0.000 
#    0.000    0.000    0.000    0.000    0.000    0.000 
#
# Total GULP energy -743585.261672 kJ/mol
# GULP energy per Si atom -12393.087695 kJ/mol
# Density = 2.135048 g / cm^3
# Si number density = 21.399181 Si / 1000 Ang^3
#
#
#
# Elastic Constant Matrix: (Units=GPa)
#
#
# Indices 1 2 3 4 5 6 
#
# 1 73.6620 34.0205 35.0260 0.0000 0.0000 0.0000
# 2 34.0205 141.6169 28.3187 0.0000 0.0000 0.0000
# 3 35.0260 28.3187 83.7216 0.0000 0.0000 0.0000
# 4 0.0000 0.0000 0.0000 23.9805 0.0000 0.0000
# 5 0.0000 0.0000 0.0000 0.0000 23.7324 0.0000
# 6 0.0000 0.0000 0.0000 0.0000 0.0000 32.6074
#
#
#
# Elastic Compliance Matrix: (Units=1/GPa)
#
#
# Indices 1 2 3 4 5 6 
#
# 1 0.018088 -0.003038 -0.006540 0.000000 0.000000 0.000000
# 2 -0.003038 0.008084 -0.001464 0.000000 0.000000 0.000000
# 3 -0.006540 -0.001464 0.015175 0.000000 0.000000 0.000000
# 4 0.000000 0.000000 0.000000 0.041701 0.000000 0.000000
# 5 0.000000 0.000000 0.000000 0.000000 0.042136 0.000000
# 6 0.000000 0.000000 0.000000 0.000000 0.000000 0.030668
#
#
# Mechanical properties :
#
#
# Convention : Reuss Voigt Hill
#
# Bulk Modulus (GPa) = 51.90685 54.85896 53.38291
# Shear Modulus (GPa) = 27.12147 29.50642 28.31394
#
# Velocity S-wave (km/s) = 3.56393 3.71733 3.64143
# Velocity P-wave (km/s) = 6.42219 6.64201 6.53303
#
# Compressibility (1/GPa) = 0.01926528
#
# Stress axis : x y z
#
# Youngs Moduli (GPa) = 55.28493 123.70643 65.89589
#
# Poissons Ratio (x) = 0.37576 0.43096
# Poissons Ratio (y) = 0.16793 0.09644
# Poissons Ratio (z) = 0.36156 0.18104
#
# Static dielectric constant tensor:
#      x y z
#    x 3.754760 0.000000 0.000000 
#    y 0.000000 4.211820 0.000000 
#    z 0.000000 0.000000 3.827960 
# 
# 
# High freq. dielectric constant tensor:
#      x y z
#    x 1.829290 0.000000 0.000000 
#    y 0.000000 1.866150 0.000000 
#    z 0.000000 0.000000 1.819140 
# 
# From -- ./inp_files/18817.got.cif
#   From: 2010.03.12/outbox.cif.g09.slc.cpg/sg56_10_cif.got.tgz:18817.got - 2010.04.16 15:33:40.
