data_PCOD8229890
_publ_section_title
;
Structure prediction by ZEFSAII (Michael W. Deem and Ramdas Pophale) SiO2 
 PCOD8229890
Probable space group: P B C M
;
_chemical_formula_sum "Si O2"
_cell_formula_units_Z 36
_cell_length_a 22.020660
_cell_length_b 5.233834
_cell_length_c 15.699836
_cell_angle_alpha 90.000000
_cell_angle_beta 90.000000
_cell_angle_gamma 90.000000
_cell_volume 1809.445019
_symmetry_space_group_name_H-M "P B C M"
_symmetry_group_IT_number 57
_symmetry_cell_setting 'orthorhombic'
loop_
_space_group_symop_operation_xyz
x,y,z
-x,-y,1/2+z
x,1/2-y,-z
-x,1/2+y,1/2-z
-x,-y,-z
x,y,1/2-z
-x,1/2+y,z
x,1/2-y,1/2+z
loop_
_atom_site_type_symbol
_atom_site_label
_atom_site_fract_x
_atom_site_fract_y
_atom_site_fract_z
Si Si1 0.656957 0.544422 0.844569
Si Si2 0.161566 0.496455 0.554977
Si Si3 0.716092 0.044342 0.648774
Si Si4 0.540548 0.959190 0.250000
Si Si5 0.963309 0.532767 0.350100
O O1 0.686690 0.546181 0.750000
O O2 0.682698 0.292896 0.891912
O O3 0.583340 0.539689 0.834760
O O4 0.680705 0.800075 0.891339
O O5 0.179698 0.250000 0.500000
O O6 0.213659 0.544571 0.624200
O O7 0.100144 0.433293 0.603770
O O8 0.153028 0.750000 0.500000
O O9 0.708535 0.046804 0.750000
O O10 0.500516 0.707599 0.250000
O O11 0.951144 0.539282 0.250000
O O12 0.005675 0.768353 0.378408
#
# Coordination Sequence:
#
# PCOD8229890 Si02
#       5
#     8   8   8   4   8
#     4   8  17  28  48  75 103 148 173 215 263 327
#     4  12  25  37  55  84 112 142 184 233 283 326
#     4  10  18  36  54  72 106 148 185 217 266 331
#     4  10  16  26  46  80 122 142 166 224 284 324
#     4  10  22  41  62  82 107 143 187 225 274 343
#
# _framework density 19.895602
#
# number of rings (size 3 to 8) (size 9 to 14) (size 15 to 20)
#    0.667    1.333    0.000    4.667    0.000    2.667 
#    0.000    8.889    0.000    0.000    0.000    0.000 
#    0.000   62.222    0.000    0.000    0.000    0.000 
#
# Total GULP energy -446235.582149 kJ/mol
# GULP energy per Si atom -12395.432837 kJ/mol
# Density = 1.985032 g / cm^3
# Si number density = 19.895602 Si / 1000 Ang^3
#
#
#
# Elastic Constant Matrix: (Units=GPa)
#
#
# Indices 1 2 3 4 5 6 
#
# 1 120.7985 45.9713 23.6803 0.0000 0.0000 0.0000
# 2 45.9713 173.3009 20.6024 0.0000 0.0000 0.0000
# 3 23.6803 20.6024 13.1145 0.0000 0.0000 0.0000
# 4 0.0000 0.0000 0.0000 7.3470 0.0000 0.0000
# 5 0.0000 0.0000 0.0000 0.0000 6.4800 0.0000
# 6 0.0000 0.0000 0.0000 0.0000 0.0000 46.9386
#
#
#
# Elastic Compliance Matrix: (Units=1/GPa)
#
#
# Indices 1 2 3 4 5 6 
#
# 1 0.012904 -0.000803 -0.022039 0.000000 0.000000 0.000000
# 2 -0.000803 0.007145 -0.009775 0.000000 0.000000 0.000000
# 3 -0.022039 -0.009775 0.131404 0.000000 0.000000 0.000000
# 4 0.000000 0.000000 0.000000 0.136109 0.000000 0.000000
# 5 0.000000 0.000000 0.000000 0.000000 0.154322 0.000000
# 6 0.000000 0.000000 0.000000 0.000000 0.000000 0.021304
#
#
# Mechanical properties :
#
#
# Convention : Reuss Voigt Hill
#
# Bulk Modulus (GPa) = 11.59847 54.19134 32.89491
# Shear Modulus (GPa) = 8.97403 26.61711 17.79557
#
# Velocity S-wave (km/s) = 2.12611 3.66162 2.99398
# Velocity P-wave (km/s) = 3.44521 6.72113 5.34055
#
# Compressibility (1/GPa) = 0.08621829
#
# Stress axis : x y z
#
# Youngs Moduli (GPa) = 77.49405 139.94947 7.61014
#
# Poissons Ratio (x) = 0.11238 0.16772
# Poissons Ratio (y) = 0.06223 0.07439
# Poissons Ratio (z) = 1.70790 1.36805
#
# Static dielectric constant tensor:
#      x y z
#    x 3.516300 0.000000 0.000000 
#    y 0.000000 4.066080 0.000000 
#    z 0.000000 0.000000 3.203020 
# 
# 
# High freq. dielectric constant tensor:
#      x y z
#    x 1.777160 0.000000 0.000000 
#    y 0.000000 1.806440 0.000000 
#    z 0.000000 0.000000 1.732260 
# 
# From -- ./inp_files/19225.got.cif
#   From: 2010.03.12/outbox.cif.g09.slc.cpg/sg57_10_cif.got.tgz:19225.got - 2010.04.16 15:48:40.
