data_PCOD8229386
_publ_section_title
;
Structure prediction by ZEFSAII (Michael W. Deem and Ramdas Pophale) SiO2 
 PCOD8229386
Probable space group: P C C N
;
_chemical_formula_sum "Si O2"
_cell_formula_units_Z 48
_cell_length_a 11.616291
_cell_length_b 21.899639
_cell_length_c 8.542409
_cell_angle_alpha 90.000000
_cell_angle_beta 90.000000
_cell_angle_gamma 90.000000
_cell_volume 2173.125460
_symmetry_space_group_name_H-M "P C C N"
_symmetry_group_IT_number 56
_symmetry_cell_setting 'orthorhombic'
loop_
_space_group_symop_operation_xyz
x,y,z
1/2-x,1/2-y,z
1/2+x,-y,1/2-z
-x,1/2+y,1/2-z
-x,-y,-z
1/2+x,1/2+y,-z
1/2-x,y,1/2+z
x,1/2-y,1/2+z
loop_
_atom_site_type_symbol
_atom_site_label
_atom_site_fract_x
_atom_site_fract_y
_atom_site_fract_z
Si Si1 0.526654 0.829298 0.166179
Si Si2 0.334734 0.587135 0.757488
Si Si3 0.940115 0.794489 0.004822
Si Si4 0.904457 0.395761 0.382235
Si Si5 0.767713 0.618015 0.017786
Si Si6 0.877788 0.951028 0.236574
O O1 0.413676 0.871058 0.144341
O O2 0.547322 0.776898 0.038762
O O3 0.511272 0.798205 0.331962
O O4 0.638070 0.872568 0.154799
O O5 0.205348 0.610490 0.730226
O O6 0.348616 0.517754 0.697777
O O7 0.369046 0.588443 0.939991
O O8 0.809176 0.820119 0.004302
O O9 0.022127 0.833096 0.120965
O O10 0.986149 0.447069 0.302767
O O11 0.687537 0.561856 0.072165
O O12 0.835020 0.600538 0.859230
#
# Coordination Sequence:
#
# PCOD8229386 Si02
#       6
#     8   8   8   8   8   8
#     4  11  25  41  68  97 135 179 230 282 347 410
#     4  11  25  44  68 100 140 187 237 285 352 423
#     4  10  24  44  64  99 135 176 228 291 340 416
#     4  10  25  44  66  98 138 188 235 286 352 415
#     4  11  23  41  68 102 134 182 228 288 362 403
#     4  11  24  42  70 100 146 178 233 294 355 422
#
# _framework density 22.088001999999999
#
# number of rings (size 3 to 8) (size 9 to 14) (size 15 to 20)
#    0.000    1.333    1.667    2.000    9.333    2.667 
#    0.000    3.333    0.000    0.000    0.000    0.000 
#    0.000    0.000    0.000    0.000    0.000    0.000 
#
# Total GULP energy -595123.448597 kJ/mol
# GULP energy per Si atom -12398.405179 kJ/mol
# Density = 2.203773 g / cm^3
# Si number density = 22.088002 Si / 1000 Ang^3
#
#
#
# Elastic Constant Matrix: (Units=GPa)
#
#
# Indices 1 2 3 4 5 6 
#
# 1 175.0561 52.2736 42.0662 0.0000 0.0000 0.0000
# 2 52.2736 93.6435 36.5468 0.0000 0.0000 0.0000
# 3 42.0662 36.5468 62.6355 0.0000 0.0000 0.0000
# 4 0.0000 0.0000 0.0000 33.0403 0.0000 0.0000
# 5 0.0000 0.0000 0.0000 0.0000 42.7811 0.0000
# 6 0.0000 0.0000 0.0000 0.0000 0.0000 24.2369
#
#
#
# Elastic Compliance Matrix: (Units=1/GPa)
#
#
# Indices 1 2 3 4 5 6 
#
# 1 0.007344 -0.002816 -0.003289 0.000000 0.000000 0.000000
# 2 -0.002816 0.014907 -0.006807 0.000000 0.000000 0.000000
# 3 -0.003289 -0.006807 0.022146 0.000000 0.000000 0.000000
# 4 0.000000 0.000000 0.000000 0.030266 0.000000 0.000000
# 5 0.000000 0.000000 0.000000 0.000000 0.023375 0.000000
# 6 0.000000 0.000000 0.000000 0.000000 0.000000 0.041259
#
#
# Mechanical properties :
#
#
# Convention : Reuss Voigt Hill
#
# Bulk Modulus (GPa) = 53.84082 65.90091 59.87086
# Shear Modulus (GPa) = 29.18653 33.37492 31.28072
#
# Velocity S-wave (km/s) = 3.63902 3.89137 3.76731
# Velocity P-wave (km/s) = 6.48730 7.07748 6.78881
#
# Compressibility (1/GPa) = 0.01857327
#
# Stress axis : x y z
#
# Youngs Moduli (GPa) = 136.17261 67.08163 45.15461
#
# Poissons Ratio (x) = 0.18888 0.14852
# Poissons Ratio (y) = 0.38342 0.30737
# Poissons Ratio (z) = 0.44788 0.45663
#
# Static dielectric constant tensor:
#      x y z
#    x 4.070210 0.000000 0.000000 
#    y 0.000000 3.862530 0.000000 
#    z 0.000000 0.000000 3.761080 
# 
# 
# High freq. dielectric constant tensor:
#      x y z
#    x 1.878940 0.000000 0.000000 
#    y 0.000000 1.860980 0.000000 
#    z 0.000000 0.000000 1.865230 
# 
# From -- ./inp_files/2777.got.cif
#   From: 2010.03.12/outbox.cif.g09.slc.cpg/sg56_2_cif.got.tgz:2777.got - 2010.04.16 15:33:40.
