data_PCOD8229176
_publ_section_title
;
Structure prediction by ZEFSAII (Michael W. Deem and Ramdas Pophale) SiO2 
 PCOD8229176
Probable space group: P C C N
;
_chemical_formula_sum "Si O2"
_cell_formula_units_Z 32
_cell_length_a 18.423071
_cell_length_b 4.770956
_cell_length_c 13.751834
_cell_angle_alpha 90.000000
_cell_angle_beta 90.000000
_cell_angle_gamma 90.000000
_cell_volume 1208.726541
_symmetry_space_group_name_H-M "P C C N"
_symmetry_group_IT_number 56
_symmetry_cell_setting 'orthorhombic'
loop_
_space_group_symop_operation_xyz
x,y,z
1/2-x,1/2-y,z
1/2+x,-y,1/2-z
-x,1/2+y,1/2-z
-x,-y,-z
1/2+x,1/2+y,-z
1/2-x,y,1/2+z
x,1/2-y,1/2+z
loop_
_atom_site_type_symbol
_atom_site_label
_atom_site_fract_x
_atom_site_fract_y
_atom_site_fract_z
Si Si1 0.474863 0.415836 0.149088
Si Si2 0.405668 0.175351 0.843608
Si Si3 0.750000 0.750000 0.117486
Si Si4 0.250000 0.750000 0.017050
Si Si5 0.596090 0.095185 0.947487
O O1 0.559747 0.510539 0.147700
O O2 0.444635 0.497742 0.256729
O O3 0.450806 0.097266 0.126212
O O4 0.435795 0.596204 0.065105
O O5 0.319995 0.180291 0.816952
O O6 0.417246 0.000193 0.942364
O O7 0.720041 0.498048 0.050708
O O8 0.182445 0.619825 0.078515
#
# Coordination Sequence:
#
# PCOD8229176 Si02
#       5
#     8   8   4   4   8
#     4  12  26  43  73 106 138 188 242 297 360 433
#     4  11  26  48  70 105 145 186 244 301 362 440
#     4  10  24  44  72  96 142 194 230 298 372 426
#     4  10  22  44  70 104 140 188 244 290 358 444
#     4  11  25  45  72 102 143 187 232 297 363 423
#
# _framework density 26.474145
#
# number of rings (size 3 to 8) (size 9 to 14) (size 15 to 20)
#    0.000    1.000    0.000    6.000    0.000   18.000 
#    0.000    1.250    0.000    0.000    0.000    0.000 
#    0.000    0.000    0.000    0.000    0.000    0.000 
#
# Total GULP energy -396621.958113 kJ/mol
# GULP energy per Si atom -12394.436191 kJ/mol
# Density = 2.641389 g / cm^3
# Si number density = 26.474145 Si / 1000 Ang^3
#
#
#
# Elastic Constant Matrix: (Units=GPa)
#
#
# Indices 1 2 3 4 5 6 
#
# 1 230.4635 22.8105 51.1775 0.0000 0.0000 0.0000
# 2 22.8105 93.8806 19.7318 0.0000 0.0000 0.0000
# 3 51.1775 19.7318 101.4321 0.0000 0.0000 0.0000
# 4 0.0000 0.0000 0.0000 41.9571 0.0000 0.0000
# 5 0.0000 0.0000 0.0000 0.0000 55.6641 0.0000
# 6 0.0000 0.0000 0.0000 0.0000 0.0000 48.3303
#
#
#
# Elastic Compliance Matrix: (Units=1/GPa)
#
#
# Indices 1 2 3 4 5 6 
#
# 1 0.004931 -0.000704 -0.002351 0.000000 0.000000 0.000000
# 2 -0.000704 0.011206 -0.001825 0.000000 0.000000 0.000000
# 3 -0.002351 -0.001825 0.011400 0.000000 0.000000 0.000000
# 4 0.000000 0.000000 0.000000 0.023834 0.000000 0.000000
# 5 0.000000 0.000000 0.000000 0.000000 0.017965 0.000000
# 6 0.000000 0.000000 0.000000 0.000000 0.000000 0.020691
#
#
# Mechanical properties :
#
#
# Convention : Reuss Voigt Hill
#
# Bulk Modulus (GPa) = 56.24990 68.13510 62.19250
# Shear Modulus (GPa) = 47.29826 51.32741 49.31283
#
# Velocity S-wave (km/s) = 4.23138 4.40793 4.32056
# Velocity P-wave (km/s) = 6.72057 7.19019 6.95934
#
# Compressibility (1/GPa) = 0.01777781
#
# Stress axis : x y z
#
# Youngs Moduli (GPa) = 202.80676 89.23467 87.71980
#
# Poissons Ratio (x) = 0.06282 0.20622
# Poissons Ratio (y) = 0.14277 0.16007
# Poissons Ratio (z) = 0.47678 0.16284
#
# Static dielectric constant tensor:
#      x y z
#    x 5.067130 0.000000 0.000000 
#    y 0.000000 4.545390 0.000000 
#    z 0.000000 0.000000 4.596660 
# 
# 
# High freq. dielectric constant tensor:
#      x y z
#    x 2.083630 0.000000 0.000000 
#    y 0.000000 2.075200 0.000000 
#    z 0.000000 0.000000 2.043120 
# 
# From -- ./inp_files/12523.got.cif
#   From: 2010.03.12/outbox.cif.g09.slc.cpg/sg56_7_cif.got.tgz:12523.got - 2010.04.16 15:33:40.
