data_PCOD8229947
_publ_section_title
;
Structure prediction by ZEFSAII (Michael W. Deem and Ramdas Pophale) SiO2 
 PCOD8229947
Probable space group: P B C M
;
_chemical_formula_sum "Si O2"
_cell_formula_units_Z 40
_cell_length_a 9.285072
_cell_length_b 26.029357
_cell_length_c 8.849448
_cell_angle_alpha 90.000000
_cell_angle_beta 90.000000
_cell_angle_gamma 90.000000
_cell_volume 2138.774007
_symmetry_space_group_name_H-M "P B C M"
_symmetry_group_IT_number 57
_symmetry_cell_setting 'orthorhombic'
loop_
_space_group_symop_operation_xyz
x,y,z
-x,-y,1/2+z
x,1/2-y,-z
-x,1/2+y,1/2-z
-x,-y,-z
x,y,1/2-z
-x,1/2+y,z
x,1/2-y,1/2+z
loop_
_atom_site_type_symbol
_atom_site_label
_atom_site_fract_x
_atom_site_fract_y
_atom_site_fract_z
Si Si1 0.651417 0.202056 0.425023
Si Si2 0.337616 0.404166 0.927771
Si Si3 0.844897 0.001327 0.927319
Si Si4 0.329756 0.588755 0.077400
Si Si5 0.341034 0.199188 0.928360
O O1 0.740964 0.250000 0.500000
O O2 0.615425 0.213201 0.250000
O O3 0.730956 0.147201 0.440377
O O4 0.506199 0.198818 0.521092
O O5 0.324690 0.394876 0.750000
O O6 0.246780 0.452753 0.985222
O O7 0.503628 0.414073 0.972443
O O8 0.272075 0.353777 0.009638
O O9 0.863906 0.998985 0.750000
O O10 0.763457 0.053391 0.969368
O O11 0.000000 0.000000 0.000000
O O12 0.312233 0.570106 0.250000
O O13 0.324586 0.201280 0.750000
O O14 0.264756 0.250000 0.000000
#
# Coordination Sequence:
#
# PCOD8229947 Si02
#       5
#     8   8   8   8   8
#     4   9  16  27  45  72 105 136 165 204 250 297
#     4   9  19  35  53  76 104 134 169 212 255 297
#     4  11  23  37  54  74 101 136 172 211 257 305
#     4   9  18  33  53  77 105 133 168 212 255 298
#     4  10  17  26  45  73 104 135 165 203 249 299
#
# _framework density 18.702304000000002
#
# number of rings (size 3 to 8) (size 9 to 14) (size 15 to 20)
#    0.000    2.400    0.000    6.000    0.000    5.600 
#    0.000    0.000    0.000    1.200    0.000    5.600 
#    0.000    0.000    0.000    0.000    0.000    0.000 
#
# Total GULP energy -495777.900296 kJ/mol
# GULP energy per Si atom -12394.447507 kJ/mol
# Density = 1.865974 g / cm^3
# Si number density = 18.702304 Si / 1000 Ang^3
#
#
#
# Elastic Constant Matrix: (Units=GPa)
#
#
# Indices 1 2 3 4 5 6 
#
# 1 61.4207 53.7810 29.2657 0.0000 0.0000 0.0000
# 2 53.7810 175.9334 64.1763 0.0000 0.0000 0.0000
# 3 29.2657 64.1763 89.9272 0.0000 0.0000 0.0000
# 4 0.0000 0.0000 0.0000 40.1384 0.0000 0.0000
# 5 0.0000 0.0000 0.0000 0.0000 21.2955 0.0000
# 6 0.0000 0.0000 0.0000 0.0000 0.0000 0.8257
#
#
#
# Elastic Compliance Matrix: (Units=1/GPa)
#
#
# Indices 1 2 3 4 5 6 
#
# 1 0.022946 -0.005800 -0.003328 0.000000 0.000000 0.000000
# 2 -0.005800 0.009151 -0.004643 0.000000 0.000000 0.000000
# 3 -0.003328 -0.004643 0.015516 0.000000 0.000000 0.000000
# 4 0.000000 0.000000 0.000000 0.024914 0.000000 0.000000
# 5 0.000000 0.000000 0.000000 0.000000 0.046958 0.000000
# 6 0.000000 0.000000 0.000000 0.000000 0.000000 1.211166
#
#
# Mechanical properties :
#
#
# Convention : Reuss Voigt Hill
#
# Bulk Modulus (GPa) = 49.82384 69.08083 59.45234
# Shear Modulus (GPa) = 3.66332 24.45580 14.05956
#
# Velocity S-wave (km/s) = 1.40107 3.62005 2.74479
# Velocity P-wave (km/s) = 5.41439 7.38175 6.47325
#
# Compressibility (1/GPa) = 0.02007071
#
# Stress axis : x y z
#
# Youngs Moduli (GPa) = 43.58115 109.28271 64.44792
#
# Poissons Ratio (x) = 0.63387 0.21449
# Poissons Ratio (y) = 0.25278 0.29921
# Poissons Ratio (z) = 0.14504 0.50736
#
# Static dielectric constant tensor:
#      x y z
#    x 2.996060 0.000000 0.000000 
#    y 0.000000 4.500840 0.000000 
#    z 0.000000 0.000000 3.454770 
# 
# 
# High freq. dielectric constant tensor:
#      x y z
#    x 1.659500 0.000000 0.000000 
#    y 0.000000 1.757000 0.000000 
#    z 0.000000 0.000000 1.731940 
# 
# From -- ./inp_files/1532.got.cif
#   From: 2010.03.12/outbox.cif.g09.slc.cpg/sg57_1_cif.got.tgz:1532.got - 2010.04.16 15:48:40.
