data_PCOD8229216
_publ_section_title
;
Structure prediction by ZEFSAII (Michael W. Deem and Ramdas Pophale) SiO2 
 PCOD8229216
Probable space group: P C C N
;
_chemical_formula_sum "Si O2"
_cell_formula_units_Z 40
_cell_length_a 9.067452
_cell_length_b 9.240177
_cell_length_c 23.019977
_cell_angle_alpha 90.000000
_cell_angle_beta 90.000000
_cell_angle_gamma 90.000000
_cell_volume 1928.725583
_symmetry_space_group_name_H-M "P C C N"
_symmetry_group_IT_number 56
_symmetry_cell_setting 'orthorhombic'
loop_
_space_group_symop_operation_xyz
x,y,z
1/2-x,1/2-y,z
1/2+x,-y,1/2-z
-x,1/2+y,1/2-z
-x,-y,-z
1/2+x,1/2+y,-z
1/2-x,y,1/2+z
x,1/2-y,1/2+z
loop_
_atom_site_type_symbol
_atom_site_label
_atom_site_fract_x
_atom_site_fract_y
_atom_site_fract_z
Si Si1 0.540561 0.575119 0.816940
Si Si2 0.115564 0.848092 0.345244
Si Si3 0.774343 0.913234 0.228281
Si Si4 0.908943 0.575532 0.449496
Si Si5 0.422210 0.090147 0.048748
O O1 0.484697 0.740287 0.805672
O O2 0.444048 0.462206 0.778699
O O3 0.710235 0.570252 0.794382
O O4 0.523452 0.543023 0.885677
O O5 0.250000 0.750000 0.371373
O O6 0.016567 0.925473 0.393253
O O7 0.175655 0.981067 0.309619
O O8 0.750000 0.750000 0.205740
O O9 0.913799 0.742155 0.467214
O O10 0.740676 0.522090 0.445468
O O11 0.000000 0.500000 0.500000
O O12 0.500000 0.000000 0.000000
#
# Coordination Sequence:
#
# PCOD8229216 Si02
#       5
#     8   8   8   8   8
#     4  10  23  41  66  89 128 168 200 258 312 377
#     4   9  21  41  62  91 127 165 205 255 320 373
#     4  11  23  38  66  92 124 160 213 255 306 364
#     4  10  24  43  63  93 127 163 210 256 317 372
#     4  10  23  39  68  89 121 168 210 254 314 375
#
# _framework density 20.739082
#
# number of rings (size 3 to 8) (size 9 to 14) (size 15 to 20)
#    0.000    2.000    0.000    1.200   16.800    1.600 
#    0.000    0.000    4.400    0.000    0.000    0.000 
#    0.000    0.000    0.000    0.000    0.000    0.000 
#
# Total GULP energy -495753.875487 kJ/mol
# GULP energy per Si atom -12393.846887 kJ/mol
# Density = 2.069188 g / cm^3
# Si number density = 20.739082 Si / 1000 Ang^3
#
#
#
# Elastic Constant Matrix: (Units=GPa)
#
#
# Indices 1 2 3 4 5 6 
#
# 1 113.5167 24.7089 56.0535 0.0000 0.0000 0.0000
# 2 24.7089 80.9955 50.1857 0.0000 0.0000 0.0000
# 3 56.0535 50.1857 102.6998 0.0000 0.0000 0.0000
# 4 0.0000 0.0000 0.0000 29.9689 0.0000 0.0000
# 5 0.0000 0.0000 0.0000 0.0000 45.5943 0.0000
# 6 0.0000 0.0000 0.0000 0.0000 0.0000 29.5130
#
#
#
# Elastic Compliance Matrix: (Units=1/GPa)
#
#
# Indices 1 2 3 4 5 6 
#
# 1 0.012078 0.000574 -0.006872 0.000000 0.000000 0.000000
# 2 0.000574 0.017735 -0.008980 0.000000 0.000000 0.000000
# 3 -0.006872 -0.008980 0.017876 0.000000 0.000000 0.000000
# 4 0.000000 0.000000 0.000000 0.033368 0.000000 0.000000
# 5 0.000000 0.000000 0.000000 0.000000 0.021933 0.000000
# 6 0.000000 0.000000 0.000000 0.000000 0.000000 0.033883
#
#
# Mechanical properties :
#
#
# Convention : Reuss Voigt Hill
#
# Bulk Modulus (GPa) = 58.36890 62.12313 60.24601
# Shear Modulus (GPa) = 28.87820 32.09952 30.48886
#
# Velocity S-wave (km/s) = 3.73561 3.93845 3.83837
# Velocity P-wave (km/s) = 6.84192 7.12050 6.98260
#
# Compressibility (1/GPa) = 0.01713241
#
# Stress axis : x y z
#
# Youngs Moduli (GPa) = 82.79540 56.38482 55.94037
#
# Poissons Ratio (x) = -0.03235 0.38445
# Poissons Ratio (y) = -0.04750 0.50233
# Poissons Ratio (z) = 0.56901 0.50632
#
# Static dielectric constant tensor:
#      x y z
#    x 4.201160 0.000000 0.000000 
#    y 0.000000 3.770460 0.000000 
#    z 0.000000 0.000000 4.356970 
# 
# 
# High freq. dielectric constant tensor:
#      x y z
#    x 1.835230 0.000000 0.000000 
#    y 0.000000 1.806610 0.000000 
#    z 0.000000 0.000000 1.798830 
# 
# From -- ./inp_files/20311.got.cif
#   From: 2010.03.12/outbox.cif.g09.slc.cpg/sg56_11_cif.got.tgz:20311.got - 2010.04.16 15:33:40.
