data_PCOD8229837
_publ_section_title
;
Structure prediction by ZEFSAII (Michael W. Deem and Ramdas Pophale) SiO2 
 PCOD8229837
Probable space group: P C C N
;
_chemical_formula_sum "Si O2"
_cell_formula_units_Z 28
_cell_length_a 5.118223
_cell_length_b 12.541840
_cell_length_c 18.352570
_cell_angle_alpha 90.000000
_cell_angle_beta 90.000000
_cell_angle_gamma 90.000000
_cell_volume 1178.086961
_symmetry_space_group_name_H-M "P C C N"
_symmetry_group_IT_number 56
_symmetry_cell_setting 'orthorhombic'
loop_
_space_group_symop_operation_xyz
x,y,z
1/2-x,1/2-y,z
1/2+x,-y,1/2-z
-x,1/2+y,1/2-z
-x,-y,-z
1/2+x,1/2+y,-z
1/2-x,y,1/2+z
x,1/2-y,1/2+z
loop_
_atom_site_type_symbol
_atom_site_label
_atom_site_fract_x
_atom_site_fract_y
_atom_site_fract_z
Si Si1 0.237025 0.021580 0.704238
Si Si2 0.750000 0.750000 0.012839
Si Si3 0.436007 0.662495 0.882575
Si Si4 0.908529 0.537426 0.077828
O O1 0.319969 0.138289 0.671675
O O2 0.486997 0.965458 0.742417
O O3 0.148134 0.952120 0.634479
O O4 0.514942 0.714003 0.959927
O O5 0.699150 0.844728 0.068808
O O6 0.250000 0.750000 0.844218
O O7 0.300729 0.547413 0.892516
O O8 0.000000 0.500000 0.000000
#
# Coordination Sequence:
#
# PCOD8229837 Si02
#       4
#     8   4   8   8
#     4  12  27  52  80 113 168 217 265 334 406 489
#     4  12  26  44  82 128 152 208 268 348 394 486
#     4  12  24  47  84 118 158 212 266 328 414 475
#     4  12  25  48  83 118 159 207 278 333 400 480
#
# _framework density 23.767344000000001
#
# number of rings (size 3 to 8) (size 9 to 14) (size 15 to 20)
#    0.000    0.000    8.571    0.857    0.000    0.000 
#    0.000    7.143    0.000    0.000    0.000    0.000 
#    0.000    0.000    0.000    0.000    0.000    0.000 
#
# Total GULP energy -347006.572521 kJ/mol
# GULP energy per Si atom -12393.091876 kJ/mol
# Density = 2.371325 g / cm^3
# Si number density = 23.767344 Si / 1000 Ang^3
#
#
#
# Elastic Constant Matrix: (Units=GPa)
#
#
# Indices 1 2 3 4 5 6 
#
# 1 153.7218 66.5396 63.9006 0.0000 0.0000 0.0000
# 2 66.5396 177.8132 52.3713 0.0000 0.0000 0.0000
# 3 63.9006 52.3713 141.6727 0.0000 0.0000 0.0000
# 4 0.0000 0.0000 0.0000 13.3239 0.0000 0.0000
# 5 0.0000 0.0000 0.0000 0.0000 33.3187 0.0000
# 6 0.0000 0.0000 0.0000 0.0000 0.0000 45.3490
#
#
#
# Elastic Compliance Matrix: (Units=1/GPa)
#
#
# Indices 1 2 3 4 5 6 
#
# 1 0.008828 -0.002391 -0.003098 0.000000 0.000000 0.000000
# 2 -0.002391 0.006959 -0.001494 0.000000 0.000000 0.000000
# 3 -0.003098 -0.001494 0.009008 0.000000 0.000000 0.000000
# 4 0.000000 0.000000 0.000000 0.075053 0.000000 0.000000
# 5 0.000000 0.000000 0.000000 0.000000 0.030013 0.000000
# 6 0.000000 0.000000 0.000000 0.000000 0.000000 0.022051
#
#
# Mechanical properties :
#
#
# Convention : Reuss Voigt Hill
#
# Bulk Modulus (GPa) = 92.34522 93.20342 92.77432
# Shear Modulus (GPa) = 29.50070 37.75807 33.62939
#
# Velocity S-wave (km/s) = 3.52693 3.99012 3.76565
# Velocity P-wave (km/s) = 7.45143 7.77998 7.61748
#
# Compressibility (1/GPa) = 0.01082893
#
# Stress axis : x y z
#
# Youngs Moduli (GPa) = 113.27537 143.70606 111.01183
#
# Poissons Ratio (x) = 0.34362 0.34391
# Poissons Ratio (y) = 0.27085 0.16584
# Poissons Ratio (z) = 0.35092 0.21468
#
# Static dielectric constant tensor:
#      x y z
#    x 4.652130 0.000000 0.000000 
#    y 0.000000 4.184180 0.000000 
#    z 0.000000 0.000000 4.688900 
# 
# 
# High freq. dielectric constant tensor:
#      x y z
#    x 1.959060 0.000000 0.000000 
#    y 0.000000 1.931350 0.000000 
#    z 0.000000 0.000000 1.943980 
# 
# From -- ./inp_files/15308.got.cif
#   From: 2010.03.12/outbox.cif.g09.slc.cpg/sg56_8_cif.got.tgz:15308.got - 2010.04.16 15:33:40.
