data_PCOD8229055
_publ_section_title
;
Structure prediction by ZEFSAII (Michael W. Deem and Ramdas Pophale) SiO2 
 PCOD8229055
Probable space group: P C C N
;
_chemical_formula_sum "Si O2"
_cell_formula_units_Z 60
_cell_length_a 9.514770
_cell_length_b 26.141764
_cell_length_c 9.000033
_cell_angle_alpha 90.000000
_cell_angle_beta 90.000000
_cell_angle_gamma 90.000000
_cell_volume 2238.604055
_symmetry_space_group_name_H-M "P C C N"
_symmetry_group_IT_number 56
_symmetry_cell_setting 'orthorhombic'
loop_
_space_group_symop_operation_xyz
x,y,z
1/2-x,1/2-y,z
1/2+x,-y,1/2-z
-x,1/2+y,1/2-z
-x,-y,-z
1/2+x,1/2+y,-z
1/2-x,y,1/2+z
x,1/2-y,1/2+z
loop_
_atom_site_type_symbol
_atom_site_label
_atom_site_fract_x
_atom_site_fract_y
_atom_site_fract_z
Si Si1 0.776146 0.358797 0.732178
Si Si2 0.067096 0.290790 0.924387
Si Si3 0.250000 0.250000 0.167975
Si Si4 0.672197 0.972093 0.061489
Si Si5 0.415968 0.099536 0.339214
Si Si6 0.471060 0.605994 0.468451
Si Si7 0.697964 0.042082 0.329386
Si Si8 0.426192 0.686831 0.034740
O O1 0.677676 0.389469 0.614465
O O2 0.818311 0.410778 0.828500
O O3 0.888367 0.327795 0.636188
O O4 0.695152 0.321013 0.842343
O O5 0.140565 0.281772 0.766783
O O6 0.954715 0.246855 0.961559
O O7 0.175661 0.291460 0.061485
O O8 0.985659 0.345392 0.917054
O O9 0.769705 0.925545 0.116806
O O10 0.662033 0.020910 0.166912
O O11 0.514554 0.948859 0.042065
O O12 0.743649 0.993315 0.912979
O O13 0.412458 0.110365 0.163423
O O14 0.551355 0.065131 0.392148
O O15 0.434644 0.154594 0.421236
#
# Coordination Sequence:
#
# PCOD8229055 Si02
#       8
#     8   8   4   8   8   8   8   8
#     4  10  23  47  69 101 141 180 242 298 345 439
#     4  11  24  44  70 100 140 190 227 298 357 416
#     4  10  24  40  68 100 134 180 230 282 360 418
#     4  12  22  42  66 101 139 187 230 292 358 425
#     4  10  23  44  66 102 141 178 242 291 350 433
#     4  10  24  41  67 101 141 178 240 287 349 430
#     4  10  22  40  69 100 139 182 230 288 356 420
#     4  10  23  46  70 101 141 183 235 295 357 421
#
# _framework density 26.802416999999998
#
# number of rings (size 3 to 8) (size 9 to 14) (size 15 to 20)
#    0.000    1.867    1.333    3.600    5.600    3.733 
#    7.200    2.667    0.000    0.000    0.000    0.000 
#    0.000    0.000    0.000    0.000    0.000    0.000 
#
# Total GULP energy -743859.175462 kJ/mol
# GULP energy per Si atom -12397.652924 kJ/mol
# Density = 2.674141 g / cm^3
# Si number density = 26.802417 Si / 1000 Ang^3
#
#
#
# Elastic Constant Matrix: (Units=GPa)
#
#
# Indices 1 2 3 4 5 6 
#
# 1 40.1729 5.9458 -9.9445 0.0000 0.0000 0.0000
# 2 5.9458 137.7852 1.7474 0.0000 0.0000 0.0000
# 3 -9.9445 1.7474 63.1166 0.0000 0.0000 0.0000
# 4 0.0000 0.0000 0.0000 24.3831 0.0000 0.0000
# 5 0.0000 0.0000 0.0000 0.0000 17.1317 0.0000
# 6 0.0000 0.0000 0.0000 0.0000 0.0000 41.9429
#
#
#
# Elastic Compliance Matrix: (Units=1/GPa)
#
#
# Indices 1 2 3 4 5 6 
#
# 1 0.026093 -0.001179 0.004144 0.000000 0.000000 0.000000
# 2 -0.001179 0.007313 -0.000388 0.000000 0.000000 0.000000
# 3 0.004144 -0.000388 0.016507 0.000000 0.000000 0.000000
# 4 0.000000 0.000000 0.000000 0.041012 0.000000 0.000000
# 5 0.000000 0.000000 0.000000 0.000000 0.058371 0.000000
# 6 0.000000 0.000000 0.000000 0.000000 0.000000 0.023842
#
#
# Mechanical properties :
#
#
# Convention : Reuss Voigt Hill
#
# Bulk Modulus (GPa) = 18.15956 26.28579 22.22267
# Shear Modulus (GPa) = 26.83262 32.91327 29.87294
#
# Velocity S-wave (km/s) = 3.16749 3.50808 3.34213
# Velocity P-wave (km/s) = 4.49081 5.12224 4.81688
#
# Compressibility (1/GPa) = 0.05506742
#
# Stress axis : x y z
#
# Youngs Moduli (GPa) = 38.32508 136.73427 60.57923
#
# Poissons Ratio (x) = 0.16114 -0.25102
# Poissons Ratio (y) = 0.04517 0.02351
# Poissons Ratio (z) = -0.15881 0.05307
#
# Static dielectric constant tensor:
#      x y z
#    x 4.744360 0.000000 0.000000 
#    y 0.000000 4.887470 0.000000 
#    z 0.000000 0.000000 5.304950 
# 
# 
# High freq. dielectric constant tensor:
#      x y z
#    x 2.068850 0.000000 0.000000 
#    y 0.000000 2.092840 0.000000 
#    z 0.000000 0.000000 2.098710 
# 
# From -- ./inp_files/2911.got.cif
#   From: 2010.03.12/outbox.cif.g09.slc.cpg/sg56_2_cif.got.tgz:2911.got - 2010.04.16 15:33:40.
