data_PCOD8229716
_publ_section_title
;
Structure prediction by ZEFSAII (Michael W. Deem and Ramdas Pophale) SiO2 
 PCOD8229716
Probable space group: P C C N
;
_chemical_formula_sum "Si O2"
_cell_formula_units_Z 32
_cell_length_a 11.408897
_cell_length_b 9.407196
_cell_length_c 13.691289
_cell_angle_alpha 90.000000
_cell_angle_beta 90.000000
_cell_angle_gamma 90.000000
_cell_volume 1469.427590
_symmetry_space_group_name_H-M "P C C N"
_symmetry_group_IT_number 56
_symmetry_cell_setting 'orthorhombic'
loop_
_space_group_symop_operation_xyz
x,y,z
1/2-x,1/2-y,z
1/2+x,-y,1/2-z
-x,1/2+y,1/2-z
-x,-y,-z
1/2+x,1/2+y,-z
1/2-x,y,1/2+z
x,1/2-y,1/2+z
loop_
_atom_site_type_symbol
_atom_site_label
_atom_site_fract_x
_atom_site_fract_y
_atom_site_fract_z
Si Si1 0.137355 0.473456 0.509184
Si Si2 0.750000 0.250000 0.443225
Si Si3 0.750000 0.750000 0.632506
Si Si4 0.377807 0.758682 0.744479
Si Si5 0.090710 0.423486 0.721590
O O1 0.215989 0.614916 0.489837
O O2 0.173795 0.354251 0.433360
O O3 0.162824 0.422013 0.620235
O O4 0.000000 0.500000 0.500000
O O5 0.638217 0.280205 0.371191
O O6 0.660286 0.663283 0.697931
O O7 0.250000 0.750000 0.796555
O O8 0.463072 0.645830 0.795380
O O9 0.430504 0.916023 0.757761
#
# Coordination Sequence:
#
# PCOD8229716 Si02
#       5
#     8   4   4   8   8
#     4  11  25  43  69 100 135 178 232 285 342 412
#     4   8  20  44  66  92 138 170 224 280 336 412
#     4  12  26  42  68 104 132 192 222 290 346 418
#     4   9  22  40  72  97 130 183 216 280 352 405
#     4  11  24  44  69  97 142 174 235 282 348 414
#
# _framework density 21.777184999999999
#
# number of rings (size 3 to 8) (size 9 to 14) (size 15 to 20)
#    0.750    1.000    0.000    3.750    7.000    4.000 
#    0.000    3.750    0.000    0.000    0.000    0.000 
#    0.000    0.000    0.000    0.000    0.000    0.000 
#
# Total GULP energy -396732.840999 kJ/mol
# GULP energy per Si atom -12397.901281 kJ/mol
# Density = 2.172762 g / cm^3
# Si number density = 21.777185 Si / 1000 Ang^3
#
#
#
# Elastic Constant Matrix: (Units=GPa)
#
#
# Indices 1 2 3 4 5 6 
#
# 1 131.0375 93.3256 31.3922 0.0000 0.0000 0.0000
# 2 93.3256 183.1000 57.7730 0.0000 0.0000 0.0000
# 3 31.3922 57.7730 86.0073 0.0000 0.0000 0.0000
# 4 0.0000 0.0000 0.0000 37.1516 0.0000 0.0000
# 5 0.0000 0.0000 0.0000 0.0000 26.0137 0.0000
# 6 0.0000 0.0000 0.0000 0.0000 0.0000 51.5476
#
#
#
# Elastic Compliance Matrix: (Units=1/GPa)
#
#
# Indices 1 2 3 4 5 6 
#
# 1 0.011988 -0.006002 -0.000344 0.000000 0.000000 0.000000
# 2 -0.006002 0.009935 -0.004483 0.000000 0.000000 0.000000
# 3 -0.000344 -0.004483 0.014764 0.000000 0.000000 0.000000
# 4 0.000000 0.000000 0.000000 0.026917 0.000000 0.000000
# 5 0.000000 0.000000 0.000000 0.000000 0.038441 0.000000
# 6 0.000000 0.000000 0.000000 0.000000 0.000000 0.019400
#
#
# Mechanical properties :
#
#
# Convention : Reuss Voigt Hill
#
# Bulk Modulus (GPa) = 66.53616 85.01403 75.77510
# Shear Modulus (GPa) = 33.75807 37.45286 35.60546
#
# Velocity S-wave (km/s) = 3.94148 4.15157 4.04789
# Velocity P-wave (km/s) = 7.16471 7.88058 7.53116
#
# Compressibility (1/GPa) = 0.01502942
#
# Stress axis : x y z
#
# Youngs Moduli (GPa) = 83.41388 100.65272 67.73303
#
# Poissons Ratio (x) = 0.60411 0.02331
# Poissons Ratio (y) = 0.50064 0.30365
# Poissons Ratio (z) = 0.02870 0.45123
#
# Static dielectric constant tensor:
#      x y z
#    x 3.953390 0.000000 0.000000 
#    y 0.000000 3.937670 0.000000 
#    z 0.000000 0.000000 3.937260 
# 
# 
# High freq. dielectric constant tensor:
#      x y z
#    x 1.848430 0.000000 0.000000 
#    y 0.000000 1.863150 0.000000 
#    z 0.000000 0.000000 1.851740 
# 
# From -- ./inp_files/10109.got.cif
#   From: 2010.03.12/outbox.cif.g09.slc.cpg/sg56_6_cif.got.tgz:10109.got - 2010.04.16 15:33:40.
