data_PCOD8229056
_publ_section_title
;
Structure prediction by ZEFSAII (Michael W. Deem and Ramdas Pophale) SiO2 
 PCOD8229056
Probable space group: P C C N
;
_chemical_formula_sum "Si O2"
_cell_formula_units_Z 48
_cell_length_a 14.856253
_cell_length_b 8.256043
_cell_length_c 18.105561
_cell_angle_alpha 90.000000
_cell_angle_beta 90.000000
_cell_angle_gamma 90.000000
_cell_volume 2220.717009
_symmetry_space_group_name_H-M "P C C N"
_symmetry_group_IT_number 56
_symmetry_cell_setting 'orthorhombic'
loop_
_space_group_symop_operation_xyz
x,y,z
1/2-x,1/2-y,z
1/2+x,-y,1/2-z
-x,1/2+y,1/2-z
-x,-y,-z
1/2+x,1/2+y,-z
1/2-x,y,1/2+z
x,1/2-y,1/2+z
loop_
_atom_site_type_symbol
_atom_site_label
_atom_site_fract_x
_atom_site_fract_y
_atom_site_fract_z
Si Si1 0.916362 0.435328 0.895178
Si Si2 0.076603 0.628041 0.519048
Si Si3 0.659708 0.159883 0.741644
Si Si4 0.749748 0.572966 0.128884
Si Si5 0.239816 0.069899 0.038097
Si Si6 0.416053 0.849804 0.882750
O O1 0.959653 0.268190 0.925399
O O2 0.888239 0.422522 0.810320
O O3 0.831420 0.473291 0.947504
O O4 0.985388 0.583581 0.901987
O O5 0.155576 0.537523 0.566614
O O6 0.111346 0.714862 0.443643
O O7 0.000000 0.500000 0.500000
O O8 0.750000 0.250000 0.769121
O O9 0.588533 0.275961 0.699942
O O10 0.686113 0.029158 0.680997
O O11 0.750000 0.750000 0.165638
O O12 0.848610 0.500282 0.118213
O O13 0.709533 0.587340 0.046974
O O14 0.250000 0.250000 0.073993
#
# Coordination Sequence:
#
# PCOD8229056 Si02
#       6
#     8   8   8   8   8   8
#     4  12  26  42  70 102 137 172 229 282 333 393
#     4  12  25  41  66  98 134 175 225 271 331 391
#     4  10  23  45  66  94 133 183 219 269 339 405
#     4  10  22  40  69  94 131 178 226 266 338 407
#     4  11  23  42  68  99 132 176 219 279 333 393
#     4  11  24  42  65  98 135 175 221 274 330 399
#
# _framework density 21.614639
#
# number of rings (size 3 to 8) (size 9 to 14) (size 15 to 20)
#    0.000    1.000    3.333    3.000    4.667    3.333 
#    0.000    3.333    0.000    0.000    0.000    0.000 
#    0.000    0.000    0.000    0.000    0.000    0.000 
#
# Total GULP energy -595099.240178 kJ/mol
# GULP energy per Si atom -12397.900837 kJ/mol
# Density = 2.156544 g / cm^3
# Si number density = 21.614639 Si / 1000 Ang^3
#
#
#
# Elastic Constant Matrix: (Units=GPa)
#
#
# Indices 1 2 3 4 5 6 
#
# 1 109.0429 59.2113 17.4110 0.0000 0.0000 0.0000
# 2 59.2113 131.8806 25.0559 0.0000 0.0000 0.0000
# 3 17.4110 25.0559 85.1674 0.0000 0.0000 0.0000
# 4 0.0000 0.0000 0.0000 10.2783 0.0000 0.0000
# 5 0.0000 0.0000 0.0000 0.0000 22.0272 0.0000
# 6 0.0000 0.0000 0.0000 0.0000 0.0000 41.2976
#
#
#
# Elastic Compliance Matrix: (Units=1/GPa)
#
#
# Indices 1 2 3 4 5 6 
#
# 1 0.012197 -0.005299 -0.000935 0.000000 0.000000 0.000000
# 2 -0.005299 0.010333 -0.001957 0.000000 0.000000 0.000000
# 3 -0.000935 -0.001957 0.012508 0.000000 0.000000 0.000000
# 4 0.000000 0.000000 0.000000 0.097293 0.000000 0.000000
# 5 0.000000 0.000000 0.000000 0.000000 0.045398 0.000000
# 6 0.000000 0.000000 0.000000 0.000000 0.000000 0.024214
#
#
# Mechanical properties :
#
#
# Convention : Reuss Voigt Hill
#
# Bulk Modulus (GPa) = 53.59459 58.82750 56.21105
# Shear Modulus (GPa) = 22.26734 29.68146 25.97440
#
# Velocity S-wave (km/s) = 3.21315 3.70971 3.47032
# Velocity P-wave (km/s) = 6.21411 6.75461 6.48999
#
# Compressibility (1/GPa) = 0.01865860
#
# Stress axis : x y z
#
# Youngs Moduli (GPa) = 81.98624 96.77385 79.94663
#
# Poissons Ratio (x) = 0.51277 0.07472
# Poissons Ratio (y) = 0.43442 0.15644
# Poissons Ratio (z) = 0.07663 0.18937
#
# Static dielectric constant tensor:
#      x y z
#    x 3.778060 0.000000 0.000000 
#    y 0.000000 4.354770 0.000000 
#    z 0.000000 0.000000 3.764070 
# 
# 
# High freq. dielectric constant tensor:
#      x y z
#    x 1.838030 0.000000 0.000000 
#    y 0.000000 1.868260 0.000000 
#    z 0.000000 0.000000 1.835990 
# 
# From -- ./inp_files/18989.got.cif
#   From: 2010.03.12/outbox.cif.g09.slc.cpg/sg56_10_cif.got.tgz:18989.got - 2010.04.16 15:33:40.
