data_PCOD8229870
_publ_section_title
;
Structure prediction by ZEFSAII (Michael W. Deem and Ramdas Pophale) SiO2 
 PCOD8229870
Probable space group: P C C N
;
_chemical_formula_sum "Si O2"
_cell_formula_units_Z 28
_cell_length_a 7.604035
_cell_length_b 8.114004
_cell_length_c 16.745968
_cell_angle_alpha 90.000000
_cell_angle_beta 90.000000
_cell_angle_gamma 90.000000
_cell_volume 1033.212333
_symmetry_space_group_name_H-M "P C C N"
_symmetry_group_IT_number 56
_symmetry_cell_setting 'orthorhombic'
loop_
_space_group_symop_operation_xyz
x,y,z
1/2-x,1/2-y,z
1/2+x,-y,1/2-z
-x,1/2+y,1/2-z
-x,-y,-z
1/2+x,1/2+y,-z
1/2-x,y,1/2+z
x,1/2-y,1/2+z
loop_
_atom_site_type_symbol
_atom_site_label
_atom_site_fract_x
_atom_site_fract_y
_atom_site_fract_z
Si Si1 0.060409 0.277675 0.168097
Si Si2 0.566290 0.849465 0.154518
Si Si3 0.851881 0.472621 0.565511
Si Si4 0.250000 0.750000 0.055091
O O1 0.250000 0.250000 0.125778
O O2 0.011413 0.468014 0.159926
O O3 0.083676 0.230499 0.259974
O O4 0.913451 0.161486 0.130356
O O5 0.735915 0.627611 0.112960
O O6 0.428481 0.729598 0.107400
O O7 0.702842 0.399812 0.505659
O O8 0.000000 0.500000 0.500000
#
# Coordination Sequence:
#
# PCOD8229870 Si02
#       4
#     8   8   8   4
#     4  12  28  49  79 114 160 210 276 337 411 493
#     4  12  29  52  78 119 158 220 267 342 414 491
#     4  12  28  49  79 115 159 211 266 336 406 485
#     4  12  28  48  80 110 164 200 266 330 404 488
#
# _framework density 27.099945999999999
#
# number of rings (size 3 to 8) (size 9 to 14) (size 15 to 20)
#    0.000    0.000    2.857    4.286   20.000    0.000 
#    0.000    0.000    0.000    0.000    0.000    0.000 
#    0.000    0.000    0.000    0.000    0.000    0.000 
#
# Total GULP energy -346985.911919 kJ/mol
# GULP energy per Si atom -12392.353997 kJ/mol
# Density = 2.703827 g / cm^3
# Si number density = 27.099946 Si / 1000 Ang^3
#
#
#
# Elastic Constant Matrix: (Units=GPa)
#
#
# Indices 1 2 3 4 5 6 
#
# 1 180.3036 23.6813 65.4881 0.0000 0.0000 0.0000
# 2 23.6813 130.9897 53.6387 0.0000 0.0000 0.0000
# 3 65.4881 53.6387 156.0931 0.0000 0.0000 0.0000
# 4 0.0000 0.0000 0.0000 17.4940 0.0000 0.0000
# 5 0.0000 0.0000 0.0000 0.0000 49.0571 0.0000
# 6 0.0000 0.0000 0.0000 0.0000 0.0000 33.9427
#
#
#
# Elastic Compliance Matrix: (Units=1/GPa)
#
#
# Indices 1 2 3 4 5 6 
#
# 1 0.006544 -0.000068 -0.002722 0.000000 0.000000 0.000000
# 2 -0.000068 0.008885 -0.003024 0.000000 0.000000 0.000000
# 3 -0.002722 -0.003024 0.008588 0.000000 0.000000 0.000000
# 4 0.000000 0.000000 0.000000 0.057162 0.000000 0.000000
# 5 0.000000 0.000000 0.000000 0.000000 0.020384 0.000000
# 6 0.000000 0.000000 0.000000 0.000000 0.000000 0.029461
#
#
# Mechanical properties :
#
#
# Convention : Reuss Voigt Hill
#
# Bulk Modulus (GPa) = 80.73042 83.66695 82.19868
# Shear Modulus (GPa) = 34.06380 41.73731 37.90056
#
# Velocity S-wave (km/s) = 3.54922 3.92870 3.74377
# Velocity P-wave (km/s) = 6.83012 7.17775 7.00609
#
# Compressibility (1/GPa) = 0.01238691
#
# Stress axis : x y z
#
# Youngs Moduli (GPa) = 152.81613 112.54859 116.44561
#
# Poissons Ratio (x) = 0.00770 0.31695
# Poissons Ratio (y) = 0.01046 0.35219
# Poissons Ratio (z) = 0.41595 0.34040
#
# Static dielectric constant tensor:
#      x y z
#    x 7.440280 0.000000 0.000000 
#    y 0.000000 6.413370 0.000000 
#    z 0.000000 0.000000 5.195590 
# 
# 
# High freq. dielectric constant tensor:
#      x y z
#    x 2.114940 0.000000 0.000000 
#    y 0.000000 2.129670 0.000000 
#    z 0.000000 0.000000 2.106950 
# 
# From -- ./inp_files/14282.got.cif
#   From: 2010.03.12/outbox.cif.g09.slc.cpg/sg56_8_cif.got.tgz:14282.got - 2010.04.16 15:33:40.
