data_PCOD8229514
_publ_section_title
;
Structure prediction by ZEFSAII (Michael W. Deem and Ramdas Pophale) SiO2 
 PCOD8229514
Probable space group: P C C N
;
_chemical_formula_sum "Si O2"
_cell_formula_units_Z 56
_cell_length_a 8.717020
_cell_length_b 13.279068
_cell_length_c 21.866778
_cell_angle_alpha 90.000000
_cell_angle_beta 90.000000
_cell_angle_gamma 90.000000
_cell_volume 2531.164863
_symmetry_space_group_name_H-M "P C C N"
_symmetry_group_IT_number 56
_symmetry_cell_setting 'orthorhombic'
loop_
_space_group_symop_operation_xyz
x,y,z
1/2-x,1/2-y,z
1/2+x,-y,1/2-z
-x,1/2+y,1/2-z
-x,-y,-z
1/2+x,1/2+y,-z
1/2-x,y,1/2+z
x,1/2-y,1/2+z
loop_
_atom_site_type_symbol
_atom_site_label
_atom_site_fract_x
_atom_site_fract_y
_atom_site_fract_z
Si Si1 0.236829 0.637189 0.213042
Si Si2 0.769909 0.089506 0.150335
Si Si3 0.418699 0.269837 0.439020
Si Si4 0.927068 0.148078 0.036537
Si Si5 0.192113 0.492689 0.547473
Si Si6 0.020274 0.527298 0.117854
Si Si7 0.487675 0.095697 0.355757
O O1 0.250000 0.750000 0.186119
O O2 0.198913 0.640204 0.284529
O O3 0.108167 0.573947 0.176497
O O4 0.409982 0.593603 0.205879
O O5 0.847223 0.169830 0.102334
O O6 0.592134 0.062887 0.138370
O O7 0.849915 0.980932 0.150673
O O8 0.250000 0.250000 0.467657
O O9 0.554158 0.241919 0.489369
O O10 0.435317 0.386232 0.421125
O O11 0.426403 0.205197 0.376094
O O12 0.103343 0.112544 0.043639
O O13 0.817527 0.054168 0.016092
O O14 0.363096 0.472609 0.570964
O O15 0.106055 0.568720 0.591670
#
# Coordination Sequence:
#
# PCOD8229514 Si02
#       7
#     8   8   8   8   8   8   8
#     4  11  22  39  59  87 124 160 204 260 312 361
#     4  11  22  39  60  90 125 162 201 253 317 373
#     4  11  20  37  64  93 119 156 209 262 298 356
#     4   9  20  39  58  83 128 162 187 250 322 359
#     4   8  18  35  59  83 115 156 194 246 300 356
#     4  11  22  37  67  95 113 160 222 254 290 376
#     4   9  18  36  60  81 116 155 199 252 305 352
#
# _framework density 22.124202
#
# number of rings (size 3 to 8) (size 9 to 14) (size 15 to 20)
#    0.000    2.000    2.857    1.714    0.000    0.571 
#    2.571    0.000    0.000    0.857    0.000    0.000 
#    0.000    0.000    0.000    0.000    0.000    0.000 
#
# Total GULP energy -693919.525575 kJ/mol
# GULP energy per Si atom -12391.420100 kJ/mol
# Density = 2.207385 g / cm^3
# Si number density = 22.124202 Si / 1000 Ang^3
#
#
#
# Elastic Constant Matrix: (Units=GPa)
#
#
# Indices 1 2 3 4 5 6 
#
# 1 97.4545 8.4069 24.6899 0.0000 0.0000 0.0000
# 2 8.4069 41.2860 0.0872 0.0000 0.0000 0.0000
# 3 24.6899 0.0872 103.3530 0.0000 0.0000 0.0000
# 4 0.0000 0.0000 0.0000 24.5367 0.0000 0.0000
# 5 0.0000 0.0000 0.0000 0.0000 35.3957 0.0000
# 6 0.0000 0.0000 0.0000 0.0000 0.0000 29.8962
#
#
#
# Elastic Compliance Matrix: (Units=1/GPa)
#
#
# Indices 1 2 3 4 5 6 
#
# 1 0.011129 -0.002261 -0.002657 0.000000 0.000000 0.000000
# 2 -0.002261 0.024681 0.000519 0.000000 0.000000 0.000000
# 3 -0.002657 0.000519 0.010310 0.000000 0.000000 0.000000
# 4 0.000000 0.000000 0.000000 0.040755 0.000000 0.000000
# 5 0.000000 0.000000 0.000000 0.000000 0.028252 0.000000
# 6 0.000000 0.000000 0.000000 0.000000 0.000000 0.033449
#
#
# Mechanical properties :
#
#
# Convention : Reuss Voigt Hill
#
# Bulk Modulus (GPa) = 26.79290 34.27349 30.53320
# Shear Modulus (GPa) = 29.44409 31.89303 30.66856
#
# Velocity S-wave (km/s) = 3.65205 3.80089 3.72721
# Velocity P-wave (km/s) = 5.46990 5.89808 5.68802
#
# Compressibility (1/GPa) = 0.03732332
#
# Stress axis : x y z
#
# Youngs Moduli (GPa) = 89.85293 40.51778 96.99495
#
# Poissons Ratio (x) = 0.09159 0.25769
# Poissons Ratio (y) = 0.20312 -0.05036
# Poissons Ratio (z) = 0.23872 -0.02104
#
# Static dielectric constant tensor:
#      x y z
#    x 4.115500 0.000000 0.000000 
#    y 0.000000 3.686930 0.000000 
#    z 0.000000 0.000000 4.127140 
# 
# 
# High freq. dielectric constant tensor:
#      x y z
#    x 1.874080 0.000000 0.000000 
#    y 0.000000 1.848130 0.000000 
#    z 0.000000 0.000000 1.864100 
# 
# From -- ./inp_files/18206.got.cif
#   From: 2010.03.12/outbox.cif.g09.slc.cpg/sg56_10_cif.got.tgz:18206.got - 2010.04.16 15:33:40.
