data_PCOD8229723
_publ_section_title
;
Structure prediction by ZEFSAII (Michael W. Deem and Ramdas Pophale) SiO2 
 PCOD8229723
Probable space group: P C C N
;
_chemical_formula_sum "Si O2"
_cell_formula_units_Z 48
_cell_length_a 9.700111
_cell_length_b 8.285991
_cell_length_c 27.165901
_cell_angle_alpha 90.000000
_cell_angle_beta 90.000000
_cell_angle_gamma 90.000000
_cell_volume 2183.460174
_symmetry_space_group_name_H-M "P C C N"
_symmetry_group_IT_number 56
_symmetry_cell_setting 'orthorhombic'
loop_
_space_group_symop_operation_xyz
x,y,z
1/2-x,1/2-y,z
1/2+x,-y,1/2-z
-x,1/2+y,1/2-z
-x,-y,-z
1/2+x,1/2+y,-z
1/2-x,y,1/2+z
x,1/2-y,1/2+z
loop_
_atom_site_type_symbol
_atom_site_label
_atom_site_fract_x
_atom_site_fract_y
_atom_site_fract_z
Si Si1 0.152638 0.403171 0.722642
Si Si2 0.750000 0.250000 0.305984
Si Si3 0.250000 0.250000 0.563455
Si Si4 0.750000 0.750000 0.100936
Si Si5 0.514005 0.743733 0.360135
Si Si6 0.750000 0.250000 0.575892
Si Si7 0.973222 0.894261 0.672422
Si Si8 0.152704 0.036781 0.981297
O O1 0.250000 0.250000 0.710932
O O2 0.222783 0.582694 0.725354
O O3 0.046820 0.395144 0.676145
O O4 0.075329 0.357674 0.772471
O O5 0.611826 0.287011 0.337958
O O6 0.379935 0.283343 0.596505
O O7 0.265095 0.096081 0.528684
O O8 0.651103 0.860082 0.134658
O O9 0.856369 0.842833 0.065276
O O10 0.373987 0.779647 0.387332
O O11 0.510468 0.581300 0.328523
O O12 0.748208 0.396204 0.537930
O O13 0.000000 0.000000 0.000000
#
# Coordination Sequence:
#
# PCOD8229723 Si02
#       8
#     8   4   4   4   8   4   8   8
#     4  12  26  49  72 110 157 200 254 315 369 458
#     4  12  28  43  75 110 148 210 246 305 393 434
#     4  11  24  45  76  98 148 185 242 321 374 452
#     4  11  26  45  74 108 148 193 256 313 384 462
#     4  12  25  48  74 108 149 197 251 314 378 456
#     4  12  26  45  77 106 140 200 250 307 403 446
#     4  12  26  47  73 110 155 199 254 317 373 464
#     4  11  25  46  71 107 142 188 249 320 380 456
#
# _framework density 21.983453999999998
#
# number of rings (size 3 to 8) (size 9 to 14) (size 15 to 20)
#    0.000    0.333    6.667    1.000    2.333    6.000 
#    0.000    0.833    0.000    0.000    0.000    0.000 
#    0.000    0.000    0.000    0.000    0.000    0.000 
#
# Total GULP energy -594823.150445 kJ/mol
# GULP energy per Si atom -12392.148968 kJ/mol
# Density = 2.193342 g / cm^3
# Si number density = 21.983454 Si / 1000 Ang^3
#
#
#
# Elastic Constant Matrix: (Units=GPa)
#
#
# Indices 1 2 3 4 5 6 
#
# 1 128.8733 24.4149 63.3607 0.0000 0.0000 0.0000
# 2 24.4149 109.4362 34.5349 0.0000 0.0000 0.0000
# 3 63.3607 34.5349 151.8971 0.0000 0.0000 0.0000
# 4 0.0000 0.0000 0.0000 26.9987 0.0000 0.0000
# 5 0.0000 0.0000 0.0000 0.0000 34.3860 0.0000
# 6 0.0000 0.0000 0.0000 0.0000 0.0000 31.1972
#
#
#
# Elastic Compliance Matrix: (Units=1/GPa)
#
#
# Indices 1 2 3 4 5 6 
#
# 1 0.009856 -0.000971 -0.003891 0.000000 0.000000 0.000000
# 2 -0.000971 0.009940 -0.001855 0.000000 0.000000 0.000000
# 3 -0.003891 -0.001855 0.008628 0.000000 0.000000 0.000000
# 4 0.000000 0.000000 0.000000 0.037039 0.000000 0.000000
# 5 0.000000 0.000000 0.000000 0.000000 0.029082 0.000000
# 6 0.000000 0.000000 0.000000 0.000000 0.000000 0.032054
#
#
# Mechanical properties :
#
#
# Convention : Reuss Voigt Hill
#
# Bulk Modulus (GPa) = 66.70654 70.53638 68.62146
# Shear Modulus (GPa) = 34.47596 36.37613 35.42604
#
# Velocity S-wave (km/s) = 3.96443 4.07222 4.01869
# Velocity P-wave (km/s) = 7.16697 7.36657 7.26746
#
# Compressibility (1/GPa) = 0.01499103
#
# Stress axis : x y z
#
# Youngs Moduli (GPa) = 101.45743 100.60652 115.90220
#
# Poissons Ratio (x) = 0.09771 0.45093
# Poissons Ratio (y) = 0.09853 0.21497
# Poissons Ratio (z) = 0.39473 0.18660
#
# Static dielectric constant tensor:
#      x y z
#    x 3.596660 0.000000 0.000000 
#    y 0.000000 4.102100 0.000000 
#    z 0.000000 0.000000 4.108180 
# 
# 
# High freq. dielectric constant tensor:
#      x y z
#    x 1.873520 0.000000 0.000000 
#    y 0.000000 1.870670 0.000000 
#    z 0.000000 0.000000 1.873670 
# 
# From -- ./inp_files/23312.got.cif
#   From: 2010.03.12/outbox.cif.g09.slc.cpg/sg56_12_cif.got.tgz:23312.got - 2010.04.16 15:33:40.
