data_PCOD8229872
_publ_section_title
;
Structure prediction by ZEFSAII (Michael W. Deem and Ramdas Pophale) SiO2 
 PCOD8229872
Probable space group: P C C N
;
_chemical_formula_sum "Si O2"
_cell_formula_units_Z 24
_cell_length_a 5.443956
_cell_length_b 7.457971
_cell_length_c 23.623745
_cell_angle_alpha 90.000000
_cell_angle_beta 90.000000
_cell_angle_gamma 90.000000
_cell_volume 959.144505
_symmetry_space_group_name_H-M "P C C N"
_symmetry_group_IT_number 56
_symmetry_cell_setting 'orthorhombic'
loop_
_space_group_symop_operation_xyz
x,y,z
1/2-x,1/2-y,z
1/2+x,-y,1/2-z
-x,1/2+y,1/2-z
-x,-y,-z
1/2+x,1/2+y,-z
1/2-x,y,1/2+z
x,1/2-y,1/2+z
loop_
_atom_site_type_symbol
_atom_site_label
_atom_site_fract_x
_atom_site_fract_y
_atom_site_fract_z
Si Si1 0.250000 0.750000 0.361646
Si Si2 0.250000 0.750000 0.635176
Si Si3 0.092687 0.069144 0.559713
Si Si4 0.986647 0.513252 0.715100
O O1 0.356010 0.596837 0.401660
O O2 0.464925 0.836434 0.323894
O O3 0.263424 0.582160 0.593438
O O4 0.026035 0.695601 0.677821
O O5 0.250000 0.250000 0.551496
O O6 0.000000 0.000000 0.500000
O O7 0.231788 0.472267 0.751020
#
# Coordination Sequence:
#
# PCOD8229872 Si02
#       4
#     4   4   8   8
#     4  12  28  50  78 116 170 206 280 340 406 502
#     4  12  28  52  86 114 170 220 270 350 418 490
#     4  12  29  52  81 120 161 215 280 344 419 498
#     4  12  29  51  83 125 166 222 279 338 419 501
#
# _framework density 25.022296000000001
#
# number of rings (size 3 to 8) (size 9 to 14) (size 15 to 20)
#    0.000    0.000    3.333    4.000    4.667   14.667 
#    0.000    0.000    0.000    0.000    0.000    0.000 
#    0.000    0.000    0.000    0.000    0.000    0.000 
#
# Total GULP energy -297394.097196 kJ/mol
# GULP energy per Si atom -12391.420717 kJ/mol
# Density = 2.496534 g / cm^3
# Si number density = 25.022296 Si / 1000 Ang^3
#
#
#
# Elastic Constant Matrix: (Units=GPa)
#
#
# Indices 1 2 3 4 5 6 
#
# 1 159.3961 61.6190 95.0920 0.0000 0.0000 0.0000
# 2 61.6190 164.0347 82.0275 0.0000 0.0000 0.0000
# 3 95.0920 82.0275 197.1186 0.0000 0.0000 0.0000
# 4 0.0000 0.0000 0.0000 40.4666 0.0000 0.0000
# 5 0.0000 0.0000 0.0000 0.0000 32.7594 0.0000
# 6 0.0000 0.0000 0.0000 0.0000 0.0000 46.6347
#
#
#
# Elastic Compliance Matrix: (Units=1/GPa)
#
#
# Indices 1 2 3 4 5 6 
#
# 1 0.009109 -0.001546 -0.003751 0.000000 0.000000 0.000000
# 2 -0.001546 0.007961 -0.002567 0.000000 0.000000 0.000000
# 3 -0.003751 -0.002567 0.007951 0.000000 0.000000 0.000000
# 4 0.000000 0.000000 0.000000 0.024712 0.000000 0.000000
# 5 0.000000 0.000000 0.000000 0.000000 0.030526 0.000000
# 6 0.000000 0.000000 0.000000 0.000000 0.000000 0.021443
#
#
# Mechanical properties :
#
#
# Convention : Reuss Voigt Hill
#
# Bulk Modulus (GPa) = 107.61109 110.89180 109.25145
# Shear Modulus (GPa) = 41.48472 42.75953 42.12213
#
# Velocity S-wave (km/s) = 4.07616 4.13832 4.10736
# Velocity P-wave (km/s) = 8.07793 8.20047 8.13943
#
# Compressibility (1/GPa) = 0.00929272
#
# Stress axis : x y z
#
# Youngs Moduli (GPa) = 109.78049 125.61821 125.77480
#
# Poissons Ratio (x) = 0.19422 0.47177
# Poissons Ratio (y) = 0.16973 0.32284
# Poissons Ratio (z) = 0.41178 0.32244
#
# Static dielectric constant tensor:
#      x y z
#    x 4.474790 0.000000 0.000000 
#    y 0.000000 4.667020 0.000000 
#    z 0.000000 0.000000 5.068100 
# 
# 
# High freq. dielectric constant tensor:
#      x y z
#    x 1.993600 0.000000 0.000000 
#    y 0.000000 2.015700 0.000000 
#    z 0.000000 0.000000 2.023640 
# 
# From -- ./inp_files/19750.got.cif
#   From: 2010.03.12/outbox.cif.g09.slc.cpg/sg56_10_cif.got.tgz:19750.got - 2010.04.16 15:33:40.
