data_PCOD8229427
_publ_section_title
;
Structure prediction by ZEFSAII (Michael W. Deem and Ramdas Pophale) SiO2 
 PCOD8229427
Probable space group: P C C N
;
_chemical_formula_sum "Si O2"
_cell_formula_units_Z 36
_cell_length_a 10.670211
_cell_length_b 13.407187
_cell_length_c 9.946203
_cell_angle_alpha 90.000000
_cell_angle_beta 90.000000
_cell_angle_gamma 90.000000
_cell_volume 1422.879077
_symmetry_space_group_name_H-M "P C C N"
_symmetry_group_IT_number 56
_symmetry_cell_setting 'orthorhombic'
loop_
_space_group_symop_operation_xyz
x,y,z
1/2-x,1/2-y,z
1/2+x,-y,1/2-z
-x,1/2+y,1/2-z
-x,-y,-z
1/2+x,1/2+y,-z
1/2-x,y,1/2+z
x,1/2-y,1/2+z
loop_
_atom_site_type_symbol
_atom_site_label
_atom_site_fract_x
_atom_site_fract_y
_atom_site_fract_z
Si Si1 0.855880 0.042155 0.493973
Si Si2 0.111705 0.227150 0.900084
Si Si3 0.844354 0.978275 0.203936
Si Si4 0.512932 0.160261 0.672170
Si Si5 0.250000 0.750000 0.417775
O O1 0.105047 0.134078 0.799395
O O2 0.799030 0.004522 0.353401
O O3 0.776210 0.988004 0.608775
O O4 0.000000 0.000000 0.500000
O O5 0.250000 0.250000 0.948116
O O6 0.057716 0.318286 0.811958
O O7 0.828210 0.337056 0.999771
O O8 0.042007 0.208172 0.038714
O O9 0.967996 0.041436 0.159846
O O10 0.654709 0.199012 0.685036
#
# Coordination Sequence:
#
# PCOD8229427 Si02
#       5
#     8   8   8   8   4
#     4  11  26  47  78 113 160 209 267 338 405 488
#     4  12  28  47  78 109 158 202 259 326 407 476
#     4  11  28  46  78 110 156 207 264 325 407 476
#     4  11  26  49  73 113 150 201 264 324 394 490
#     4  10  24  46  76 110 150 204 262 328 404 472
#
# _framework density 25.300815
#
# number of rings (size 3 to 8) (size 9 to 14) (size 15 to 20)
#    0.000    0.889    0.000    4.000   12.444   15.111 
#    0.000    0.000    0.000    0.000    0.000    0.000 
#    0.000    0.000    0.000    0.000    0.000    0.000 
#
# Total GULP energy -446069.152334 kJ/mol
# GULP energy per Si atom -12390.809787 kJ/mol
# Density = 2.524323 g / cm^3
# Si number density = 25.300815 Si / 1000 Ang^3
#
#
#
# Elastic Constant Matrix: (Units=GPa)
#
#
# Indices 1 2 3 4 5 6 
#
# 1 135.4448 39.2745 49.2342 0.0000 0.0000 0.0000
# 2 39.2745 115.0124 3.9382 0.0000 0.0000 0.0000
# 3 49.2342 3.9382 152.0667 0.0000 0.0000 0.0000
# 4 0.0000 0.0000 0.0000 30.9385 0.0000 0.0000
# 5 0.0000 0.0000 0.0000 0.0000 31.6045 0.0000
# 6 0.0000 0.0000 0.0000 0.0000 0.0000 39.0882
#
#
#
# Elastic Compliance Matrix: (Units=1/GPa)
#
#
# Indices 1 2 3 4 5 6 
#
# 1 0.009351 -0.003092 -0.002948 0.000000 0.000000 0.000000
# 2 -0.003092 0.009725 0.000749 0.000000 0.000000 0.000000
# 3 -0.002948 0.000749 0.007511 0.000000 0.000000 0.000000
# 4 0.000000 0.000000 0.000000 0.032322 0.000000 0.000000
# 5 0.000000 0.000000 0.000000 0.000000 0.031641 0.000000
# 6 0.000000 0.000000 0.000000 0.000000 0.000000 0.025583
#
#
# Mechanical properties :
#
#
# Convention : Reuss Voigt Hill
#
# Bulk Modulus (GPa) = 62.47594 65.26861 63.87228
# Shear Modulus (GPa) = 37.86446 40.99805 39.43126
#
# Velocity S-wave (km/s) = 3.87275 4.02982 3.95206
# Velocity P-wave (km/s) = 6.68913 6.89243 6.79154
#
# Compressibility (1/GPa) = 0.01600616
#
# Stress axis : x y z
#
# Youngs Moduli (GPa) = 106.93849 102.82755 133.13869
#
# Poissons Ratio (x) = 0.31798 0.39243
# Poissons Ratio (y) = 0.33069 -0.09977
# Poissons Ratio (z) = 0.31520 -0.07705
#
# Static dielectric constant tensor:
#      x y z
#    x 4.728880 0.000000 0.000000 
#    y 0.000000 5.174090 0.000000 
#    z 0.000000 0.000000 4.490990 
# 
# 
# High freq. dielectric constant tensor:
#      x y z
#    x 2.016200 0.000000 0.000000 
#    y 0.000000 2.031180 0.000000 
#    z 0.000000 0.000000 2.009890 
# 
# From -- ./inp_files/6274.got.cif
#   From: 2010.03.12/outbox.cif.g09.slc.cpg/sg56_4_cif.got.tgz:6274.got - 2010.04.16 15:33:40.
