data_PCOD8229971
_publ_section_title
;
Structure prediction by ZEFSAII (Michael W. Deem and Ramdas Pophale) SiO2 
 PCOD8229971
Probable space group: P B C M
;
_chemical_formula_sum "Si O2"
_cell_formula_units_Z 48
_cell_length_a 9.125353
_cell_length_b 31.259631
_cell_length_c 8.722301
_cell_angle_alpha 90.000000
_cell_angle_beta 90.000000
_cell_angle_gamma 90.000000
_cell_volume 2488.081433
_symmetry_space_group_name_H-M "P B C M"
_symmetry_group_IT_number 57
_symmetry_cell_setting 'orthorhombic'
loop_
_space_group_symop_operation_xyz
x,y,z
-x,-y,1/2+z
x,1/2-y,-z
-x,1/2+y,1/2-z
-x,-y,-z
x,y,1/2-z
-x,1/2+y,z
x,1/2-y,1/2+z
loop_
_atom_site_type_symbol
_atom_site_label
_atom_site_fract_x
_atom_site_fract_y
_atom_site_fract_z
Si Si1 0.077319 0.884683 0.075940
Si Si2 0.903492 0.209388 0.928829
Si Si3 0.421701 0.619475 0.928709
Si Si4 0.586926 0.207033 0.069482
Si Si5 0.416940 0.460020 0.931106
Si Si6 0.085931 0.460795 0.929084
O O1 0.050101 0.899727 0.250000
O O2 0.015169 0.836235 0.051314
O O3 0.249412 0.885798 0.038485
O O4 0.991849 0.915943 0.964017
O O5 0.863904 0.216337 0.750000
O O6 0.995204 0.250000 0.000000
O O7 0.758155 0.208002 0.030924
O O8 0.457038 0.615903 0.750000
O O9 0.481435 0.664909 0.990508
O O10 0.506408 0.583322 0.019382
O O11 0.560125 0.205105 0.250000
O O12 0.511752 0.250000 0.000000
O O13 0.420767 0.463864 0.750000
O O14 0.250833 0.460105 0.993966
O O15 0.500000 0.500000 0.000000
O O16 0.087743 0.468006 0.750000
O O17 0.000000 0.500000 0.000000
#
# Coordination Sequence:
#
# PCOD8229971 Si02
#       6
#     8   8   8   8   8   8
#     4   9  19  34  53  79 110 140 177 220 264 313
#     4   9  16  27  45  73 107 141 178 221 262 308
#     4  10  20  35  55  81 110 142 180 224 268 316
#     4  10  17  27  46  74 108 144 180 221 265 312
#     4  11  24  40  57  81 108 138 176 220 267 322
#     4  11  24  39  57  80 107 137 175 218 263 317
#
# _framework density 19.291972999999999
#
# number of rings (size 3 to 8) (size 9 to 14) (size 15 to 20)
#    0.000    2.000    0.000    6.500    0.000   10.667 
#    0.000    0.000    0.000    1.000    0.000    2.333 
#    0.000    0.000    0.000    0.000    0.000    0.000 
#
# Total GULP energy -595050.622921 kJ/mol
# GULP energy per Si atom -12396.887978 kJ/mol
# Density = 1.924806 g / cm^3
# Si number density = 19.291973 Si / 1000 Ang^3
#
#
#
# Elastic Constant Matrix: (Units=GPa)
#
#
# Indices 1 2 3 4 5 6 
#
# 1 61.0121 47.4673 25.4238 0.0000 0.0000 0.0000
# 2 47.4673 167.1333 33.4841 0.0000 0.0000 0.0000
# 3 25.4238 33.4841 70.0310 0.0000 0.0000 0.0000
# 4 0.0000 0.0000 0.0000 43.9531 0.0000 0.0000
# 5 0.0000 0.0000 0.0000 0.0000 22.2303 0.0000
# 6 0.0000 0.0000 0.0000 0.0000 0.0000 20.0583
#
#
#
# Elastic Compliance Matrix: (Units=1/GPa)
#
#
# Indices 1 2 3 4 5 6 
#
# 1 0.022972 -0.005368 -0.005773 0.000000 0.000000 0.000000
# 2 -0.005368 0.007871 -0.001815 0.000000 0.000000 0.000000
# 3 -0.005773 -0.001815 0.017243 0.000000 0.000000 0.000000
# 4 0.000000 0.000000 0.000000 0.022752 0.000000 0.000000
# 5 0.000000 0.000000 0.000000 0.000000 0.044984 0.000000
# 6 0.000000 0.000000 0.000000 0.000000 0.000000 0.049855
#
#
# Mechanical properties :
#
#
# Convention : Reuss Voigt Hill
#
# Bulk Modulus (GPa) = 45.09617 56.76963 50.93290
# Shear Modulus (GPa) = 25.12830 30.03509 27.58169
#
# Velocity S-wave (km/s) = 3.61297 3.95000 3.78524
# Velocity P-wave (km/s) = 6.38992 7.09181 6.74999
#
# Compressibility (1/GPa) = 0.02217483
#
# Stress axis : x y z
#
# Youngs Moduli (GPa) = 43.53159 127.04401 57.99443
#
# Poissons Ratio (x) = 0.68192 0.33481
# Poissons Ratio (y) = 0.23366 0.10525
# Poissons Ratio (z) = 0.25132 0.23057
#
# Static dielectric constant tensor:
#      x y z
#    x 3.272820 0.000000 0.000000 
#    y 0.000000 4.208550 0.000000 
#    z 0.000000 0.000000 3.587790 
# 
# 
# High freq. dielectric constant tensor:
#      x y z
#    x 1.698590 0.000000 0.000000 
#    y 0.000000 1.782080 0.000000 
#    z 0.000000 0.000000 1.762160 
# 
# From -- ./inp_files/2061.got.cif
#   From: 2010.03.12/outbox.cif.g09.slc.cpg/sg57_2_cif.got.tgz:2061.got - 2010.04.16 15:48:40.
