data_PCOD8229610
_publ_section_title
;
Structure prediction by ZEFSAII (Michael W. Deem and Ramdas Pophale) SiO2 
 PCOD8229610
Probable space group: P C C N
;
_chemical_formula_sum "Si O2"
_cell_formula_units_Z 64
_cell_length_a 12.820422
_cell_length_b 26.523695
_cell_length_c 9.352980
_cell_angle_alpha 90.000000
_cell_angle_beta 90.000000
_cell_angle_gamma 90.000000
_cell_volume 3180.433737
_symmetry_space_group_name_H-M "P C C N"
_symmetry_group_IT_number 56
_symmetry_cell_setting 'orthorhombic'
loop_
_space_group_symop_operation_xyz
x,y,z
1/2-x,1/2-y,z
1/2+x,-y,1/2-z
-x,1/2+y,1/2-z
-x,-y,-z
1/2+x,1/2+y,-z
1/2-x,y,1/2+z
x,1/2-y,1/2+z
loop_
_atom_site_type_symbol
_atom_site_label
_atom_site_fract_x
_atom_site_fract_y
_atom_site_fract_z
Si Si1 0.334449 0.024234 0.936899
Si Si2 0.830014 0.411311 0.116974
Si Si3 0.644853 0.528111 0.241755
Si Si4 0.407600 0.579826 0.874582
Si Si5 0.999764 0.608519 0.099840
Si Si6 0.358004 0.299354 0.822175
Si Si7 0.009218 0.889697 0.167590
Si Si8 0.349716 0.302671 0.482343
O O1 0.235667 0.050622 0.860344
O O2 0.439128 0.056008 0.920068
O O3 0.347641 0.970852 0.858152
O O4 0.307689 0.015297 0.103215
O O5 0.708389 0.397872 0.105294
O O6 0.880906 0.382300 0.251513
O O7 0.887600 0.393802 0.973989
O O8 0.593948 0.478053 0.175631
O O9 0.561985 0.573007 0.262728
O O10 0.472783 0.614955 0.765995
O O11 0.472778 0.582984 0.018461
O O12 0.935325 0.654415 0.035774
O O13 0.455153 0.335767 0.848792
O O14 0.333969 0.292430 0.652306
O O15 0.257249 0.321006 0.906840
O O16 0.388388 0.246664 0.897164
#
# Coordination Sequence:
#
# PCOD8229610 Si02
#       8
#     8   8   8   8   8   8   8   8
#     4  11  23  37  61  87 130 160 205 251 304 366
#     4  11  22  43  58  86 124 167 207 249 297 349
#     4  11  23  39  57  92 126 164 203 253 303 364
#     4  11  26  36  63  88 123 168 206 255 290 358
#     4  12  22  41  64  89 119 167 204 250 308 360
#     4  11  24  43  68  97 126 156 192 253 309 373
#     4  12  24  40  64  89 125 160 212 249 306 363
#     4  11  24  42  69  95 128 153 195 248 313 372
#
# _framework density 20.123042000000002
#
# number of rings (size 3 to 8) (size 9 to 14) (size 15 to 20)
#    0.000    0.750    3.750    4.500   10.500    0.000 
#    0.000    0.000    0.000    4.500    0.000    0.000 
#    0.000    0.000    0.000    0.000    0.000    0.000 
#
# Total GULP energy -793702.672015 kJ/mol
# GULP energy per Si atom -12401.604250 kJ/mol
# Density = 2.007724 g / cm^3
# Si number density = 20.123042 Si / 1000 Ang^3
#
#
#
# Elastic Constant Matrix: (Units=GPa)
#
#
# Indices 1 2 3 4 5 6 
#
# 1 74.4635 39.2065 33.0905 0.0000 0.0000 0.0000
# 2 39.2065 64.6015 16.6422 0.0000 0.0000 0.0000
# 3 33.0905 16.6422 130.4129 0.0000 0.0000 0.0000
# 4 0.0000 0.0000 0.0000 26.6408 0.0000 0.0000
# 5 0.0000 0.0000 0.0000 0.0000 41.8885 0.0000
# 6 0.0000 0.0000 0.0000 0.0000 0.0000 25.7316
#
#
#
# Elastic Compliance Matrix: (Units=1/GPa)
#
#
# Indices 1 2 3 4 5 6 
#
# 1 0.021515 -0.012047 -0.003922 0.000000 0.000000 0.000000
# 2 -0.012047 0.022751 0.000153 0.000000 0.000000 0.000000
# 3 -0.003922 0.000153 0.008643 0.000000 0.000000 0.000000
# 4 0.000000 0.000000 0.000000 0.037536 0.000000 0.000000
# 5 0.000000 0.000000 0.000000 0.000000 0.023873 0.000000
# 6 0.000000 0.000000 0.000000 0.000000 0.000000 0.038863
#
#
# Mechanical properties :
#
#
# Convention : Reuss Voigt Hill
#
# Bulk Modulus (GPa) = 46.99479 49.70628 48.35053
# Shear Modulus (GPa) = 26.05433 30.88809 28.47121
#
# Velocity S-wave (km/s) = 3.60217 3.92211 3.76554
# Velocity P-wave (km/s) = 6.38007 6.72795 6.55632
#
# Compressibility (1/GPa) = 0.02127896
#
# Stress axis : x y z
#
# Youngs Moduli (GPa) = 46.47842 43.95322 115.69409
#
# Poissons Ratio (x) = 0.52952 0.45374
# Poissons Ratio (y) = 0.55994 -0.01776
# Poissons Ratio (z) = 0.18228 -0.00675
#
# Static dielectric constant tensor:
#      x y z
#    x 3.737990 0.000000 0.000000 
#    y 0.000000 3.391050 0.000000 
#    z 0.000000 0.000000 3.896220 
# 
# 
# High freq. dielectric constant tensor:
#      x y z
#    x 1.787540 0.000000 0.000000 
#    y 0.000000 1.755320 0.000000 
#    z 0.000000 0.000000 1.809080 
# 
# From -- ./inp_files/2957.got.cif
#   From: 2010.03.12/outbox.cif.g09.slc.cpg/sg56_2_cif.got.tgz:2957.got - 2010.04.16 15:33:40.
