data_PCOD8229981
_publ_section_title
;
Structure prediction by ZEFSAII (Michael W. Deem and Ramdas Pophale) SiO2 
 PCOD8229981
Probable space group: P B C M
;
_chemical_formula_sum "Si O2"
_cell_formula_units_Z 64
_cell_length_a 9.215867
_cell_length_b 22.563997
_cell_length_c 17.559373
_cell_angle_alpha 90.000000
_cell_angle_beta 90.000000
_cell_angle_gamma 90.000000
_cell_volume 3651.415344
_symmetry_space_group_name_H-M "P B C M"
_symmetry_group_IT_number 57
_symmetry_cell_setting 'orthorhombic'
loop_
_space_group_symop_operation_xyz
x,y,z
-x,-y,1/2+z
x,1/2-y,-z
-x,1/2+y,1/2-z
-x,-y,-z
x,y,1/2-z
-x,1/2+y,z
x,1/2-y,1/2+z
loop_
_atom_site_type_symbol
_atom_site_label
_atom_site_fract_x
_atom_site_fract_y
_atom_site_fract_z
Si Si1 0.262789 0.318065 0.838940
Si Si2 0.103642 0.993968 0.165894
Si Si3 0.437152 0.367949 0.526634
Si Si4 0.246503 0.475544 0.984683
Si Si5 0.978967 0.602395 0.570786
Si Si6 0.965877 0.118831 0.334219
Si Si7 0.761131 0.104271 0.466103
Si Si8 0.773113 0.791370 0.067191
O O1 0.296749 0.327685 0.750000
O O2 0.384079 0.351965 0.888189
O O3 0.264753 0.248260 0.859215
O O4 0.107739 0.345582 0.862763
O O5 0.174192 0.985790 0.250000
O O6 0.229031 0.003451 0.103035
O O7 0.996529 0.049286 0.166638
O O8 0.007303 0.936101 0.146354
O O9 0.388854 0.435083 0.506747
O O10 0.609439 0.362744 0.521249
O O11 0.371748 0.322811 0.464571
O O12 0.262133 0.533056 0.038196
O O13 0.104449 0.437505 0.007915
O O14 0.132482 0.621413 0.535091
O O15 0.890494 0.660562 0.593590
O O16 0.923330 0.141400 0.250000
O O17 0.829467 0.130138 0.388619
O O18 0.838237 0.750000 0.000000
#
# Coordination Sequence:
#
# PCOD8229981 Si02
#       8
#     8   8   8   8   8   8   8   8
#     4  10  20  37  57  72  95 135 177 215 253 299
#     4  10  17  28  50  76 103 132 163 205 255 306
#     4  10  20  31  50  75 103 133 171 206 248 299
#     4  10  17  32  48  74 103 141 169 197 241 310
#     4  10  18  32  53  76 104 133 170 211 258 301
#     4  10  18  31  52  78 104 130 166 211 256 303
#     4  11  18  30  50  78 107 131 159 206 258 300
#     4   9  19  36  53  72  96 132 181 216 242 302
#
# _framework density 17.527450000000002
#
# number of rings (size 3 to 8) (size 9 to 14) (size 15 to 20)
#    0.000    2.000    3.750    2.625    0.000    1.000 
#    0.000    5.625    0.000    3.000    0.000    0.000 
#    0.000    0.000    0.000    0.000    0.000    0.000 
#
# Total GULP energy -793515.140580 kJ/mol
# GULP energy per Si atom -12398.674072 kJ/mol
# Density = 1.748756 g / cm^3
# Si number density = 17.527450 Si / 1000 Ang^3
#
#
#
# Elastic Constant Matrix: (Units=GPa)
#
#
# Indices 1 2 3 4 5 6 
#
# 1 113.0202 35.3140 33.9724 0.0000 0.0000 0.0000
# 2 35.3140 79.7565 20.6207 0.0000 0.0000 0.0000
# 3 33.9724 20.6207 77.9213 0.0000 0.0000 0.0000
# 4 0.0000 0.0000 0.0000 16.8754 0.0000 0.0000
# 5 0.0000 0.0000 0.0000 0.0000 16.2075 0.0000
# 6 0.0000 0.0000 0.0000 0.0000 0.0000 15.0463
#
#
#
# Elastic Compliance Matrix: (Units=1/GPa)
#
#
# Indices 1 2 3 4 5 6 
#
# 1 0.011251 -0.003986 -0.003850 0.000000 0.000000 0.000000
# 2 -0.003986 0.014871 -0.002198 0.000000 0.000000 0.000000
# 3 -0.003850 -0.002198 0.015094 0.000000 0.000000 0.000000
# 4 0.000000 0.000000 0.000000 0.059258 0.000000 0.000000
# 5 0.000000 0.000000 0.000000 0.000000 0.061700 0.000000
# 6 0.000000 0.000000 0.000000 0.000000 0.000000 0.066461
#
#
# Mechanical properties :
#
#
# Convention : Reuss Voigt Hill
#
# Bulk Modulus (GPa) = 47.28624 50.05692 48.67158
# Shear Modulus (GPa) = 19.55019 21.67857 20.61438
#
# Velocity S-wave (km/s) = 3.34339 3.52068 3.43318
# Velocity P-wave (km/s) = 6.47621 6.71923 6.59884
#
# Compressibility (1/GPa) = 0.02114780
#
# Stress axis : x y z
#
# Youngs Moduli (GPa) = 88.88251 67.24378 66.25283
#
# Poissons Ratio (x) = 0.26804 0.25509
# Poissons Ratio (y) = 0.35429 0.14560
# Poissons Ratio (z) = 0.34223 0.14778
#
# Static dielectric constant tensor:
#      x y z
#    x 2.983020 0.000000 0.000000 
#    y 0.000000 3.342500 0.000000 
#    z 0.000000 0.000000 3.261520 
# 
# 
# High freq. dielectric constant tensor:
#      x y z
#    x 1.650340 0.000000 0.000000 
#    y 0.000000 1.676790 0.000000 
#    z 0.000000 0.000000 1.666960 
# 
# From -- ./inp_files/21518.got.cif
#   From: 2010.03.12/outbox.cif.g09.slc.cpg/sg57_11_cif.got.tgz:21518.got - 2010.04.16 15:48:40.
