data_PCOD8229175
_publ_section_title
;
Structure prediction by ZEFSAII (Michael W. Deem and Ramdas Pophale) SiO2 
 PCOD8229175
Probable space group: P C C N
;
_chemical_formula_sum "Si O2"
_cell_formula_units_Z 24
_cell_length_a 11.497250
_cell_length_b 4.877816
_cell_length_c 18.882555
_cell_angle_alpha 90.000000
_cell_angle_beta 90.000000
_cell_angle_gamma 90.000000
_cell_volume 1058.961442
_symmetry_space_group_name_H-M "P C C N"
_symmetry_group_IT_number 56
_symmetry_cell_setting 'orthorhombic'
loop_
_space_group_symop_operation_xyz
x,y,z
1/2-x,1/2-y,z
1/2+x,-y,1/2-z
-x,1/2+y,1/2-z
-x,-y,-z
1/2+x,1/2+y,-z
1/2-x,y,1/2+z
x,1/2-y,1/2+z
loop_
_atom_site_type_symbol
_atom_site_label
_atom_site_fract_x
_atom_site_fract_y
_atom_site_fract_z
Si Si1 0.327470 0.481037 0.595210
Si Si2 0.750000 0.250000 0.633732
Si Si3 0.976321 0.027530 0.704498
Si Si4 0.250000 0.250000 0.461378
O O1 0.250000 0.750000 0.593352
O O2 0.449334 0.528248 0.633741
O O3 0.350497 0.372941 0.513998
O O4 0.250000 0.250000 0.635774
O O5 0.851267 0.143066 0.684179
O O6 0.798832 0.502296 0.586623
O O7 0.041531 0.240317 0.755772
#
# Coordination Sequence:
#
# PCOD8229175 Si02
#       4
#     8   4   8   4
#     4  10  22  44  70  97 135 183 224 276 353 405
#     4  12  26  44  68 106 136 174 242 284 344 404
#     4  12  28  44  70 100 143 187 226 290 339 422
#     4  10  22  44  70 104 134 178 226 294 340 416
#
# _framework density 22.663712
#
# number of rings (size 3 to 8) (size 9 to 14) (size 15 to 20)
#    1.000    0.000    1.667    4.000    7.000    2.667 
#    0.000    0.000    0.000    0.000    0.000    0.000 
#    0.000    0.000    0.000    0.000    0.000    0.000 
#
# Total GULP energy -297468.327200 kJ/mol
# GULP energy per Si atom -12394.513633 kJ/mol
# Density = 2.261213 g / cm^3
# Si number density = 22.663712 Si / 1000 Ang^3
#
#
#
# Elastic Constant Matrix: (Units=GPa)
#
#
# Indices 1 2 3 4 5 6 
#
# 1 81.7463 1.6870 23.1004 0.0000 0.0000 0.0000
# 2 1.6870 125.9739 19.4833 0.0000 0.0000 0.0000
# 3 23.1004 19.4833 91.7903 0.0000 0.0000 0.0000
# 4 0.0000 0.0000 0.0000 -46.9333 0.0000 0.0000
# 5 0.0000 0.0000 0.0000 0.0000 22.7524 0.0000
# 6 0.0000 0.0000 0.0000 0.0000 0.0000 25.2243
#
#
#
# Elastic Compliance Matrix: (Units=1/GPa)
#
#
# Indices 1 2 3 4 5 6 
#
# 1 0.013184 0.000348 -0.003392 0.000000 0.000000 0.000000
# 2 0.000348 0.008217 -0.001832 0.000000 0.000000 0.000000
# 3 -0.003392 -0.001832 0.012137 0.000000 0.000000 0.000000
# 4 0.000000 0.000000 0.000000 -0.021307 0.000000 0.000000
# 5 0.000000 0.000000 0.000000 0.000000 0.043951 0.000000
# 6 0.000000 0.000000 0.000000 0.000000 0.000000 0.039644
#
#
# Mechanical properties :
#
#
# Convention : Reuss Voigt Hill
#
# Bulk Modulus (GPa) = 42.04010 43.11687 42.57849
# Shear Modulus (GPa) = 44.05023 17.22467 30.63745
#
# Velocity S-wave (km/s) = 4.41346 2.75982 3.68071
# Velocity P-wave (km/s) = 6.67543 5.40568 6.07383
#
# Compressibility (1/GPa) = 0.02378681
#
# Stress axis : x y z
#
# Youngs Moduli (GPa) = 75.84787 121.70220 82.39399
#
# Poissons Ratio (x) = -0.04236 0.27947
# Poissons Ratio (y) = -0.02640 0.15092
# Poissons Ratio (z) = 0.25727 0.22292
#
# Static dielectric constant tensor:
#      x y z
#    x 4.139400 0.000000 0.000000 
#    y 0.000000 5.629120 0.000000 
#    z 0.000000 0.000000 4.205390 
# 
# 
# High freq. dielectric constant tensor:
#      x y z
#    x 1.854000 0.000000 0.000000 
#    y 0.000000 1.922750 0.000000 
#    z 0.000000 0.000000 1.901500 
# 
# From -- ./inp_files/13607.got.cif
#   From: 2010.03.12/outbox.cif.g09.slc.cpg/sg56_7_cif.got.tgz:13607.got - 2010.04.16 15:33:40.
