data_PCOD8229477
_publ_section_title
;
Structure prediction by ZEFSAII (Michael W. Deem and Ramdas Pophale) SiO2 
 PCOD8229477
Probable space group: P C C N
;
_chemical_formula_sum "Si O2"
_cell_formula_units_Z 40
_cell_length_a 16.544220
_cell_length_b 8.486272
_cell_length_c 11.690202
_cell_angle_alpha 90.000000
_cell_angle_beta 90.000000
_cell_angle_gamma 90.000000
_cell_volume 1641.289759
_symmetry_space_group_name_H-M "P C C N"
_symmetry_group_IT_number 56
_symmetry_cell_setting 'orthorhombic'
loop_
_space_group_symop_operation_xyz
x,y,z
1/2-x,1/2-y,z
1/2+x,-y,1/2-z
-x,1/2+y,1/2-z
-x,-y,-z
1/2+x,1/2+y,-z
1/2-x,y,1/2+z
x,1/2-y,1/2+z
loop_
_atom_site_type_symbol
_atom_site_label
_atom_site_fract_x
_atom_site_fract_y
_atom_site_fract_z
Si Si1 0.942377 0.523015 0.773933
Si Si2 0.604725 0.880876 0.239826
Si Si3 0.165745 0.660671 0.385796
Si Si4 0.610205 0.040071 0.006088
Si Si5 0.727902 0.574204 0.936630
O O1 0.914521 0.698097 0.750115
O O2 0.876089 0.397816 0.730216
O O3 0.959788 0.498111 0.911996
O O4 0.028980 0.486193 0.716382
O O5 0.682347 0.926837 0.314785
O O6 0.622939 0.914290 0.107191
O O7 0.250000 0.750000 0.358116
O O8 0.103886 0.783506 0.445274
O O9 0.173637 0.508362 0.466467
O O10 0.689729 0.024853 0.924132
O O11 0.750000 0.750000 0.975606
#
# Coordination Sequence:
#
# PCOD8229477 Si02
#       5
#     8   8   8   8   8
#     4  12  27  49  75 109 153 195 246 309 377 447
#     4  12  28  48  76 110 151 199 249 305 379 446
#     4  10  26  45  79 107 149 193 250 305 373 438
#     4  11  26  48  76 105 150 192 247 306 371 444
#     4  11  24  47  75 106 142 195 252 306 364 440
#
# _framework density 24.371075999999999
#
# number of rings (size 3 to 8) (size 9 to 14) (size 15 to 20)
#    0.000    0.800    2.000    3.000   11.200    2.400 
#    0.000    0.000    0.000    0.000    0.000    0.000 
#    0.000    0.000    0.000    0.000    0.000    0.000 
#
# Total GULP energy -496062.067419 kJ/mol
# GULP energy per Si atom -12401.551685 kJ/mol
# Density = 2.431561 g / cm^3
# Si number density = 24.371076 Si / 1000 Ang^3
#
#
#
# Elastic Constant Matrix: (Units=GPa)
#
#
# Indices 1 2 3 4 5 6 
#
# 1 36.7034 11.8379 31.9482 0.0000 0.0000 0.0000
# 2 11.8379 130.4826 81.2659 0.0000 0.0000 0.0000
# 3 31.9482 81.2659 143.4401 0.0000 0.0000 0.0000
# 4 0.0000 0.0000 0.0000 26.9563 0.0000 0.0000
# 5 0.0000 0.0000 0.0000 0.0000 30.6951 0.0000
# 6 0.0000 0.0000 0.0000 0.0000 0.0000 40.1886
#
#
#
# Elastic Compliance Matrix: (Units=1/GPa)
#
#
# Indices 1 2 3 4 5 6 
#
# 1 0.034337 0.002546 -0.009091 0.000000 0.000000 0.000000
# 2 0.002546 0.012031 -0.007384 0.000000 0.000000 0.000000
# 3 -0.009091 -0.007384 0.013179 0.000000 0.000000 0.000000
# 4 0.000000 0.000000 0.000000 0.037097 0.000000 0.000000
# 5 0.000000 0.000000 0.000000 0.000000 0.032579 0.000000
# 6 0.000000 0.000000 0.000000 0.000000 0.000000 0.024883
#
#
# Mechanical properties :
#
#
# Convention : Reuss Voigt Hill
#
# Bulk Modulus (GPa) = 31.55319 62.30336 46.92827
# Shear Modulus (GPa) = 25.97062 31.93961 28.95511
#
# Velocity S-wave (km/s) = 3.26794 3.62408 3.45061
# Velocity P-wave (km/s) = 5.21674 6.56749 5.93070
#
# Compressibility (1/GPa) = 0.03169252
#
# Stress axis : x y z
#
# Youngs Moduli (GPa) = 29.12319 83.11606 75.87597
#
# Poissons Ratio (x) = -0.21165 0.68975
# Poissons Ratio (y) = -0.07416 0.56023
# Poissons Ratio (z) = 0.26474 0.61369
#
# Static dielectric constant tensor:
#      x y z
#    x 4.640660 0.000000 0.000000 
#    y 0.000000 4.360550 0.000000 
#    z 0.000000 0.000000 4.428770 
# 
# 
# High freq. dielectric constant tensor:
#      x y z
#    x 1.982740 0.000000 0.000000 
#    y 0.000000 1.973340 0.000000 
#    z 0.000000 0.000000 1.970490 
# 
# From -- ./inp_files/8181.got.cif
#   From: 2010.03.12/outbox.cif.g09.slc.cpg/sg56_5_cif.got.tgz:8181.got - 2010.04.16 15:33:40.
