data_PCOD8229658
_publ_section_title
;
Structure prediction by ZEFSAII (Michael W. Deem and Ramdas Pophale) SiO2 
 PCOD8229658
Probable space group: P C C N
;
_chemical_formula_sum "Si O2"
_cell_formula_units_Z 48
_cell_length_a 8.465282
_cell_length_b 29.207207
_cell_length_c 8.637055
_cell_angle_alpha 90.000000
_cell_angle_beta 90.000000
_cell_angle_gamma 90.000000
_cell_volume 2135.488042
_symmetry_space_group_name_H-M "P C C N"
_symmetry_group_IT_number 56
_symmetry_cell_setting 'orthorhombic'
loop_
_space_group_symop_operation_xyz
x,y,z
1/2-x,1/2-y,z
1/2+x,-y,1/2-z
-x,1/2+y,1/2-z
-x,-y,-z
1/2+x,1/2+y,-z
1/2-x,y,1/2+z
x,1/2-y,1/2+z
loop_
_atom_site_type_symbol
_atom_site_label
_atom_site_fract_x
_atom_site_fract_y
_atom_site_fract_z
Si Si1 0.838065 0.626367 0.353761
Si Si2 0.096686 0.272573 0.629117
Si Si3 0.098574 0.781077 0.154081
Si Si4 0.534313 0.449656 0.311565
Si Si5 0.848771 0.042107 0.650065
Si Si6 0.479379 0.378773 0.805268
O O1 0.871300 0.677793 0.300552
O O2 0.886419 0.618550 0.532058
O O3 0.649950 0.619778 0.332753
O O4 0.934559 0.594219 0.238046
O O5 0.250000 0.250000 0.545107
O O6 0.938451 0.276037 0.526402
O O7 0.057667 0.238807 0.767989
O O8 0.250000 0.750000 0.197163
O O9 0.100432 0.835009 0.201561
O O10 0.617747 0.440232 0.476626
O O11 0.416082 0.491892 0.323548
O O12 0.661594 0.460694 0.178357
O O13 0.915166 0.076686 0.779437
#
# Coordination Sequence:
#
# PCOD8229658 Si02
#       6
#     8   8   8   8   8   8
#     4  11  24  41  67 100 132 181 227 286 338 412
#     4  11  23  43  67  95 133 183 231 280 344 412
#     4  11  25  42  65  97 136 180 228 290 343 410
#     4  11  25  45  71 101 140 178 227 279 346 409
#     4  11  25  45  70 102 137 182 221 283 342 414
#     4  11  24  43  66 101 136 179 234 281 351 407
#
# _framework density 22.477298999999999
#
# number of rings (size 3 to 8) (size 9 to 14) (size 15 to 20)
#    0.000    1.000    1.667    4.000    4.667    6.667 
#    0.000    0.000    0.000    0.000    0.000    0.000 
#    0.000    0.000    0.000    0.000    0.000    0.000 
#
# Total GULP energy -595085.276011 kJ/mol
# GULP energy per Si atom -12397.609917 kJ/mol
# Density = 2.242614 g / cm^3
# Si number density = 22.477299 Si / 1000 Ang^3
#
#
#
# Elastic Constant Matrix: (Units=GPa)
#
#
# Indices 1 2 3 4 5 6 
#
# 1 97.3173 24.5463 25.3313 0.0000 0.0000 0.0000
# 2 24.5463 111.4828 49.0094 0.0000 0.0000 0.0000
# 3 25.3313 49.0094 59.3010 0.0000 0.0000 0.0000
# 4 0.0000 0.0000 0.0000 27.4274 0.0000 0.0000
# 5 0.0000 0.0000 0.0000 0.0000 35.0964 0.0000
# 6 0.0000 0.0000 0.0000 0.0000 0.0000 38.5030
#
#
#
# Elastic Compliance Matrix: (Units=1/GPa)
#
#
# Indices 1 2 3 4 5 6 
#
# 1 0.011586 -0.000589 -0.004462 0.000000 0.000000 0.000000
# 2 -0.000589 0.014119 -0.011417 0.000000 0.000000 0.000000
# 3 -0.004462 -0.011417 0.028204 0.000000 0.000000 0.000000
# 4 0.000000 0.000000 0.000000 0.036460 0.000000 0.000000
# 5 0.000000 0.000000 0.000000 0.000000 0.028493 0.000000
# 6 0.000000 0.000000 0.000000 0.000000 0.000000 0.025972
#
#
# Mechanical properties :
#
#
# Convention : Reuss Voigt Hill
#
# Bulk Modulus (GPa) = 47.68055 51.76391 49.72223
# Shear Modulus (GPa) = 27.06209 31.48631 29.27420
#
# Velocity S-wave (km/s) = 3.47360 3.74679 3.61278
# Velocity P-wave (km/s) = 6.11119 6.46509 6.29063
#
# Compressibility (1/GPa) = 0.02097291
#
# Stress axis : x y z
#
# Youngs Moduli (GPa) = 86.31298 70.82823 35.45559
#
# Poissons Ratio (x) = 0.04175 0.15820
# Poissons Ratio (y) = 0.05088 0.40478
# Poissons Ratio (z) = 0.38512 0.80862
#
# Static dielectric constant tensor:
#      x y z
#    x 3.936420 0.000000 0.000000 
#    y 0.000000 4.100330 0.000000 
#    z 0.000000 0.000000 3.959140 
# 
# 
# High freq. dielectric constant tensor:
#      x y z
#    x 1.889370 0.000000 0.000000 
#    y 0.000000 1.897370 0.000000 
#    z 0.000000 0.000000 1.886630 
# 
# From -- ./inp_files/2212.got.cif
#   From: 2010.03.12/outbox.cif.g09.slc.cpg/sg56_2_cif.got.tgz:2212.got - 2010.04.16 15:33:40.
