data_PCOD8229031
_publ_section_title
;
Structure prediction by ZEFSAII (Michael W. Deem and Ramdas Pophale) SiO2 
 PCOD8229031
Probable space group: P C C N
;
_chemical_formula_sum "Si O2"
_cell_formula_units_Z 32
_cell_length_a 8.029002
_cell_length_b 13.602325
_cell_length_c 11.788106
_cell_angle_alpha 90.000000
_cell_angle_beta 90.000000
_cell_angle_gamma 90.000000
_cell_volume 1287.415536
_symmetry_space_group_name_H-M "P C C N"
_symmetry_group_IT_number 56
_symmetry_cell_setting 'orthorhombic'
loop_
_space_group_symop_operation_xyz
x,y,z
1/2-x,1/2-y,z
1/2+x,-y,1/2-z
-x,1/2+y,1/2-z
-x,-y,-z
1/2+x,1/2+y,-z
1/2-x,y,1/2+z
x,1/2-y,1/2+z
loop_
_atom_site_type_symbol
_atom_site_label
_atom_site_fract_x
_atom_site_fract_y
_atom_site_fract_z
Si Si1 0.704682 0.440264 0.106462
Si Si2 0.998483 0.790424 0.019322
Si Si3 0.009480 0.588096 0.727259
Si Si4 0.334673 0.394782 0.545978
O O1 0.657415 0.338767 0.043839
O O2 0.534866 0.499848 0.138759
O O3 0.806924 0.420226 0.221092
O O4 0.826152 0.504048 0.024844
O O5 0.989409 0.672656 0.000598
O O6 0.835438 0.836568 0.963829
O O7 0.005614 0.811209 0.154288
O O8 0.865617 0.587021 0.821423
#
# Coordination Sequence:
#
# PCOD8229031 Si02
#       4
#     8   8   8   8
#     4  11  22  41  64  95 130 173 223 273 338 407
#     4  10  23  41  63  96 129 167 227 277 328 411
#     4  11  22  39  64  89 128 177 214 279 342 389
#     4  10  22  40  64  93 127 170 224 276 333 404
#
# _framework density 24.855999000000001
#
# number of rings (size 3 to 8) (size 9 to 14) (size 15 to 20)
#    0.000    1.500    0.000    6.750    0.000   11.000 
#    0.000    2.500    0.000    0.000    0.000    0.000 
#    0.000    0.000    0.000    0.000    0.000    0.000 
#
# Total GULP energy -396862.550072 kJ/mol
# GULP energy per Si atom -12401.954690 kJ/mol
# Density = 2.479943 g / cm^3
# Si number density = 24.855999 Si / 1000 Ang^3
#
#
#
# Elastic Constant Matrix: (Units=GPa)
#
#
# Indices 1 2 3 4 5 6 
#
# 1 88.5861 34.0211 25.9192 0.0000 0.0000 0.0000
# 2 34.0211 140.5319 52.5215 0.0000 0.0000 0.0000
# 3 25.9192 52.5215 143.8380 0.0000 0.0000 0.0000
# 4 0.0000 0.0000 0.0000 26.3172 0.0000 0.0000
# 5 0.0000 0.0000 0.0000 0.0000 35.9632 0.0000
# 6 0.0000 0.0000 0.0000 0.0000 0.0000 35.3785
#
#
#
# Elastic Compliance Matrix: (Units=1/GPa)
#
#
# Indices 1 2 3 4 5 6 
#
# 1 0.012667 -0.002563 -0.001347 0.000000 0.000000 0.000000
# 2 -0.002563 0.008759 -0.002736 0.000000 0.000000 0.000000
# 3 -0.001347 -0.002736 0.008194 0.000000 0.000000 0.000000
# 4 0.000000 0.000000 0.000000 0.037998 0.000000 0.000000
# 5 0.000000 0.000000 0.000000 0.000000 0.027806 0.000000
# 6 0.000000 0.000000 0.000000 0.000000 0.000000 0.028266
#
#
# Mechanical properties :
#
#
# Convention : Reuss Voigt Hill
#
# Bulk Modulus (GPa) = 61.24630 66.43108 63.83869
# Shear Modulus (GPa) = 35.10622 36.89805 36.00214
#
# Velocity S-wave (km/s) = 3.76225 3.85707 3.80995
# Velocity P-wave (km/s) = 6.60050 6.82791 6.71517
#
# Compressibility (1/GPa) = 0.01632752
#
# Stress axis : x y z
#
# Youngs Moduli (GPa) = 78.94629 114.16766 122.03896
#
# Poissons Ratio (x) = 0.29264 0.16434
# Poissons Ratio (y) = 0.20236 0.33395
# Poissons Ratio (z) = 0.10631 0.31241
#
# Static dielectric constant tensor:
#      x y z
#    x 4.341320 0.000000 0.000000 
#    y 0.000000 4.757170 0.000000 
#    z 0.000000 0.000000 4.369460 
# 
# 
# High freq. dielectric constant tensor:
#      x y z
#    x 1.998040 0.000000 0.000000 
#    y 0.000000 1.984560 0.000000 
#    z 0.000000 0.000000 1.989640 
# 
# From -- ./inp_files/5944.got.cif
#   From: 2010.03.12/outbox.cif.g09.slc.cpg/sg56_3_cif.got.tgz:5944.got - 2010.04.16 15:33:40.
