data_PCOD8229081
_publ_section_title
;
Structure prediction by ZEFSAII (Michael W. Deem and Ramdas Pophale) SiO2 
 PCOD8229081
Probable space group: P C C N
;
_chemical_formula_sum "Si O2"
_cell_formula_units_Z 64
_cell_length_a 15.806706
_cell_length_b 13.275089
_cell_length_c 14.211596
_cell_angle_alpha 90.000000
_cell_angle_beta 90.000000
_cell_angle_gamma 90.000000
_cell_volume 2982.096343
_symmetry_space_group_name_H-M "P C C N"
_symmetry_group_IT_number 56
_symmetry_cell_setting 'orthorhombic'
loop_
_space_group_symop_operation_xyz
x,y,z
1/2-x,1/2-y,z
1/2+x,-y,1/2-z
-x,1/2+y,1/2-z
-x,-y,-z
1/2+x,1/2+y,-z
1/2-x,y,1/2+z
x,1/2-y,1/2+z
loop_
_atom_site_type_symbol
_atom_site_label
_atom_site_fract_x
_atom_site_fract_y
_atom_site_fract_z
Si Si1 0.825602 0.315069 0.914008
Si Si2 0.510711 0.463234 0.798010
Si Si3 0.598195 0.919275 0.146239
Si Si4 0.667393 0.033821 0.749649
Si Si5 0.255794 0.537873 0.433877
Si Si6 0.498755 0.722252 0.089286
Si Si7 0.781563 0.644028 0.305305
Si Si8 0.611931 0.921062 0.461124
O O1 0.750000 0.250000 0.870254
O O2 0.855828 0.386790 0.829976
O O3 0.904435 0.247085 0.947642
O O4 0.786569 0.369650 0.004398
O O5 0.542835 0.489041 0.691870
O O6 0.416428 0.505260 0.806830
O O7 0.509063 0.341405 0.812938
O O8 0.564526 0.508963 0.884932
O O9 0.544491 0.829788 0.099667
O O10 0.642556 0.875641 0.236244
O O11 0.665347 0.959477 0.069623
O O12 0.735299 0.074710 0.672883
O O13 0.706959 0.937478 0.802145
O O14 0.168897 0.489383 0.470838
O O15 0.545917 0.649359 0.015593
O O16 0.750000 0.750000 0.271081
O O17 0.820367 0.650515 0.409428
#
# Coordination Sequence:
#
# PCOD8229081 Si02
#       8
#     8   8   8   8   8   8   8   8
#     4  12  28  47  69 105 145 183 241 293 360 436
#     4  11  23  47  68 100 143 186 236 295 359 427
#     4  10  25  44  68 102 138 177 238 290 355 421
#     4  11  23  46  73  97 143 189 230 301 352 417
#     4  11  25  47  72  99 141 190 235 298 365 422
#     4  12  25  43  72 104 138 187 234 301 354 434
#     4  10  22  41  67 102 132 182 233 278 350 422
#     4  11  24  41  72 100 141 187 236 293 352 431
#
# _framework density 21.461413
#
# number of rings (size 3 to 8) (size 9 to 14) (size 15 to 20)
#    0.000    1.000    3.750    1.875    8.750    1.000 
#    6.750    0.000    0.000    0.000    0.000    0.000 
#    0.000    0.000    0.000    0.000    0.000    0.000 
#
# Total GULP energy -793285.210680 kJ/mol
# GULP energy per Si atom -12395.081417 kJ/mol
# Density = 2.141257 g / cm^3
# Si number density = 21.461413 Si / 1000 Ang^3
#
#
#
# Elastic Constant Matrix: (Units=GPa)
#
#
# Indices 1 2 3 4 5 6 
#
# 1 132.8092 48.5401 37.5204 0.0000 0.0000 0.0000
# 2 48.5401 84.0927 34.1998 0.0000 0.0000 0.0000
# 3 37.5204 34.1998 69.1527 0.0000 0.0000 0.0000
# 4 0.0000 0.0000 0.0000 12.3118 0.0000 0.0000
# 5 0.0000 0.0000 0.0000 0.0000 70.6569 0.0000
# 6 0.0000 0.0000 0.0000 0.0000 0.0000 40.7676
#
#
#
# Elastic Compliance Matrix: (Units=1/GPa)
#
#
# Indices 1 2 3 4 5 6 
#
# 1 0.010094 -0.004505 -0.003249 0.000000 0.000000 0.000000
# 2 -0.004505 0.016896 -0.005912 0.000000 0.000000 0.000000
# 3 -0.003249 -0.005912 0.019147 0.000000 0.000000 0.000000
# 4 0.000000 0.000000 0.000000 0.081223 0.000000 0.000000
# 5 0.000000 0.000000 0.000000 0.000000 0.014153 0.000000
# 6 0.000000 0.000000 0.000000 0.000000 0.000000 0.024529
#
#
# Mechanical properties :
#
#
# Convention : Reuss Voigt Hill
#
# Bulk Modulus (GPa) = 53.17410 58.50837 55.84123
# Shear Modulus (GPa) = 25.04469 35.80018 30.42244
#
# Velocity S-wave (km/s) = 3.41979 4.08869 3.76911
# Velocity P-wave (km/s) = 6.35796 7.04352 6.70950
#
# Compressibility (1/GPa) = 0.01880615
#
# Stress axis : x y z
#
# Youngs Moduli (GPa) = 99.06865 59.18395 52.22729
#
# Poissons Ratio (x) = 0.26664 0.16967
# Poissons Ratio (y) = 0.44633 0.30876
# Poissons Ratio (z) = 0.32184 0.34988
#
# Static dielectric constant tensor:
#      x y z
#    x 2.778290 0.000000 0.000000 
#    y 0.000000 3.872790 0.000000 
#    z 0.000000 0.000000 3.838810 
# 
# 
# High freq. dielectric constant tensor:
#      x y z
#    x 1.866100 0.000000 0.000000 
#    y 0.000000 1.832840 0.000000 
#    z 0.000000 0.000000 1.836400 
# 
# From -- ./inp_files/12852.got.cif
#   From: 2010.03.12/outbox.cif.g09.slc.cpg/sg56_7_cif.got.tgz:12852.got - 2010.04.16 15:33:40.
