data_PCOD8229354
_publ_section_title
;
Structure prediction by ZEFSAII (Michael W. Deem and Ramdas Pophale) SiO2 
 PCOD8229354
Probable space group: P C C N
;
_chemical_formula_sum "Si O2"
_cell_formula_units_Z 48
_cell_length_a 10.057407
_cell_length_b 16.783274
_cell_length_c 14.362339
_cell_angle_alpha 90.000000
_cell_angle_beta 90.000000
_cell_angle_gamma 90.000000
_cell_volume 2424.308496
_symmetry_space_group_name_H-M "P C C N"
_symmetry_group_IT_number 56
_symmetry_cell_setting 'orthorhombic'
loop_
_space_group_symop_operation_xyz
x,y,z
1/2-x,1/2-y,z
1/2+x,-y,1/2-z
-x,1/2+y,1/2-z
-x,-y,-z
1/2+x,1/2+y,-z
1/2-x,y,1/2+z
x,1/2-y,1/2+z
loop_
_atom_site_type_symbol
_atom_site_label
_atom_site_fract_x
_atom_site_fract_y
_atom_site_fract_z
Si Si1 0.502107 0.670699 0.248059
Si Si2 0.963745 0.833620 0.653424
Si Si3 0.521155 0.620497 0.449538
Si Si4 0.785373 0.011040 0.495412
Si Si5 0.745430 0.093266 0.812765
Si Si6 0.284315 0.447916 0.820764
O O1 0.562625 0.748641 0.200231
O O2 0.513411 0.678070 0.360009
O O3 0.348934 0.661268 0.217500
O O4 0.582591 0.593522 0.214730
O O5 0.976761 0.824263 0.541657
O O6 0.097318 0.872178 0.694269
O O7 0.839809 0.888375 0.678324
O O8 0.652614 0.565885 0.443488
O O9 0.397652 0.560288 0.449432
O O10 0.684174 0.981372 0.575254
O O11 0.716668 0.066174 0.417917
O O12 0.758334 0.019035 0.745353
#
# Coordination Sequence:
#
# PCOD8229354 Si02
#       6
#     8   8   8   8   8   8
#     4  12  22  39  62  92 120 153 198 254 296 344
#     4  10  24  42  57  86 125 158 195 236 305 368
#     4   9  18  38  63  79 117 169 191 223 304 372
#     4   9  18  37  62  86 114 156 202 236 286 362
#     4  11  21  39  64  89 115 157 203 243 290 351
#     4  11  21  39  64  89 115 157 203 243 290 351
#
# _framework density 19.79946
#
# number of rings (size 3 to 8) (size 9 to 14) (size 15 to 20)
#    0.000    1.667    3.333    3.000    0.000    0.667 
#    6.000    3.333    0.000    0.000    0.000    0.000 
#    0.000    0.000    0.000    0.000    0.000    0.000 
#
# Total GULP energy -595283.148369 kJ/mol
# GULP energy per Si atom -12401.732258 kJ/mol
# Density = 1.975440 g / cm^3
# Si number density = 19.799460 Si / 1000 Ang^3
#
#
#
# Elastic Constant Matrix: (Units=GPa)
#
#
# Indices 1 2 3 4 5 6 
#
# 1 52.6169 -6.2293 15.2104 0.0000 0.0000 0.0000
# 2 -6.2293 62.8272 31.9436 0.0000 0.0000 0.0000
# 3 15.2104 31.9436 119.5191 0.0000 0.0000 0.0000
# 4 0.0000 0.0000 0.0000 29.5015 0.0000 0.0000
# 5 0.0000 0.0000 0.0000 0.0000 24.6828 0.0000
# 6 0.0000 0.0000 0.0000 0.0000 0.0000 26.8009
#
#
#
# Elastic Compliance Matrix: (Units=1/GPa)
#
#
# Indices 1 2 3 4 5 6 
#
# 1 0.020522 0.003891 -0.003652 0.000000 0.000000 0.000000
# 2 0.003891 0.019158 -0.005615 0.000000 0.000000 0.000000
# 3 -0.003652 -0.005615 0.010332 0.000000 0.000000 0.000000
# 4 0.000000 0.000000 0.000000 0.033897 0.000000 0.000000
# 5 0.000000 0.000000 0.000000 0.000000 0.040514 0.000000
# 6 0.000000 0.000000 0.000000 0.000000 0.000000 0.037312
#
#
# Mechanical properties :
#
#
# Convention : Reuss Voigt Hill
#
# Bulk Modulus (GPa) = 25.47117 35.20140 30.33628
# Shear Modulus (GPa) = 26.94362 29.13293 28.03828
#
# Velocity S-wave (km/s) = 3.69294 3.84005 3.76721
# Velocity P-wave (km/s) = 5.57461 6.12200 5.85470
#
# Compressibility (1/GPa) = 0.03926007
#
# Stress axis : x y z
#
# Youngs Moduli (GPa) = 48.72916 52.19864 96.78289
#
# Poissons Ratio (x) = -0.20312 0.35342
# Poissons Ratio (y) = -0.18962 0.54348
# Poissons Ratio (z) = 0.17794 0.29312
#
# Static dielectric constant tensor:
#      x y z
#    x 3.451750 0.000000 0.000000 
#    y 0.000000 3.433290 0.000000 
#    z 0.000000 0.000000 3.763400 
# 
# 
# High freq. dielectric constant tensor:
#      x y z
#    x 1.758620 0.000000 0.000000 
#    y 0.000000 1.759170 0.000000 
#    z 0.000000 0.000000 1.785570 
# 
# From -- ./inp_files/10667.got.cif
#   From: 2010.03.12/outbox.cif.g09.slc.cpg/sg56_6_cif.got.tgz:10667.got - 2010.04.16 15:33:40.
