data_PCOD8229406
_publ_section_title
;
Structure prediction by ZEFSAII (Michael W. Deem and Ramdas Pophale) SiO2 
 PCOD8229406
Probable space group: P C C N
;
_chemical_formula_sum "Si O2"
_cell_formula_units_Z 56
_cell_length_a 14.189113
_cell_length_b 20.562956
_cell_length_c 8.650999
_cell_angle_alpha 90.000000
_cell_angle_beta 90.000000
_cell_angle_gamma 90.000000
_cell_volume 2524.102898
_symmetry_space_group_name_H-M "P C C N"
_symmetry_group_IT_number 56
_symmetry_cell_setting 'orthorhombic'
loop_
_space_group_symop_operation_xyz
x,y,z
1/2-x,1/2-y,z
1/2+x,-y,1/2-z
-x,1/2+y,1/2-z
-x,-y,-z
1/2+x,1/2+y,-z
1/2-x,y,1/2+z
x,1/2-y,1/2+z
loop_
_atom_site_type_symbol
_atom_site_label
_atom_site_fract_x
_atom_site_fract_y
_atom_site_fract_z
Si Si1 0.935390 0.333056 0.384931
Si Si2 0.348506 0.722146 0.808506
Si Si3 0.333116 0.555127 0.284289
Si Si4 0.044467 0.052997 0.386692
Si Si5 0.847450 0.095413 0.362098
Si Si6 0.166659 0.328550 0.999640
Si Si7 0.357412 0.192133 0.355279
O O1 0.900215 0.313104 0.552442
O O2 0.916097 0.277646 0.257780
O O3 0.885722 0.399567 0.338012
O O4 0.046845 0.346259 0.391333
O O5 0.250000 0.750000 0.869759
O O6 0.323432 0.670432 0.673585
O O7 0.381355 0.483886 0.275819
O O8 0.224693 0.548269 0.229634
O O9 0.338512 0.585736 0.454807
O O10 0.099061 0.109734 0.476622
O O11 0.953689 0.082382 0.298666
O O12 0.000000 0.000000 0.500000
O O13 0.129092 0.267629 0.900965
O O14 0.274202 0.343562 0.949989
O O15 0.168328 0.309295 0.176783
#
# Coordination Sequence:
#
# PCOD8229406 Si02
#       7
#     8   8   8   8   8   8   8
#     4  12  24  40  65 101 136 177 229 284 353 424
#     4  12  24  40  67  99 137 180 223 292 362 411
#     4  11  24  42  65  96 134 183 231 281 338 418
#     4  10  24  45  69  95 136 191 231 279 347 413
#     4  11  23  44  66  95 136 174 231 289 347 413
#     4  11  23  43  69 100 137 177 228 290 350 415
#     4  11  23  41  67 101 134 170 223 290 352 407
#
# _framework density 22.186102000000002
#
# number of rings (size 3 to 8) (size 9 to 14) (size 15 to 20)
#    0.000    0.857    1.429    7.286    0.000    4.571 
#    0.000    2.857    0.000    3.429    0.000    0.000 
#    0.000    0.000    0.000    0.000    0.000    0.000 
#
# Total GULP energy -694564.105787 kJ/mol
# GULP energy per Si atom -12402.930460 kJ/mol
# Density = 2.213561 g / cm^3
# Si number density = 22.186102 Si / 1000 Ang^3
#
#
#
# Elastic Constant Matrix: (Units=GPa)
#
#
# Indices 1 2 3 4 5 6 
#
# 1 167.4377 35.1841 49.0908 0.0000 0.0000 0.0000
# 2 35.1841 82.6893 27.7915 0.0000 0.0000 0.0000
# 3 49.0908 27.7915 106.9665 0.0000 0.0000 0.0000
# 4 0.0000 0.0000 0.0000 6.0090 0.0000 0.0000
# 5 0.0000 0.0000 0.0000 0.0000 33.5692 0.0000
# 6 0.0000 0.0000 0.0000 0.0000 0.0000 40.9101
#
#
#
# Elastic Compliance Matrix: (Units=1/GPa)
#
#
# Indices 1 2 3 4 5 6 
#
# 1 0.007234 -0.002150 -0.002761 0.000000 0.000000 0.000000
# 2 -0.002150 0.013889 -0.002622 0.000000 0.000000 0.000000
# 3 -0.002761 -0.002622 0.011297 0.000000 0.000000 0.000000
# 4 0.000000 0.000000 0.000000 0.166417 0.000000 0.000000
# 5 0.000000 0.000000 0.000000 0.000000 0.029789 0.000000
# 6 0.000000 0.000000 0.000000 0.000000 0.000000 0.024444
#
#
# Mechanical properties :
#
#
# Convention : Reuss Voigt Hill
#
# Bulk Modulus (GPa) = 57.62338 64.58071 61.10205
# Shear Modulus (GPa) = 18.25342 32.43279 25.34310
#
# Velocity S-wave (km/s) = 2.87146 3.82756 3.38345
# Velocity P-wave (km/s) = 6.08464 6.97893 6.54707
#
# Compressibility (1/GPa) = 0.01735407
#
# Stress axis : x y z
#
# Youngs Moduli (GPa) = 138.24193 71.99684 88.51751
#
# Poissons Ratio (x) = 0.15478 0.24442
# Poissons Ratio (y) = 0.29720 0.23210
# Poissons Ratio (z) = 0.38172 0.18878
#
# Static dielectric constant tensor:
#      x y z
#    x 4.674660 0.000000 0.000000 
#    y 0.000000 4.255210 0.000000 
#    z 0.000000 0.000000 3.846470 
# 
# 
# High freq. dielectric constant tensor:
#      x y z
#    x 1.897500 0.000000 0.000000 
#    y 0.000000 1.862730 0.000000 
#    z 0.000000 0.000000 1.868410 
# 
# From -- ./inp_files/3572.got.cif
#   From: 2010.03.12/outbox.cif.g09.slc.cpg/sg56_2_cif.got.tgz:3572.got - 2010.04.16 15:33:40.
