data_PCOD8229389
_publ_section_title
;
Structure prediction by ZEFSAII (Michael W. Deem and Ramdas Pophale) SiO2 
 PCOD8229389
Probable space group: P C C N
;
_chemical_formula_sum "Si O2"
_cell_formula_units_Z 28
_cell_length_a 5.098783
_cell_length_b 21.491949
_cell_length_c 10.659088
_cell_angle_alpha 90.000000
_cell_angle_beta 90.000000
_cell_angle_gamma 90.000000
_cell_volume 1168.052540
_symmetry_space_group_name_H-M "P C C N"
_symmetry_group_IT_number 56
_symmetry_cell_setting 'orthorhombic'
loop_
_space_group_symop_operation_xyz
x,y,z
1/2-x,1/2-y,z
1/2+x,-y,1/2-z
-x,1/2+y,1/2-z
-x,-y,-z
1/2+x,1/2+y,-z
1/2-x,y,1/2+z
x,1/2-y,1/2+z
loop_
_atom_site_type_symbol
_atom_site_label
_atom_site_fract_x
_atom_site_fract_y
_atom_site_fract_z
Si Si1 0.058284 0.145148 0.661039
Si Si2 0.250000 0.750000 0.724157
Si Si3 0.547954 0.637515 0.614353
Si Si4 0.245255 0.959775 0.739866
O O1 0.253432 0.126054 0.771683
O O2 0.187431 0.142183 0.522030
O O3 0.953721 0.214658 0.685490
O O4 0.822919 0.094377 0.660691
O O5 0.394165 0.701726 0.633596
O O6 0.354075 0.577493 0.615700
O O7 0.502277 0.000229 0.704811
#
# Coordination Sequence:
#
# PCOD8229389 Si02
#       4
#     8   4   8   8
#     4  11  25  45  73 105 144 188 240 297 360 425
#     4  10  24  44  68 104 142 192 240 298 354 428
#     4  11  25  45  73 105 144 188 240 297 360 425
#     4  11  24  49  70 109 144 191 238 296 352 425
#
# _framework density 23.971525
#
# number of rings (size 3 to 8) (size 9 to 14) (size 15 to 20)
#    0.000    1.143    2.857    1.714    0.000   16.000 
#    0.000    0.000    0.000    0.000    0.000    0.000 
#    0.000    0.000    0.000    0.000    0.000    0.000 
#
# Total GULP energy -346972.386725 kJ/mol
# GULP energy per Si atom -12391.870954 kJ/mol
# Density = 2.391696 g / cm^3
# Si number density = 23.971525 Si / 1000 Ang^3
#
#
#
# Elastic Constant Matrix: (Units=GPa)
#
#
# Indices 1 2 3 4 5 6 
#
# 1 112.8489 28.9375 32.9563 0.0000 0.0000 0.0000
# 2 28.9375 108.3390 -8.7499 0.0000 0.0000 0.0000
# 3 32.9563 -8.7499 156.5531 0.0000 0.0000 0.0000
# 4 0.0000 0.0000 0.0000 4.6388 0.0000 0.0000
# 5 0.0000 0.0000 0.0000 0.0000 31.2861 0.0000
# 6 0.0000 0.0000 0.0000 0.0000 0.0000 27.5526
#
#
#
# Elastic Compliance Matrix: (Units=1/GPa)
#
#
# Indices 1 2 3 4 5 6 
#
# 1 0.010296 -0.002938 -0.002332 0.000000 0.000000 0.000000
# 2 -0.002938 0.010111 0.001184 0.000000 0.000000 0.000000
# 3 -0.002332 0.001184 0.006945 0.000000 0.000000 0.000000
# 4 0.000000 0.000000 0.000000 0.215573 0.000000 0.000000
# 5 0.000000 0.000000 0.000000 0.000000 0.031963 0.000000
# 6 0.000000 0.000000 0.000000 0.000000 0.000000 0.036294
#
#
# Mechanical properties :
#
#
# Convention : Reuss Voigt Hill
#
# Bulk Modulus (GPa) = 52.14168 53.78099 52.96133
# Shear Modulus (GPa) = 15.34934 34.33530 24.84232
#
# Velocity S-wave (km/s) = 2.53319 3.78873 3.22269
# Velocity P-wave (km/s) = 5.50952 6.45162 5.99909
#
# Compressibility (1/GPa) = 0.01917852
#
# Stress axis : x y z
#
# Youngs Moduli (GPa) = 97.12700 98.90493 143.99681
#
# Poissons Ratio (x) = 0.29062 0.33575
# Poissons Ratio (y) = 0.28539 -0.17044
# Poissons Ratio (z) = 0.22646 -0.11707
#
# Static dielectric constant tensor:
#      x y z
#    x 4.428560 0.000000 0.000000 
#    y 0.000000 4.750340 0.000000 
#    z 0.000000 0.000000 3.846300 
# 
# 
# High freq. dielectric constant tensor:
#      x y z
#    x 1.945640 0.000000 0.000000 
#    y 0.000000 1.983480 0.000000 
#    z 0.000000 0.000000 1.917610 
# 
# From -- ./inp_files/5399.got.cif
#   From: 2010.03.12/outbox.cif.g09.slc.cpg/sg56_3_cif.got.tgz:5399.got - 2010.04.16 15:33:40.
