data_PCOD8229141
_publ_section_title
;
Structure prediction by ZEFSAII (Michael W. Deem and Ramdas Pophale) SiO2 
 PCOD8229141
Probable space group: P C C N
;
_chemical_formula_sum "Si O2"
_cell_formula_units_Z 64
_cell_length_a 24.919204
_cell_length_b 14.475845
_cell_length_c 8.702266
_cell_angle_alpha 90.000000
_cell_angle_beta 90.000000
_cell_angle_gamma 90.000000
_cell_volume 3139.138258
_symmetry_space_group_name_H-M "P C C N"
_symmetry_group_IT_number 56
_symmetry_cell_setting 'orthorhombic'
loop_
_space_group_symop_operation_xyz
x,y,z
1/2-x,1/2-y,z
1/2+x,-y,1/2-z
-x,1/2+y,1/2-z
-x,-y,-z
1/2+x,1/2+y,-z
1/2-x,y,1/2+z
x,1/2-y,1/2+z
loop_
_atom_site_type_symbol
_atom_site_label
_atom_site_fract_x
_atom_site_fract_y
_atom_site_fract_z
Si Si1 0.379134 0.141742 0.000618
Si Si2 0.120445 0.663728 0.572878
Si Si3 0.447122 0.976107 0.091170
Si Si4 0.403650 0.332206 0.146737
Si Si5 0.516797 0.093621 0.581320
Si Si6 0.862503 0.353497 0.069785
Si Si7 0.678925 0.518815 0.944282
Si Si8 0.712528 0.519029 0.599083
O O1 0.402946 0.154319 0.829840
O O2 0.319039 0.102872 0.982295
O O3 0.378578 0.234813 0.098462
O O4 0.413298 0.070139 0.101786
O O5 0.059019 0.652852 0.517879
O O6 0.148440 0.756543 0.512183
O O7 0.123297 0.664428 0.754772
O O8 0.154401 0.578914 0.507336
O O9 0.458178 0.933431 0.256338
O O10 0.415490 0.899478 0.996958
O O11 0.500000 0.000000 0.000000
O O12 0.465358 0.340071 0.096665
O O13 0.369182 0.407834 0.053926
O O14 0.500000 0.000000 0.500000
O O15 0.810814 0.419657 0.042910
O O16 0.707087 0.520842 0.780604
O O17 0.725044 0.536986 0.068320
#
# Coordination Sequence:
#
# PCOD8229141 Si02
#       8
#     8   8   8   8   8   8   8   8
#     4  10  24  42  63  91 126 162 210 260 309 370
#     4  11  23  40  64  95 130 163 208 259 308 380
#     4  11  22  41  61  87 128 170 208 252 306 367
#     4  11  24  42  60  95 126 163 211 257 309 374
#     4  12  24  39  63  92 128 171 205 253 310 371
#     4  10  23  42  61  94 128 161 213 256 312 376
#     4  10  22  43  65  87 123 160 209 262 314 373
#     4   9  22  43  66  87 122 162 203 266 317 364
#
# _framework density 20.387761000000001
#
# number of rings (size 3 to 8) (size 9 to 14) (size 15 to 20)
#    0.000    1.500    2.500    2.250    3.500    6.000 
#    0.000    5.000    0.000    0.000    0.000    0.000 
#    0.000    0.000    0.000    0.000    0.000    0.000 
#
# Total GULP energy -793714.544375 kJ/mol
# GULP energy per Si atom -12401.789756 kJ/mol
# Density = 2.034136 g / cm^3
# Si number density = 20.387761 Si / 1000 Ang^3
#
#
#
# Elastic Constant Matrix: (Units=GPa)
#
#
# Indices 1 2 3 4 5 6 
#
# 1 96.3725 18.9359 33.9340 0.0000 0.0000 0.0000
# 2 18.9359 118.5839 32.2981 0.0000 0.0000 0.0000
# 3 33.9340 32.2981 67.1340 0.0000 0.0000 0.0000
# 4 0.0000 0.0000 0.0000 35.8643 0.0000 0.0000
# 5 0.0000 0.0000 0.0000 0.0000 35.5750 0.0000
# 6 0.0000 0.0000 0.0000 0.0000 0.0000 19.1102
#
#
#
# Elastic Compliance Matrix: (Units=1/GPa)
#
#
# Indices 1 2 3 4 5 6 
#
# 1 0.012634 -0.000320 -0.006232 0.000000 0.000000 0.000000
# 2 -0.000320 0.009713 -0.004511 0.000000 0.000000 0.000000
# 3 -0.006232 -0.004511 0.020216 0.000000 0.000000 0.000000
# 4 0.000000 0.000000 0.000000 0.027883 0.000000 0.000000
# 5 0.000000 0.000000 0.000000 0.000000 0.028110 0.000000
# 6 0.000000 0.000000 0.000000 0.000000 0.000000 0.052328
#
#
# Mechanical properties :
#
#
# Convention : Reuss Voigt Hill
#
# Bulk Modulus (GPa) = 48.93268 50.26961 49.60115
# Shear Modulus (GPa) = 27.80554 31.23807 29.52180
#
# Velocity S-wave (km/s) = 3.69702 3.91858 3.80941
# Velocity P-wave (km/s) = 6.50208 6.72190 6.61290
#
# Compressibility (1/GPa) = 0.02043624
#
# Stress axis : x y z
#
# Youngs Moduli (GPa) = 79.15392 102.95926 49.46626
#
# Poissons Ratio (x) = 0.03295 0.30827
# Poissons Ratio (y) = 0.02533 0.22314
# Poissons Ratio (z) = 0.49328 0.46444
#
# Static dielectric constant tensor:
#      x y z
#    x 3.575690 0.000000 0.000000 
#    y 0.000000 3.863560 0.000000 
#    z 0.000000 0.000000 3.564370 
# 
# 
# High freq. dielectric constant tensor:
#      x y z
#    x 1.798360 0.000000 0.000000 
#    y 0.000000 1.803660 0.000000 
#    z 0.000000 0.000000 1.802450 
# 
# From -- ./inp_files/4812.got.cif
#   From: 2010.03.12/outbox.cif.g09.slc.cpg/sg56_3_cif.got.tgz:4812.got - 2010.04.16 15:33:40.
