data_PCOD8229168
_publ_section_title
;
Structure prediction by ZEFSAII (Michael W. Deem and Ramdas Pophale) SiO2 
 PCOD8229168
Probable space group: P C C N
;
_chemical_formula_sum "Si O2"
_cell_formula_units_Z 48
_cell_length_a 7.923666
_cell_length_b 14.186756
_cell_length_c 17.678991
_cell_angle_alpha 90.000000
_cell_angle_beta 90.000000
_cell_angle_gamma 90.000000
_cell_volume 1987.315111
_symmetry_space_group_name_H-M "P C C N"
_symmetry_group_IT_number 56
_symmetry_cell_setting 'orthorhombic'
loop_
_space_group_symop_operation_xyz
x,y,z
1/2-x,1/2-y,z
1/2+x,-y,1/2-z
-x,1/2+y,1/2-z
-x,-y,-z
1/2+x,1/2+y,-z
1/2-x,y,1/2+z
x,1/2-y,1/2+z
loop_
_atom_site_type_symbol
_atom_site_label
_atom_site_fract_x
_atom_site_fract_y
_atom_site_fract_z
Si Si1 0.689983 0.508805 0.318702
Si Si2 0.030646 0.885093 0.571597
Si Si3 0.250000 0.250000 0.476304
Si Si4 0.199033 0.849319 0.425243
Si Si5 0.750000 0.250000 0.344852
Si Si6 0.949977 0.917727 0.941669
Si Si7 0.574990 0.133910 0.235894
O O1 0.525737 0.473318 0.369961
O O2 0.825976 0.548263 0.376816
O O3 0.773150 0.434020 0.262673
O O4 0.610100 0.586616 0.262213
O O5 0.080704 0.909475 0.484254
O O6 0.200528 0.836142 0.602491
O O7 0.865766 0.818787 0.575314
O O8 0.371351 0.179257 0.523422
O O9 0.250000 0.750000 0.464121
O O10 0.371298 0.900316 0.402539
O O11 0.096805 0.829242 0.349279
O O12 0.587049 0.222850 0.292588
O O13 0.000000 0.000000 0.000000
#
# Coordination Sequence:
#
# PCOD8229168 Si02
#       7
#     8   8   4   8   4   8   8
#     4  11  26  46  69 102 142 188 237 294 360 431
#     4  11  23  43  70 102 138 179 240 297 350 424
#     4  12  26  40  68 114 132 184 240 306 358 428
#     4  12  22  44  72 101 136 187 228 297 358 424
#     4  10  22  44  68  92 138 190 228 286 366 422
#     4  12  26  43  72 106 142 182 241 300 358 434
#     4  11  25  43  68  99 139 186 231 287 362 432
#
# _framework density 24.153189999999999
#
# number of rings (size 3 to 8) (size 9 to 14) (size 15 to 20)
#    0.000    0.667    5.000    2.000    4.667    2.667 
#    0.000    0.000    0.000    0.000    0.000    0.000 
#    0.000    0.000    0.000    0.000    0.000    0.000 
#
# Total GULP energy -594674.650644 kJ/mol
# GULP energy per Si atom -12389.055222 kJ/mol
# Density = 2.409822 g / cm^3
# Si number density = 24.153190 Si / 1000 Ang^3
#
#
#
# Elastic Constant Matrix: (Units=GPa)
#
#
# Indices 1 2 3 4 5 6 
#
# 1 95.4465 7.7545 15.6014 0.0000 0.0000 0.0000
# 2 7.7545 51.0542 -1.9527 0.0000 0.0000 0.0000
# 3 15.6014 -1.9527 78.1054 0.0000 0.0000 0.0000
# 4 0.0000 0.0000 0.0000 26.2078 0.0000 0.0000
# 5 0.0000 0.0000 0.0000 0.0000 39.7305 0.0000
# 6 0.0000 0.0000 0.0000 0.0000 0.0000 51.9756
#
#
#
# Elastic Compliance Matrix: (Units=1/GPa)
#
#
# Indices 1 2 3 4 5 6 
#
# 1 0.010985 -0.001754 -0.002238 0.000000 0.000000 0.000000
# 2 -0.001754 0.019886 0.000848 0.000000 0.000000 0.000000
# 3 -0.002238 0.000848 0.013271 0.000000 0.000000 0.000000
# 4 0.000000 0.000000 0.000000 0.038157 0.000000 0.000000
# 5 0.000000 0.000000 0.000000 0.000000 0.025170 0.000000
# 6 0.000000 0.000000 0.000000 0.000000 0.000000 0.019240
#
#
# Mechanical properties :
#
#
# Convention : Reuss Voigt Hill
#
# Bulk Modulus (GPa) = 26.41780 29.71248 28.06514
# Shear Modulus (GPa) = 34.33689 37.12965 35.73327
#
# Velocity S-wave (km/s) = 3.77454 3.92504 3.85053
# Velocity P-wave (km/s) = 5.47335 5.73320 5.60478
#
# Compressibility (1/GPa) = 0.03785326
#
# Stress axis : x y z
#
# Youngs Moduli (GPa) = 91.02961 50.28690 75.34956
#
# Poissons Ratio (x) = 0.08821 0.16865
# Poissons Ratio (y) = 0.15968 -0.06386
# Poissons Ratio (z) = 0.20374 -0.04262
#
# Static dielectric constant tensor:
#      x y z
#    x 6.034820 0.000000 0.000000 
#    y 0.000000 5.454000 0.000000 
#    z 0.000000 0.000000 4.368160 
# 
# 
# High freq. dielectric constant tensor:
#      x y z
#    x 1.951310 0.000000 0.000000 
#    y 0.000000 1.965270 0.000000 
#    z 0.000000 0.000000 1.961920 
# 
# From -- ./inp_files/14890.got.cif
#   From: 2010.03.12/outbox.cif.g09.slc.cpg/sg56_8_cif.got.tgz:14890.got - 2010.04.16 15:33:40.
