data_PCOD8229013
_publ_section_title
;
Structure prediction by ZEFSAII (Michael W. Deem and Ramdas Pophale) SiO2 
 PCOD8229013
Probable space group: P C C N
;
_chemical_formula_sum "Si O2"
_cell_formula_units_Z 56
_cell_length_a 14.246864
_cell_length_b 13.000564
_cell_length_c 14.720097
_cell_angle_alpha 90.000000
_cell_angle_beta 90.000000
_cell_angle_gamma 90.000000
_cell_volume 2726.416140
_symmetry_space_group_name_H-M "P C C N"
_symmetry_group_IT_number 56
_symmetry_cell_setting 'orthorhombic'
loop_
_space_group_symop_operation_xyz
x,y,z
1/2-x,1/2-y,z
1/2+x,-y,1/2-z
-x,1/2+y,1/2-z
-x,-y,-z
1/2+x,1/2+y,-z
1/2-x,y,1/2+z
x,1/2-y,1/2+z
loop_
_atom_site_type_symbol
_atom_site_label
_atom_site_fract_x
_atom_site_fract_y
_atom_site_fract_z
Si Si1 0.457389 0.204862 0.223779
Si Si2 0.838834 0.598598 0.252447
Si Si3 0.097773 0.898947 0.966550
Si Si4 0.020287 0.537255 0.651476
Si Si5 0.652144 0.209539 0.135754
Si Si6 0.784469 0.993612 0.570321
Si Si7 0.304774 0.153078 0.089313
O O1 0.409028 0.306057 0.265283
O O2 0.446998 0.108752 0.293421
O O3 0.569085 0.220036 0.209052
O O4 0.407243 0.181399 0.127893
O O5 0.896225 0.497009 0.281505
O O6 0.785892 0.578757 0.158274
O O7 0.759623 0.618389 0.326802
O O8 0.132963 0.784451 0.949036
O O9 0.178568 0.983778 0.958491
O O10 0.056986 0.895754 0.067281
O O11 0.022882 0.931875 0.889282
O O12 0.750000 0.250000 0.181686
O O13 0.657606 0.096534 0.092570
O O14 0.827454 0.934110 0.484281
O O15 0.250000 0.250000 0.043558
#
# Coordination Sequence:
#
# PCOD8229013 Si02
#       7
#     8   8   8   8   8   8   8
#     4  11  23  42  63  96 134 163 218 275 326 390
#     4  11  22  42  64 100 129 168 219 272 331 391
#     4  10  22  40  66  89 127 172 223 262 323 396
#     4  11  21  40  67  91 122 179 217 263 329 398
#     4  10  22  40  60  91 127 167 208 271 318 385
#     4  11  22  41  68  93 132 170 217 268 334 385
#     4  10  24  41  65  95 133 167 212 274 329 391
#
# _framework density 20.539784999999998
#
# number of rings (size 3 to 8) (size 9 to 14) (size 15 to 20)
#    0.000    1.429    4.286    0.857    0.000    4.571 
#    2.571    2.143    0.000    0.000    0.000    0.000 
#    0.000    0.000    0.000    0.000    0.000    0.000 
#
# Total GULP energy -694385.501272 kJ/mol
# GULP energy per Si atom -12399.741094 kJ/mol
# Density = 2.049304 g / cm^3
# Si number density = 20.539785 Si / 1000 Ang^3
#
#
#
# Elastic Constant Matrix: (Units=GPa)
#
#
# Indices 1 2 3 4 5 6 
#
# 1 74.4374 20.1095 22.7686 0.0000 0.0000 0.0000
# 2 20.1095 100.5517 37.6783 0.0000 0.0000 0.0000
# 3 22.7686 37.6783 86.6932 0.0000 0.0000 0.0000
# 4 0.0000 0.0000 0.0000 23.1238 0.0000 0.0000
# 5 0.0000 0.0000 0.0000 0.0000 20.3362 0.0000
# 6 0.0000 0.0000 0.0000 0.0000 0.0000 29.4398
#
#
#
# Elastic Compliance Matrix: (Units=1/GPa)
#
#
# Indices 1 2 3 4 5 6 
#
# 1 0.014877 -0.001805 -0.003123 0.000000 0.000000 0.000000
# 2 -0.001805 0.012099 -0.004784 0.000000 0.000000 0.000000
# 3 -0.003123 -0.004784 0.014434 0.000000 0.000000 0.000000
# 4 0.000000 0.000000 0.000000 0.043246 0.000000 0.000000
# 5 0.000000 0.000000 0.000000 0.000000 0.049173 0.000000
# 6 0.000000 0.000000 0.000000 0.000000 0.000000 0.033968
#
#
# Mechanical properties :
#
#
# Convention : Reuss Voigt Hill
#
# Bulk Modulus (GPa) = 45.48342 46.97722 46.23032
# Shear Modulus (GPa) = 25.70039 26.65501 26.17770
#
# Velocity S-wave (km/s) = 3.54114 3.60630 3.57387
# Velocity P-wave (km/s) = 6.23792 6.34520 6.29179
#
# Compressibility (1/GPa) = 0.02198603
#
# Stress axis : x y z
#
# Youngs Moduli (GPa) = 67.21824 82.65212 69.27910
#
# Poissons Ratio (x) = 0.14920 0.21633
# Poissons Ratio (y) = 0.12134 0.33145
# Poissons Ratio (z) = 0.20990 0.39543
#
# Static dielectric constant tensor:
#      x y z
#    x 3.811130 0.000000 0.000000 
#    y 0.000000 3.798180 0.000000 
#    z 0.000000 0.000000 3.468480 
# 
# 
# High freq. dielectric constant tensor:
#      x y z
#    x 1.807460 0.000000 0.000000 
#    y 0.000000 1.812110 0.000000 
#    z 0.000000 0.000000 1.788940 
# 
# From -- ./inp_files/7865.got.cif
#   From: 2010.03.12/outbox.cif.g09.slc.cpg/sg56_4_cif.got.tgz:7865.got - 2010.04.16 15:33:40.
