data_PCOD8229078
_publ_section_title
;
Structure prediction by ZEFSAII (Michael W. Deem and Ramdas Pophale) SiO2 
 PCOD8229078
Probable space group: P C C N
;
_chemical_formula_sum "Si O2"
_cell_formula_units_Z 40
_cell_length_a 12.082127
_cell_length_b 9.091880
_cell_length_c 14.924512
_cell_angle_alpha 90.000000
_cell_angle_beta 90.000000
_cell_angle_gamma 90.000000
_cell_volume 1639.446432
_symmetry_space_group_name_H-M "P C C N"
_symmetry_group_IT_number 56
_symmetry_cell_setting 'orthorhombic'
loop_
_space_group_symop_operation_xyz
x,y,z
1/2-x,1/2-y,z
1/2+x,-y,1/2-z
-x,1/2+y,1/2-z
-x,-y,-z
1/2+x,1/2+y,-z
1/2-x,y,1/2+z
x,1/2-y,1/2+z
loop_
_atom_site_type_symbol
_atom_site_label
_atom_site_fract_x
_atom_site_fract_y
_atom_site_fract_z
Si Si1 0.293307 0.594756 0.310104
Si Si2 0.410349 0.375861 0.015944
Si Si3 0.757601 0.418630 0.891401
Si Si4 0.646027 0.661065 0.173332
Si Si5 0.963577 0.611095 0.852875
O O1 0.250000 0.750000 0.340850
O O2 0.306379 0.578966 0.203080
O O3 0.193451 0.499157 0.347956
O O4 0.409721 0.555327 0.358280
O O5 0.298519 0.460205 0.044933
O O6 0.445995 0.256021 0.088391
O O7 0.500000 0.500000 0.000000
O O8 0.397225 0.283689 0.923052
O O9 0.750000 0.250000 0.929431
O O10 0.884679 0.474173 0.879552
O O11 0.750000 0.750000 0.212711
O O12 0.552960 0.661242 0.249520
#
# Coordination Sequence:
#
# PCOD8229078 Si02
#       5
#     8   8   8   8   8
#     4  10  22  41  66  98 135 181 233 284 346 419
#     4  12  25  43  68  99 134 180 233 288 350 422
#     4  10  23  42  65  98 138 180 233 290 348 419
#     4  11  24  41  66  97 132 175 226 278 341 417
#     4  11  23  45  71  98 139 184 224 288 354 413
#
# _framework density 24.398479999999999
#
# number of rings (size 3 to 8) (size 9 to 14) (size 15 to 20)
#    0.000    1.200    0.000    6.600    0.000   12.000 
#    0.000    3.000    0.000    0.000    0.000    0.000 
#    0.000    0.000    0.000    0.000    0.000    0.000 
#
# Total GULP energy -495871.229083 kJ/mol
# GULP energy per Si atom -12396.780727 kJ/mol
# Density = 2.434295 g / cm^3
# Si number density = 24.398480 Si / 1000 Ang^3
#
#
#
# Elastic Constant Matrix: (Units=GPa)
#
#
# Indices 1 2 3 4 5 6 
#
# 1 109.7400 15.5246 31.4778 0.0000 0.0000 0.0000
# 2 15.5246 105.0594 27.6695 0.0000 0.0000 0.0000
# 3 31.4778 27.6695 115.5311 0.0000 0.0000 0.0000
# 4 0.0000 0.0000 0.0000 30.8243 0.0000 0.0000
# 5 0.0000 0.0000 0.0000 0.0000 27.5004 0.0000
# 6 0.0000 0.0000 0.0000 0.0000 0.0000 36.8319
#
#
#
# Elastic Compliance Matrix: (Units=1/GPa)
#
#
# Indices 1 2 3 4 5 6 
#
# 1 0.009949 -0.000807 -0.002517 0.000000 0.000000 0.000000
# 2 -0.000807 0.010225 -0.002229 0.000000 0.000000 0.000000
# 3 -0.002517 -0.002229 0.009875 0.000000 0.000000 0.000000
# 4 0.000000 0.000000 0.000000 0.032442 0.000000 0.000000
# 5 0.000000 0.000000 0.000000 0.000000 0.036363 0.000000
# 6 0.000000 0.000000 0.000000 0.000000 0.000000 0.027150
#
#
# Mechanical properties :
#
#
# Convention : Reuss Voigt Hill
#
# Bulk Modulus (GPa) = 52.79250 53.29715 53.04482
# Shear Modulus (GPa) = 34.86145 36.07524 35.46835
#
# Velocity S-wave (km/s) = 3.78410 3.84941 3.81689
# Velocity P-wave (km/s) = 6.38570 6.45362 6.41975
#
# Compressibility (1/GPa) = 0.01894208
#
# Stress axis : x y z
#
# Youngs Moduli (GPa) = 100.51564 97.80224 101.26202
#
# Poissons Ratio (x) = 0.07894 0.25491
# Poissons Ratio (y) = 0.08113 0.22570
# Poissons Ratio (z) = 0.25303 0.21799
#
# Static dielectric constant tensor:
#      x y z
#    x 4.202420 0.000000 0.000000 
#    y 0.000000 4.427260 0.000000 
#    z 0.000000 0.000000 4.509720 
# 
# 
# High freq. dielectric constant tensor:
#      x y z
#    x 1.968480 0.000000 0.000000 
#    y 0.000000 1.977040 0.000000 
#    z 0.000000 0.000000 1.972320 
# 
# From -- ./inp_files/15380.got.cif
#   From: 2010.03.12/outbox.cif.g09.slc.cpg/sg56_8_cif.got.tgz:15380.got - 2010.04.16 15:33:40.
