data_PCOD8229530
_publ_section_title
;
Structure prediction by ZEFSAII (Michael W. Deem and Ramdas Pophale) SiO2 
 PCOD8229530
Probable space group: P C C N
;
_chemical_formula_sum "Si O2"
_cell_formula_units_Z 48
_cell_length_a 8.662107
_cell_length_b 11.272015
_cell_length_c 22.298976
_cell_angle_alpha 90.000000
_cell_angle_beta 90.000000
_cell_angle_gamma 90.000000
_cell_volume 2177.258638
_symmetry_space_group_name_H-M "P C C N"
_symmetry_group_IT_number 56
_symmetry_cell_setting 'orthorhombic'
loop_
_space_group_symop_operation_xyz
x,y,z
1/2-x,1/2-y,z
1/2+x,-y,1/2-z
-x,1/2+y,1/2-z
-x,-y,-z
1/2+x,1/2+y,-z
1/2-x,y,1/2+z
x,1/2-y,1/2+z
loop_
_atom_site_type_symbol
_atom_site_label
_atom_site_fract_x
_atom_site_fract_y
_atom_site_fract_z
Si Si1 0.001127 0.946564 0.678643
Si Si2 0.406055 0.542399 0.897767
Si Si3 0.563603 0.053574 0.060637
Si Si4 0.575588 0.780220 0.610663
Si Si5 0.279368 0.886245 0.280179
Si Si6 0.570130 0.781149 0.475752
O O1 0.976056 0.806161 0.664646
O O2 0.139617 0.953829 0.725249
O O3 0.041443 0.000031 0.613889
O O4 0.861544 0.025781 0.704848
O O5 0.243680 0.521396 0.932401
O O6 0.458173 0.415463 0.870376
O O7 0.386825 0.625289 0.839397
O O8 0.532388 0.591632 0.945051
O O9 0.537438 0.193646 0.062839
O O10 0.500000 0.000000 0.000000
O O11 0.750000 0.750000 0.598678
O O12 0.504714 0.768368 0.543513
O O13 0.250000 0.750000 0.261381
O O14 0.750000 0.750000 0.468866
#
# Coordination Sequence:
#
# PCOD8229530 Si02
#       6
#     8   8   8   8   8   8
#     4  11  25  46  70  99 140 182 233 289 350 419
#     4  11  23  43  70  98 139 187 229 285 364 416
#     4  11  20  42  68  98 139 182 226 287 354 421
#     4  11  20  42  68  98 135 182 222 283 353 419
#     4  11  26  46  71 101 138 185 237 290 350 420
#     4  11  23  40  66 103 140 179 231 288 349 423
#
# _framework density 22.046071999999999
#
# number of rings (size 3 to 8) (size 9 to 14) (size 15 to 20)
#    0.000    1.000    5.000    4.000    2.333    1.333 
#    3.000    0.833    0.000    0.000    0.000    0.000 
#    0.000    0.000    0.000    0.000    0.000    0.000 
#
# Total GULP energy -594666.418173 kJ/mol
# GULP energy per Si atom -12388.883712 kJ/mol
# Density = 2.199589 g / cm^3
# Si number density = 22.046072 Si / 1000 Ang^3
#
#
#
# Elastic Constant Matrix: (Units=GPa)
#
#
# Indices 1 2 3 4 5 6 
#
# 1 51.5535 36.5785 50.6455 0.0000 0.0000 0.0000
# 2 36.5785 131.8354 32.0157 0.0000 0.0000 0.0000
# 3 50.6455 32.0157 141.9971 0.0000 0.0000 0.0000
# 4 0.0000 0.0000 0.0000 52.5844 0.0000 0.0000
# 5 0.0000 0.0000 0.0000 0.0000 32.9444 0.0000
# 6 0.0000 0.0000 0.0000 0.0000 0.0000 29.0966
#
#
#
# Elastic Compliance Matrix: (Units=1/GPa)
#
#
# Indices 1 2 3 4 5 6 
#
# 1 0.035198 -0.007106 -0.010952 0.000000 0.000000 0.000000
# 2 -0.007106 0.009459 0.000402 0.000000 0.000000 0.000000
# 3 -0.010952 0.000402 0.010858 0.000000 0.000000 0.000000
# 4 0.000000 0.000000 0.000000 0.019017 0.000000 0.000000
# 5 0.000000 0.000000 0.000000 0.000000 0.030354 0.000000
# 6 0.000000 0.000000 0.000000 0.000000 0.000000 0.034368
#
#
# Mechanical properties :
#
#
# Convention : Reuss Voigt Hill
#
# Bulk Modulus (GPa) = 49.49770 62.65169 56.07470
# Shear Modulus (GPa) = 27.57824 36.66815 32.12320
#
# Velocity S-wave (km/s) = 3.54070 4.08272 3.82133
# Velocity P-wave (km/s) = 6.26227 7.12075 6.70526
#
# Compressibility (1/GPa) = 0.02020296
#
# Stress axis : x y z
#
# Youngs Moduli (GPa) = 28.41037 105.71565 92.09860
#
# Poissons Ratio (x) = 0.75126 1.00865
# Poissons Ratio (y) = 0.20190 -0.03701
# Poissons Ratio (z) = 0.31114 -0.04248
#
# Static dielectric constant tensor:
#      x y z
#    x 3.616530 0.000000 0.000000 
#    y 0.000000 4.091620 0.000000 
#    z 0.000000 0.000000 4.217850 
# 
# 
# High freq. dielectric constant tensor:
#      x y z
#    x 1.830700 0.000000 0.000000 
#    y 0.000000 1.888290 0.000000 
#    z 0.000000 0.000000 1.879460 
# 
# From -- ./inp_files/20514.got.cif
#   From: 2010.03.12/outbox.cif.g09.slc.cpg/sg56_11_cif.got.tgz:20514.got - 2010.04.16 15:33:40.
