data_PCOD8229845
_publ_section_title
;
Structure prediction by ZEFSAII (Michael W. Deem and Ramdas Pophale) SiO2 
 PCOD8229845
Probable space group: P C C N
;
_chemical_formula_sum "Si O2"
_cell_formula_units_Z 28
_cell_length_a 7.637958
_cell_length_b 7.438176
_cell_length_c 20.660605
_cell_angle_alpha 90.000000
_cell_angle_beta 90.000000
_cell_angle_gamma 90.000000
_cell_volume 1173.780123
_symmetry_space_group_name_H-M "P C C N"
_symmetry_group_IT_number 56
_symmetry_cell_setting 'orthorhombic'
loop_
_space_group_symop_operation_xyz
x,y,z
1/2-x,1/2-y,z
1/2+x,-y,1/2-z
-x,1/2+y,1/2-z
-x,-y,-z
1/2+x,1/2+y,-z
1/2-x,y,1/2+z
x,1/2-y,1/2+z
loop_
_atom_site_type_symbol
_atom_site_label
_atom_site_fract_x
_atom_site_fract_y
_atom_site_fract_z
Si Si1 0.945976 0.679009 0.695759
Si Si2 0.750000 0.250000 0.890342
Si Si3 0.144652 0.088731 0.544993
Si Si4 0.950870 0.272348 0.663093
O O1 0.750000 0.750000 0.684250
O O2 0.984770 0.482258 0.669265
O O3 0.080778 0.798648 0.654005
O O4 0.996496 0.673440 0.770747
O O5 0.724525 0.427215 0.934604
O O6 0.250000 0.250000 0.507734
O O7 0.065351 0.187762 0.607035
O O8 0.000000 0.000000 0.500000
O O9 0.750000 0.250000 0.645832
#
# Coordination Sequence:
#
# PCOD8229845 Si02
#       4
#     8   4   8   8
#     4  12  25  45  79 118 158 196 246 319 399 468
#     4  12  26  52  78 116 156 198 260 316 392 466
#     4  12  29  52  80 109 155 211 267 324 384 465
#     4  12  25  46  76 117 154 198 253 317 391 465
#
# _framework density 23.854554
#
# number of rings (size 3 to 8) (size 9 to 14) (size 15 to 20)
#    0.000    0.000    4.286    6.000    2.000    4.571 
#    0.000    0.000    0.000    0.000    0.000    0.000 
#    0.000    0.000    0.000    0.000    0.000    0.000 
#
# Total GULP energy -347233.023731 kJ/mol
# GULP energy per Si atom -12401.179419 kJ/mol
# Density = 2.380026 g / cm^3
# Si number density = 23.854554 Si / 1000 Ang^3
#
#
#
# Elastic Constant Matrix: (Units=GPa)
#
#
# Indices 1 2 3 4 5 6 
#
# 1 119.8497 31.5743 17.2328 0.0000 0.0000 0.0000
# 2 31.5743 167.4516 51.0249 0.0000 0.0000 0.0000
# 3 17.2328 51.0249 81.0711 0.0000 0.0000 0.0000
# 4 0.0000 0.0000 0.0000 25.2049 0.0000 0.0000
# 5 0.0000 0.0000 0.0000 0.0000 39.1815 0.0000
# 6 0.0000 0.0000 0.0000 0.0000 0.0000 42.4786
#
#
#
# Elastic Compliance Matrix: (Units=1/GPa)
#
#
# Indices 1 2 3 4 5 6 
#
# 1 0.008849 -0.001355 -0.001028 0.000000 0.000000 0.000000
# 2 -0.001355 0.007597 -0.004493 0.000000 0.000000 0.000000
# 3 -0.001028 -0.004493 0.015381 0.000000 0.000000 0.000000
# 4 0.000000 0.000000 0.000000 0.039675 0.000000 0.000000
# 5 0.000000 0.000000 0.000000 0.000000 0.025522 0.000000
# 6 0.000000 0.000000 0.000000 0.000000 0.000000 0.023541
#
#
# Mechanical properties :
#
#
# Convention : Reuss Voigt Hill
#
# Bulk Modulus (GPa) = 55.32841 63.11514 59.22178
# Shear Modulus (GPa) = 35.62730 39.27570 37.45150
#
# Velocity S-wave (km/s) = 3.86880 4.06207 3.96661
# Velocity P-wave (km/s) = 6.57277 6.96536 6.77191
#
# Compressibility (1/GPa) = 0.01807390
#
# Stress axis : x y z
#
# Youngs Moduli (GPa) = 113.01193 131.63929 65.01438
#
# Poissons Ratio (x) = 0.17840 0.06683
# Poissons Ratio (y) = 0.15316 0.29211
# Poissons Ratio (z) = 0.11617 0.59146
#
# Static dielectric constant tensor:
#      x y z
#    x 4.465210 0.000000 0.000000 
#    y 0.000000 4.750130 0.000000 
#    z 0.000000 0.000000 4.229810 
# 
# 
# High freq. dielectric constant tensor:
#      x y z
#    x 1.953830 0.000000 0.000000 
#    y 0.000000 1.976250 0.000000 
#    z 0.000000 0.000000 1.935270 
# 
# From -- ./inp_files/14301.got.cif
#   From: 2010.03.12/outbox.cif.g09.slc.cpg/sg56_8_cif.got.tgz:14301.got - 2010.04.16 15:33:40.
