data_PCOD8229960
_publ_section_title
;
Structure prediction by ZEFSAII (Michael W. Deem and Ramdas Pophale) SiO2 
 PCOD8229960
Probable space group: P B C M
;
_chemical_formula_sum "Si O2"
_cell_formula_units_Z 48
_cell_length_a 15.209351
_cell_length_b 21.447863
_cell_length_c 8.994853
_cell_angle_alpha 90.000000
_cell_angle_beta 90.000000
_cell_angle_gamma 90.000000
_cell_volume 2934.193696
_symmetry_space_group_name_H-M "P B C M"
_symmetry_group_IT_number 57
_symmetry_cell_setting 'orthorhombic'
loop_
_space_group_symop_operation_xyz
x,y,z
-x,-y,1/2+z
x,1/2-y,-z
-x,1/2+y,1/2-z
-x,-y,-z
x,y,1/2-z
-x,1/2+y,z
x,1/2-y,1/2+z
loop_
_atom_site_type_symbol
_atom_site_label
_atom_site_fract_x
_atom_site_fract_y
_atom_site_fract_z
Si Si1 0.302328 0.315129 0.922904
Si Si2 0.018252 0.563212 0.920297
Si Si3 0.203993 0.964922 0.075743
Si Si4 0.166072 0.097373 0.925439
Si Si5 0.563848 0.578498 0.079904
Si Si6 0.625828 0.457792 0.921856
O O1 0.282024 0.305251 0.750000
O O2 0.390265 0.355535 0.948262
O O3 0.321169 0.250000 0.000000
O O4 0.217957 0.347179 0.996622
O O5 0.011079 0.545853 0.750000
O O6 0.120089 0.581429 0.956741
O O7 0.938791 0.611078 0.958798
O O8 0.000000 0.500000 0.000000
O O9 0.214984 0.978310 0.250000
O O10 0.291032 0.930775 0.013257
O O11 0.194145 0.031110 0.993346
O O12 0.186261 0.097067 0.750000
O O13 0.577498 0.555819 0.250000
O O14 0.459717 0.584820 0.045387
O O15 0.607432 0.528605 0.971111
O O16 0.651032 0.457858 0.750000
#
# Coordination Sequence:
#
# PCOD8229960 Si02
#       6
#     8   8   8   8   8   8
#     4  11  22  35  50  68  92 124 159 196 237 281
#     4   8  16  27  41  62  91 122 151 182 222 268
#     4  10  17  27  43  67  97 127 152 183 229 280
#     4  10  18  30  46  66  91 122 158 195 229 272
#     4   9  19  33  46  64  92 123 155 194 238 281
#     4  10  18  28  46  69  93 123 156 191 234 285
#
# _framework density 16.358837999999999
#
# number of rings (size 3 to 8) (size 9 to 14) (size 15 to 20)
#    0.000    2.333    1.667    2.000    0.000    2.667 
#    0.000    0.000    0.000    0.000    0.000    1.167 
#    0.000    5.333    0.000    0.000    0.000    0.000 
#
# Total GULP energy -594709.824076 kJ/mol
# GULP energy per Si atom -12389.788002 kJ/mol
# Density = 1.632160 g / cm^3
# Si number density = 16.358838 Si / 1000 Ang^3
#
#
#
# Elastic Constant Matrix: (Units=GPa)
#
#
# Indices 1 2 3 4 5 6 
#
# 1 163.9594 46.1604 63.5555 0.0000 0.0000 0.0000
# 2 46.1604 58.4756 33.9495 0.0000 0.0000 0.0000
# 3 63.5555 33.9495 89.2304 0.0000 0.0000 0.0000
# 4 0.0000 0.0000 0.0000 18.4968 0.0000 0.0000
# 5 0.0000 0.0000 0.0000 0.0000 27.2270 0.0000
# 6 0.0000 0.0000 0.0000 0.0000 0.0000 17.6227
#
#
#
# Elastic Compliance Matrix: (Units=1/GPa)
#
#
# Indices 1 2 3 4 5 6 
#
# 1 0.009252 -0.004463 -0.004891 0.000000 0.000000 0.000000
# 2 -0.004463 0.024103 -0.005991 0.000000 0.000000 0.000000
# 3 -0.004891 -0.005991 0.016970 0.000000 0.000000 0.000000
# 4 0.000000 0.000000 0.000000 0.054063 0.000000 0.000000
# 5 0.000000 0.000000 0.000000 0.000000 0.036728 0.000000
# 6 0.000000 0.000000 0.000000 0.000000 0.000000 0.056745
#
#
# Mechanical properties :
#
#
# Convention : Reuss Voigt Hill
#
# Bulk Modulus (GPa) = 50.93532 66.55515 58.74523
# Shear Modulus (GPa) = 21.26766 23.86929 22.56848
#
# Velocity S-wave (km/s) = 3.60956 3.82397 3.71831
# Velocity P-wave (km/s) = 6.96963 7.76336 7.37718
#
# Compressibility (1/GPa) = 0.01963274
#
# Stress axis : x y z
#
# Youngs Moduli (GPa) = 108.08743 41.48867 58.92582
#
# Poissons Ratio (x) = 0.18518 0.28824
# Poissons Ratio (y) = 0.48244 0.35304
# Poissons Ratio (z) = 0.52871 0.24857
#
# Static dielectric constant tensor:
#      x y z
#    x 3.954240 0.000000 0.000000 
#    y 0.000000 2.563220 0.000000 
#    z 0.000000 0.000000 3.222200 
# 
# 
# High freq. dielectric constant tensor:
#      x y z
#    x 1.656940 0.000000 0.000000 
#    y 0.000000 1.555430 0.000000 
#    z 0.000000 0.000000 1.647610 
# 
# From -- ./inp_files/4876.got.cif
#   From: 2010.03.12/outbox.cif.g09.slc.cpg/sg57_3_cif.got.tgz:4876.got - 2010.04.16 15:48:40.
