data_PCOD8229479
_publ_section_title
;
Structure prediction by ZEFSAII (Michael W. Deem and Ramdas Pophale) SiO2 
 PCOD8229479
Probable space group: P C C N
;
_chemical_formula_sum "Si O2"
_cell_formula_units_Z 36
_cell_length_a 9.220342
_cell_length_b 17.892618
_cell_length_c 10.078860
_cell_angle_alpha 90.000000
_cell_angle_beta 90.000000
_cell_angle_gamma 90.000000
_cell_volume 1662.770584
_symmetry_space_group_name_H-M "P C C N"
_symmetry_group_IT_number 56
_symmetry_cell_setting 'orthorhombic'
loop_
_space_group_symop_operation_xyz
x,y,z
1/2-x,1/2-y,z
1/2+x,-y,1/2-z
-x,1/2+y,1/2-z
-x,-y,-z
1/2+x,1/2+y,-z
1/2-x,y,1/2+z
x,1/2-y,1/2+z
loop_
_atom_site_type_symbol
_atom_site_label
_atom_site_fract_x
_atom_site_fract_y
_atom_site_fract_z
Si Si1 0.048529 0.623673 0.470547
Si Si2 0.242082 0.092380 0.610839
Si Si3 0.037114 0.867505 0.274644
Si Si4 0.735784 0.006531 0.136654
Si Si5 0.750000 0.250000 0.629191
O O1 0.012392 0.608054 0.623559
O O2 0.119541 0.550003 0.408134
O O3 0.152512 0.695587 0.460872
O O4 0.895889 0.635669 0.393907
O O5 0.117153 0.151078 0.655322
O O6 0.201266 0.058726 0.467487
O O7 0.240209 0.025332 0.716816
O O8 0.102984 0.935764 0.358866
O O9 0.142458 0.796280 0.276800
#
# Coordination Sequence:
#
# PCOD8229479 Si02
#       5
#     8   8   8   8   4
#     4  11  23  44  65  94 133 168 214 268 309 384
#     4  12  22  40  67 101 130 166 207 266 324 378
#     4  11  23  43  66  94 130 171 214 264 314 385
#     4  11  22  40  69  97 135 166 205 258 331 380
#     4  10  26  46  66  86 122 180 222 260 322 372
#
# _framework density 21.650611000000001
#
# number of rings (size 3 to 8) (size 9 to 14) (size 15 to 20)
#    0.000    0.889    4.444    3.333    0.000    0.889 
#    8.000    2.222    0.000    0.000    0.000    0.000 
#    0.000    0.000    0.000    0.000    0.000    0.000 
#
# Total GULP energy -446488.229518 kJ/mol
# GULP energy per Si atom -12402.450820 kJ/mol
# Density = 2.160133 g / cm^3
# Si number density = 21.650611 Si / 1000 Ang^3
#
#
#
# Elastic Constant Matrix: (Units=GPa)
#
#
# Indices 1 2 3 4 5 6 
#
# 1 182.3200 46.8209 51.0686 0.0000 0.0000 0.0000
# 2 46.8209 72.3010 21.4976 0.0000 0.0000 0.0000
# 3 51.0686 21.4976 103.6883 0.0000 0.0000 0.0000
# 4 0.0000 0.0000 0.0000 20.0440 0.0000 0.0000
# 5 0.0000 0.0000 0.0000 0.0000 36.1443 0.0000
# 6 0.0000 0.0000 0.0000 0.0000 0.0000 19.9036
#
#
#
# Elastic Compliance Matrix: (Units=1/GPa)
#
#
# Indices 1 2 3 4 5 6 
#
# 1 0.007256 -0.003875 -0.002770 0.000000 0.000000 0.000000
# 2 -0.003875 0.016809 -0.001576 0.000000 0.000000 0.000000
# 3 -0.002770 -0.001576 0.011336 0.000000 0.000000 0.000000
# 4 0.000000 0.000000 0.000000 0.049890 0.000000 0.000000
# 5 0.000000 0.000000 0.000000 0.000000 0.027667 0.000000
# 6 0.000000 0.000000 0.000000 0.000000 0.000000 0.050242
#
#
# Mechanical properties :
#
#
# Convention : Reuss Voigt Hill
#
# Bulk Modulus (GPa) = 52.75092 66.34263 59.54677
# Shear Modulus (GPa) = 26.88707 31.14653 29.01680
#
# Velocity S-wave (km/s) = 3.52783 3.79700 3.66489
# Velocity P-wave (km/s) = 6.40403 7.06625 6.74327
#
# Compressibility (1/GPa) = 0.01895701
#
# Stress axis : x y z
#
# Youngs Moduli (GPa) = 137.81712 59.49095 88.21797
#
# Poissons Ratio (x) = 0.23054 0.24439
# Poissons Ratio (y) = 0.53406 0.13907
# Poissons Ratio (z) = 0.38179 0.09379
#
# Static dielectric constant tensor:
#      x y z
#    x 4.212050 0.000000 0.000000 
#    y 0.000000 3.667890 0.000000 
#    z 0.000000 0.000000 3.811870 
# 
# 
# High freq. dielectric constant tensor:
#      x y z
#    x 1.870380 0.000000 0.000000 
#    y 0.000000 1.826210 0.000000 
#    z 0.000000 0.000000 1.851900 
# 
# From -- ./inp_files/1962.got.cif
#   From: 2010.03.12/outbox.cif.g09.slc.cpg/sg56_1_cif.got.tgz:1962.got - 2010.04.16 15:33:40.
