data_PCOD8229667
_publ_section_title
;
Structure prediction by ZEFSAII (Michael W. Deem and Ramdas Pophale) SiO2 
 PCOD8229667
Probable space group: P C C N
;
_chemical_formula_sum "Si O2"
_cell_formula_units_Z 52
_cell_length_a 20.162703
_cell_length_b 13.407820
_cell_length_c 8.074044
_cell_angle_alpha 90.000000
_cell_angle_beta 90.000000
_cell_angle_gamma 90.000000
_cell_volume 2182.720039
_symmetry_space_group_name_H-M "P C C N"
_symmetry_group_IT_number 56
_symmetry_cell_setting 'orthorhombic'
loop_
_space_group_symop_operation_xyz
x,y,z
1/2-x,1/2-y,z
1/2+x,-y,1/2-z
-x,1/2+y,1/2-z
-x,-y,-z
1/2+x,1/2+y,-z
1/2-x,y,1/2+z
x,1/2-y,1/2+z
loop_
_atom_site_type_symbol
_atom_site_label
_atom_site_fract_x
_atom_site_fract_y
_atom_site_fract_z
Si Si1 0.960002 0.624550 0.342131
Si Si2 0.663711 0.190185 0.327939
Si Si3 0.796283 0.376441 0.967514
Si Si4 0.750000 0.750000 0.645297
Si Si5 0.408067 0.555603 0.947910
Si Si6 0.178845 0.066701 0.713510
Si Si7 0.393505 0.303558 0.487404
O O1 0.934891 0.529246 0.435172
O O2 0.923413 0.637436 0.167228
O O3 0.944333 0.717888 0.461325
O O4 0.038890 0.603943 0.318561
O O5 0.660850 0.311787 0.330760
O O6 0.721482 0.160225 0.456876
O O7 0.601156 0.144650 0.419907
O O8 0.674198 0.143775 0.148499
O O9 0.795976 0.494623 0.933544
O O10 0.737574 0.853165 0.747415
O O11 0.681977 0.736537 0.541733
O O12 0.343247 0.507010 0.861008
O O13 0.113361 0.123948 0.646495
#
# Coordination Sequence:
#
# PCOD8229667 Si02
#       7
#     8   8   8   4   8   8   8
#     4  11  25  46  69 100 145 194 245 309 360 452
#     4  11  23  44  66 101 144 188 246 301 364 440
#     4  11  24  41  68 104 141 186 237 306 370 440
#     4  12  26  44  74 110 152 184 234 314 378 450
#     4  11  25  46  70  98 144 197 249 299 369 438
#     4  12  26  44  72 111 143 192 242 304 381 449
#     4  12  25  46  70 109 146 189 250 306 387 443
#
# _framework density 23.823485999999999
#
# number of rings (size 3 to 8) (size 9 to 14) (size 15 to 20)
#    0.000    0.615    3.077    5.077    6.462    3.077 
#    0.000    0.000    0.000    0.000    0.000    0.000 
#    0.000    0.000    0.000    0.000    0.000    0.000 
#
# Total GULP energy -644271.412755 kJ/mol
# GULP energy per Si atom -12389.834861 kJ/mol
# Density = 2.376926 g / cm^3
# Si number density = 23.823486 Si / 1000 Ang^3
#
#
#
# Elastic Constant Matrix: (Units=GPa)
#
#
# Indices 1 2 3 4 5 6 
#
# 1 35.0738 24.5128 21.6470 0.0000 0.0000 0.0000
# 2 24.5128 144.9297 24.5115 0.0000 0.0000 0.0000
# 3 21.6470 24.5115 83.2021 0.0000 0.0000 0.0000
# 4 0.0000 0.0000 0.0000 38.1094 0.0000 0.0000
# 5 0.0000 0.0000 0.0000 0.0000 20.3946 0.0000
# 6 0.0000 0.0000 0.0000 0.0000 0.0000 14.6698
#
#
#
# Elastic Compliance Matrix: (Units=1/GPa)
#
#
# Indices 1 2 3 4 5 6 
#
# 1 0.036964 -0.004868 -0.008183 0.000000 0.000000 0.000000
# 2 -0.004868 0.007903 -0.001062 0.000000 0.000000 0.000000
# 3 -0.008183 -0.001062 0.014461 0.000000 0.000000 0.000000
# 4 0.000000 0.000000 0.000000 0.026240 0.000000 0.000000
# 5 0.000000 0.000000 0.000000 0.000000 0.049033 0.000000
# 6 0.000000 0.000000 0.000000 0.000000 0.000000 0.068167
#
#
# Mechanical properties :
#
#
# Convention : Reuss Voigt Hill
#
# Bulk Modulus (GPa) = 32.15199 44.94978 38.55089
# Shear Modulus (GPa) = 20.71595 27.47038 24.09316
#
# Velocity S-wave (km/s) = 2.95203 3.39939 3.18358
# Velocity P-wave (km/s) = 5.01443 5.85804 5.45257
#
# Compressibility (1/GPa) = 0.03110227
#
# Stress axis : x y z
#
# Youngs Moduli (GPa) = 27.05342 126.53740 69.15303
#
# Poissons Ratio (x) = 0.61598 0.56587
# Poissons Ratio (y) = 0.13170 0.07342
# Poissons Ratio (z) = 0.22138 0.13434
#
# Static dielectric constant tensor:
#      x y z
#    x 4.471540 0.000000 0.000000 
#    y 0.000000 4.927260 0.000000 
#    z 0.000000 0.000000 4.247630 
# 
# 
# High freq. dielectric constant tensor:
#      x y z
#    x 1.922320 0.000000 0.000000 
#    y 0.000000 1.971540 0.000000 
#    z 0.000000 0.000000 1.945280 
# 
# From -- ./inp_files/4455.got.cif
#   From: 2010.03.12/outbox.cif.g09.slc.cpg/sg56_3_cif.got.tgz:4455.got - 2010.04.16 15:33:40.
