data_PCOD8229867
_publ_section_title
;
Structure prediction by ZEFSAII (Michael W. Deem and Ramdas Pophale) SiO2 
 PCOD8229867
Probable space group: P C C N
;
_chemical_formula_sum "Si O2"
_cell_formula_units_Z 40
_cell_length_a 8.493811
_cell_length_b 21.429745
_cell_length_c 7.460800
_cell_angle_alpha 90.000000
_cell_angle_beta 90.000000
_cell_angle_gamma 90.000000
_cell_volume 1358.016337
_symmetry_space_group_name_H-M "P C C N"
_symmetry_group_IT_number 56
_symmetry_cell_setting 'orthorhombic'
loop_
_space_group_symop_operation_xyz
x,y,z
1/2-x,1/2-y,z
1/2+x,-y,1/2-z
-x,1/2+y,1/2-z
-x,-y,-z
1/2+x,1/2+y,-z
1/2-x,y,1/2+z
x,1/2-y,1/2+z
loop_
_atom_site_type_symbol
_atom_site_label
_atom_site_fract_x
_atom_site_fract_y
_atom_site_fract_z
Si Si1 0.068392 0.399507 0.752869
Si Si2 0.631079 0.068907 0.094795
Si Si3 0.869788 0.958837 0.117085
Si Si4 0.583786 0.781298 0.469864
Si Si5 0.627368 0.301108 0.725891
O O1 0.047851 0.443665 0.575051
O O2 0.239823 0.406519 0.842847
O O3 0.072856 0.326197 0.702762
O O4 0.934910 0.418127 0.895622
O O5 0.494064 0.039210 0.218652
O O6 0.706808 0.133366 0.171563
O O7 0.778826 0.023866 0.087676
O O8 0.750000 0.750000 0.509591
O O9 0.515042 0.818964 0.638742
O O10 0.459812 0.725257 0.448109
O O11 0.750000 0.250000 0.801434
#
# Coordination Sequence:
#
# PCOD8229867 Si02
#       5
#     8   8   8   8   8
#     4  12  27  52  85 127 174 232 303 370 446 530
#     4  12  29  57  86 131 185 231 303 369 444 547
#     4  12  28  52  88 130 176 241 295 368 453 525
#     4  12  27  50  90 126 175 236 302 371 452 537
#     4  12  28  55  84 131 181 233 293 376 457 536
#
# _framework density 29.454725
#
# number of rings (size 3 to 8) (size 9 to 14) (size 15 to 20)
#    0.000    0.000    4.000    4.200    2.800    4.000 
#    7.200    1.000    0.000    0.000    0.000    0.000 
#    0.000    0.000    0.000    0.000    0.000    0.000 
#
# Total GULP energy -496096.187755 kJ/mol
# GULP energy per Si atom -12402.404694 kJ/mol
# Density = 2.938768 g / cm^3
# Si number density = 29.454725 Si / 1000 Ang^3
#
#
#
# Elastic Constant Matrix: (Units=GPa)
#
#
# Indices 1 2 3 4 5 6 
#
# 1 126.1891 37.6600 47.8392 0.0000 0.0000 0.0000
# 2 37.6600 160.4611 39.0653 0.0000 0.0000 0.0000
# 3 47.8392 39.0653 173.4926 0.0000 0.0000 0.0000
# 4 0.0000 0.0000 0.0000 47.9539 0.0000 0.0000
# 5 0.0000 0.0000 0.0000 0.0000 57.0482 0.0000
# 6 0.0000 0.0000 0.0000 0.0000 0.0000 45.2676
#
#
#
# Elastic Compliance Matrix: (Units=1/GPa)
#
#
# Indices 1 2 3 4 5 6 
#
# 1 0.009240 -0.001638 -0.002179 0.000000 0.000000 0.000000
# 2 -0.001638 0.006884 -0.001098 0.000000 0.000000 0.000000
# 3 -0.002179 -0.001098 0.006612 0.000000 0.000000 0.000000
# 4 0.000000 0.000000 0.000000 0.020853 0.000000 0.000000
# 5 0.000000 0.000000 0.000000 0.000000 0.017529 0.000000
# 6 0.000000 0.000000 0.000000 0.000000 0.000000 0.022091
#
#
# Mechanical properties :
#
#
# Convention : Reuss Voigt Hill
#
# Bulk Modulus (GPa) = 77.49005 78.80797 78.14901
# Shear Modulus (GPa) = 51.36587 52.42583 51.89585
#
# Velocity S-wave (km/s) = 4.18052 4.22344 4.20204
# Velocity P-wave (km/s) = 7.04753 7.11315 7.08042
#
# Compressibility (1/GPa) = 0.01290488
#
# Stress axis : x y z
#
# Youngs Moduli (GPa) = 108.23095 145.26672 151.23870
#
# Poissons Ratio (x) = 0.23795 0.32953
# Poissons Ratio (y) = 0.17729 0.16612
# Poissons Ratio (z) = 0.23582 0.15956
#
# Static dielectric constant tensor:
#      x y z
#    x 5.750000 0.000000 0.000000 
#    y 0.000000 5.708110 0.000000 
#    z 0.000000 0.000000 5.554040 
# 
# 
# High freq. dielectric constant tensor:
#      x y z
#    x 2.217470 0.000000 0.000000 
#    y 0.000000 2.225340 0.000000 
#    z 0.000000 0.000000 2.210990 
# 
# From -- ./inp_files/2039.got.cif
#   From: 2010.03.12/outbox.cif.g09.slc.cpg/sg56_2_cif.got.tgz:2039.got - 2010.04.16 15:33:40.
