data_PCOD8229162
_publ_section_title
;
Structure prediction by ZEFSAII (Michael W. Deem and Ramdas Pophale) SiO2 
 PCOD8229162
Probable space group: P C C N
;
_chemical_formula_sum "Si O2"
_cell_formula_units_Z 60
_cell_length_a 12.755517
_cell_length_b 26.500237
_cell_length_c 9.456542
_cell_angle_alpha 90.000000
_cell_angle_beta 90.000000
_cell_angle_gamma 90.000000
_cell_volume 3196.540267
_symmetry_space_group_name_H-M "P C C N"
_symmetry_group_IT_number 56
_symmetry_cell_setting 'orthorhombic'
loop_
_space_group_symop_operation_xyz
x,y,z
1/2-x,1/2-y,z
1/2+x,-y,1/2-z
-x,1/2+y,1/2-z
-x,-y,-z
1/2+x,1/2+y,-z
1/2-x,y,1/2+z
x,1/2-y,1/2+z
loop_
_atom_site_type_symbol
_atom_site_label
_atom_site_fract_x
_atom_site_fract_y
_atom_site_fract_z
Si Si1 0.666120 0.062381 0.920120
Si Si2 0.797688 0.593864 0.273051
Si Si3 0.250000 0.250000 0.880831
Si Si4 0.830989 0.545197 0.993326
Si Si5 0.594272 0.054596 0.364695
Si Si6 0.003956 0.550769 0.326166
Si Si7 0.338295 0.312210 0.637969
Si Si8 0.014853 0.610944 0.891234
O O1 0.784514 0.070424 0.871311
O O2 0.600994 0.051541 0.778928
O O3 0.658836 0.014236 0.027208
O O4 0.619959 0.110260 0.009919
O O5 0.746282 0.548256 0.360512
O O6 0.747028 0.646122 0.319491
O O7 0.923331 0.596572 0.294606
O O8 0.773520 0.578771 0.112139
O O9 0.336523 0.273895 0.772081
O O10 0.192274 0.289286 0.985111
O O11 0.944720 0.567639 0.962926
O O12 0.545698 0.057809 0.518479
O O13 0.539602 0.097198 0.269882
O O14 0.566310 0.999529 0.302224
O O15 0.454154 0.335553 0.614705
#
# Coordination Sequence:
#
# PCOD8229162 Si02
#       8
#     8   8   4   8   8   8   8   8
#     4  12  22  37  52  78 123 169 212 245 276 321
#     4  11  22  35  56  87 115 162 196 239 284 356
#     4  10  22  44  64  96 118 138 170 252 320 380
#     4  11  22  32  54  79 121 164 210 241 272 331
#     4  11  24  34  53  81 119 164 209 250 272 326
#     4  11  23  36  52  80 118 165 213 243 283 319
#     4  10  23  39  67  91 122 140 187 236 315 383
#     4  11  22  37  55  83 115 160 195 240 298 343
#
# _framework density 18.770292999999999
#
# number of rings (size 3 to 8) (size 9 to 14) (size 15 to 20)
#    0.000    1.067    4.000    3.600    7.467    0.000 
#    0.000    0.000    0.000    0.000    0.000    2.800 
#    0.000    0.000    0.000    0.000    0.000    0.000 
#
# Total GULP energy -743648.734250 kJ/mol
# GULP energy per Si atom -12394.145571 kJ/mol
# Density = 1.872757 g / cm^3
# Si number density = 18.770293 Si / 1000 Ang^3
#
#
#
# Elastic Constant Matrix: (Units=GPa)
#
#
# Indices 1 2 3 4 5 6 
#
# 1 93.0061 26.7530 30.7051 0.0000 0.0000 0.0000
# 2 26.7530 68.3129 29.3097 0.0000 0.0000 0.0000
# 3 30.7051 29.3097 108.1854 0.0000 0.0000 0.0000
# 4 0.0000 0.0000 0.0000 25.8968 0.0000 0.0000
# 5 0.0000 0.0000 0.0000 0.0000 28.8476 0.0000
# 6 0.0000 0.0000 0.0000 0.0000 0.0000 24.8396
#
#
#
# Elastic Compliance Matrix: (Units=1/GPa)
#
#
# Indices 1 2 3 4 5 6 
#
# 1 0.012713 -0.003882 -0.002556 0.000000 0.000000 0.000000
# 2 -0.003882 0.017749 -0.003707 0.000000 0.000000 0.000000
# 3 -0.002556 -0.003707 0.010973 0.000000 0.000000 0.000000
# 4 0.000000 0.000000 0.000000 0.038615 0.000000 0.000000
# 5 0.000000 0.000000 0.000000 0.000000 0.034665 0.000000
# 6 0.000000 0.000000 0.000000 0.000000 0.000000 0.040258
#
#
# Mechanical properties :
#
#
# Convention : Reuss Voigt Hill
#
# Bulk Modulus (GPa) = 47.29292 49.22669 48.25980
# Shear Modulus (GPa) = 27.42562 28.09924 27.76243
#
# Velocity S-wave (km/s) = 3.82660 3.87331 3.85003
# Velocity P-wave (km/s) = 6.69135 6.80340 6.74761
#
# Compressibility (1/GPa) = 0.02114481
#
# Stress axis : x y z
#
# Youngs Moduli (GPa) = 78.66256 56.34070 91.13076
#
# Poissons Ratio (x) = 0.21870 0.23297
# Poissons Ratio (y) = 0.30535 0.33781
# Poissons Ratio (z) = 0.20109 0.20885
#
# Static dielectric constant tensor:
#      x y z
#    x 3.531730 0.000000 0.000000 
#    y 0.000000 3.204320 0.000000 
#    z 0.000000 0.000000 3.715980 
# 
# 
# High freq. dielectric constant tensor:
#      x y z
#    x 1.728640 0.000000 0.000000 
#    y 0.000000 1.677460 0.000000 
#    z 0.000000 0.000000 1.759490 
# 
# From -- ./inp_files/2909.got.cif
#   From: 2010.03.12/outbox.cif.g09.slc.cpg/sg56_2_cif.got.tgz:2909.got - 2010.04.16 15:33:40.
