data_PCOD8229520
_publ_section_title
;
Structure prediction by ZEFSAII (Michael W. Deem and Ramdas Pophale) SiO2 
 PCOD8229520
Probable space group: P C C N
;
_chemical_formula_sum "Si O2"
_cell_formula_units_Z 40
_cell_length_a 12.167809
_cell_length_b 17.482070
_cell_length_c 8.697624
_cell_angle_alpha 90.000000
_cell_angle_beta 90.000000
_cell_angle_gamma 90.000000
_cell_volume 1850.145432
_symmetry_space_group_name_H-M "P C C N"
_symmetry_group_IT_number 56
_symmetry_cell_setting 'orthorhombic'
loop_
_space_group_symop_operation_xyz
x,y,z
1/2-x,1/2-y,z
1/2+x,-y,1/2-z
-x,1/2+y,1/2-z
-x,-y,-z
1/2+x,1/2+y,-z
1/2-x,y,1/2+z
x,1/2-y,1/2+z
loop_
_atom_site_type_symbol
_atom_site_label
_atom_site_fract_x
_atom_site_fract_y
_atom_site_fract_z
Si Si1 0.881311 0.929116 0.828661
Si Si2 0.961193 0.438997 0.129784
Si Si3 0.159676 0.430533 0.310674
Si Si4 0.877311 0.396679 0.688183
Si Si5 0.280012 0.835628 0.024572
O O1 0.777210 0.894012 0.736559
O O2 0.992070 0.879840 0.801878
O O3 0.899174 0.015115 0.766368
O O4 0.856134 0.926703 0.008357
O O5 0.062726 0.392304 0.209111
O O6 0.883972 0.372728 0.063902
O O7 0.000000 0.500000 0.000000
O O8 0.150026 0.518306 0.254999
O O9 0.829692 0.384454 0.516451
O O10 0.808854 0.338563 0.795703
O O11 0.250000 0.750000 0.975377
#
# Coordination Sequence:
#
# PCOD8229520 Si02
#       5
#     8   8   8   8   8
#     4  11  22  36  63  97 128 169 216 285 345 395
#     4  11  20  38  62  93 131 172 218 285 335 397
#     4  11  21  36  64  96 131 165 222 286 345 393
#     4  11  23  39  58  91 133 169 222 266 339 404
#     4  12  25  40  61  91 133 179 217 269 341 413
#
# _framework density 21.619921000000001
#
# number of rings (size 3 to 8) (size 9 to 14) (size 15 to 20)
#    0.000    0.800    6.000    5.400    2.800    0.000 
#    0.000    0.000    0.000    1.200    0.000    0.000 
#    0.000    0.000    0.000    0.000    0.000    0.000 
#
# Total GULP energy -495629.833217 kJ/mol
# GULP energy per Si atom -12390.745830 kJ/mol
# Density = 2.157071 g / cm^3
# Si number density = 21.619921 Si / 1000 Ang^3
#
#
#
# Elastic Constant Matrix: (Units=GPa)
#
#
# Indices 1 2 3 4 5 6 
#
# 1 166.2009 32.6931 69.5675 0.0000 0.0000 0.0000
# 2 32.6931 61.6559 24.6365 0.0000 0.0000 0.0000
# 3 69.5675 24.6365 140.7562 0.0000 0.0000 0.0000
# 4 0.0000 0.0000 0.0000 17.7558 0.0000 0.0000
# 5 0.0000 0.0000 0.0000 0.0000 47.6131 0.0000
# 6 0.0000 0.0000 0.0000 0.0000 0.0000 24.9595
#
#
#
# Elastic Compliance Matrix: (Units=1/GPa)
#
#
# Indices 1 2 3 4 5 6 
#
# 1 0.008034 -0.002874 -0.003467 0.000000 0.000000 0.000000
# 2 -0.002874 0.018467 -0.001812 0.000000 0.000000 0.000000
# 3 -0.003467 -0.001812 0.009135 0.000000 0.000000 0.000000
# 4 0.000000 0.000000 0.000000 0.056320 0.000000 0.000000
# 5 0.000000 0.000000 0.000000 0.000000 0.021003 0.000000
# 6 0.000000 0.000000 0.000000 0.000000 0.000000 0.040065
#
#
# Mechanical properties :
#
#
# Convention : Reuss Voigt Hill
#
# Bulk Modulus (GPa) = 51.73538 69.15636 60.44587
# Shear Modulus (GPa) = 28.44578 34.18006 31.31292
#
# Velocity S-wave (km/s) = 3.63122 3.98043 3.80983
# Velocity P-wave (km/s) = 6.44690 7.29259 6.88275
#
# Compressibility (1/GPa) = 0.01932913
#
# Stress axis : x y z
#
# Youngs Moduli (GPa) = 124.47721 54.15044 109.46496
#
# Poissons Ratio (x) = 0.15564 0.37956
# Poissons Ratio (y) = 0.35778 0.19832
# Poissons Ratio (z) = 0.43162 0.09810
#
# Static dielectric constant tensor:
#      x y z
#    x 4.575960 0.000000 0.000000 
#    y 0.000000 3.228090 0.000000 
#    z 0.000000 0.000000 4.132610 
# 
# 
# High freq. dielectric constant tensor:
#      x y z
#    x 1.876210 0.000000 0.000000 
#    y 0.000000 1.765500 0.000000 
#    z 0.000000 0.000000 1.874620 
# 
# From -- ./inp_files/2578.got.cif
#   From: 2010.03.12/outbox.cif.g09.slc.cpg/sg56_2_cif.got.tgz:2578.got - 2010.04.16 15:33:40.
