data_PCOD8229836
_publ_section_title
;
Structure prediction by ZEFSAII (Michael W. Deem and Ramdas Pophale) SiO2 
 PCOD8229836
Probable space group: P C C N
;
_chemical_formula_sum "Si O2"
_cell_formula_units_Z 32
_cell_length_a 11.396856
_cell_length_b 4.884753
_cell_length_c 24.172193
_cell_angle_alpha 90.000000
_cell_angle_beta 90.000000
_cell_angle_gamma 90.000000
_cell_volume 1345.685964
_symmetry_space_group_name_H-M "P C C N"
_symmetry_group_IT_number 56
_symmetry_cell_setting 'orthorhombic'
loop_
_space_group_symop_operation_xyz
x,y,z
1/2-x,1/2-y,z
1/2+x,-y,1/2-z
-x,1/2+y,1/2-z
-x,-y,-z
1/2+x,1/2+y,-z
1/2-x,y,1/2+z
x,1/2-y,1/2+z
loop_
_atom_site_type_symbol
_atom_site_label
_atom_site_fract_x
_atom_site_fract_y
_atom_site_fract_z
Si Si1 0.987279 0.746060 0.540226
Si Si2 0.250000 0.250000 0.392537
Si Si3 0.750000 0.250000 0.184880
Si Si4 0.826054 0.493539 0.375508
Si Si5 0.064056 0.469785 0.737606
O O1 0.863426 0.798723 0.569551
O O2 0.000000 0.500000 0.500000
O O3 0.091343 0.677685 0.583070
O O4 0.000000 0.000000 0.500000
O O5 0.213114 0.505268 0.355185
O O6 0.854314 0.345338 0.223934
O O7 0.750000 0.750000 0.401719
O O8 0.893162 0.619616 0.323065
O O9 0.750000 0.250000 0.349752
O O10 0.045021 0.181161 0.769132
#
# Coordination Sequence:
#
# PCOD8229836 Si02
#       5
#     8   4   4   8   8
#     4  12  28  49  78 106 144 199 249 317 375 437
#     4  12  28  50  74 110 146 192 254 304 372 456
#     4  12  24  46  72 108 148 194 234 294 370 438
#     4  12  26  46  74 112 151 194 249 309 377 450
#     4  12  25  43  73 108 153 196 240 296 367 450
#
# _framework density 23.779693000000002
#
# number of rings (size 3 to 8) (size 9 to 14) (size 15 to 20)
#    0.000    0.000    1.250    9.000    7.000    0.000 
#    0.000    0.000    0.000    0.000    0.000    0.000 
#    0.000    0.000    0.000    0.000    0.000    0.000 
#
# Total GULP energy -396423.179167 kJ/mol
# GULP energy per Si atom -12388.224349 kJ/mol
# Density = 2.372557 g / cm^3
# Si number density = 23.779693 Si / 1000 Ang^3
#
#
#
# Elastic Constant Matrix: (Units=GPa)
#
#
# Indices 1 2 3 4 5 6 
#
# 1 96.6793 37.5054 54.1783 0.0000 0.0000 0.0000
# 2 37.5054 150.0910 48.0842 0.0000 0.0000 0.0000
# 3 54.1783 48.0842 144.0973 0.0000 0.0000 0.0000
# 4 0.0000 0.0000 0.0000 46.7531 0.0000 0.0000
# 5 0.0000 0.0000 0.0000 0.0000 33.7856 0.0000
# 6 0.0000 0.0000 0.0000 0.0000 0.0000 45.5363
#
#
#
# Elastic Compliance Matrix: (Units=1/GPa)
#
#
# Indices 1 2 3 4 5 6 
#
# 1 0.013607 -0.001972 -0.004458 0.000000 0.000000 0.000000
# 2 -0.001972 0.007746 -0.001843 0.000000 0.000000 0.000000
# 3 -0.004458 -0.001843 0.009231 0.000000 0.000000 0.000000
# 4 0.000000 0.000000 0.000000 0.021389 0.000000 0.000000
# 5 0.000000 0.000000 0.000000 0.000000 0.029598 0.000000
# 6 0.000000 0.000000 0.000000 0.000000 0.000000 0.021960
#
#
# Mechanical properties :
#
#
# Convention : Reuss Voigt Hill
#
# Bulk Modulus (GPa) = 71.23912 74.48925 72.86419
# Shear Modulus (GPa) = 40.07802 41.95498 41.01650
#
# Velocity S-wave (km/s) = 4.10980 4.20494 4.15764
# Velocity P-wave (km/s) = 7.24870 7.41405 7.33184
#
# Compressibility (1/GPa) = 0.01403723
#
# Stress axis : x y z
#
# Youngs Moduli (GPa) = 73.49367 129.10009 108.33122
#
# Poissons Ratio (x) = 0.25458 0.48292
# Poissons Ratio (y) = 0.14492 0.19969
# Poissons Ratio (z) = 0.32762 0.23798
#
# Static dielectric constant tensor:
#      x y z
#    x 4.553920 0.000000 0.000000 
#    y 0.000000 4.612740 0.000000 
#    z 0.000000 0.000000 4.276440 
# 
# 
# High freq. dielectric constant tensor:
#      x y z
#    x 1.949550 0.000000 0.000000 
#    y 0.000000 1.971300 0.000000 
#    z 0.000000 0.000000 1.953800 
# 
# From -- ./inp_files/18536.got.cif
#   From: 2010.03.12/outbox.cif.g09.slc.cpg/sg56_10_cif.got.tgz:18536.got - 2010.04.16 15:33:40.
