data_PCOD8229686
_publ_section_title
;
Structure prediction by ZEFSAII (Michael W. Deem and Ramdas Pophale) SiO2 
 PCOD8229686
Probable space group: P C C N
;
_chemical_formula_sum "Si O2"
_cell_formula_units_Z 56
_cell_length_a 9.117440
_cell_length_b 21.111151
_cell_length_c 13.961025
_cell_angle_alpha 90.000000
_cell_angle_beta 90.000000
_cell_angle_gamma 90.000000
_cell_volume 2687.213242
_symmetry_space_group_name_H-M "P C C N"
_symmetry_group_IT_number 56
_symmetry_cell_setting 'orthorhombic'
loop_
_space_group_symop_operation_xyz
x,y,z
1/2-x,1/2-y,z
1/2+x,-y,1/2-z
-x,1/2+y,1/2-z
-x,-y,-z
1/2+x,1/2+y,-z
1/2-x,y,1/2+z
x,1/2-y,1/2+z
loop_
_atom_site_type_symbol
_atom_site_label
_atom_site_fract_x
_atom_site_fract_y
_atom_site_fract_z
Si Si1 0.082009 0.252782 0.160212
Si Si2 0.207092 0.897695 0.129863
Si Si3 0.560053 0.893353 0.765750
Si Si4 0.522093 0.185179 0.841460
Si Si5 0.476263 0.700108 0.028673
Si Si6 0.857081 0.978030 0.444450
Si Si7 0.253902 0.378729 0.914002
O O1 0.250000 0.250000 0.125853
O O2 0.041225 0.322355 0.195673
O O3 0.059833 0.201283 0.243112
O O4 0.971619 0.232335 0.075374
O O5 0.340110 0.859650 0.178490
O O6 0.136220 0.858295 0.041152
O O7 0.089914 0.912072 0.212687
O O8 0.259931 0.963155 0.086606
O O9 0.589338 0.940234 0.852041
O O10 0.693865 0.900967 0.690927
O O11 0.574110 0.249284 0.892335
O O12 0.409393 0.149162 0.910817
O O13 0.641004 0.676507 0.047919
O O14 0.750319 0.936489 0.511419
O O15 0.000000 0.000000 0.500000
#
# Coordination Sequence:
#
# PCOD8229686 Si02
#       7
#     8   8   8   8   8   8   8
#     4  12  22  41  75 104 136 181 229 282 356 423
#     4  11  27  46  66 100 146 182 231 294 354 412
#     4  11  26  46  70 106 135 183 241 289 349 418
#     4  12  21  44  68 102 142 175 220 291 356 414
#     4  11  24  42  68 105 139 176 229 286 346 430
#     4  12  27  47  71  97 139 191 240 286 348 414
#     4  11  23  46  73  97 138 182 237 286 337 426
#
# _framework density 20.839433
#
# number of rings (size 3 to 8) (size 9 to 14) (size 15 to 20)
#    0.000    0.571    5.714    3.429    2.000    3.429 
#    2.571    0.000    0.000    0.000    0.000    0.000 
#    0.000    0.000    0.000    0.000    0.000    0.000 
#
# Total GULP energy -694692.936654 kJ/mol
# GULP energy per Si atom -12405.231012 kJ/mol
# Density = 2.079200 g / cm^3
# Si number density = 20.839433 Si / 1000 Ang^3
#
#
#
# Elastic Constant Matrix: (Units=GPa)
#
#
# Indices 1 2 3 4 5 6 
#
# 1 95.8631 53.8829 33.5503 0.0000 0.0000 0.0000
# 2 53.8829 127.9176 76.5319 0.0000 0.0000 0.0000
# 3 33.5503 76.5319 128.7193 0.0000 0.0000 0.0000
# 4 0.0000 0.0000 0.0000 41.2552 0.0000 0.0000
# 5 0.0000 0.0000 0.0000 0.0000 28.2218 0.0000
# 6 0.0000 0.0000 0.0000 0.0000 0.0000 37.0990
#
#
#
# Elastic Compliance Matrix: (Units=1/GPa)
#
#
# Indices 1 2 3 4 5 6 
#
# 1 0.013671 -0.005629 -0.000216 0.000000 0.000000 0.000000
# 2 -0.005629 0.014452 -0.007125 0.000000 0.000000 0.000000
# 3 -0.000216 -0.007125 0.012062 0.000000 0.000000 0.000000
# 4 0.000000 0.000000 0.000000 0.024239 0.000000 0.000000
# 5 0.000000 0.000000 0.000000 0.000000 0.035434 0.000000
# 6 0.000000 0.000000 0.000000 0.000000 0.000000 0.026955
#
#
# Mechanical properties :
#
#
# Convention : Reuss Voigt Hill
#
# Bulk Modulus (GPa) = 70.21058 75.60335 72.90696
# Shear Modulus (GPa) = 31.74557 33.88419 32.81488
#
# Velocity S-wave (km/s) = 3.90724 4.03670 3.97250
# Velocity P-wave (km/s) = 7.35661 7.62131 7.49013
#
# Compressibility (1/GPa) = 0.01424287
#
# Stress axis : x y z
#
# Youngs Moduli (GPa) = 73.14519 69.19579 82.90750
#
# Poissons Ratio (x) = 0.38953 0.01794
# Poissons Ratio (y) = 0.41176 0.59073
# Poissons Ratio (z) = 0.01583 0.49303
#
# Static dielectric constant tensor:
#      x y z
#    x 3.804890 0.000000 0.000000 
#    y 0.000000 3.864190 0.000000 
#    z 0.000000 0.000000 3.890530 
# 
# 
# High freq. dielectric constant tensor:
#      x y z
#    x 1.819330 0.000000 0.000000 
#    y 0.000000 1.822660 0.000000 
#    z 0.000000 0.000000 1.820060 
# 
# From -- ./inp_files/10880.got.cif
#   From: 2010.03.12/outbox.cif.g09.slc.cpg/sg56_6_cif.got.tgz:10880.got - 2010.04.16 15:33:40.
