data_PCOD8229470
_publ_section_title
;
Structure prediction by ZEFSAII (Michael W. Deem and Ramdas Pophale) SiO2 
 PCOD8229470
Probable space group: P C C N
;
_chemical_formula_sum "Si O2"
_cell_formula_units_Z 32
_cell_length_a 5.127344
_cell_length_b 26.604178
_cell_length_c 8.739153
_cell_angle_alpha 90.000000
_cell_angle_beta 90.000000
_cell_angle_gamma 90.000000
_cell_volume 1192.097133
_symmetry_space_group_name_H-M "P C C N"
_symmetry_group_IT_number 56
_symmetry_cell_setting 'orthorhombic'
loop_
_space_group_symop_operation_xyz
x,y,z
1/2-x,1/2-y,z
1/2+x,-y,1/2-z
-x,1/2+y,1/2-z
-x,-y,-z
1/2+x,1/2+y,-z
1/2-x,y,1/2+z
x,1/2-y,1/2+z
loop_
_atom_site_type_symbol
_atom_site_label
_atom_site_fract_x
_atom_site_fract_y
_atom_site_fract_z
Si Si1 0.047387 0.085155 0.278587
Si Si2 0.990477 0.716440 0.748011
Si Si3 0.190158 0.152737 0.016821
Si Si4 0.248747 0.503535 0.602638
O O1 0.011475 0.129009 0.151965
O O2 0.155589 0.108162 0.435016
O O3 0.769159 0.057790 0.310093
O O4 0.248970 0.041323 0.226404
O O5 0.750000 0.750000 0.695965
O O6 0.012813 0.678718 0.602400
O O7 0.908403 0.689240 0.906625
O O8 0.250000 0.750000 0.773804
O O9 0.500000 0.500000 0.500000
O O10 0.000000 0.500000 0.500000
#
# Coordination Sequence:
#
# PCOD8229470 Si02
#       4
#     8   8   8   8
#     4  11  24  52  80 126 166 221 283 334 414 484
#     4  11  26  54  81 119 165 212 271 347 436 495
#     4  10  25  51  86 125 160 221 280 347 405 522
#     4  12  26  49  79 116 173 220 268 338 411 483
#
# _framework density 26.843449
#
# number of rings (size 3 to 8) (size 9 to 14) (size 15 to 20)
#    0.000    1.000    2.500    2.250    0.000    4.000 
#   18.000    3.750    0.000    0.000    0.000    0.000 
#    0.000    0.000    0.000    0.000    0.000    0.000 
#
# Total GULP energy -396679.071891 kJ/mol
# GULP energy per Si atom -12396.220997 kJ/mol
# Density = 2.678235 g / cm^3
# Si number density = 26.843449 Si / 1000 Ang^3
#
#
#
# Elastic Constant Matrix: (Units=GPa)
#
#
# Indices 1 2 3 4 5 6 
#
# 1 161.1025 64.3094 70.2832 0.0000 0.0000 0.0000
# 2 64.3094 153.1181 69.6262 0.0000 0.0000 0.0000
# 3 70.2832 69.6262 171.7183 0.0000 0.0000 0.0000
# 4 0.0000 0.0000 0.0000 -229.0322 0.0000 0.0000
# 5 0.0000 0.0000 0.0000 0.0000 36.4159 0.0000
# 6 0.0000 0.0000 0.0000 0.0000 0.0000 53.4388
#
#
#
# Elastic Compliance Matrix: (Units=1/GPa)
#
#
# Indices 1 2 3 4 5 6 
#
# 1 0.008192 -0.002349 -0.002401 0.000000 0.000000 0.000000
# 2 -0.002349 0.008681 -0.002558 0.000000 0.000000 0.000000
# 3 -0.002401 -0.002558 0.007843 0.000000 0.000000 0.000000
# 4 0.000000 0.000000 0.000000 -0.004366 0.000000 0.000000
# 5 0.000000 0.000000 0.000000 0.000000 0.027461 0.000000
# 6 0.000000 0.000000 0.000000 0.000000 0.000000 0.018713
#
#
# Mechanical properties :
#
#
# Convention : Reuss Voigt Hill
#
# Bulk Modulus (GPa) = 99.00560 99.37516 99.19038
# Shear Modulus (GPa) = 59.16700 -9.05417 25.05642
#
# Velocity S-wave (km/s) = 4.69993 -1.83855 3.05852
# Velocity P-wave (km/s) = 8.14955 5.70908 7.03593
#
# Compressibility (1/GPa) = 0.01010044
#
# Stress axis : x y z
#
# Youngs Moduli (GPa) = 122.06684 115.19574 127.49693
#
# Poissons Ratio (x) = 0.27061 0.30606
# Poissons Ratio (y) = 0.28675 0.32618
# Poissons Ratio (z) = 0.29302 0.29471
#
# Static dielectric constant tensor:
#      x y z
#    x 3.508870 0.000000 0.000000 
#    y 0.000000 4.536060 0.000000 
#    z 0.000000 0.000000 5.661850 
# 
# 
# High freq. dielectric constant tensor:
#      x y z
#    x 2.053680 0.000000 0.000000 
#    y 0.000000 2.099040 0.000000 
#    z 0.000000 0.000000 2.110250 
# 
# From -- ./inp_files/1591.got.cif
#   From: 2010.03.12/outbox.cif.g09.slc.cpg/sg56_1_cif.got.tgz:1591.got - 2010.04.16 15:33:40.
