data_PCOD8229279
_publ_section_title
;
Structure prediction by ZEFSAII (Michael W. Deem and Ramdas Pophale) SiO2 
 PCOD8229279
Probable space group: P C C N
;
_chemical_formula_sum "Si O2"
_cell_formula_units_Z 24
_cell_length_a 6.269547
_cell_length_b 7.375074
_cell_length_c 19.118708
_cell_angle_alpha 90.000000
_cell_angle_beta 90.000000
_cell_angle_gamma 90.000000
_cell_volume 884.017953
_symmetry_space_group_name_H-M "P C C N"
_symmetry_group_IT_number 56
_symmetry_cell_setting 'orthorhombic'
loop_
_space_group_symop_operation_xyz
x,y,z
1/2-x,1/2-y,z
1/2+x,-y,1/2-z
-x,1/2+y,1/2-z
-x,-y,-z
1/2+x,1/2+y,-z
1/2-x,y,1/2+z
x,1/2-y,1/2+z
loop_
_atom_site_type_symbol
_atom_site_label
_atom_site_fract_x
_atom_site_fract_y
_atom_site_fract_z
Si Si1 0.259697 0.958910 0.978394
Si Si2 0.750000 0.750000 0.918376
Si Si3 0.250000 0.750000 0.721155
Si Si4 0.075073 0.508777 0.838525
O O1 0.250000 0.750000 0.996046
O O2 0.236985 0.017010 0.896311
O O3 0.500000 0.000000 0.000000
O O4 0.127706 0.095874 0.031673
O O5 0.926971 0.669074 0.868300
O O6 0.324325 0.922723 0.766276
O O7 0.444751 0.677460 0.673455
#
# Coordination Sequence:
#
# PCOD8229279 Si02
#       4
#     8   4   4   8
#     4  10  23  43  68 105 138 180 234 303 368 427
#     4  10  24  44  74 104 140 186 236 310 368 424
#     4  12  26  48  72 100 150 196 246 296 352 444
#     4  11  25  46  68 105 141 192 248 294 368 432
#
# _framework density 27.148769000000001
#
# number of rings (size 3 to 8) (size 9 to 14) (size 15 to 20)
#    0.000    1.333    1.667    2.000    9.333    8.000 
#    0.000    0.000    0.000    0.000    0.000    0.000 
#    0.000    0.000    0.000    0.000    0.000    0.000 
#
# Total GULP energy -297539.404554 kJ/mol
# GULP energy per Si atom -12397.475190 kJ/mol
# Density = 2.708698 g / cm^3
# Si number density = 27.148769 Si / 1000 Ang^3
#
#
#
# Elastic Constant Matrix: (Units=GPa)
#
#
# Indices 1 2 3 4 5 6 
#
# 1 28.7352 27.7608 20.9630 0.0000 0.0000 0.0000
# 2 27.7608 142.3326 48.4997 0.0000 0.0000 0.0000
# 3 20.9630 48.4997 114.3760 0.0000 0.0000 0.0000
# 4 0.0000 0.0000 0.0000 68.2113 0.0000 0.0000
# 5 0.0000 0.0000 0.0000 0.0000 52.8139 0.0000
# 6 0.0000 0.0000 0.0000 0.0000 0.0000 63.1877
#
#
#
# Elastic Compliance Matrix: (Units=1/GPa)
#
#
# Indices 1 2 3 4 5 6 
#
# 1 0.045520 -0.007055 -0.005352 0.000000 0.000000 0.000000
# 2 -0.007055 0.009306 -0.002653 0.000000 0.000000 0.000000
# 3 -0.005352 -0.002653 0.010849 0.000000 0.000000 0.000000
# 4 0.000000 0.000000 0.000000 0.014660 0.000000 0.000000
# 5 0.000000 0.000000 0.000000 0.000000 0.018934 0.000000
# 6 0.000000 0.000000 0.000000 0.000000 0.000000 0.015826
#
#
# Mechanical properties :
#
#
# Convention : Reuss Voigt Hill
#
# Bulk Modulus (GPa) = 28.12443 53.32121 40.72282
# Shear Modulus (GPa) = 31.83369 49.39060 40.61215
#
# Velocity S-wave (km/s) = 3.42799 4.26990 3.87190
# Velocity P-wave (km/s) = 5.10392 6.63268 5.91787
#
# Compressibility (1/GPa) = 0.03555628
#
# Stress axis : x y z
#
# Youngs Moduli (GPa) = 21.96824 107.46007 92.17535
#
# Poissons Ratio (x) = 0.75811 0.49328
# Poissons Ratio (y) = 0.15498 0.24454
# Poissons Ratio (z) = 0.11756 0.28509
#
# Static dielectric constant tensor:
#      x y z
#    x 7.063540 0.000000 0.000000 
#    y 0.000000 4.904320 0.000000 
#    z 0.000000 0.000000 6.398040 
# 
# 
# High freq. dielectric constant tensor:
#      x y z
#    x 2.108440 0.000000 0.000000 
#    y 0.000000 2.101360 0.000000 
#    z 0.000000 0.000000 2.102990 
# 
# From -- ./inp_files/17745.got.cif
#   From: 2010.03.12/outbox.cif.g09.slc.cpg/sg56_9_cif.got.tgz:17745.got - 2010.04.16 15:33:40.
