data_PCOD8229969
_publ_section_title
;
Structure prediction by ZEFSAII (Michael W. Deem and Ramdas Pophale) SiO2 
 PCOD8229969
Probable space group: P B C M
;
_chemical_formula_sum "Si O2"
_cell_formula_units_Z 40
_cell_length_a 26.299195
_cell_length_b 9.224737
_cell_length_c 8.569065
_cell_angle_alpha 90.000000
_cell_angle_beta 90.000000
_cell_angle_gamma 90.000000
_cell_volume 2078.882223
_symmetry_space_group_name_H-M "P B C M"
_symmetry_group_IT_number 57
_symmetry_cell_setting 'orthorhombic'
loop_
_space_group_symop_operation_xyz
x,y,z
-x,-y,1/2+z
x,1/2-y,-z
-x,1/2+y,1/2-z
-x,-y,-z
x,y,1/2-z
-x,1/2+y,z
x,1/2-y,1/2+z
loop_
_atom_site_type_symbol
_atom_site_label
_atom_site_fract_x
_atom_site_fract_y
_atom_site_fract_z
Si Si1 0.953623 0.089982 0.933562
Si Si2 0.855452 0.909640 0.934228
Si Si3 0.546613 0.589027 0.934895
Si Si4 0.752077 0.911710 0.434663
Si Si5 0.349927 0.087965 0.434950
O O1 0.959338 0.097513 0.750000
O O2 0.901617 0.012204 0.984022
O O3 0.954142 0.250000 0.000000
O O4 0.000000 0.000000 0.000000
O O5 0.848490 0.897954 0.750000
O O6 0.866314 0.750000 0.000000
O O7 0.804728 0.984129 0.008209
O O8 0.545566 0.591093 0.750000
O O9 0.542393 0.750000 0.000000
O O10 0.500000 0.500000 0.000000
O O11 0.599223 0.514240 0.994487
O O12 0.754480 0.750000 0.500000
O O13 0.747912 0.912810 0.250000
O O14 0.701899 0.991422 0.506288
O O15 0.347834 0.250000 0.500000
O O16 0.352920 0.087071 0.250000
#
# Coordination Sequence:
#
# PCOD8229969 Si02
#       5
#     8   8   8   8   8
#     4  11  24  40  60  83 111 144 182 223 268 317
#     4  10  20  34  53  80 109 140 174 215 262 314
#     4  11  21  35  53  77 106 140 180 224 272 324
#     4  10  17  27  46  73 103 136 171 214 261 311
#     4  10  17  28  46  71 102 136 173 218 265 314
#
# _framework density 19.241109000000002
#
# number of rings (size 3 to 8) (size 9 to 14) (size 15 to 20)
#    0.000    1.600    0.000   10.800    0.000    4.800 
#    0.000    0.000    0.000    1.200    0.000    5.600 
#    0.000    0.000    0.000    0.000    0.000    0.000 
#
# Total GULP energy -495867.924223 kJ/mol
# GULP energy per Si atom -12396.698106 kJ/mol
# Density = 1.919732 g / cm^3
# Si number density = 19.241109 Si / 1000 Ang^3
#
#
#
# Elastic Constant Matrix: (Units=GPa)
#
#
# Indices 1 2 3 4 5 6 
#
# 1 232.2993 66.6027 93.7476 0.0000 0.0000 0.0000
# 2 66.6027 68.1493 34.5073 0.0000 0.0000 0.0000
# 3 93.7476 34.5073 172.3950 0.0000 0.0000 0.0000
# 4 0.0000 0.0000 0.0000 23.6385 0.0000 0.0000
# 5 0.0000 0.0000 0.0000 0.0000 39.9444 0.0000
# 6 0.0000 0.0000 0.0000 0.0000 0.0000 14.9854
#
#
#
# Elastic Compliance Matrix: (Units=1/GPa)
#
#
# Indices 1 2 3 4 5 6 
#
# 1 0.006947 -0.005426 -0.002691 0.000000 0.000000 0.000000
# 2 -0.005426 0.020567 -0.001166 0.000000 0.000000 0.000000
# 3 -0.002691 -0.001166 0.007498 0.000000 0.000000 0.000000
# 4 0.000000 0.000000 0.000000 0.042304 0.000000 0.000000
# 5 0.000000 0.000000 0.000000 0.000000 0.025035 0.000000
# 6 0.000000 0.000000 0.000000 0.000000 0.000000 0.066732
#
#
# Mechanical properties :
#
#
# Convention : Reuss Voigt Hill
#
# Bulk Modulus (GPa) = 60.81229 95.83986 78.32608
# Shear Modulus (GPa) = 25.88920 34.24607 30.06763
#
# Velocity S-wave (km/s) = 3.67211 4.22339 3.95736
# Velocity P-wave (km/s) = 7.04650 8.58492 7.85347
#
# Compressibility (1/GPa) = 0.01644404
#
# Stress axis : x y z
#
# Youngs Moduli (GPa) = 143.95259 48.62113 133.37549
#
# Poissons Ratio (x) = 0.26383 0.35897
# Poissons Ratio (y) = 0.78112 0.15552
# Poissons Ratio (z) = 0.38744 0.05669
#
# Static dielectric constant tensor:
#      x y z
#    x 3.922560 0.000000 0.000000 
#    y 0.000000 3.001100 0.000000 
#    z 0.000000 0.000000 3.692060 
# 
# 
# High freq. dielectric constant tensor:
#      x y z
#    x 1.787610 0.000000 0.000000 
#    y 0.000000 1.684560 0.000000 
#    z 0.000000 0.000000 1.773080 
# 
# From -- ./inp_files/9643.got.cif
#   From: 2010.03.12/outbox.cif.g09.slc.cpg/sg57_5_cif.got.tgz:9643.got - 2010.04.16 15:48:40.
