data_PCOD8229366
_publ_section_title
;
Structure prediction by ZEFSAII (Michael W. Deem and Ramdas Pophale) SiO2 
 PCOD8229366
Probable space group: P C C N
;
_chemical_formula_sum "Si O2"
_cell_formula_units_Z 60
_cell_length_a 11.458221
_cell_length_b 24.837130
_cell_length_c 9.215203
_cell_angle_alpha 90.000000
_cell_angle_beta 90.000000
_cell_angle_gamma 90.000000
_cell_volume 2622.548397
_symmetry_space_group_name_H-M "P C C N"
_symmetry_group_IT_number 56
_symmetry_cell_setting 'orthorhombic'
loop_
_space_group_symop_operation_xyz
x,y,z
1/2-x,1/2-y,z
1/2+x,-y,1/2-z
-x,1/2+y,1/2-z
-x,-y,-z
1/2+x,1/2+y,-z
1/2-x,y,1/2+z
x,1/2-y,1/2+z
loop_
_atom_site_type_symbol
_atom_site_label
_atom_site_fract_x
_atom_site_fract_y
_atom_site_fract_z
Si Si1 0.817408 0.371117 0.846364
Si Si2 0.093097 0.238467 0.019852
Si Si3 0.250000 0.250000 0.270889
Si Si4 0.737967 0.949197 0.037692
Si Si5 0.471712 0.091018 0.343394
Si Si6 0.544370 0.637374 0.462098
Si Si7 0.679082 0.020581 0.287559
Si Si8 0.387692 0.665026 0.965980
O O1 0.766618 0.430060 0.815111
O O2 0.846621 0.341937 0.697298
O O3 0.722609 0.333902 0.927443
O O4 0.930756 0.375579 0.944585
O O5 0.163324 0.216696 0.162804
O O6 0.094845 0.303174 0.012424
O O7 0.958756 0.220827 0.021578
O O8 0.163714 0.215874 0.877956
O O9 0.837760 0.923108 0.136616
O O10 0.687025 0.001127 0.121596
O O11 0.640554 0.905177 0.009966
O O12 0.790239 0.969757 0.887041
O O13 0.488156 0.130893 0.206811
O O14 0.545210 0.036721 0.315604
O O15 0.521318 0.118535 0.489028
#
# Coordination Sequence:
#
# PCOD8229366 Si02
#       8
#     8   8   4   8   8   8   8   8
#     4  11  25  47  75 107 146 189 248 301 367 443
#     4  11  25  45  72 104 146 198 237 304 373 428
#     4  10  24  42  70 100 142 190 242 294 364 434
#     4  12  26  41  69 104 143 194 246 297 370 437
#     4  11  25  45  69 104 147 186 252 298 367 437
#     4  12  27  43  71 107 147 192 246 302 360 450
#     4  11  24  45  69  99 142 194 236 311 363 428
#     4  11  25  48  76 107 145 190 243 305 369 445
#
# _framework density 22.878511
#
# number of rings (size 3 to 8) (size 9 to 14) (size 15 to 20)
#    0.000    0.800    1.333    6.000    9.333    1.600 
#    0.000    2.667    0.000    0.000    0.000    0.000 
#    0.000    0.000    0.000    0.000    0.000    0.000 
#
# Total GULP energy -744092.912175 kJ/mol
# GULP energy per Si atom -12401.548536 kJ/mol
# Density = 2.282644 g / cm^3
# Si number density = 22.878511 Si / 1000 Ang^3
#
#
#
# Elastic Constant Matrix: (Units=GPa)
#
#
# Indices 1 2 3 4 5 6 
#
# 1 159.7408 57.4410 65.5512 0.0000 0.0000 0.0000
# 2 57.4410 91.5351 36.1773 0.0000 0.0000 0.0000
# 3 65.5512 36.1773 136.9970 0.0000 0.0000 0.0000
# 4 0.0000 0.0000 0.0000 22.4615 0.0000 0.0000
# 5 0.0000 0.0000 0.0000 0.0000 43.1352 0.0000
# 6 0.0000 0.0000 0.0000 0.0000 0.0000 36.1339
#
#
#
# Elastic Compliance Matrix: (Units=1/GPa)
#
#
# Indices 1 2 3 4 5 6 
#
# 1 0.009197 -0.004502 -0.003212 0.000000 0.000000 0.000000
# 2 -0.004502 0.014402 -0.001649 0.000000 0.000000 0.000000
# 3 -0.003212 -0.001649 0.009272 0.000000 0.000000 0.000000
# 4 0.000000 0.000000 0.000000 0.044521 0.000000 0.000000
# 5 0.000000 0.000000 0.000000 0.000000 0.023183 0.000000
# 6 0.000000 0.000000 0.000000 0.000000 0.000000 0.027675
#
#
# Mechanical properties :
#
#
# Convention : Reuss Voigt Hill
#
# Bulk Modulus (GPa) = 70.69720 78.51245 74.60482
# Shear Modulus (GPa) = 32.96214 35.61966 34.29090
#
# Velocity S-wave (km/s) = 3.79983 3.95004 3.87567
# Velocity P-wave (km/s) = 7.08660 7.42936 7.26000
#
# Compressibility (1/GPa) = 0.01414483
#
# Stress axis : x y z
#
# Youngs Moduli (GPa) = 108.73114 69.43663 107.85547
#
# Poissons Ratio (x) = 0.31260 0.34641
# Poissons Ratio (y) = 0.48951 0.17785
# Poissons Ratio (z) = 0.34922 0.11450
#
# Static dielectric constant tensor:
#      x y z
#    x 4.341580 0.000000 0.000000 
#    y 0.000000 3.807470 0.000000 
#    z 0.000000 0.000000 4.407230 
# 
# 
# High freq. dielectric constant tensor:
#      x y z
#    x 1.922990 0.000000 0.000000 
#    y 0.000000 1.881010 0.000000 
#    z 0.000000 0.000000 1.924060 
# 
# From -- ./inp_files/2912.got.cif
#   From: 2010.03.12/outbox.cif.g09.slc.cpg/sg56_2_cif.got.tgz:2912.got - 2010.04.16 15:33:40.
