data_PCOD8229849
_publ_section_title
;
Structure prediction by ZEFSAII (Michael W. Deem and Ramdas Pophale) SiO2 
 PCOD8229849
Probable space group: P C C N
;
_chemical_formula_sum "Si O2"
_cell_formula_units_Z 40
_cell_length_a 13.945430
_cell_length_b 13.725031
_cell_length_c 8.392546
_cell_angle_alpha 90.000000
_cell_angle_beta 90.000000
_cell_angle_gamma 90.000000
_cell_volume 1606.345550
_symmetry_space_group_name_H-M "P C C N"
_symmetry_group_IT_number 56
_symmetry_cell_setting 'orthorhombic'
loop_
_space_group_symop_operation_xyz
x,y,z
1/2-x,1/2-y,z
1/2+x,-y,1/2-z
-x,1/2+y,1/2-z
-x,-y,-z
1/2+x,1/2+y,-z
1/2-x,y,1/2+z
x,1/2-y,1/2+z
loop_
_atom_site_type_symbol
_atom_site_label
_atom_site_fract_x
_atom_site_fract_y
_atom_site_fract_z
Si Si1 0.742354 0.533516 0.776915
Si Si2 0.899249 0.117696 0.211300
Si Si3 0.539280 0.304128 0.892593
Si Si4 0.176169 0.165460 0.956074
Si Si5 0.453788 0.980659 0.829794
O O1 0.804568 0.434888 0.780907
O O2 0.804664 0.627329 0.722738
O O3 0.655243 0.515974 0.654074
O O4 0.694117 0.565835 0.943291
O O5 0.923892 0.198995 0.341555
O O6 0.888268 0.157428 0.030525
O O7 0.987468 0.042586 0.199951
O O8 0.432226 0.295079 0.967232
O O9 0.542773 0.369897 0.733479
O O10 0.250000 0.250000 0.004654
O O11 0.500000 0.000000 0.000000
#
# Coordination Sequence:
#
# PCOD8229849 Si02
#       5
#     8   8   8   8   8
#     4  12  26  46  78 112 155 208 267 329 407 480
#     4  12  26  49  78 115 158 210 264 335 404 478
#     4  12  27  49  78 113 161 209 268 334 403 488
#     4  12  26  46  77 116 149 203 273 339 397 475
#     4  12  25  49  76 111 160 210 261 328 400 477
#
# _framework density 24.901240999999999
#
# number of rings (size 3 to 8) (size 9 to 14) (size 15 to 20)
#    0.000    0.000    4.000    6.000    2.800    0.800 
#    0.000    2.000    0.000    0.000    0.000    0.000 
#    0.000    0.000    0.000    0.000    0.000    0.000 
#
# Total GULP energy -496065.452128 kJ/mol
# GULP energy per Si atom -12401.636303 kJ/mol
# Density = 2.484457 g / cm^3
# Si number density = 24.901241 Si / 1000 Ang^3
#
#
#
# Elastic Constant Matrix: (Units=GPa)
#
#
# Indices 1 2 3 4 5 6 
#
# 1 112.0526 50.6370 38.9104 0.0000 0.0000 0.0000
# 2 50.6370 105.7881 32.6403 0.0000 0.0000 0.0000
# 3 38.9104 32.6403 102.4426 0.0000 0.0000 0.0000
# 4 0.0000 0.0000 0.0000 43.3546 0.0000 0.0000
# 5 0.0000 0.0000 0.0000 0.0000 37.6062 0.0000
# 6 0.0000 0.0000 0.0000 0.0000 0.0000 38.3847
#
#
#
# Elastic Compliance Matrix: (Units=1/GPa)
#
#
# Indices 1 2 3 4 5 6 
#
# 1 0.012203 -0.004892 -0.003076 0.000000 0.000000 0.000000
# 2 -0.004892 0.012445 -0.002107 0.000000 0.000000 0.000000
# 3 -0.003076 -0.002107 0.011601 0.000000 0.000000 0.000000
# 4 0.000000 0.000000 0.000000 0.023066 0.000000 0.000000
# 5 0.000000 0.000000 0.000000 0.000000 0.026591 0.000000
# 6 0.000000 0.000000 0.000000 0.000000 0.000000 0.026052
#
#
# Mechanical properties :
#
#
# Convention : Reuss Voigt Hill
#
# Bulk Modulus (GPa) = 62.11796 62.73984 62.42890
# Shear Modulus (GPa) = 36.37007 37.07550 36.72278
#
# Velocity S-wave (km/s) = 3.82589 3.86281 3.84440
# Velocity P-wave (km/s) = 6.67207 6.71902 6.69559
#
# Compressibility (1/GPa) = 0.01609840
#
# Stress axis : x y z
#
# Youngs Moduli (GPa) = 81.94401 80.35586 86.19651
#
# Poissons Ratio (x) = 0.39311 0.26518
# Poissons Ratio (y) = 0.40088 0.18161
# Poissons Ratio (z) = 0.25210 0.16931
#
# Static dielectric constant tensor:
#      x y z
#    x 4.569250 0.000000 0.000000 
#    y 0.000000 4.544540 0.000000 
#    z 0.000000 0.000000 4.278820 
# 
# 
# High freq. dielectric constant tensor:
#      x y z
#    x 1.992550 0.000000 0.000000 
#    y 0.000000 1.997210 0.000000 
#    z 0.000000 0.000000 1.996910 
# 
# From -- ./inp_files/3225.got.cif
#   From: 2010.03.12/outbox.cif.g09.slc.cpg/sg56_2_cif.got.tgz:3225.got - 2010.04.16 15:33:40.
