data_PCOD8229751
_publ_section_title
;
Structure prediction by ZEFSAII (Michael W. Deem and Ramdas Pophale) SiO2 
 PCOD8229751
Probable space group: P C C N
;
_chemical_formula_sum "Si O2"
_cell_formula_units_Z 40
_cell_length_a 18.841618
_cell_length_b 10.133109
_cell_length_c 9.218123
_cell_angle_alpha 90.000000
_cell_angle_beta 90.000000
_cell_angle_gamma 90.000000
_cell_volume 1759.962473
_symmetry_space_group_name_H-M "P C C N"
_symmetry_group_IT_number 56
_symmetry_cell_setting 'orthorhombic'
loop_
_space_group_symop_operation_xyz
x,y,z
1/2-x,1/2-y,z
1/2+x,-y,1/2-z
-x,1/2+y,1/2-z
-x,-y,-z
1/2+x,1/2+y,-z
1/2-x,y,1/2+z
x,1/2-y,1/2+z
loop_
_atom_site_type_symbol
_atom_site_label
_atom_site_fract_x
_atom_site_fract_y
_atom_site_fract_z
Si Si1 0.833968 0.340007 0.184880
Si Si2 0.981915 0.482046 0.166250
Si Si3 0.075890 0.247307 0.271696
Si Si4 0.697832 0.102337 0.511126
Si Si5 0.328355 0.196636 0.520311
O O1 0.904419 0.422911 0.180970
O O2 0.803507 0.337722 0.348440
O O3 0.847821 0.191570 0.124297
O O4 0.778182 0.403138 0.071138
O O5 0.979846 0.625652 0.246034
O O6 0.037985 0.386721 0.243955
O O7 0.000000 0.500000 0.000000
O O8 0.106878 0.237894 0.432975
O O9 0.149183 0.230828 0.182950
O O10 0.666112 0.957600 0.512167
O O11 0.250000 0.250000 0.486679
#
# Coordination Sequence:
#
# PCOD8229751 Si02
#       5
#     8   8   8   8   8
#     4  11  25  46  70 112 141 195 235 306 365 438
#     4  12  28  48  74 108 153 191 248 301 365 447
#     4  12  28  49  76 110 147 201 246 300 381 434
#     4  11  25  44  76 103 146 183 251 297 380 425
#     4  12  27  48  76 109 145 190 251 313 367 439
#
# _framework density 22.727758999999999
#
# number of rings (size 3 to 8) (size 9 to 14) (size 15 to 20)
#    0.000    0.400    4.000    4.200    8.400    0.800 
#    0.000    0.000    0.000    0.000    0.000    0.000 
#    0.000    0.000    0.000    0.000    0.000    0.000 
#
# Total GULP energy -495856.087202 kJ/mol
# GULP energy per Si atom -12396.402180 kJ/mol
# Density = 2.267603 g / cm^3
# Si number density = 22.727759 Si / 1000 Ang^3
#
#
#
# Elastic Constant Matrix: (Units=GPa)
#
#
# Indices 1 2 3 4 5 6 
#
# 1 82.8959 37.1115 38.6882 0.0000 0.0000 0.0000
# 2 37.1115 144.0344 30.7442 0.0000 0.0000 0.0000
# 3 38.6882 30.7442 110.1356 0.0000 0.0000 0.0000
# 4 0.0000 0.0000 0.0000 35.1474 0.0000 0.0000
# 5 0.0000 0.0000 0.0000 0.0000 30.0293 0.0000
# 6 0.0000 0.0000 0.0000 0.0000 0.0000 42.3418
#
#
#
# Elastic Compliance Matrix: (Units=1/GPa)
#
#
# Indices 1 2 3 4 5 6 
#
# 1 0.015578 -0.003026 -0.004627 0.000000 0.000000 0.000000
# 2 -0.003026 0.007970 -0.001162 0.000000 0.000000 0.000000
# 3 -0.004627 -0.001162 0.011030 0.000000 0.000000 0.000000
# 4 0.000000 0.000000 0.000000 0.028452 0.000000 0.000000
# 5 0.000000 0.000000 0.000000 0.000000 0.033301 0.000000
# 6 0.000000 0.000000 0.000000 0.000000 0.000000 0.023617
#
#
# Mechanical properties :
#
#
# Convention : Reuss Voigt Hill
#
# Bulk Modulus (GPa) = 59.00747 61.12819 60.06783
# Shear Modulus (GPa) = 34.90959 36.87184 35.89072
#
# Velocity S-wave (km/s) = 3.92342 4.03218 3.97817
# Velocity P-wave (km/s) = 6.82227 6.97368 6.89839
#
# Compressibility (1/GPa) = 0.01694701
#
# Stress axis : x y z
#
# Youngs Moduli (GPa) = 64.19456 125.46307 90.66527
#
# Poissons Ratio (x) = 0.37965 0.41954
# Poissons Ratio (y) = 0.19425 0.10535
# Poissons Ratio (z) = 0.29705 0.14579
#
# Static dielectric constant tensor:
#      x y z
#    x 3.886600 0.000000 0.000000 
#    y 0.000000 4.378030 0.000000 
#    z 0.000000 0.000000 4.045310 
# 
# 
# High freq. dielectric constant tensor:
#      x y z
#    x 1.893300 0.000000 0.000000 
#    y 0.000000 1.913620 0.000000 
#    z 0.000000 0.000000 1.906150 
# 
# From -- ./inp_files/3894.got.cif
#   From: 2010.03.12/outbox.cif.g09.slc.cpg/sg56_2_cif.got.tgz:3894.got - 2010.04.16 15:33:40.
