data_PCOD8229309
_publ_section_title
;
Structure prediction by ZEFSAII (Michael W. Deem and Ramdas Pophale) SiO2 
 PCOD8229309
Probable space group: P C C N
;
_chemical_formula_sum "Si O2"
_cell_formula_units_Z 56
_cell_length_a 14.261710
_cell_length_b 18.274273
_cell_length_c 9.351876
_cell_angle_alpha 90.000000
_cell_angle_beta 90.000000
_cell_angle_gamma 90.000000
_cell_volume 2437.308199
_symmetry_space_group_name_H-M "P C C N"
_symmetry_group_IT_number 56
_symmetry_cell_setting 'orthorhombic'
loop_
_space_group_symop_operation_xyz
x,y,z
1/2-x,1/2-y,z
1/2+x,-y,1/2-z
-x,1/2+y,1/2-z
-x,-y,-z
1/2+x,1/2+y,-z
1/2-x,y,1/2+z
x,1/2-y,1/2+z
loop_
_atom_site_type_symbol
_atom_site_label
_atom_site_fract_x
_atom_site_fract_y
_atom_site_fract_z
Si Si1 0.438086 0.228051 0.546149
Si Si2 0.687386 0.029800 0.705794
Si Si3 0.628421 0.625893 0.175589
Si Si4 0.250000 0.750000 0.095786
Si Si5 0.539290 0.613850 0.483160
Si Si6 0.130036 0.817845 0.846676
Si Si7 0.357761 0.527491 0.475579
Si Si8 0.750000 0.750000 0.281591
O O1 0.442893 0.159868 0.438885
O O2 0.444613 0.304474 0.455008
O O3 0.528224 0.220952 0.650100
O O4 0.339435 0.224524 0.627619
O O5 0.615356 0.094341 0.663894
O O6 0.789685 0.052651 0.650289
O O7 0.659818 0.954537 0.625301
O O8 0.695506 0.016753 0.874784
O O9 0.571167 0.618110 0.320050
O O10 0.718572 0.680232 0.186550
O O11 0.317519 0.796220 0.199750
O O12 0.188346 0.801208 0.991356
O O13 0.430418 0.593796 0.489530
O O14 0.594866 0.550310 0.567853
#
# Coordination Sequence:
#
# PCOD8229309 Si02
#       8
#     8   8   8   4   8   8   8   4
#     4  11  25  42  72 101 140 186 239 294 348 428
#     4  11  25  42  69 105 139 185 230 293 362 420
#     4  10  24  42  66 101 141 183 238 287 360 417
#     4  10  26  48  70 104 140 188 236 290 360 420
#     4   9  23  44  65  98 134 188 229 286 357 426
#     4  11  26  45  73 104 142 184 236 296 355 433
#     4  10  23  45  70  98 140 181 235 288 357 428
#     4  10  24  44  66 104 140 192 240 298 352 418
#
# _framework density 22.976167
#
# number of rings (size 3 to 8) (size 9 to 14) (size 15 to 20)
#    0.000    1.714    0.000    1.286   18.000    1.714 
#    5.143    0.000    0.000    0.000    0.000    0.000 
#    0.000    0.000    0.000    0.000    0.000    0.000 
#
# Total GULP energy -694299.674039 kJ/mol
# GULP energy per Si atom -12398.208465 kJ/mol
# Density = 2.292387 g / cm^3
# Si number density = 22.976167 Si / 1000 Ang^3
#
#
#
# Elastic Constant Matrix: (Units=GPa)
#
#
# Indices 1 2 3 4 5 6 
#
# 1 118.2119 27.0628 43.0826 0.0000 0.0000 0.0000
# 2 27.0628 152.5948 27.4512 0.0000 0.0000 0.0000
# 3 43.0826 27.4512 77.2495 0.0000 0.0000 0.0000
# 4 0.0000 0.0000 0.0000 24.4836 0.0000 0.0000
# 5 0.0000 0.0000 0.0000 0.0000 17.1319 0.0000
# 6 0.0000 0.0000 0.0000 0.0000 0.0000 27.1351
#
#
#
# Elastic Compliance Matrix: (Units=1/GPa)
#
#
# Indices 1 2 3 4 5 6 
#
# 1 0.010728 -0.000883 -0.005669 0.000000 0.000000 0.000000
# 2 -0.000883 0.007073 -0.002021 0.000000 0.000000 0.000000
# 3 -0.005669 -0.002021 0.016825 0.000000 0.000000 0.000000
# 4 0.000000 0.000000 0.000000 0.040844 0.000000 0.000000
# 5 0.000000 0.000000 0.000000 0.000000 0.058371 0.000000
# 6 0.000000 0.000000 0.000000 0.000000 0.000000 0.036853
#
#
# Mechanical properties :
#
#
# Convention : Reuss Voigt Hill
#
# Bulk Modulus (GPa) = 57.20896 60.36102 58.78499
# Shear Modulus (GPa) = 25.81760 30.44742 28.13251
#
# Velocity S-wave (km/s) = 3.35575 3.64424 3.50297
# Velocity P-wave (km/s) = 6.32203 6.63593 6.48088
#
# Compressibility (1/GPa) = 0.01747978
#
# Stress axis : x y z
#
# Youngs Moduli (GPa) = 93.21740 141.37317 59.43499
#
# Poissons Ratio (x) = 0.12479 0.33695
# Poissons Ratio (y) = 0.08228 0.12014
# Poissons Ratio (z) = 0.52847 0.28576
#
# Static dielectric constant tensor:
#      x y z
#    x 4.121230 0.000000 0.000000 
#    y 0.000000 4.748370 0.000000 
#    z 0.000000 0.000000 3.955900 
# 
# 
# High freq. dielectric constant tensor:
#      x y z
#    x 1.904970 0.000000 0.000000 
#    y 0.000000 1.924100 0.000000 
#    z 0.000000 0.000000 1.893200 
# 
# From -- ./inp_files/3616.got.cif
#   From: 2010.03.12/outbox.cif.g09.slc.cpg/sg56_2_cif.got.tgz:3616.got - 2010.04.16 15:33:40.
