data_PCOD8229360
_publ_section_title
;
Structure prediction by ZEFSAII (Michael W. Deem and Ramdas Pophale) SiO2 
 PCOD8229360
Probable space group: P C C N
;
_chemical_formula_sum "Si O2"
_cell_formula_units_Z 40
_cell_length_a 10.448932
_cell_length_b 8.592883
_cell_length_c 21.776369
_cell_angle_alpha 90.000000
_cell_angle_beta 90.000000
_cell_angle_gamma 90.000000
_cell_volume 1955.222870
_symmetry_space_group_name_H-M "P C C N"
_symmetry_group_IT_number 56
_symmetry_cell_setting 'orthorhombic'
loop_
_space_group_symop_operation_xyz
x,y,z
1/2-x,1/2-y,z
1/2+x,-y,1/2-z
-x,1/2+y,1/2-z
-x,-y,-z
1/2+x,1/2+y,-z
1/2-x,y,1/2+z
x,1/2-y,1/2+z
loop_
_atom_site_type_symbol
_atom_site_label
_atom_site_fract_x
_atom_site_fract_y
_atom_site_fract_z
Si Si1 0.504866 0.541878 0.166093
Si Si2 0.130340 0.585362 0.988338
Si Si3 0.387072 0.926507 0.538282
Si Si4 0.385642 0.171783 0.765559
Si Si5 0.723893 0.080951 0.147343
O O1 0.404321 0.561291 0.111253
O O2 0.518689 0.701669 0.204650
O O3 0.455843 0.396597 0.206076
O O4 0.641990 0.505171 0.136210
O O5 0.150960 0.607881 0.916163
O O6 0.118197 0.748196 0.021081
O O7 0.251287 0.494406 0.018892
O O8 0.000000 0.500000 0.000000
O O9 0.500000 0.000000 0.500000
O O10 0.250000 0.250000 0.747345
O O11 0.365580 0.025899 0.810630
O O12 0.750000 0.250000 0.178236
#
# Coordination Sequence:
#
# PCOD8229360 Si02
#       5
#     8   8   8   8   8
#     4  11  22  44  66  92 134 171 223 274 327 401
#     4  11  23  41  63  99 130 170 215 264 333 393
#     4  11  22  43  64  96 130 170 218 269 332 392
#     4  10  24  42  66  98 126 176 221 272 336 388
#     4  11  20  42  68  91 132 169 217 272 330 393
#
# _framework density 20.458026
#
# number of rings (size 3 to 8) (size 9 to 14) (size 15 to 20)
#    0.000    1.200    4.000    2.400    0.000    0.800 
#   32.400    0.000    0.000    0.000    0.000    0.000 
#    0.000    0.000    0.000    0.000    0.000    0.000 
#
# Total GULP energy -495987.419989 kJ/mol
# GULP energy per Si atom -12399.685500 kJ/mol
# Density = 2.041146 g / cm^3
# Si number density = 20.458026 Si / 1000 Ang^3
#
#
#
# Elastic Constant Matrix: (Units=GPa)
#
#
# Indices 1 2 3 4 5 6 
#
# 1 137.2951 39.0307 47.4342 0.0000 0.0000 0.0000
# 2 39.0307 104.6161 44.7243 0.0000 0.0000 0.0000
# 3 47.4342 44.7243 115.8397 0.0000 0.0000 0.0000
# 4 0.0000 0.0000 0.0000 31.9836 0.0000 0.0000
# 5 0.0000 0.0000 0.0000 0.0000 18.9886 0.0000
# 6 0.0000 0.0000 0.0000 0.0000 0.0000 38.4794
#
#
#
# Elastic Compliance Matrix: (Units=1/GPa)
#
#
# Indices 1 2 3 4 5 6 
#
# 1 0.008853 -0.002100 -0.002814 0.000000 0.000000 0.000000
# 2 -0.002100 0.011946 -0.003753 0.000000 0.000000 0.000000
# 3 -0.002814 -0.003753 0.011234 0.000000 0.000000 0.000000
# 4 0.000000 0.000000 0.000000 0.031266 0.000000 0.000000
# 5 0.000000 0.000000 0.000000 0.000000 0.052663 0.000000
# 6 0.000000 0.000000 0.000000 0.000000 0.000000 0.025988
#
#
# Mechanical properties :
#
#
# Convention : Reuss Voigt Hill
#
# Bulk Modulus (GPa) = 68.02820 68.90323 68.46571
# Shear Modulus (GPa) = 30.45374 32.99443 31.72409
#
# Velocity S-wave (km/s) = 3.86242 4.02031 3.94215
# Velocity P-wave (km/s) = 7.29492 7.43666 7.36613
#
# Compressibility (1/GPa) = 0.01469979
#
# Stress axis : x y z
#
# Youngs Moduli (GPa) = 112.95814 83.70747 89.01639
#
# Poissons Ratio (x) = 0.17576 0.25053
# Poissons Ratio (y) = 0.23718 0.33404
# Poissons Ratio (z) = 0.31791 0.31412
#
# Static dielectric constant tensor:
#      x y z
#    x 3.502940 0.000000 0.000000 
#    y 0.000000 3.792440 0.000000 
#    z 0.000000 0.000000 3.665530 
# 
# 
# High freq. dielectric constant tensor:
#      x y z
#    x 1.809970 0.000000 0.000000 
#    y 0.000000 1.804330 0.000000 
#    z 0.000000 0.000000 1.799290 
# 
# From -- ./inp_files/18576.got.cif
#   From: 2010.03.12/outbox.cif.g09.slc.cpg/sg56_10_cif.got.tgz:18576.got - 2010.04.16 15:33:40.
