data_PCOD8229775
_publ_section_title
;
Structure prediction by ZEFSAII (Michael W. Deem and Ramdas Pophale) SiO2 
 PCOD8229775
Probable space group: P C C N
;
_chemical_formula_sum "Si O2"
_cell_formula_units_Z 52
_cell_length_a 8.983723
_cell_length_b 13.877745
_cell_length_c 19.712784
_cell_angle_alpha 90.000000
_cell_angle_beta 90.000000
_cell_angle_gamma 90.000000
_cell_volume 2457.668024
_symmetry_space_group_name_H-M "P C C N"
_symmetry_group_IT_number 56
_symmetry_cell_setting 'orthorhombic'
loop_
_space_group_symop_operation_xyz
x,y,z
1/2-x,1/2-y,z
1/2+x,-y,1/2-z
-x,1/2+y,1/2-z
-x,-y,-z
1/2+x,1/2+y,-z
1/2-x,y,1/2+z
x,1/2-y,1/2+z
loop_
_atom_site_type_symbol
_atom_site_label
_atom_site_fract_x
_atom_site_fract_y
_atom_site_fract_z
Si Si1 0.498290 0.613672 0.427158
Si Si2 0.397389 0.598269 0.570977
Si Si3 0.251103 0.644972 0.326752
Si Si4 0.565753 0.900217 0.304376
Si Si5 0.750000 0.750000 0.885416
Si Si6 0.582090 0.716006 0.667856
Si Si7 0.348626 0.618757 0.180252
O O1 0.391049 0.629497 0.492155
O O2 0.594916 0.517086 0.429948
O O3 0.394858 0.595954 0.360836
O O4 0.611470 0.704859 0.426608
O O5 0.541152 0.651673 0.602543
O O6 0.251277 0.630406 0.612695
O O7 0.250000 0.750000 0.360027
O O8 0.261021 0.655217 0.245728
O O9 0.092535 0.596558 0.343899
O O10 0.690881 0.837822 0.340824
O O11 0.546860 0.853391 0.230775
O O12 0.616371 0.009269 0.301460
O O13 0.750000 0.750000 0.663384
O O14 0.493073 0.816307 0.670329
#
# Coordination Sequence:
#
# PCOD8229775 Si02
#       7
#     8   8   8   8   4   8   8
#     4  11  26  45  73  99 142 181 233 280 351 422
#     4  11  25  49  68  99 139 187 225 287 351 414
#     4  12  23  42  64 101 135 180 224 277 342 413
#     4  12  25  40  71 102 137 178 233 292 345 413
#     4  12  22  46  68 106 136 182 228 288 350 414
#     4  12  26  42  68 103 141 180 232 293 353 402
#     4  12  25  44  70 104 138 183 236 289 345 418
#
# _framework density 21.158269000000001
#
# number of rings (size 3 to 8) (size 9 to 14) (size 15 to 20)
#    0.000    0.308    6.923    1.385    5.385    1.231 
#    0.000    0.769    0.000    0.000    0.000    0.000 
#    0.000    0.000    0.000    0.000    0.000    0.000 
#
# Total GULP energy -644621.944303 kJ/mol
# GULP energy per Si atom -12396.575852 kJ/mol
# Density = 2.111011 g / cm^3
# Si number density = 21.158269 Si / 1000 Ang^3
#
#
#
# Elastic Constant Matrix: (Units=GPa)
#
#
# Indices 1 2 3 4 5 6 
#
# 1 133.0057 36.7380 35.4344 0.0000 0.0000 0.0000
# 2 36.7380 126.8427 29.8471 0.0000 0.0000 0.0000
# 3 35.4344 29.8471 100.6561 0.0000 0.0000 0.0000
# 4 0.0000 0.0000 0.0000 75.0979 0.0000 0.0000
# 5 0.0000 0.0000 0.0000 0.0000 32.5215 0.0000
# 6 0.0000 0.0000 0.0000 0.0000 0.0000 33.8405
#
#
#
# Elastic Compliance Matrix: (Units=1/GPa)
#
#
# Indices 1 2 3 4 5 6 
#
# 1 0.008718 -0.001938 -0.002494 0.000000 0.000000 0.000000
# 2 -0.001938 0.008906 -0.001959 0.000000 0.000000 0.000000
# 3 -0.002494 -0.001959 0.011394 0.000000 0.000000 0.000000
# 4 0.000000 0.000000 0.000000 0.013316 0.000000 0.000000
# 5 0.000000 0.000000 0.000000 0.000000 0.030749 0.000000
# 6 0.000000 0.000000 0.000000 0.000000 0.000000 0.029550
#
#
# Mechanical properties :
#
#
# Convention : Reuss Voigt Hill
#
# Bulk Modulus (GPa) = 61.59255 62.72708 62.15981
# Shear Modulus (GPa) = 41.38127 45.52432 43.45279
#
# Velocity S-wave (km/s) = 4.42724 4.64358 4.53670
# Velocity P-wave (km/s) = 7.43690 7.64600 7.54218
#
# Compressibility (1/GPa) = 0.01623573
#
# Stress axis : x y z
#
# Youngs Moduli (GPa) = 114.70021 112.28372 87.76768
#
# Poissons Ratio (x) = 0.21763 0.21893
# Poissons Ratio (y) = 0.22231 0.17190
# Poissons Ratio (z) = 0.28611 0.21991
#
# Static dielectric constant tensor:
#      x y z
#    x 3.687470 0.000000 0.000000 
#    y 0.000000 4.030960 0.000000 
#    z 0.000000 0.000000 3.786010 
# 
# 
# High freq. dielectric constant tensor:
#      x y z
#    x 1.835790 0.000000 0.000000 
#    y 0.000000 1.846770 0.000000 
#    z 0.000000 0.000000 1.815350 
# 
# From -- ./inp_files/18156.got.cif
#   From: 2010.03.12/outbox.cif.g09.slc.cpg/sg56_10_cif.got.tgz:18156.got - 2010.04.16 15:33:40.
