data_PCOD8229070
_publ_section_title
;
Structure prediction by ZEFSAII (Michael W. Deem and Ramdas Pophale) SiO2 
 PCOD8229070
Probable space group: P C C N
;
_chemical_formula_sum "Si O2"
_cell_formula_units_Z 48
_cell_length_a 4.959338
_cell_length_b 13.816511
_cell_length_c 32.753176
_cell_angle_alpha 90.000000
_cell_angle_beta 90.000000
_cell_angle_gamma 90.000000
_cell_volume 2244.272120
_symmetry_space_group_name_H-M "P C C N"
_symmetry_group_IT_number 56
_symmetry_cell_setting 'orthorhombic'
loop_
_space_group_symop_operation_xyz
x,y,z
1/2-x,1/2-y,z
1/2+x,-y,1/2-z
-x,1/2+y,1/2-z
-x,-y,-z
1/2+x,1/2+y,-z
1/2-x,y,1/2+z
x,1/2-y,1/2+z
loop_
_atom_site_type_symbol
_atom_site_label
_atom_site_fract_x
_atom_site_fract_y
_atom_site_fract_z
Si Si1 0.728128 0.860987 0.654834
Si Si2 0.410458 0.996036 0.776595
Si Si3 0.757398 0.989334 0.470803
Si Si4 0.489478 0.815749 0.831012
Si Si5 0.273742 0.861358 0.101167
Si Si6 0.003785 0.186623 0.579385
O O1 0.750000 0.750000 0.668290
O O2 0.432219 0.885576 0.637733
O O3 0.930206 0.884276 0.617746
O O4 0.786340 0.921720 0.694818
O O5 0.527070 0.907329 0.802272
O O6 0.666352 0.039027 0.752374
O O7 0.842125 0.887753 0.450313
O O8 0.500000 0.000000 0.500000
O O9 0.718862 0.072299 0.437602
O O10 0.000000 0.000000 0.500000
O O11 0.250000 0.750000 0.814113
O O12 0.409659 0.856588 0.876753
O O13 0.750000 0.750000 0.828805
O O14 0.250000 0.750000 0.086850
O O15 0.250000 0.250000 0.593775
O O16 0.750000 0.250000 0.560140
#
# Coordination Sequence:
#
# PCOD8229070 Si02
#       6
#     8   8   8   8   8   8
#     4  10  22  42  66  89 119 165 215 258 304 370
#     4  12  25  39  62  95 129 163 200 259 326 376
#     4  12  25  39  62  96 130 163 201 259 325 378
#     4  10  22  41  64  89 122 168 215 256 304 375
#     4  10  22  42  66  89 120 166 215 259 305 370
#     4  10  22  41  64  88 119 163 210 253 301 369
#
# _framework density 21.387781
#
# number of rings (size 3 to 8) (size 9 to 14) (size 15 to 20)
#    0.000    1.333    0.000    5.000    0.000    8.000 
#    0.000    0.000    0.000    0.000    0.000    0.000 
#    0.000    0.000    0.000    0.000    0.000    0.000 
#
# Total GULP energy -594773.135376 kJ/mol
# GULP energy per Si atom -12391.106987 kJ/mol
# Density = 2.133910 g / cm^3
# Si number density = 21.387781 Si / 1000 Ang^3
#
#
#
# Elastic Constant Matrix: (Units=GPa)
#
#
# Indices 1 2 3 4 5 6 
#
# 1 131.4485 48.0180 35.7776 0.0000 0.0000 0.0000
# 2 48.0180 111.3626 74.5851 0.0000 0.0000 0.0000
# 3 35.7776 74.5851 113.9525 0.0000 0.0000 0.0000
# 4 0.0000 0.0000 0.0000 -146.3084 0.0000 0.0000
# 5 0.0000 0.0000 0.0000 0.0000 53.4753 0.0000
# 6 0.0000 0.0000 0.0000 0.0000 0.0000 35.0697
#
#
#
# Elastic Compliance Matrix: (Units=1/GPa)
#
#
# Indices 1 2 3 4 5 6 
#
# 1 0.009047 -0.003558 -0.000511 0.000000 0.000000 0.000000
# 2 -0.003558 0.017388 -0.010264 0.000000 0.000000 0.000000
# 3 -0.000511 -0.010264 0.015654 0.000000 0.000000 0.000000
# 4 0.000000 0.000000 0.000000 -0.006835 0.000000 0.000000
# 5 0.000000 0.000000 0.000000 0.000000 0.018700 0.000000
# 6 0.000000 0.000000 0.000000 0.000000 0.000000 0.028515
#
#
# Mechanical properties :
#
#
# Convention : Reuss Voigt Hill
#
# Bulk Modulus (GPa) = 74.50520 74.83611 74.67066
# Shear Modulus (GPa) = 43.24892 1.67284 22.46088
#
# Velocity S-wave (km/s) = 4.50169 0.88535 3.24415
# Velocity P-wave (km/s) = 7.86965 6.00926 7.00152
#
# Compressibility (1/GPa) = 0.01342188
#
# Stress axis : x y z
#
# Youngs Moduli (GPa) = 110.53929 57.51033 63.88088
#
# Poissons Ratio (x) = 0.20464 0.03267
# Poissons Ratio (y) = 0.39333 0.65567
# Poissons Ratio (z) = 0.05653 0.59028
#
# Static dielectric constant tensor:
#      x y z
#    x 4.077370 0.000000 0.000000 
#    y 0.000000 4.121400 0.000000 
#    z 0.000000 0.000000 3.902840 
# 
# 
# High freq. dielectric constant tensor:
#      x y z
#    x 1.862280 0.000000 0.000000 
#    y 0.000000 1.836100 0.000000 
#    z 0.000000 0.000000 1.842690 
# 
# From -- ./inp_files/21661.got.cif
#   From: 2010.03.12/outbox.cif.g09.slc.cpg/sg56_11_cif.got.tgz:21661.got - 2010.04.16 15:33:40.
