data_PCOD8229950
_publ_section_title
;
Structure prediction by ZEFSAII (Michael W. Deem and Ramdas Pophale) SiO2 
 PCOD8229950
Probable space group: P B C M
;
_chemical_formula_sum "Si O2"
_cell_formula_units_Z 56
_cell_length_a 17.485349
_cell_length_b 21.880551
_cell_length_c 9.154320
_cell_angle_alpha 90.000000
_cell_angle_beta 90.000000
_cell_angle_gamma 90.000000
_cell_volume 3502.342780
_symmetry_space_group_name_H-M "P B C M"
_symmetry_group_IT_number 57
_symmetry_cell_setting 'orthorhombic'
loop_
_space_group_symop_operation_xyz
x,y,z
-x,-y,1/2+z
x,1/2-y,-z
-x,1/2+y,1/2-z
-x,-y,-z
x,y,1/2-z
-x,1/2+y,z
x,1/2-y,1/2+z
loop_
_atom_site_type_symbol
_atom_site_label
_atom_site_fract_x
_atom_site_fract_y
_atom_site_fract_z
Si Si1 0.910091 0.939864 0.084751
Si Si2 0.550036 0.420279 0.083176
Si Si3 0.201963 0.896361 0.419339
Si Si4 0.237911 0.036599 0.080111
Si Si5 0.658239 0.313252 0.080615
Si Si6 0.945289 0.417304 0.914760
Si Si7 0.387548 0.465441 0.418057
O O1 0.901888 0.915563 0.250000
O O2 0.929816 0.010949 0.083759
O O3 0.831680 0.928302 0.997877
O O4 0.977697 0.902657 0.004687
O O5 0.571976 0.439027 0.250000
O O6 0.583017 0.353534 0.046757
O O7 0.458415 0.418684 0.063126
O O8 0.587832 0.468191 0.974200
O O9 0.181485 0.888070 0.250000
O O10 0.266507 0.849374 0.473207
O O11 0.125692 0.882468 0.511104
O O12 0.233235 0.964247 0.448144
O O13 0.235610 0.053094 0.250000
O O14 0.316745 0.060823 0.010400
O O15 0.665803 0.298884 0.250000
O O16 0.649349 0.250000 0.000000
O O17 0.955203 0.393119 0.750000
O O18 0.362643 0.471833 0.250000
#
# Coordination Sequence:
#
# PCOD8229950 Si02
#       7
#     8   8   8   8   8   8   8
#     4   9  16  25  37  57  84 113 146 176 208 251
#     4   9  18  33  46  61  87 117 146 183 231 274
#     4   9  17  29  43  57  81 116 148 179 221 264
#     4  10  17  27  42  60  88 119 146 179 222 265
#     4  10  20  34  48  64  87 117 152 190 231 269
#     4   9  16  25  38  57  81 110 145 179 211 249
#     4  10  18  27  45  67  87 113 149 186 222 273
#
# _framework density 15.989299000000001
#
# number of rings (size 3 to 8) (size 9 to 14) (size 15 to 20)
#    0.000    2.571    1.429    1.714    0.000    5.714 
#    0.000    0.000    0.000    0.000    0.000    0.000 
#    0.000    1.143    0.000    7.143    0.000    5.286 
#
# Total GULP energy -694379.909870 kJ/mol
# GULP energy per Si atom -12399.641248 kJ/mol
# Density = 1.595291 g / cm^3
# Si number density = 15.989299 Si / 1000 Ang^3
#
#
#
# Elastic Constant Matrix: (Units=GPa)
#
#
# Indices 1 2 3 4 5 6 
#
# 1 145.8032 38.6250 77.5590 0.0000 0.0000 0.0000
# 2 38.6250 48.5281 27.0115 0.0000 0.0000 0.0000
# 3 77.5590 27.0115 113.1980 0.0000 0.0000 0.0000
# 4 0.0000 0.0000 0.0000 17.0597 0.0000 0.0000
# 5 0.0000 0.0000 0.0000 0.0000 33.0895 0.0000
# 6 0.0000 0.0000 0.0000 0.0000 0.0000 14.1334
#
#
#
# Elastic Compliance Matrix: (Units=1/GPa)
#
#
# Indices 1 2 3 4 5 6 
#
# 1 0.012042 -0.005757 -0.006877 0.000000 0.000000 0.000000
# 2 -0.005757 0.026515 -0.002383 0.000000 0.000000 0.000000
# 3 -0.006877 -0.002383 0.014114 0.000000 0.000000 0.000000
# 4 0.000000 0.000000 0.000000 0.058618 0.000000 0.000000
# 5 0.000000 0.000000 0.000000 0.000000 0.030221 0.000000
# 6 0.000000 0.000000 0.000000 0.000000 0.000000 0.070754
#
#
# Mechanical properties :
#
#
# Convention : Reuss Voigt Hill
#
# Bulk Modulus (GPa) = 44.17280 65.99116 55.08198
# Shear Modulus (GPa) = 20.01261 23.81210 21.91236
#
# Velocity S-wave (km/s) = 3.54167 3.86327 3.70596
# Velocity P-wave (km/s) = 6.66416 7.82697 7.26885
#
# Compressibility (1/GPa) = 0.02263837
#
# Stress axis : x y z
#
# Youngs Moduli (GPa) = 83.04532 37.71487 70.84953
#
# Poissons Ratio (x) = 0.21711 0.48722
# Poissons Ratio (y) = 0.47805 0.16882
# Poissons Ratio (z) = 0.57109 0.08987
#
# Static dielectric constant tensor:
#      x y z
#    x 3.281280 0.000000 0.000000 
#    y 0.000000 2.454940 0.000000 
#    z 0.000000 0.000000 3.169430 
# 
# 
# High freq. dielectric constant tensor:
#      x y z
#    x 1.630220 0.000000 0.000000 
#    y 0.000000 1.537100 0.000000 
#    z 0.000000 0.000000 1.628390 
# 
# From -- ./inp_files/6994.got.cif
#   From: 2010.03.12/outbox.cif.g09.slc.cpg/sg57_4_cif.got.tgz:6994.got - 2010.04.16 15:48:40.
