data_PCOD8229858
_publ_section_title
;
Structure prediction by ZEFSAII (Michael W. Deem and Ramdas Pophale) SiO2 
 PCOD8229858
Probable space group: P C C N
;
_chemical_formula_sum "Si O2"
_cell_formula_units_Z 36
_cell_length_a 19.910561
_cell_length_b 7.626020
_cell_length_c 10.276172
_cell_angle_alpha 90.000000
_cell_angle_beta 90.000000
_cell_angle_gamma 90.000000
_cell_volume 1560.316861
_symmetry_space_group_name_H-M "P C C N"
_symmetry_group_IT_number 56
_symmetry_cell_setting 'orthorhombic'
loop_
_space_group_symop_operation_xyz
x,y,z
1/2-x,1/2-y,z
1/2+x,-y,1/2-z
-x,1/2+y,1/2-z
-x,-y,-z
1/2+x,1/2+y,-z
1/2-x,y,1/2+z
x,1/2-y,1/2+z
loop_
_atom_site_type_symbol
_atom_site_label
_atom_site_fract_x
_atom_site_fract_y
_atom_site_fract_z
Si Si1 0.087038 0.207281 0.781511
Si Si2 0.869997 0.101008 0.078613
Si Si3 0.996084 0.702265 0.972157
Si Si4 0.799148 0.909553 0.848264
Si Si5 0.750000 0.250000 0.212092
O O1 0.945095 0.721644 0.576172
O O2 0.148170 0.342903 0.761176
O O3 0.031139 0.236024 0.672341
O O4 0.112468 0.005799 0.788280
O O5 0.932329 0.203138 0.014955
O O6 0.815088 0.243946 0.119918
O O7 0.839648 0.963712 0.976047
O O8 0.000000 0.500000 0.000000
O O9 0.750000 0.750000 0.886083
O O10 0.756388 0.074700 0.797909
#
# Coordination Sequence:
#
# PCOD8229858 Si02
#       5
#     8   8   8   8   4
#     4  12  26  50  76 111 155 204 261 324 393 477
#     4  12  28  49  79 113 155 208 268 325 397 480
#     4  12  28  47  80 111 156 203 262 327 401 470
#     4  12  28  50  78 114 158 209 265 331 402 472
#     4  12  28  48  78 114 158 206 272 322 402 482
#
# _framework density 23.072236
#
# number of rings (size 3 to 8) (size 9 to 14) (size 15 to 20)
#    0.000    0.000    4.444    4.000   12.444    1.778 
#    0.000    0.000    0.000    0.000    0.000    0.000 
#    0.000    0.000    0.000    0.000    0.000    0.000 
#
# Total GULP energy -446498.894514 kJ/mol
# GULP energy per Si atom -12402.747070 kJ/mol
# Density = 2.301972 g / cm^3
# Si number density = 23.072236 Si / 1000 Ang^3
#
#
#
# Elastic Constant Matrix: (Units=GPa)
#
#
# Indices 1 2 3 4 5 6 
#
# 1 152.9098 70.5829 52.7794 0.0000 0.0000 0.0000
# 2 70.5829 153.9170 37.3055 0.0000 0.0000 0.0000
# 3 52.7794 37.3055 108.2987 0.0000 0.0000 0.0000
# 4 0.0000 0.0000 0.0000 30.4944 0.0000 0.0000
# 5 0.0000 0.0000 0.0000 0.0000 36.6535 0.0000
# 6 0.0000 0.0000 0.0000 0.0000 0.0000 49.9373
#
#
#
# Elastic Compliance Matrix: (Units=1/GPa)
#
#
# Indices 1 2 3 4 5 6 
#
# 1 0.009283 -0.003448 -0.003336 0.000000 0.000000 0.000000
# 2 -0.003448 0.008370 -0.001203 0.000000 0.000000 0.000000
# 3 -0.003336 -0.001203 0.011274 0.000000 0.000000 0.000000
# 4 0.000000 0.000000 0.000000 0.032793 0.000000 0.000000
# 5 0.000000 0.000000 0.000000 0.000000 0.027282 0.000000
# 6 0.000000 0.000000 0.000000 0.000000 0.000000 0.020025
#
#
# Mechanical properties :
#
#
# Convention : Reuss Voigt Hill
#
# Bulk Modulus (GPa) = 77.20585 81.82902 79.51743
# Shear Modulus (GPa) = 38.66394 40.38088 39.52241
#
# Velocity S-wave (km/s) = 4.09807 4.18807 4.14331
# Velocity P-wave (km/s) = 7.47847 7.67659 7.57818
#
# Compressibility (1/GPa) = 0.01295239
#
# Stress axis : x y z
#
# Youngs Moduli (GPa) = 107.72184 119.47645 88.70046
#
# Poissons Ratio (x) = 0.41201 0.29593
# Poissons Ratio (y) = 0.37147 0.10667
# Poissons Ratio (z) = 0.35939 0.14368
#
# Static dielectric constant tensor:
#      x y z
#    x 4.555340 0.000000 0.000000 
#    y 0.000000 3.869990 0.000000 
#    z 0.000000 0.000000 3.994760 
# 
# 
# High freq. dielectric constant tensor:
#      x y z
#    x 1.931580 0.000000 0.000000 
#    y 0.000000 1.927080 0.000000 
#    z 0.000000 0.000000 1.907700 
# 
# From -- ./inp_files/8817.got.cif
#   From: 2010.03.12/outbox.cif.g09.slc.cpg/sg56_5_cif.got.tgz:8817.got - 2010.04.16 15:33:40.
