data_PCOD8229951
_publ_section_title
;
Structure prediction by ZEFSAII (Michael W. Deem and Ramdas Pophale) SiO2 
 PCOD8229951
Probable space group: P B C M
;
_chemical_formula_sum "Si O2"
_cell_formula_units_Z 56
_cell_length_a 13.846980
_cell_length_b 27.707655
_cell_length_c 9.349028
_cell_angle_alpha 90.000000
_cell_angle_beta 90.000000
_cell_angle_gamma 90.000000
_cell_volume 3586.916748
_symmetry_space_group_name_H-M "P B C M"
_symmetry_group_IT_number 57
_symmetry_cell_setting 'orthorhombic'
loop_
_space_group_symop_operation_xyz
x,y,z
-x,-y,1/2+z
x,1/2-y,-z
-x,1/2+y,1/2-z
-x,-y,-z
x,y,1/2-z
-x,1/2+y,z
x,1/2-y,1/2+z
loop_
_atom_site_type_symbol
_atom_site_label
_atom_site_fract_x
_atom_site_fract_y
_atom_site_fract_z
Si Si1 0.473071 0.796275 0.915020
Si Si2 0.752042 0.201525 0.082126
Si Si3 0.602645 0.445075 0.086898
Si Si4 0.284719 0.464649 0.582524
Si Si5 0.440853 0.105466 0.417241
Si Si6 0.096393 0.987206 0.081533
Si Si7 0.796696 0.389258 0.087448
O O1 0.490968 0.785371 0.750000
O O2 0.361294 0.807934 0.945141
O O3 0.540054 0.840248 0.970746
O O4 0.509350 0.750000 0.000000
O O5 0.775540 0.206701 0.250000
O O6 0.784545 0.250000 0.000000
O O7 0.812058 0.156470 0.017360
O O8 0.567648 0.450370 0.250000
O O9 0.642410 0.495109 0.021033
O O10 0.685946 0.405130 0.075082
O O11 0.511958 0.431349 0.992484
O O12 0.278707 0.475690 0.750000
O O13 0.329967 0.411624 0.549646
O O14 0.176062 0.473386 0.525552
O O15 0.463591 0.102311 0.250000
O O16 0.077788 0.991750 0.250000
O O17 0.132583 0.933220 0.042530
O O18 0.000000 0.000000 0.000000
O O19 0.819482 0.373242 0.250000
#
# Coordination Sequence:
#
# PCOD8229951 Si02
#       7
#     8   8   8   8   8   8   8
#     4   9  18  28  39  58  84 117 153 184 213 246
#     4  10  18  28  42  63  90 120 155 187 218 258
#     4   9  16  26  40  60  87 119 146 171 210 256
#     4   8  16  29  44  62  87 115 143 175 217 267
#     4  10  17  27  42  61  86 116 149 181 210 249
#     4   9  18  33  50  68  89 116 148 186 233 278
#     4   9  17  29  44  63  90 121 150 181 224 271
#
# _framework density 15.612295
#
# number of rings (size 3 to 8) (size 9 to 14) (size 15 to 20)
#    0.000    2.857    1.429    2.571    0.000    1.714 
#    0.000    2.857    0.000    0.000    0.000    1.000 
#    0.000    4.571    0.000    0.000    0.000    0.000 
#
# Total GULP energy -693995.778828 kJ/mol
# GULP energy per Si atom -12392.781765 kJ/mol
# Density = 1.557676 g / cm^3
# Si number density = 15.612295 Si / 1000 Ang^3
#
#
#
# Elastic Constant Matrix: (Units=GPa)
#
#
# Indices 1 2 3 4 5 6 
#
# 1 88.5577 54.5909 34.1291 0.0000 0.0000 0.0000
# 2 54.5909 100.3845 43.7835 0.0000 0.0000 0.0000
# 3 34.1291 43.7835 50.8862 0.0000 0.0000 0.0000
# 4 0.0000 0.0000 0.0000 24.8245 0.0000 0.0000
# 5 0.0000 0.0000 0.0000 0.0000 18.5884 0.0000
# 6 0.0000 0.0000 0.0000 0.0000 0.0000 18.1977
#
#
#
# Elastic Compliance Matrix: (Units=1/GPa)
#
#
# Indices 1 2 3 4 5 6 
#
# 1 0.018011 -0.007245 -0.005846 0.000000 0.000000 0.000000
# 2 -0.007245 0.018860 -0.011368 0.000000 0.000000 0.000000
# 3 -0.005846 -0.011368 0.033354 0.000000 0.000000 0.000000
# 4 0.000000 0.000000 0.000000 0.040283 0.000000 0.000000
# 5 0.000000 0.000000 0.000000 0.000000 0.053797 0.000000
# 6 0.000000 0.000000 0.000000 0.000000 0.000000 0.054952
#
#
# Mechanical properties :
#
#
# Convention : Reuss Voigt Hill
#
# Bulk Modulus (GPa) = 46.93447 56.09282 51.51364
# Shear Modulus (GPa) = 18.16338 19.47711 18.82025
#
# Velocity S-wave (km/s) = 3.41457 3.53590 3.47576
# Velocity P-wave (km/s) = 6.75822 7.25787 7.01250
#
# Compressibility (1/GPa) = 0.02130630
#
# Stress axis : x y z
#
# Youngs Moduli (GPa) = 55.52078 53.02211 29.98099
#
# Poissons Ratio (x) = 0.38414 0.17528
# Poissons Ratio (y) = 0.40224 0.34084
# Poissons Ratio (z) = 0.32460 0.60278
#
# Static dielectric constant tensor:
#      x y z
#    x 2.737950 0.000000 0.000000 
#    y 0.000000 3.049620 0.000000 
#    z 0.000000 0.000000 2.849160 
# 
# 
# High freq. dielectric constant tensor:
#      x y z
#    x 1.558890 0.000000 0.000000 
#    y 0.000000 1.598690 0.000000 
#    z 0.000000 0.000000 1.590130 
# 
# From -- ./inp_files/5878.got.cif
#   From: 2010.03.12/outbox.cif.g09.slc.cpg/sg57_3_cif.got.tgz:5878.got - 2010.04.16 15:48:40.
