data_PCOD8229668
_publ_section_title
;
Structure prediction by ZEFSAII (Michael W. Deem and Ramdas Pophale) SiO2 
 PCOD8229668
Probable space group: P C C N
;
_chemical_formula_sum "Si O2"
_cell_formula_units_Z 36
_cell_length_a 12.974691
_cell_length_b 8.133170
_cell_length_c 16.887323
_cell_angle_alpha 90.000000
_cell_angle_beta 90.000000
_cell_angle_gamma 90.000000
_cell_volume 1782.040967
_symmetry_space_group_name_H-M "P C C N"
_symmetry_group_IT_number 56
_symmetry_cell_setting 'orthorhombic'
loop_
_space_group_symop_operation_xyz
x,y,z
1/2-x,1/2-y,z
1/2+x,-y,1/2-z
-x,1/2+y,1/2-z
-x,-y,-z
1/2+x,1/2+y,-z
1/2-x,y,1/2+z
x,1/2-y,1/2+z
loop_
_atom_site_type_symbol
_atom_site_label
_atom_site_fract_x
_atom_site_fract_y
_atom_site_fract_z
Si Si1 0.750000 0.250000 0.932043
Si Si2 0.593530 0.413724 0.043858
Si Si3 0.782196 0.564548 0.674519
Si Si4 0.078887 0.863185 0.334172
Si Si5 0.399158 0.894306 0.196144
O O1 0.662951 0.162404 0.880312
O O2 0.688814 0.381466 0.985091
O O3 0.629785 0.543896 0.109165
O O4 0.555735 0.248003 0.088649
O O5 0.500000 0.500000 0.000000
O O6 0.750000 0.750000 0.673942
O O7 0.692933 0.434363 0.656331
O O8 0.827634 0.526675 0.760518
O O9 0.071557 0.757970 0.253236
O O10 0.002541 0.016944 0.332497
#
# Coordination Sequence:
#
# PCOD8229668 Si02
#       5
#     4   8   8   8   8
#     4  12  24  44  66  94 136 174 222 278 328 408
#     4  11  26  44  66  96 138 176 220 278 341 405
#     4  11  23  44  66  98 133 173 221 280 333 397
#     4  11  23  45  65 101 133 175 221 280 341 400
#     4  11  24  40  71  96 131 170 225 274 334 404
#
# _framework density 20.201554999999999
#
# number of rings (size 3 to 8) (size 9 to 14) (size 15 to 20)
#    0.000    0.889    4.444    2.667    9.333    4.444 
#    0.000    0.000    0.000    0.000    0.000    0.000 
#    0.000    0.000    0.000    0.000    0.000    0.000 
#
# Total GULP energy -446531.486380 kJ/mol
# GULP energy per Si atom -12403.652399 kJ/mol
# Density = 2.015558 g / cm^3
# Si number density = 20.201555 Si / 1000 Ang^3
#
#
#
# Elastic Constant Matrix: (Units=GPa)
#
#
# Indices 1 2 3 4 5 6 
#
# 1 79.1454 8.9198 13.6611 0.0000 0.0000 0.0000
# 2 8.9198 73.7280 15.0254 0.0000 0.0000 0.0000
# 3 13.6611 15.0254 80.5590 0.0000 0.0000 0.0000
# 4 0.0000 0.0000 0.0000 21.1655 0.0000 0.0000
# 5 0.0000 0.0000 0.0000 0.0000 38.3159 0.0000
# 6 0.0000 0.0000 0.0000 0.0000 0.0000 51.7526
#
#
#
# Elastic Compliance Matrix: (Units=1/GPa)
#
#
# Indices 1 2 3 4 5 6 
#
# 1 0.013114 -0.001178 -0.002004 0.000000 0.000000 0.000000
# 2 -0.001178 0.014205 -0.002450 0.000000 0.000000 0.000000
# 3 -0.002004 -0.002450 0.013210 0.000000 0.000000 0.000000
# 4 0.000000 0.000000 0.000000 0.047247 0.000000 0.000000
# 5 0.000000 0.000000 0.000000 0.000000 0.026099 0.000000
# 6 0.000000 0.000000 0.000000 0.000000 0.000000 0.019323
#
#
# Mechanical properties :
#
#
# Convention : Reuss Voigt Hill
#
# Bulk Modulus (GPa) = 34.17039 34.29389 34.23214
# Shear Modulus (GPa) = 32.42213 35.30188 33.86200
#
# Velocity S-wave (km/s) = 4.01051 4.18483 4.09859
# Velocity P-wave (km/s) = 6.19653 6.35319 6.27535
#
# Compressibility (1/GPa) = 0.02926510
#
# Stress axis : x y z
#
# Youngs Moduli (GPa) = 76.25633 70.39714 75.70020
#
# Poissons Ratio (x) = 0.08294 0.15171
# Poissons Ratio (y) = 0.08984 0.18544
# Poissons Ratio (z) = 0.15282 0.17245
#
# Static dielectric constant tensor:
#      x y z
#    x 3.781290 0.000000 0.000000 
#    y 0.000000 3.681060 0.000000 
#    z 0.000000 0.000000 3.812470 
# 
# 
# High freq. dielectric constant tensor:
#      x y z
#    x 1.800750 0.000000 0.000000 
#    y 0.000000 1.791340 0.000000 
#    z 0.000000 0.000000 1.797990 
# 
# From -- ./inp_files/12017.got.cif
#   From: 2010.03.12/outbox.cif.g09.slc.cpg/sg56_7_cif.got.tgz:12017.got - 2010.04.16 15:33:40.
