data_PCOD8229856
_publ_section_title
;
Structure prediction by ZEFSAII (Michael W. Deem and Ramdas Pophale) SiO2 
 PCOD8229856
Probable space group: P C C N
;
_chemical_formula_sum "Si O2"
_cell_formula_units_Z 32
_cell_length_a 12.579517
_cell_length_b 11.443482
_cell_length_c 9.497361
_cell_angle_alpha 90.000000
_cell_angle_beta 90.000000
_cell_angle_gamma 90.000000
_cell_volume 1367.178132
_symmetry_space_group_name_H-M "P C C N"
_symmetry_group_IT_number 56
_symmetry_cell_setting 'orthorhombic'
loop_
_space_group_symop_operation_xyz
x,y,z
1/2-x,1/2-y,z
1/2+x,-y,1/2-z
-x,1/2+y,1/2-z
-x,-y,-z
1/2+x,1/2+y,-z
1/2-x,y,1/2+z
x,1/2-y,1/2+z
loop_
_atom_site_type_symbol
_atom_site_label
_atom_site_fract_x
_atom_site_fract_y
_atom_site_fract_z
Si Si1 0.207948 0.478622 0.122663
Si Si2 0.470949 0.314386 0.725459
Si Si3 0.802736 0.124548 0.642379
Si Si4 0.930406 0.885258 0.973512
O O1 0.111558 0.388565 0.132759
O O2 0.226616 0.534171 0.276330
O O3 0.309701 0.411183 0.064522
O O4 0.177656 0.582624 0.016540
O O5 0.586117 0.374644 0.725179
O O6 0.481280 0.186053 0.656652
O O7 0.432709 0.304811 0.886601
O O8 0.750000 0.250000 0.635404
O O9 0.000000 0.000000 0.000000
#
# Coordination Sequence:
#
# PCOD8229856 Si02
#       4
#     8   8   8   8
#     4  12  26  49  73 108 158 199 259 313 381 462
#     4  12  29  46  81 107 153 204 253 315 392 448
#     4  12  27  46  76 113 155 201 256 318 383 455
#     4  12  27  50  74 114 153 197 256 319 381 459
#
# _framework density 23.405875999999999
#
# number of rings (size 3 to 8) (size 9 to 14) (size 15 to 20)
#    0.000    0.000    5.000    3.750    7.000    2.000 
#    0.000    0.000    0.000    0.000    0.000    0.000 
#    0.000    0.000    0.000    0.000    0.000    0.000 
#
# Total GULP energy -397119.776015 kJ/mol
# GULP energy per Si atom -12409.993000 kJ/mol
# Density = 2.335260 g / cm^3
# Si number density = 23.405876 Si / 1000 Ang^3
#
#
#
# Elastic Constant Matrix: (Units=GPa)
#
#
# Indices 1 2 3 4 5 6 
#
# 1 76.3157 18.5802 -10.8436 0.0000 0.0000 0.0000
# 2 18.5802 109.2476 41.6820 0.0000 0.0000 0.0000
# 3 -10.8436 41.6820 120.3923 0.0000 0.0000 0.0000
# 4 0.0000 0.0000 0.0000 44.8082 0.0000 0.0000
# 5 0.0000 0.0000 0.0000 0.0000 32.2510 0.0000
# 6 0.0000 0.0000 0.0000 0.0000 0.0000 29.9870
#
#
#
# Elastic Compliance Matrix: (Units=1/GPa)
#
#
# Indices 1 2 3 4 5 6 
#
# 1 0.014270 -0.003361 0.002449 0.000000 0.000000 0.000000
# 2 -0.003361 0.011338 -0.004228 0.000000 0.000000 0.000000
# 3 0.002449 -0.004228 0.009991 0.000000 0.000000 0.000000
# 4 0.000000 0.000000 0.000000 0.022317 0.000000 0.000000
# 5 0.000000 0.000000 0.000000 0.000000 0.031007 0.000000
# 6 0.000000 0.000000 0.000000 0.000000 0.000000 0.033348
#
#
# Mechanical properties :
#
#
# Convention : Reuss Voigt Hill
#
# Bulk Modulus (GPa) = 39.49810 44.97700 42.23755
# Shear Modulus (GPa) = 35.46316 38.51170 36.98743
#
# Velocity S-wave (km/s) = 3.89670 4.06074 3.97956
# Velocity P-wave (km/s) = 6.09571 6.42214 6.26105
#
# Compressibility (1/GPa) = 0.02531767
#
# Stress axis : x y z
#
# Youngs Moduli (GPa) = 70.07801 88.19545 100.09331
#
# Poissons Ratio (x) = 0.29645 -0.24513
# Poissons Ratio (y) = 0.23555 0.42323
# Poissons Ratio (z) = -0.17162 0.37292
#
# Static dielectric constant tensor:
#      x y z
#    x 4.356400 0.000000 0.000000 
#    y 0.000000 4.139890 0.000000 
#    z 0.000000 0.000000 4.416010 
# 
# 
# High freq. dielectric constant tensor:
#      x y z
#    x 1.939210 0.000000 0.000000 
#    y 0.000000 1.927470 0.000000 
#    z 0.000000 0.000000 1.940880 
# 
# From -- ./inp_files/2438.got.cif
#   From: 2010.03.12/outbox.cif.g09.slc.cpg/sg56_2_cif.got.tgz:2438.got - 2010.04.16 15:33:40.
