data_PCOD8229344
_publ_section_title
;
Structure prediction by ZEFSAII (Michael W. Deem and Ramdas Pophale) SiO2 
 PCOD8229344
Probable space group: P C C N
;
_chemical_formula_sum "Si O2"
_cell_formula_units_Z 60
_cell_length_a 27.977507
_cell_length_b 12.095081
_cell_length_c 8.400136
_cell_angle_alpha 90.000000
_cell_angle_beta 90.000000
_cell_angle_gamma 90.000000
_cell_volume 2842.523813
_symmetry_space_group_name_H-M "P C C N"
_symmetry_group_IT_number 56
_symmetry_cell_setting 'orthorhombic'
loop_
_space_group_symop_operation_xyz
x,y,z
1/2-x,1/2-y,z
1/2+x,-y,1/2-z
-x,1/2+y,1/2-z
-x,-y,-z
1/2+x,1/2+y,-z
1/2-x,y,1/2+z
x,1/2-y,1/2+z
loop_
_atom_site_type_symbol
_atom_site_label
_atom_site_fract_x
_atom_site_fract_y
_atom_site_fract_z
Si Si1 0.584312 0.628992 0.640924
Si Si2 0.191418 0.678298 0.025700
Si Si3 0.529685 0.695622 0.929530
Si Si4 0.750000 0.750000 0.990695
Si Si5 0.192053 0.370805 0.760532
Si Si6 0.461589 0.709105 0.180808
Si Si7 0.218704 0.613693 0.690785
Si Si8 0.413910 0.889141 0.965306
O O1 0.559528 0.613081 0.815965
O O2 0.564434 0.732313 0.541840
O O3 0.639697 0.653506 0.672863
O O4 0.574097 0.519143 0.536873
O O5 0.216750 0.673630 0.857814
O O6 0.139934 0.623214 0.023378
O O7 0.225222 0.608225 0.145155
O O8 0.188806 0.808102 0.070144
O O9 0.502031 0.776477 0.811923
O O10 0.488580 0.636960 0.041751
O O11 0.769639 0.649035 0.098176
O O12 0.705241 0.709246 0.885656
O O13 0.194518 0.494731 0.695967
O O14 0.418283 0.653139 0.279776
O O15 0.446010 0.824349 0.095226
#
# Coordination Sequence:
#
# PCOD8229344 Si02
#       8
#     8   8   8   4   8   8   8   8
#     4  11  22  40  66  90 123 165 211 257 314 381
#     4  11  22  38  60  92 124 171 200 261 294 383
#     4   9  21  41  64  88 121 157 208 261 311 371
#     4  10  24  40  64  84 134 162 224 258 306 344
#     4  11  22  41  62  93 121 175 205 267 301 369
#     4   9  21  40  63  92 124 155 201 262 314 379
#     4  11  22  38  62  87 131 165 214 244 320 358
#     4  11  22  39  65  92 127 163 205 254 318 379
#
# _framework density 21.108003
#
# number of rings (size 3 to 8) (size 9 to 14) (size 15 to 20)
#    0.000    1.600    1.333    4.000    0.000    5.333 
#    0.000    4.000    8.800    0.000    0.000    0.000 
#    0.000    0.000    0.000    0.000    0.000    0.000 
#
# Total GULP energy -743327.777367 kJ/mol
# GULP energy per Si atom -12388.796289 kJ/mol
# Density = 2.105996 g / cm^3
# Si number density = 21.108003 Si / 1000 Ang^3
#
#
#
# Elastic Constant Matrix: (Units=GPa)
#
#
# Indices 1 2 3 4 5 6 
#
# 1 100.1545 9.5612 37.0730 0.0000 0.0000 0.0000
# 2 9.5612 71.9602 23.3040 0.0000 0.0000 0.0000
# 3 37.0730 23.3040 104.4430 0.0000 0.0000 0.0000
# 4 0.0000 0.0000 0.0000 25.6948 0.0000 0.0000
# 5 0.0000 0.0000 0.0000 0.0000 35.6447 0.0000
# 6 0.0000 0.0000 0.0000 0.0000 0.0000 22.5020
#
#
#
# Elastic Compliance Matrix: (Units=1/GPa)
#
#
# Indices 1 2 3 4 5 6 
#
# 1 0.011498 -0.000222 -0.004032 0.000000 0.000000 0.000000
# 2 -0.000222 0.014983 -0.003264 0.000000 0.000000 0.000000
# 3 -0.004032 -0.003264 0.011734 0.000000 0.000000 0.000000
# 4 0.000000 0.000000 0.000000 0.038918 0.000000 0.000000
# 5 0.000000 0.000000 0.000000 0.000000 0.028055 0.000000
# 6 0.000000 0.000000 0.000000 0.000000 0.000000 0.044441
#
#
# Mechanical properties :
#
#
# Convention : Reuss Voigt Hill
#
# Bulk Modulus (GPa) = 43.14239 46.27046 44.70643
# Shear Modulus (GPa) = 29.00367 30.54292 29.77329
#
# Velocity S-wave (km/s) = 3.71085 3.80805 3.75977
# Velocity P-wave (km/s) = 6.23248 6.42677 6.33037
#
# Compressibility (1/GPa) = 0.02317906
#
# Stress axis : x y z
#
# Youngs Moduli (GPa) = 86.97020 66.74133 85.22164
#
# Poissons Ratio (x) = 0.01482 0.34360
# Poissons Ratio (y) = 0.01931 0.27819
# Poissons Ratio (z) = 0.35065 0.21787
#
# Static dielectric constant tensor:
#      x y z
#    x 4.088780 0.000000 0.000000 
#    y 0.000000 3.586850 0.000000 
#    z 0.000000 0.000000 4.300880 
# 
# 
# High freq. dielectric constant tensor:
#      x y z
#    x 1.836020 0.000000 0.000000 
#    y 0.000000 1.797110 0.000000 
#    z 0.000000 0.000000 1.846220 
# 
# From -- ./inp_files/5193.got.cif
#   From: 2010.03.12/outbox.cif.g09.slc.cpg/sg56_3_cif.got.tgz:5193.got - 2010.04.16 15:33:40.
