data_PCOD8229543
_publ_section_title
;
Structure prediction by ZEFSAII (Michael W. Deem and Ramdas Pophale) SiO2 
 PCOD8229543
Probable space group: P C C N
;
_chemical_formula_sum "Si O2"
_cell_formula_units_Z 36
_cell_length_a 6.740899
_cell_length_b 19.845195
_cell_length_c 14.015079
_cell_angle_alpha 90.000000
_cell_angle_beta 90.000000
_cell_angle_gamma 90.000000
_cell_volume 1874.859557
_symmetry_space_group_name_H-M "P C C N"
_symmetry_group_IT_number 56
_symmetry_cell_setting 'orthorhombic'
loop_
_space_group_symop_operation_xyz
x,y,z
1/2-x,1/2-y,z
1/2+x,-y,1/2-z
-x,1/2+y,1/2-z
-x,-y,-z
1/2+x,1/2+y,-z
1/2-x,y,1/2+z
x,1/2-y,1/2+z
loop_
_atom_site_type_symbol
_atom_site_label
_atom_site_fract_x
_atom_site_fract_y
_atom_site_fract_z
Si Si1 0.005669 0.355603 0.812531
Si Si2 0.250000 0.750000 0.601434
Si Si3 0.902246 0.923450 0.185723
Si Si4 0.751550 0.070213 0.175192
Si Si5 0.287043 0.891543 0.538831
O O1 0.242536 0.362642 0.818110
O O2 0.929977 0.278775 0.831532
O O3 0.930876 0.381788 0.709505
O O4 0.903552 0.404137 0.892791
O O5 0.331334 0.810649 0.534916
O O6 0.049048 0.906562 0.273311
O O7 0.789157 0.993032 0.203405
O O8 0.021477 0.927357 0.085799
O O9 0.733703 0.077530 0.062270
#
# Coordination Sequence:
#
# PCOD8229543 Si02
#       5
#     8   4   8   8   8
#     4   9  21  39  59  86 124 158 197 256 300 365
#     4   8  20  44  54  84 122 156 212 242 294 380
#     4  11  21  38  62  92 122 156 203 258 315 364
#     4  11  21  38  61  93 122 154 207 255 316 368
#     4   9  22  39  60  84 121 165 200 257 301 366
#
# _framework density 19.201439000000001
#
# number of rings (size 3 to 8) (size 9 to 14) (size 15 to 20)
#    1.333    0.889    2.222    0.667    0.000    4.444 
#    0.000    0.000    0.000    0.000    0.000    0.000 
#    0.000    0.000    0.000    0.000    0.000    0.000 
#
# Total GULP energy -446127.801710 kJ/mol
# GULP energy per Si atom -12392.438936 kJ/mol
# Density = 1.915774 g / cm^3
# Si number density = 19.201439 Si / 1000 Ang^3
#
#
#
# Elastic Constant Matrix: (Units=GPa)
#
#
# Indices 1 2 3 4 5 6 
#
# 1 132.6612 25.6212 46.0454 0.0000 0.0000 0.0000
# 2 25.6212 62.9786 4.0690 0.0000 0.0000 0.0000
# 3 46.0454 4.0690 95.5704 0.0000 0.0000 0.0000
# 4 0.0000 0.0000 0.0000 22.3959 0.0000 0.0000
# 5 0.0000 0.0000 0.0000 0.0000 14.8772 0.0000
# 6 0.0000 0.0000 0.0000 0.0000 0.0000 35.1876
#
#
#
# Elastic Compliance Matrix: (Units=1/GPa)
#
#
# Indices 1 2 3 4 5 6 
#
# 1 0.009846 -0.003709 -0.004586 0.000000 0.000000 0.000000
# 2 -0.003709 0.017320 0.001050 0.000000 0.000000 0.000000
# 3 -0.004586 0.001050 0.012628 0.000000 0.000000 0.000000
# 4 0.000000 0.000000 0.000000 0.044651 0.000000 0.000000
# 5 0.000000 0.000000 0.000000 0.000000 0.067217 0.000000
# 6 0.000000 0.000000 0.000000 0.000000 0.000000 0.028419
#
#
# Mechanical properties :
#
#
# Convention : Reuss Voigt Hill
#
# Bulk Modulus (GPa) = 39.52094 49.18683 44.35389
# Shear Modulus (GPa) = 24.62978 28.85711 26.74344
#
# Velocity S-wave (km/s) = 3.58537 3.88088 3.73605
# Velocity P-wave (km/s) = 6.14547 6.76413 6.46221
#
# Compressibility (1/GPa) = 0.02530304
#
# Stress axis : x y z
#
# Youngs Moduli (GPa) = 101.56288 57.73791 79.18746
#
# Poissons Ratio (x) = 0.21417 0.36314
# Poissons Ratio (y) = 0.37673 -0.08313
# Poissons Ratio (z) = 0.46576 -0.06061
#
# Static dielectric constant tensor:
#      x y z
#    x 3.385100 0.000000 0.000000 
#    y 0.000000 3.315460 0.000000 
#    z 0.000000 0.000000 3.223200 
# 
# 
# High freq. dielectric constant tensor:
#      x y z
#    x 1.742690 0.000000 0.000000 
#    y 0.000000 1.735520 0.000000 
#    z 0.000000 0.000000 1.729510 
# 
# From -- ./inp_files/9504.got.cif
#   From: 2010.03.12/outbox.cif.g09.slc.cpg/sg56_5_cif.got.tgz:9504.got - 2010.04.16 15:33:40.
