data_PCOD8229461
_publ_section_title
;
Structure prediction by ZEFSAII (Michael W. Deem and Ramdas Pophale) SiO2 
 PCOD8229461
Probable space group: P C C N
;
_chemical_formula_sum "Si O2"
_cell_formula_units_Z 64
_cell_length_a 14.409114
_cell_length_b 8.766600
_cell_length_c 22.828549
_cell_angle_alpha 90.000000
_cell_angle_beta 90.000000
_cell_angle_gamma 90.000000
_cell_volume 2883.678084
_symmetry_space_group_name_H-M "P C C N"
_symmetry_group_IT_number 56
_symmetry_cell_setting 'orthorhombic'
loop_
_space_group_symop_operation_xyz
x,y,z
1/2-x,1/2-y,z
1/2+x,-y,1/2-z
-x,1/2+y,1/2-z
-x,-y,-z
1/2+x,1/2+y,-z
1/2-x,y,1/2+z
x,1/2-y,1/2+z
loop_
_atom_site_type_symbol
_atom_site_label
_atom_site_fract_x
_atom_site_fract_y
_atom_site_fract_z
Si Si1 0.317661 0.110672 0.996123
Si Si2 0.102400 0.983992 0.708839
Si Si3 0.672304 0.378889 0.413431
Si Si4 0.717787 0.583969 0.726927
Si Si5 0.537373 0.674018 0.791560
Si Si6 0.455441 0.964013 0.406352
Si Si7 0.252503 0.930049 0.887924
Si Si8 0.487103 0.764144 0.518026
O O1 0.250000 0.250000 0.983653
O O2 0.423266 0.166289 0.998439
O O3 0.306633 0.989386 0.944224
O O4 0.285076 0.033886 0.058093
O O5 0.202870 0.000651 0.736803
O O6 0.048032 0.143910 0.704799
O O7 0.116737 0.911560 0.645450
O O8 0.045564 0.862537 0.747019
O O9 0.750000 0.250000 0.404110
O O10 0.598083 0.340257 0.463651
O O11 0.750000 0.750000 0.705598
O O12 0.630127 0.593131 0.769276
O O13 0.692011 0.486377 0.669516
O O14 0.518784 0.605632 0.855493
O O15 0.351905 0.994433 0.383207
O O16 0.452390 0.851901 0.461065
O O17 0.495798 0.125397 0.426678
O O18 0.250000 0.750000 0.889825
#
# Coordination Sequence:
#
# PCOD8229461 Si02
#       8
#     8   8   8   8   8   8   8   8
#     4  12  25  46  74 103 142 191 239 294 362 430
#     4  11  27  47  70 107 140 190 236 300 361 434
#     4  12  29  47  73 106 151 184 241 298 368 437
#     4  10  25  46  69 100 137 190 243 294 359 431
#     4  11  26  45  75 101 146 187 246 297 362 427
#     4  11  24  46  71 108 142 189 238 300 360 423
#     4  12  25  43  72 104 145 183 245 300 356 429
#     4  11  26  45  75 106 144 188 241 297 359 431
#
# _framework density 22.193878000000002
#
# number of rings (size 3 to 8) (size 9 to 14) (size 15 to 20)
#    0.000    0.750    2.500    3.375    8.750    2.000 
#    0.000    0.000    0.000    0.000    0.000    0.000 
#    0.000    0.000    0.000    0.000    0.000    0.000 
#
# Total GULP energy -794014.174875 kJ/mol
# GULP energy per Si atom -12406.471482 kJ/mol
# Density = 2.214336 g / cm^3
# Si number density = 22.193878 Si / 1000 Ang^3
#
#
#
# Elastic Constant Matrix: (Units=GPa)
#
#
# Indices 1 2 3 4 5 6 
#
# 1 93.5104 19.8216 16.5025 0.0000 0.0000 0.0000
# 2 19.8216 94.9582 43.0289 0.0000 0.0000 0.0000
# 3 16.5025 43.0289 119.6169 0.0000 0.0000 0.0000
# 4 0.0000 0.0000 0.0000 6.8834 0.0000 0.0000
# 5 0.0000 0.0000 0.0000 0.0000 24.3598 0.0000
# 6 0.0000 0.0000 0.0000 0.0000 0.0000 35.2503
#
#
#
# Elastic Compliance Matrix: (Units=1/GPa)
#
#
# Indices 1 2 3 4 5 6 
#
# 1 0.011260 -0.001967 -0.000846 0.000000 0.000000 0.000000
# 2 -0.001967 0.012925 -0.004378 0.000000 0.000000 0.000000
# 3 -0.000846 -0.004378 0.010052 0.000000 0.000000 0.000000
# 4 0.000000 0.000000 0.000000 0.145278 0.000000 0.000000
# 5 0.000000 0.000000 0.000000 0.000000 0.041051 0.000000
# 6 0.000000 0.000000 0.000000 0.000000 0.000000 0.028369
#
#
# Mechanical properties :
#
#
# Convention : Reuss Voigt Hill
#
# Bulk Modulus (GPa) = 50.36525 51.86571 51.11548
# Shear Modulus (GPa) = 18.52291 28.54753 23.53522
#
# Velocity S-wave (km/s) = 2.89207 3.59036 3.25997
# Velocity P-wave (km/s) = 5.82191 6.37242 6.10338
#
# Compressibility (1/GPa) = 0.01985496
#
# Stress axis : x y z
#
# Youngs Moduli (GPa) = 88.80793 77.36649 99.48615
#
# Poissons Ratio (x) = 0.15219 0.08415
# Poissons Ratio (y) = 0.17470 0.43557
# Poissons Ratio (z) = 0.07512 0.33873
#
# Static dielectric constant tensor:
#      x y z
#    x 4.136790 0.000000 0.000000 
#    y 0.000000 4.138330 0.000000 
#    z 0.000000 0.000000 4.039800 
# 
# 
# High freq. dielectric constant tensor:
#      x y z
#    x 1.880340 0.000000 0.000000 
#    y 0.000000 1.885940 0.000000 
#    z 0.000000 0.000000 1.886590 
# 
# From -- ./inp_files/21192.got.cif
#   From: 2010.03.12/outbox.cif.g09.slc.cpg/sg56_11_cif.got.tgz:21192.got - 2010.04.16 15:33:40.
