data_PCOD8229632
_publ_section_title
;
Structure prediction by ZEFSAII (Michael W. Deem and Ramdas Pophale) SiO2 
 PCOD8229632
Probable space group: P C C N
;
_chemical_formula_sum "Si O2"
_cell_formula_units_Z 60
_cell_length_a 12.158151
_cell_length_b 10.965032
_cell_length_c 20.750438
_cell_angle_alpha 90.000000
_cell_angle_beta 90.000000
_cell_angle_gamma 90.000000
_cell_volume 2766.334573
_symmetry_space_group_name_H-M "P C C N"
_symmetry_group_IT_number 56
_symmetry_cell_setting 'orthorhombic'
loop_
_space_group_symop_operation_xyz
x,y,z
1/2-x,1/2-y,z
1/2+x,-y,1/2-z
-x,1/2+y,1/2-z
-x,-y,-z
1/2+x,1/2+y,-z
1/2-x,y,1/2+z
x,1/2-y,1/2+z
loop_
_atom_site_type_symbol
_atom_site_label
_atom_site_fract_x
_atom_site_fract_y
_atom_site_fract_z
Si Si1 0.626906 0.251698 0.455278
Si Si2 0.673419 0.461003 0.763906
Si Si3 0.250000 0.750000 0.827924
Si Si4 0.074520 0.313785 0.789684
Si Si5 0.382677 0.547707 0.646046
Si Si6 0.444209 0.647882 0.914015
Si Si7 0.501031 0.599315 0.137035
Si Si8 0.878720 0.777335 0.343627
O O1 0.750000 0.250000 0.480684
O O2 0.608806 0.384955 0.423325
O O3 0.553906 0.209937 0.515727
O O4 0.604564 0.153232 0.400006
O O5 0.693622 0.351501 0.715709
O O6 0.674259 0.588135 0.721750
O O7 0.764223 0.458727 0.819816
O O8 0.552565 0.454396 0.797258
O O9 0.345417 0.698639 0.872191
O O10 0.064671 0.233708 0.725781
O O11 0.963540 0.389582 0.802677
O O12 0.086979 0.211130 0.846542
O O13 0.414052 0.409259 0.629663
O O14 0.436457 0.500055 0.907795
O O15 0.565789 0.676983 0.888709
O O16 0.750000 0.750000 0.342323
#
# Coordination Sequence:
#
# PCOD8229632 Si02
#       8
#     8   8   4   8   8   8   8   8
#     4  11  23  45  69  96 128 184 244 292 334 409
#     4  12  22  40  66  99 140 176 217 281 349 429
#     4  12  26  40  66 104 142 176 224 294 354 414
#     4  11  23  38  66 101 137 174 219 280 352 425
#     4  11  23  42  68  95 134 180 231 280 345 424
#     4  12  25  45  68  99 133 181 238 292 345 409
#     4  11  23  41  67  99 137 178 233 277 350 421
#     4  12  24  42  65 101 139 182 223 283 367 425
#
# _framework density 21.689350999999998
#
# number of rings (size 3 to 8) (size 9 to 14) (size 15 to 20)
#    0.000    0.533    4.667    5.200    1.867    0.533 
#    0.000    0.000    0.000    3.200    0.000    0.000 
#    0.000    0.000    0.000    0.000    0.000    0.000 
#
# Total GULP energy -743388.347806 kJ/mol
# GULP energy per Si atom -12389.805797 kJ/mol
# Density = 2.163998 g / cm^3
# Si number density = 21.689351 Si / 1000 Ang^3
#
#
#
# Elastic Constant Matrix: (Units=GPa)
#
#
# Indices 1 2 3 4 5 6 
#
# 1 68.8464 34.6324 37.3048 0.0000 0.0000 0.0000
# 2 34.6324 177.3964 59.3150 0.0000 0.0000 0.0000
# 3 37.3048 59.3150 92.7711 0.0000 0.0000 0.0000
# 4 0.0000 0.0000 0.0000 38.2053 0.0000 0.0000
# 5 0.0000 0.0000 0.0000 0.0000 15.4986 0.0000
# 6 0.0000 0.0000 0.0000 0.0000 0.0000 24.9468
#
#
#
# Elastic Compliance Matrix: (Units=1/GPa)
#
#
# Indices 1 2 3 4 5 6 
#
# 1 0.018864 -0.001458 -0.006653 0.000000 0.000000 0.000000
# 2 -0.001458 0.007283 -0.004070 0.000000 0.000000 0.000000
# 3 -0.006653 -0.004070 0.016057 0.000000 0.000000 0.000000
# 4 0.000000 0.000000 0.000000 0.026174 0.000000 0.000000
# 5 0.000000 0.000000 0.000000 0.000000 0.064522 0.000000
# 6 0.000000 0.000000 0.000000 0.000000 0.000000 0.040085
#
#
# Mechanical properties :
#
#
# Convention : Reuss Voigt Hill
#
# Bulk Modulus (GPa) = 56.05181 66.83536 61.44359
# Shear Modulus (GPa) = 24.59496 29.58093 27.08794
#
# Velocity S-wave (km/s) = 3.37109 3.69703 3.53782
# Velocity P-wave (km/s) = 6.40714 7.00755 6.71406
#
# Compressibility (1/GPa) = 0.01784064
#
# Stress axis : x y z
#
# Youngs Moduli (GPa) = 53.01220 137.31363 62.27917
#
# Poissons Ratio (x) = 0.20022 0.41435
# Poissons Ratio (y) = 0.07730 0.25347
# Poissons Ratio (z) = 0.35269 0.55886
#
# Static dielectric constant tensor:
#      x y z
#    x 3.737460 0.000000 0.000000 
#    y 0.000000 4.549450 0.000000 
#    z 0.000000 0.000000 3.840540 
# 
# 
# High freq. dielectric constant tensor:
#      x y z
#    x 1.839320 0.000000 0.000000 
#    y 0.000000 1.876540 0.000000 
#    z 0.000000 0.000000 1.833250 
# 
# From -- ./inp_files/18831.got.cif
#   From: 2010.03.12/outbox.cif.g09.slc.cpg/sg56_10_cif.got.tgz:18831.got - 2010.04.16 15:33:40.
