data_PCOD8229432
_publ_section_title
;
Structure prediction by ZEFSAII (Michael W. Deem and Ramdas Pophale) SiO2 
 PCOD8229432
Probable space group: P C C N
;
_chemical_formula_sum "Si O2"
_cell_formula_units_Z 40
_cell_length_a 19.965783
_cell_length_b 8.745770
_cell_length_c 9.736360
_cell_angle_alpha 90.000000
_cell_angle_beta 90.000000
_cell_angle_gamma 90.000000
_cell_volume 1700.125659
_symmetry_space_group_name_H-M "P C C N"
_symmetry_group_IT_number 56
_symmetry_cell_setting 'orthorhombic'
loop_
_space_group_symop_operation_xyz
x,y,z
1/2-x,1/2-y,z
1/2+x,-y,1/2-z
-x,1/2+y,1/2-z
-x,-y,-z
1/2+x,1/2+y,-z
1/2-x,y,1/2+z
x,1/2-y,1/2+z
loop_
_atom_site_type_symbol
_atom_site_label
_atom_site_fract_x
_atom_site_fract_y
_atom_site_fract_z
Si Si1 0.856606 0.715824 0.876985
Si Si2 0.583631 0.345084 0.957244
Si Si3 0.064287 0.142652 0.882879
Si Si4 0.694066 0.408925 0.490763
Si Si5 0.804623 0.476516 0.300856
O O1 0.917039 0.684562 0.771807
O O2 0.886082 0.762375 0.022521
O O3 0.819363 0.557686 0.899484
O O4 0.802341 0.840511 0.824479
O O5 0.574003 0.461138 0.086525
O O6 0.629303 0.199626 0.995469
O O7 0.617705 0.432801 0.828880
O O8 0.510666 0.295253 0.906457
O O9 0.763154 0.367195 0.409095
O O10 0.717391 0.439162 0.646184
#
# Coordination Sequence:
#
# PCOD8229432 Si02
#       5
#     8   8   8   8   8
#     4  11  24  46  73 103 138 188 235 292 356 426
#     4  10  26  45  72 104 147 179 234 298 358 425
#     4  10  24  47  73 104 143 182 234 294 361 429
#     4  12  27  44  74 100 141 190 240 290 357 420
#     4  11  27  46  67 103 142 185 241 288 353 422
#
# _framework density 23.527673
#
# number of rings (size 3 to 8) (size 9 to 14) (size 15 to 20)
#    0.000    1.200    2.000    1.200   11.200    7.200 
#    0.000    0.000    0.000    0.000    0.000    0.000 
#    0.000    0.000    0.000    0.000    0.000    0.000 
#
# Total GULP energy -495801.789201 kJ/mol
# GULP energy per Si atom -12395.044730 kJ/mol
# Density = 2.347412 g / cm^3
# Si number density = 23.527673 Si / 1000 Ang^3
#
#
#
# Elastic Constant Matrix: (Units=GPa)
#
#
# Indices 1 2 3 4 5 6 
#
# 1 106.5057 31.9988 24.1450 0.0000 0.0000 0.0000
# 2 31.9988 99.5189 9.5896 0.0000 0.0000 0.0000
# 3 24.1450 9.5896 115.0289 0.0000 0.0000 0.0000
# 4 0.0000 0.0000 0.0000 10.8917 0.0000 0.0000
# 5 0.0000 0.0000 0.0000 0.0000 36.2792 0.0000
# 6 0.0000 0.0000 0.0000 0.0000 0.0000 34.1204
#
#
#
# Elastic Compliance Matrix: (Units=1/GPa)
#
#
# Indices 1 2 3 4 5 6 
#
# 1 0.010831 -0.003290 -0.001999 0.000000 0.000000 0.000000
# 2 -0.003290 0.011129 -0.000237 0.000000 0.000000 0.000000
# 3 -0.001999 -0.000237 0.009133 0.000000 0.000000 0.000000
# 4 0.000000 0.000000 0.000000 0.091813 0.000000 0.000000
# 5 0.000000 0.000000 0.000000 0.000000 0.027564 0.000000
# 6 0.000000 0.000000 0.000000 0.000000 0.000000 0.029308
#
#
# Mechanical properties :
#
#
# Convention : Reuss Voigt Hill
#
# Bulk Modulus (GPa) = 49.89973 50.28004 50.08988
# Shear Modulus (GPa) = 25.31510 33.27960 29.29735
#
# Velocity S-wave (km/s) = 3.28376 3.76505 3.53261
# Velocity P-wave (km/s) = 5.96929 6.34963 6.16239
#
# Compressibility (1/GPa) = 0.02004019
#
# Stress axis : x y z
#
# Youngs Moduli (GPa) = 92.32935 89.85533 109.49451
#
# Poissons Ratio (x) = 0.29561 0.21890
# Poissons Ratio (y) = 0.30375 0.02598
# Poissons Ratio (z) = 0.18458 0.02132
#
# Static dielectric constant tensor:
#      x y z
#    x 4.237560 0.000000 0.000000 
#    y 0.000000 4.445320 0.000000 
#    z 0.000000 0.000000 3.962640 
# 
# 
# High freq. dielectric constant tensor:
#      x y z
#    x 1.942850 0.000000 0.000000 
#    y 0.000000 1.946960 0.000000 
#    z 0.000000 0.000000 1.920550 
# 
# From -- ./inp_files/4384.got.cif
#   From: 2010.03.12/outbox.cif.g09.slc.cpg/sg56_3_cif.got.tgz:4384.got - 2010.04.16 15:33:40.
