data_PCOD8229155
_publ_section_title
;
Structure prediction by ZEFSAII (Michael W. Deem and Ramdas Pophale) SiO2 
 PCOD8229155
Probable space group: P C C N
;
_chemical_formula_sum "Si O2"
_cell_formula_units_Z 60
_cell_length_a 12.045566
_cell_length_b 20.600498
_cell_length_c 9.743960
_cell_angle_alpha 90.000000
_cell_angle_beta 90.000000
_cell_angle_gamma 90.000000
_cell_volume 2417.911625
_symmetry_space_group_name_H-M "P C C N"
_symmetry_group_IT_number 56
_symmetry_cell_setting 'orthorhombic'
loop_
_space_group_symop_operation_xyz
x,y,z
1/2-x,1/2-y,z
1/2+x,-y,1/2-z
-x,1/2+y,1/2-z
-x,-y,-z
1/2+x,1/2+y,-z
1/2-x,y,1/2+z
x,1/2-y,1/2+z
loop_
_atom_site_type_symbol
_atom_site_label
_atom_site_fract_x
_atom_site_fract_y
_atom_site_fract_z
Si Si1 0.498964 0.935862 0.093411
Si Si2 0.618205 0.251956 0.738042
Si Si3 0.931863 0.169121 0.994111
Si Si4 0.199221 0.488500 0.791557
Si Si5 0.058559 0.327154 0.097107
Si Si6 0.739235 0.431566 0.452804
Si Si7 0.750000 0.750000 0.511871
Si Si8 0.649772 0.625868 0.132219
O O1 0.576728 0.956106 0.220653
O O2 0.374197 0.913048 0.129640
O O3 0.558507 0.872774 0.033404
O O4 0.500000 0.000000 0.000000
O O5 0.750000 0.250000 0.736050
O O6 0.570877 0.265514 0.893478
O O7 0.575116 0.187387 0.656423
O O8 0.566814 0.308973 0.643164
O O9 0.824938 0.127581 0.947810
O O10 0.043508 0.127527 0.970342
O O11 0.218974 0.506403 0.633813
O O12 0.285481 0.441675 0.870745
O O13 0.205924 0.551720 0.890512
O O14 0.111364 0.371292 0.212828
O O15 0.137162 0.263507 0.075344
O O16 0.769578 0.686247 0.602130
#
# Coordination Sequence:
#
# PCOD8229155 Si02
#       8
#     8   8   8   8   8   8   4   8
#     4  10  22  43  72  96 133 186 231 278 356 419
#     4  11  24  44  69 100 138 184 227 286 350 421
#     4  11  26  46  70 102 144 180 236 291 354 426
#     4  11  25  47  72 100 138 183 237 292 352 417
#     4  11  23  43  69  96 142 182 234 286 356 437
#     4  11  27  46  71 105 137 187 236 291 353 430
#     4  12  22  44  64 106 134 184 230 292 364 420
#     4  11  24  43  69 100 140 181 233 296 346 427
#
# _framework density 24.814803999999999
#
# number of rings (size 3 to 8) (size 9 to 14) (size 15 to 20)
#    0.000    1.067    2.667    3.200   11.200    0.533 
#    0.000    0.000    0.000    0.000    0.000    0.000 
#    0.000    0.000    0.000    0.000    0.000    0.000 
#
# Total GULP energy -743296.552147 kJ/mol
# GULP energy per Si atom -12388.275869 kJ/mol
# Density = 2.475832 g / cm^3
# Si number density = 24.814804 Si / 1000 Ang^3
#
#
#
# Elastic Constant Matrix: (Units=GPa)
#
#
# Indices 1 2 3 4 5 6 
#
# 1 111.1606 16.1679 -11.4401 0.0000 0.0000 0.0000
# 2 16.1679 67.7460 -0.4339 0.0000 0.0000 0.0000
# 3 -11.4401 -0.4339 37.5798 0.0000 0.0000 0.0000
# 4 0.0000 0.0000 0.0000 34.3389 0.0000 0.0000
# 5 0.0000 0.0000 0.0000 0.0000 22.1198 0.0000
# 6 0.0000 0.0000 0.0000 0.0000 0.0000 20.1208
#
#
#
# Elastic Compliance Matrix: (Units=1/GPa)
#
#
# Indices 1 2 3 4 5 6 
#
# 1 0.009626 -0.002279 0.002904 0.000000 0.000000 0.000000
# 2 -0.002279 0.015302 -0.000517 0.000000 0.000000 0.000000
# 3 0.002904 -0.000517 0.027488 0.000000 0.000000 0.000000
# 4 0.000000 0.000000 0.000000 0.029121 0.000000 0.000000
# 5 0.000000 0.000000 0.000000 0.000000 0.045208 0.000000
# 6 0.000000 0.000000 0.000000 0.000000 0.000000 0.049700
#
#
# Mechanical properties :
#
#
# Convention : Reuss Voigt Hill
#
# Bulk Modulus (GPa) = 18.99959 25.00823 22.00391
# Shear Modulus (GPa) = 25.80337 29.46207 27.63272
#
# Velocity S-wave (km/s) = 3.22815 3.44943 3.34062
# Velocity P-wave (km/s) = 4.64411 5.09554 4.87506
#
# Compressibility (1/GPa) = 0.05263272
#
# Stress axis : x y z
#
# Youngs Moduli (GPa) = 103.88193 65.35288 36.37933
#
# Poissons Ratio (x) = 0.14892 -0.10565
# Poissons Ratio (y) = 0.23672 0.01881
# Poissons Ratio (z) = -0.30169 0.03379
#
# Static dielectric constant tensor:
#      x y z
#    x 4.942450 0.000000 0.000000 
#    y 0.000000 4.310350 0.000000 
#    z 0.000000 0.000000 4.252800 
# 
# 
# High freq. dielectric constant tensor:
#      x y z
#    x 2.008610 0.000000 0.000000 
#    y 0.000000 1.979260 0.000000 
#    z 0.000000 0.000000 1.969600 
# 
# From -- ./inp_files/7326.got.cif
#   From: 2010.03.12/outbox.cif.g09.slc.cpg/sg56_4_cif.got.tgz:7326.got - 2010.04.16 15:33:40.
