data_PCOD8229871
_publ_section_title
;
Structure prediction by ZEFSAII (Michael W. Deem and Ramdas Pophale) SiO2 
 PCOD8229871
Probable space group: P C C N
;
_chemical_formula_sum "Si O2"
_cell_formula_units_Z 28
_cell_length_a 7.570089
_cell_length_b 5.070354
_cell_length_c 28.934903
_cell_angle_alpha 90.000000
_cell_angle_beta 90.000000
_cell_angle_gamma 90.000000
_cell_volume 1110.609280
_symmetry_space_group_name_H-M "P C C N"
_symmetry_group_IT_number 56
_symmetry_cell_setting 'orthorhombic'
loop_
_space_group_symop_operation_xyz
x,y,z
1/2-x,1/2-y,z
1/2+x,-y,1/2-z
-x,1/2+y,1/2-z
-x,-y,-z
1/2+x,1/2+y,-z
1/2-x,y,1/2+z
x,1/2-y,1/2+z
loop_
_atom_site_type_symbol
_atom_site_label
_atom_site_fract_x
_atom_site_fract_y
_atom_site_fract_z
Si Si1 0.949833 0.155626 0.401190
Si Si2 0.561308 0.138802 0.546682
Si Si3 0.250000 0.250000 0.735760
Si Si4 0.403160 0.913386 0.813557
O O1 0.750000 0.250000 0.399325
O O2 0.950945 0.889248 0.432876
O O3 0.070103 0.398097 0.417765
O O4 0.024777 0.124839 0.349638
O O5 0.750000 0.250000 0.534771
O O6 0.500000 0.000000 0.500000
O O7 0.209537 0.492406 0.769330
O O8 0.421509 0.266890 0.703601
O O9 0.250000 0.750000 0.840698
#
# Coordination Sequence:
#
# PCOD8229871 Si02
#       4
#     8   8   4   8
#     4  12  30  50  83 121 164 214 272 338 405 487
#     4  12  28  55  84 119 161 213 268 333 414 488
#     4  12  28  50  78 112 156 222 274 344 404 490
#     4  12  29  50  78 116 164 216 280 336 415 479
#
# _framework density 25.211386000000001
#
# number of rings (size 3 to 8) (size 9 to 14) (size 15 to 20)
#    0.000    0.000    2.857    4.286   16.000    2.286 
#    0.000    1.429    0.000    0.000    0.000    0.000 
#    0.000    0.000    0.000    0.000    0.000    0.000 
#
# Total GULP energy -346910.460320 kJ/mol
# GULP energy per Si atom -12389.659297 kJ/mol
# Density = 2.515400 g / cm^3
# Si number density = 25.211386 Si / 1000 Ang^3
#
#
#
# Elastic Constant Matrix: (Units=GPa)
#
#
# Indices 1 2 3 4 5 6 
#
# 1 185.4852 72.2368 78.5454 0.0000 0.0000 0.0000
# 2 72.2368 172.3258 67.8034 0.0000 0.0000 0.0000
# 3 78.5454 67.8034 135.5205 0.0000 0.0000 0.0000
# 4 0.0000 0.0000 0.0000 45.8657 0.0000 0.0000
# 5 0.0000 0.0000 0.0000 0.0000 24.7873 0.0000
# 6 0.0000 0.0000 0.0000 0.0000 0.0000 59.4694
#
#
#
# Elastic Compliance Matrix: (Units=1/GPa)
#
#
# Indices 1 2 3 4 5 6 
#
# 1 0.007569 -0.001801 -0.003485 0.000000 0.000000 0.000000
# 2 -0.001801 0.007654 -0.002785 0.000000 0.000000 0.000000
# 3 -0.003485 -0.002785 0.010793 0.000000 0.000000 0.000000
# 4 0.000000 0.000000 0.000000 0.021803 0.000000 0.000000
# 5 0.000000 0.000000 0.000000 0.000000 0.040343 0.000000
# 6 0.000000 0.000000 0.000000 0.000000 0.000000 0.016815
#
#
# Mechanical properties :
#
#
# Convention : Reuss Voigt Hill
#
# Bulk Modulus (GPa) = 101.30710 103.38919 102.34815
# Shear Modulus (GPa) = 40.18915 44.34087 42.26501
#
# Velocity S-wave (km/s) = 3.99693 4.19831 4.09886
# Velocity P-wave (km/s) = 7.84672 8.03735 7.94261
#
# Compressibility (1/GPa) = 0.00987098
#
# Stress axis : x y z
#
# Youngs Moduli (GPa) = 132.12228 130.65052 92.65538
#
# Poissons Ratio (x) = 0.23534 0.32295
# Poissons Ratio (y) = 0.23799 0.25808
# Poissons Ratio (z) = 0.46051 0.36392
#
# Static dielectric constant tensor:
#      x y z
#    x 4.239360 0.000000 0.000000 
#    y 0.000000 5.668100 0.000000 
#    z 0.000000 0.000000 4.915870 
# 
# 
# High freq. dielectric constant tensor:
#      x y z
#    x 2.028940 0.000000 0.000000 
#    y 0.000000 2.016590 0.000000 
#    z 0.000000 0.000000 2.020100 
# 
# From -- ./inp_files/21895.got.cif
#   From: 2010.03.12/outbox.cif.g09.slc.cpg/sg56_11_cif.got.tgz:21895.got - 2010.04.16 15:33:40.
