data_PCOD8229760
_publ_section_title
;
Structure prediction by ZEFSAII (Michael W. Deem and Ramdas Pophale) SiO2 
 PCOD8229760
Probable space group: P C C N
;
_chemical_formula_sum "Si O2"
_cell_formula_units_Z 32
_cell_length_a 16.082843
_cell_length_b 8.444112
_cell_length_c 9.603367
_cell_angle_alpha 90.000000
_cell_angle_beta 90.000000
_cell_angle_gamma 90.000000
_cell_volume 1304.188401
_symmetry_space_group_name_H-M "P C C N"
_symmetry_group_IT_number 56
_symmetry_cell_setting 'orthorhombic'
loop_
_space_group_symop_operation_xyz
x,y,z
1/2-x,1/2-y,z
1/2+x,-y,1/2-z
-x,1/2+y,1/2-z
-x,-y,-z
1/2+x,1/2+y,-z
1/2-x,y,1/2+z
x,1/2-y,1/2+z
loop_
_atom_site_type_symbol
_atom_site_label
_atom_site_fract_x
_atom_site_fract_y
_atom_site_fract_z
Si Si1 0.093187 0.388062 0.871978
Si Si2 0.675399 0.561895 0.153231
Si Si3 0.406809 0.611936 0.628132
Si Si4 0.324590 0.561915 0.153355
O O1 0.162641 0.250772 0.858437
O O2 0.093761 0.488932 0.728527
O O3 0.999992 0.321096 0.895596
O O4 0.119891 0.499865 0.000143
O O5 0.593763 0.488692 0.228281
O O6 0.749995 0.499912 0.249900
O O7 0.688313 0.500182 0.999879
O O8 0.337334 0.749225 0.641415
#
# Coordination Sequence:
#
# PCOD8229760 Si02
#       4
#     8   8   8   8
#     4  11  25  46  73 105 142 186 238 298 362 429
#     4  12  26  45  69 102 143 190 241 294 357 428
#     4  11  25  46  73 105 142 186 238 298 362 429
#     4  12  26  45  69 102 143 190 241 294 357 428
#
# _framework density 24.536332000000002
#
# number of rings (size 3 to 8) (size 9 to 14) (size 15 to 20)
#    0.000    0.500    0.000    7.500    0.000   12.000 
#    0.000    0.000    0.000    0.000    0.000    0.000 
#    0.000    0.000    0.000    0.000    0.000    0.000 
#
# Total GULP energy -396703.182266 kJ/mol
# GULP energy per Si atom -12396.974446 kJ/mol
# Density = 2.448049 g / cm^3
# Si number density = 24.536332 Si / 1000 Ang^3
#
#
#
# Elastic Constant Matrix: (Units=GPa)
#
#
# Indices 1 2 3 4 5 6 
#
# 1 123.1157 67.7892 58.6357 0.0000 0.0000 0.0000
# 2 67.7892 199.8770 94.0177 0.0000 0.0000 0.0000
# 3 58.6357 94.0177 239.4988 0.0000 0.0000 0.0000
# 4 0.0000 0.0000 0.0000 53.4148 0.0000 0.0000
# 5 0.0000 0.0000 0.0000 0.0000 21.9603 0.0000
# 6 0.0000 0.0000 0.0000 0.0000 0.0000 48.0816
#
#
#
# Elastic Compliance Matrix: (Units=1/GPa)
#
#
# Indices 1 2 3 4 5 6 
#
# 1 0.010367 -0.002848 -0.001420 0.000000 0.000000 0.000000
# 2 -0.002848 0.006919 -0.002019 0.000000 0.000000 0.000000
# 3 -0.001420 -0.002019 0.005316 0.000000 0.000000 0.000000
# 4 0.000000 0.000000 0.000000 0.018721 0.000000 0.000000
# 5 0.000000 0.000000 0.000000 0.000000 0.045537 0.000000
# 6 0.000000 0.000000 0.000000 0.000000 0.000000 0.020798
#
#
# Mechanical properties :
#
#
# Convention : Reuss Voigt Hill
#
# Bulk Modulus (GPa) = 99.72639 111.48631 105.60635
# Shear Modulus (GPa) = 40.46187 47.49460 43.97823
#
# Velocity S-wave (km/s) = 4.06527 4.40441 4.23823
# Velocity P-wave (km/s) = 7.92261 8.44991 8.19051
#
# Compressibility (1/GPa) = 0.01002744
#
# Stress axis : x y z
#
# Youngs Moduli (GPa) = 96.46050 144.53932 188.12871
#
# Poissons Ratio (x) = 0.41165 0.26716
# Poissons Ratio (y) = 0.27472 0.37977
# Poissons Ratio (z) = 0.13698 0.29178
#
# Static dielectric constant tensor:
#      x y z
#    x 0.000000 0.000000 0.000000 
#    y 0.000000 0.000000 0.000000 
#    z 0.000000 0.000000 0.000000 
# 
# 
# High freq. dielectric constant tensor:
#      x y z
#    x 1.992050 0.000000 0.000000 
#    y 0.000000 1.983170 0.000000 
#    z 0.000000 0.000000 1.989420 
# 
# From -- ./inp_files/4315.got.cif
#   From: 2010.03.12/outbox.cif.g09.slc.cpg/sg56_3_cif.got.tgz:4315.got - 2010.04.16 15:33:40.
