data_PCOD8229895
_publ_section_title
;
Structure prediction by ZEFSAII (Michael W. Deem and Ramdas Pophale) SiO2 
 PCOD8229895
Probable space group: P B C M
;
_chemical_formula_sum "Si O2"
_cell_formula_units_Z 64
_cell_length_a 9.024904
_cell_length_b 24.057202
_cell_length_c 15.390580
_cell_angle_alpha 90.000000
_cell_angle_beta 90.000000
_cell_angle_gamma 90.000000
_cell_volume 3341.509441
_symmetry_space_group_name_H-M "P B C M"
_symmetry_group_IT_number 57
_symmetry_cell_setting 'orthorhombic'
loop_
_space_group_symop_operation_xyz
x,y,z
-x,-y,1/2+z
x,1/2-y,-z
-x,1/2+y,1/2-z
-x,-y,-z
x,y,1/2-z
-x,1/2+y,z
x,1/2-y,1/2+z
loop_
_atom_site_type_symbol
_atom_site_label
_atom_site_fract_x
_atom_site_fract_y
_atom_site_fract_z
Si Si1 0.172570 0.629674 0.848656
Si Si2 0.327941 0.434791 0.500000
Si Si3 0.827430 0.370326 0.848656
Si Si4 0.184580 0.250000 0.403535
Si Si5 0.674191 0.064144 0.000000
Si Si6 0.176903 0.369437 0.652863
Si Si7 0.823097 0.630563 0.652863
Si Si8 0.133651 0.750000 0.150611
O O1 0.208554 0.611106 0.750000
O O2 0.228091 0.693588 0.864802
O O3 0.997533 0.627527 0.866840
O O4 0.256579 0.589284 0.913093
O O5 0.289477 0.499422 0.500000
O O6 0.501480 0.423190 0.500000
O O7 0.260030 0.409014 0.586516
O O8 0.260030 0.409014 0.413484
O O9 0.791446 0.388894 0.750000
O O10 0.743421 0.410716 0.913093
O O11 0.771909 0.306412 0.864802
O O12 0.002467 0.372473 0.866840
O O13 0.252646 0.250000 0.500000
O O14 0.236567 0.193895 0.355212
O O15 0.236567 0.306105 0.355212
O O16 0.006859 0.250000 0.412264
O O17 0.211826 0.390542 0.750000
O O18 0.788174 0.609458 0.750000
O O19 0.071548 0.750000 0.250000
#
# Coordination Sequence:
#
# PCOD8229895 Si02
#       8
#     8   8   8   8   8   8   8   8
#     4   9  19  36  60  88 113 144 181 227 281 331
#     4  11  25  42  53  78 108 155 198 229 284 329
#     4   9  19  36  60  88 113 144 181 227 281 331
#     4  10  16  28  56  90 119 142 172 217 278 339
#     4  11  25  40  57  74 112 151 194 241 274 333
#     4  10  20  37  61  87 116 144 181 230 277 332
#     4  10  20  37  61  87 116 144 181 230 277 332
#     4   8  16  30  52  87 120 141 172 216 277 343
#
# _framework density 19.153022
#
# number of rings (size 3 to 8) (size 9 to 14) (size 15 to 20)
#    0.000    2.250    1.250    3.375    5.250    4.000 
#    0.000    7.500    0.000    3.000    0.000    0.000 
#    0.000    0.000    0.000    0.000    0.000    0.000 
#
# Total GULP energy -793372.387231 kJ/mol
# GULP energy per Si atom -12396.443550 kJ/mol
# Density = 1.910943 g / cm^3
# Si number density = 19.153022 Si / 1000 Ang^3
#
#
#
# Elastic Constant Matrix: (Units=GPa)
#
#
# Indices 1 2 3 4 5 6 
#
# 1 64.6392 72.0976 61.9598 0.0000 0.0000 0.0000
# 2 72.0976 144.7206 92.5203 0.0000 0.0000 0.0000
# 3 61.9598 92.5203 153.8419 0.0000 0.0000 0.0000
# 4 0.0000 0.0000 0.0000 8.1734 0.0000 0.0000
# 5 0.0000 0.0000 0.0000 0.0000 7.2466 0.0000
# 6 0.0000 0.0000 0.0000 0.0000 0.0000 -90.0967
#
#
#
# Elastic Compliance Matrix: (Units=1/GPa)
#
#
# Indices 1 2 3 4 5 6 
#
# 1 0.038370 -0.015005 -0.006430 0.000000 0.000000 0.000000
# 2 -0.015005 0.017094 -0.004237 0.000000 0.000000 0.000000
# 3 -0.006430 -0.004237 0.011638 0.000000 0.000000 0.000000
# 4 0.000000 0.000000 0.000000 0.122348 0.000000 0.000000
# 5 0.000000 0.000000 0.000000 0.000000 0.137996 0.000000
# 6 0.000000 0.000000 0.000000 0.000000 0.000000 -0.011099
#
#
# Mechanical properties :
#
#
# Convention : Reuss Voigt Hill
#
# Bulk Modulus (GPa) = 63.45742 90.70636 77.08189
# Shear Modulus (GPa) = 13.40694 -5.82707 3.78994
#
# Velocity S-wave (km/s) = 2.64860 -1.74613 1.40821
# Velocity P-wave (km/s) = 6.52359 6.58758 6.55566
#
# Compressibility (1/GPa) = 0.01575860
#
# Stress axis : x y z
#
# Youngs Moduli (GPa) = 26.06236 58.50120 85.92703
#
# Poissons Ratio (x) = 0.87779 0.55247
# Poissons Ratio (y) = 0.39106 0.36407
# Poissons Ratio (z) = 0.16757 0.24787
#
# Static dielectric constant tensor:
#      x y z
#    x 3.112640 0.000000 0.000000 
#    y 0.000000 3.671200 0.000000 
#    z 0.000000 0.000000 3.571000 
# 
# 
# High freq. dielectric constant tensor:
#      x y z
#    x 1.698580 0.000000 0.000000 
#    y 0.000000 1.752500 0.000000 
#    z 0.000000 0.000000 1.761540 
# 
# From -- ./inp_files/16970.got.cif
#   From: 2010.03.12/outbox.cif.g09.slc.cpg/sg57_9_cif.got.tgz:16970.got - 2010.04.16 15:48:40.
