data_PCOD8229224
_publ_section_title
;
Structure prediction by ZEFSAII (Michael W. Deem and Ramdas Pophale) SiO2 
 PCOD8229224
Probable space group: P C C N
;
_chemical_formula_sum "Si O2"
_cell_formula_units_Z 64
_cell_length_a 21.869010
_cell_length_b 14.827901
_cell_length_c 8.925349
_cell_angle_alpha 90.000000
_cell_angle_beta 90.000000
_cell_angle_gamma 90.000000
_cell_volume 2894.236444
_symmetry_space_group_name_H-M "P C C N"
_symmetry_group_IT_number 56
_symmetry_cell_setting 'orthorhombic'
loop_
_space_group_symop_operation_xyz
x,y,z
1/2-x,1/2-y,z
1/2+x,-y,1/2-z
-x,1/2+y,1/2-z
-x,-y,-z
1/2+x,1/2+y,-z
1/2-x,y,1/2+z
x,1/2-y,1/2+z
loop_
_atom_site_type_symbol
_atom_site_label
_atom_site_fract_x
_atom_site_fract_y
_atom_site_fract_z
Si Si1 0.506465 0.470316 0.828255
Si Si2 0.742204 0.356473 0.564811
Si Si3 0.881366 0.351495 0.232353
Si Si4 0.178969 0.563414 0.203352
Si Si5 0.622683 0.878484 0.729828
Si Si6 0.472930 0.163943 0.767235
Si Si7 0.900632 0.751718 0.984474
Si Si8 0.590406 0.300594 0.417674
O O1 0.573137 0.426112 0.800941
O O2 0.449185 0.408876 0.774051
O O3 0.507659 0.560023 0.727831
O O4 0.500000 0.500000 0.000000
O O5 0.750000 0.250000 0.536355
O O6 0.683570 0.384683 0.667676
O O7 0.733850 0.411777 0.410648
O O8 0.804358 0.391800 0.638059
O O9 0.864651 0.280179 0.364328
O O10 0.916875 0.301383 0.095799
O O11 0.169736 0.458064 0.235446
O O12 0.116035 0.603711 0.140358
O O13 0.635650 0.805749 0.861055
O O14 0.637922 0.831060 0.569171
O O15 0.456765 0.197892 0.600469
O O16 0.527570 0.223394 0.835536
O O17 0.418838 0.181428 0.885310
#
# Coordination Sequence:
#
# PCOD8229224 Si02
#       8
#     8   8   8   8   8   8   8   8
#     4  12  25  38  62 103 141 176 230 278 344 427
#     4  11  24  46  67 102 139 184 228 282 351 421
#     4  11  26  39  65  96 138 185 229 275 347 414
#     4  11  25  42  68  96 134 178 227 289 337 420
#     4  11  23  45  66 100 131 177 229 282 354 412
#     4  11  21  38  59  92 135 177 216 272 325 408
#     4  10  23  40  64  88 134 175 218 274 346 402
#     4  11  22  38  62  94 133 181 223 273 334 414
#
# _framework density 22.112915000000001
#
# number of rings (size 3 to 8) (size 9 to 14) (size 15 to 20)
#    0.000    1.000    3.750    3.375    7.000    2.000 
#    0.000    0.000    0.000    2.250    0.000    0.000 
#    0.000    0.000    0.000    0.000    0.000    0.000 
#
# Total GULP energy -793066.895049 kJ/mol
# GULP energy per Si atom -12391.670235 kJ/mol
# Density = 2.206258 g / cm^3
# Si number density = 22.112915 Si / 1000 Ang^3
#
#
#
# Elastic Constant Matrix: (Units=GPa)
#
#
# Indices 1 2 3 4 5 6 
#
# 1 42.2770 19.6550 27.7465 0.0000 0.0000 0.0000
# 2 19.6550 113.3477 52.1377 0.0000 0.0000 0.0000
# 3 27.7465 52.1377 131.3262 0.0000 0.0000 0.0000
# 4 0.0000 0.0000 0.0000 42.6154 0.0000 0.0000
# 5 0.0000 0.0000 0.0000 0.0000 29.2869 0.0000
# 6 0.0000 0.0000 0.0000 0.0000 0.0000 33.1905
#
#
#
# Elastic Compliance Matrix: (Units=1/GPa)
#
#
# Indices 1 2 3 4 5 6 
#
# 1 0.028083 -0.002619 -0.004894 0.000000 0.000000 0.000000
# 2 -0.002619 0.011038 -0.003829 0.000000 0.000000 0.000000
# 3 -0.004894 -0.003829 0.010169 0.000000 0.000000 0.000000
# 4 0.000000 0.000000 0.000000 0.023466 0.000000 0.000000
# 5 0.000000 0.000000 0.000000 0.000000 0.034145 0.000000
# 6 0.000000 0.000000 0.000000 0.000000 0.000000 0.030129
#
#
# Mechanical properties :
#
#
# Convention : Reuss Voigt Hill
#
# Bulk Modulus (GPa) = 37.58444 54.00326 45.79385
# Shear Modulus (GPa) = 29.65952 33.51267 31.58610
#
# Velocity S-wave (km/s) = 3.66632 3.89720 3.78352
# Velocity P-wave (km/s) = 5.91236 6.68771 6.31195
#
# Compressibility (1/GPa) = 0.02660676
#
# Stress axis : x y z
#
# Youngs Moduli (GPa) = 35.60909 90.59883 98.34177
#
# Poissons Ratio (x) = 0.23725 0.48125
# Poissons Ratio (y) = 0.09325 0.37653
# Poissons Ratio (z) = 0.17426 0.34688
#
# Static dielectric constant tensor:
#      x y z
#    x 3.626330 0.000000 0.000000 
#    y 0.000000 3.955900 0.000000 
#    z 0.000000 0.000000 4.282860 
# 
# 
# High freq. dielectric constant tensor:
#      x y z
#    x 1.830680 0.000000 0.000000 
#    y 0.000000 1.864570 0.000000 
#    z 0.000000 0.000000 1.892100 
# 
# From -- ./inp_files/4828.got.cif
#   From: 2010.03.12/outbox.cif.g09.slc.cpg/sg56_3_cif.got.tgz:4828.got - 2010.04.16 15:33:40.
