data_PCOD8229669
_publ_section_title
;
Structure prediction by ZEFSAII (Michael W. Deem and Ramdas Pophale) SiO2 
 PCOD8229669
Probable space group: P C C N
;
_chemical_formula_sum "Si O2"
_cell_formula_units_Z 32
_cell_length_a 8.317177
_cell_length_b 10.460198
_cell_length_c 16.745459
_cell_angle_alpha 90.000000
_cell_angle_beta 90.000000
_cell_angle_gamma 90.000000
_cell_volume 1456.843516
_symmetry_space_group_name_H-M "P C C N"
_symmetry_group_IT_number 56
_symmetry_cell_setting 'orthorhombic'
loop_
_space_group_symop_operation_xyz
x,y,z
1/2-x,1/2-y,z
1/2+x,-y,1/2-z
-x,1/2+y,1/2-z
-x,-y,-z
1/2+x,1/2+y,-z
1/2-x,y,1/2+z
x,1/2-y,1/2+z
loop_
_atom_site_type_symbol
_atom_site_label
_atom_site_fract_x
_atom_site_fract_y
_atom_site_fract_z
Si Si1 0.662041 0.125171 0.811506
Si Si2 0.107928 0.878342 0.506441
Si Si3 0.945729 0.116748 0.053270
Si Si4 0.642923 0.876341 0.285871
O O1 0.750000 0.250000 0.774928
O O2 0.472429 0.131267 0.791249
O O3 0.740468 0.997227 0.775479
O O4 0.685975 0.126694 0.906354
O O5 0.251545 0.887869 0.441552
O O6 0.002990 0.751689 0.487668
O O7 0.000000 0.000000 0.500000
O O8 0.024601 0.106216 0.139460
O O9 0.000000 0.000000 0.000000
O O10 0.750000 0.750000 0.293787
#
# Coordination Sequence:
#
# PCOD8229669 Si02
#       4
#     8   8   8   8
#     4  12  25  48  65 102 142 179 232 288 351 419
#     4  11  24  43  69  97 134 179 230 285 342 416
#     4  11  23  44  68  96 134 178 230 286 339 410
#     4  12  27  45  71 103 139 187 233 291 355 421
#
# _framework density 21.965295000000001
#
# number of rings (size 3 to 8) (size 9 to 14) (size 15 to 20)
#    0.000    0.500    5.000    3.000    7.000    0.000 
#    0.000    0.000    0.000    0.000    0.000    0.000 
#    0.000    0.000    0.000    0.000    0.000    0.000 
#
# Total GULP energy -396873.915414 kJ/mol
# GULP energy per Si atom -12402.309857 kJ/mol
# Density = 2.191530 g / cm^3
# Si number density = 21.965295 Si / 1000 Ang^3
#
#
#
# Elastic Constant Matrix: (Units=GPa)
#
#
# Indices 1 2 3 4 5 6 
#
# 1 115.4086 64.0435 36.9511 0.0000 0.0000 0.0000
# 2 64.0435 211.3916 14.4803 0.0000 0.0000 0.0000
# 3 36.9511 14.4803 53.6039 0.0000 0.0000 0.0000
# 4 0.0000 0.0000 0.0000 23.1759 0.0000 0.0000
# 5 0.0000 0.0000 0.0000 0.0000 20.7925 0.0000
# 6 0.0000 0.0000 0.0000 0.0000 0.0000 55.9187
#
#
#
# Elastic Compliance Matrix: (Units=1/GPa)
#
#
# Indices 1 2 3 4 5 6 
#
# 1 0.013184 -0.003435 -0.008160 0.000000 0.000000 0.000000
# 2 -0.003435 0.005715 0.000824 0.000000 0.000000 0.000000
# 3 -0.008160 0.000824 0.024058 0.000000 0.000000 0.000000
# 4 0.000000 0.000000 0.000000 0.043148 0.000000 0.000000
# 5 0.000000 0.000000 0.000000 0.000000 0.048094 0.000000
# 6 0.000000 0.000000 0.000000 0.000000 0.000000 0.017883
#
#
# Mechanical properties :
#
#
# Convention : Reuss Voigt Hill
#
# Bulk Modulus (GPa) = 46.69787 67.92819 57.31303
# Shear Modulus (GPa) = 27.66064 37.63938 32.65001
#
# Velocity S-wave (km/s) = 3.55249 4.14404 3.85962
# Velocity P-wave (km/s) = 6.17519 7.34096 6.78317
#
# Compressibility (1/GPa) = 0.02141425
#
# Stress axis : x y z
#
# Youngs Moduli (GPa) = 75.85041 174.98305 41.56663
#
# Poissons Ratio (x) = 0.60111 0.33919
# Poissons Ratio (y) = 0.26056 -0.03426
# Poissons Ratio (z) = 0.61895 -0.14423
#
# Static dielectric constant tensor:
#      x y z
#    x 3.972550 0.000000 0.000000 
#    y 0.000000 4.394230 0.000000 
#    z 0.000000 0.000000 3.940510 
# 
# 
# High freq. dielectric constant tensor:
#      x y z
#    x 1.864720 0.000000 0.000000 
#    y 0.000000 1.893890 0.000000 
#    z 0.000000 0.000000 1.853830 
# 
# From -- ./inp_files/10091.got.cif
#   From: 2010.03.12/outbox.cif.g09.slc.cpg/sg56_6_cif.got.tgz:10091.got - 2010.04.16 15:33:40.
