data_PCOD8229673
_publ_section_title
;
Structure prediction by ZEFSAII (Michael W. Deem and Ramdas Pophale) SiO2 
 PCOD8229673
Probable space group: P C C N
;
_chemical_formula_sum "Si O2"
_cell_formula_units_Z 48
_cell_length_a 8.344972
_cell_length_b 26.966556
_cell_length_c 10.029397
_cell_angle_alpha 90.000000
_cell_angle_beta 90.000000
_cell_angle_gamma 90.000000
_cell_volume 2256.966906
_symmetry_space_group_name_H-M "P C C N"
_symmetry_group_IT_number 56
_symmetry_cell_setting 'orthorhombic'
loop_
_space_group_symop_operation_xyz
x,y,z
1/2-x,1/2-y,z
1/2+x,-y,1/2-z
-x,1/2+y,1/2-z
-x,-y,-z
1/2+x,1/2+y,-z
1/2-x,y,1/2+z
x,1/2-y,1/2+z
loop_
_atom_site_type_symbol
_atom_site_label
_atom_site_fract_x
_atom_site_fract_y
_atom_site_fract_z
Si Si1 0.568951 0.737944 0.460177
Si Si2 0.374723 0.130905 0.979167
Si Si3 0.428339 0.981666 0.639074
Si Si4 0.052782 0.536382 0.115693
Si Si5 0.581528 0.879561 0.719326
Si Si6 0.089667 0.781694 0.196318
O O1 0.750000 0.750000 0.441826
O O2 0.538041 0.684119 0.525641
O O3 0.500964 0.745865 0.313881
O O4 0.492232 0.778683 0.553645
O O5 0.503490 0.092091 0.922322
O O6 0.213195 0.133921 0.892191
O O7 0.333914 0.119410 0.134754
O O8 0.242416 0.968507 0.630866
O O9 0.520850 0.933755 0.688165
O O10 0.500000 0.000000 0.500000
O O11 0.459148 0.024328 0.747849
O O12 0.000000 0.500000 0.000000
O O13 0.427696 0.841335 0.722208
O O14 0.250000 0.750000 0.185834
#
# Coordination Sequence:
#
# PCOD8229673 Si02
#       6
#     8   8   8   8   8   8
#     4  11  23  45  69  99 136 187 235 288 355 419
#     4  11  25  43  72 102 140 179 238 291 353 436
#     4  12  27  46  73 100 143 187 235 297 353 422
#     4  12  25  48  69 100 140 182 237 291 354 419
#     4  11  25  46  70 107 137 186 236 288 367 419
#     4  11  25  44  69 100 146 181 237 293 347 419
#
# _framework density 21.267481
#
# number of rings (size 3 to 8) (size 9 to 14) (size 15 to 20)
#    0.000    0.667    3.333    4.000    7.000    0.000 
#    0.000    0.000    0.000    0.000    0.000    0.000 
#    0.000    0.000    0.000    0.000    0.000    0.000 
#
# Total GULP energy -594894.130447 kJ/mol
# GULP energy per Si atom -12393.627718 kJ/mol
# Density = 2.121908 g / cm^3
# Si number density = 21.267481 Si / 1000 Ang^3
#
#
#
# Elastic Constant Matrix: (Units=GPa)
#
#
# Indices 1 2 3 4 5 6 
#
# 1 114.6299 17.6823 31.7351 0.0000 0.0000 0.0000
# 2 17.6823 84.6884 31.1029 0.0000 0.0000 0.0000
# 3 31.7351 31.1029 146.6744 0.0000 0.0000 0.0000
# 4 0.0000 0.0000 0.0000 43.6032 0.0000 0.0000
# 5 0.0000 0.0000 0.0000 0.0000 33.6752 0.0000
# 6 0.0000 0.0000 0.0000 0.0000 0.0000 35.7534
#
#
#
# Elastic Compliance Matrix: (Units=1/GPa)
#
#
# Indices 1 2 3 4 5 6 
#
# 1 0.009414 -0.001320 -0.001757 0.000000 0.000000 0.000000
# 2 -0.001320 0.012990 -0.002469 0.000000 0.000000 0.000000
# 3 -0.001757 -0.002469 0.007721 0.000000 0.000000 0.000000
# 4 0.000000 0.000000 0.000000 0.022934 0.000000 0.000000
# 5 0.000000 0.000000 0.000000 0.000000 0.029695 0.000000
# 6 0.000000 0.000000 0.000000 0.000000 0.000000 0.027969
#
#
# Mechanical properties :
#
#
# Convention : Reuss Voigt Hill
#
# Bulk Modulus (GPa) = 52.53914 56.33703 54.43808
# Shear Modulus (GPa) = 39.01330 40.30451 39.65891
#
# Velocity S-wave (km/s) = 4.28765 4.35802 4.32298
# Velocity P-wave (km/s) = 7.01923 7.20211 7.11126
#
# Compressibility (1/GPa) = 0.01903343
#
# Stress axis : x y z
#
# Youngs Moduli (GPa) = 106.22742 76.97971 129.50855
#
# Poissons Ratio (x) = 0.10164 0.22752
# Poissons Ratio (y) = 0.14025 0.31976
# Poissons Ratio (z) = 0.18662 0.19006
#
# Static dielectric constant tensor:
#      x y z
#    x 3.780640 0.000000 0.000000 
#    y 0.000000 3.896130 0.000000 
#    z 0.000000 0.000000 5.038560 
# 
# 
# High freq. dielectric constant tensor:
#      x y z
#    x 1.825030 0.000000 0.000000 
#    y 0.000000 1.848390 0.000000 
#    z 0.000000 0.000000 1.860110 
# 
# From -- ./inp_files/2225.got.cif
#   From: 2010.03.12/outbox.cif.g09.slc.cpg/sg56_2_cif.got.tgz:2225.got - 2010.04.16 15:33:40.
