data_PCOD8229250
_publ_section_title
;
Structure prediction by ZEFSAII (Michael W. Deem and Ramdas Pophale) SiO2 
 PCOD8229250
Probable space group: P C C N
;
_chemical_formula_sum "Si O2"
_cell_formula_units_Z 36
_cell_length_a 15.340819
_cell_length_b 5.221717
_cell_length_c 18.127213
_cell_angle_alpha 90.000000
_cell_angle_beta 90.000000
_cell_angle_gamma 90.000000
_cell_volume 1452.087927
_symmetry_space_group_name_H-M "P C C N"
_symmetry_group_IT_number 56
_symmetry_cell_setting 'orthorhombic'
loop_
_space_group_symop_operation_xyz
x,y,z
1/2-x,1/2-y,z
1/2+x,-y,1/2-z
-x,1/2+y,1/2-z
-x,-y,-z
1/2+x,1/2+y,-z
1/2-x,y,1/2+z
x,1/2-y,1/2+z
loop_
_atom_site_type_symbol
_atom_site_label
_atom_site_fract_x
_atom_site_fract_y
_atom_site_fract_z
Si Si1 0.163804 0.111849 0.256259
Si Si2 0.600906 0.979355 0.511281
Si Si3 0.083492 0.975602 0.405496
Si Si4 0.250000 0.750000 0.644397
Si Si5 0.385950 0.355429 0.615841
O O1 0.250000 0.250000 0.289182
O O2 0.109858 0.312754 0.204436
O O3 0.106511 0.979193 0.319137
O O4 0.185569 0.896895 0.198181
O O5 0.621713 0.738174 0.563355
O O6 0.640401 0.907958 0.429964
O O7 0.500000 0.000000 0.500000
O O8 0.632235 0.240111 0.552045
O O9 0.978554 0.958250 0.414386
O O10 0.311508 0.563430 0.595313
#
# Coordination Sequence:
#
# PCOD8229250 Si02
#       5
#     8   8   8   4   8
#     4  10  25  44  67 102 144 184 235 292 350 420
#     4  10  23  43  69 106 140 177 233 297 344 419
#     4  11  25  42  76 102 141 183 238 291 354 417
#     4  10  24  42  68  96 150 176 238 292 348 426
#     4  10  23  41  72 103 139 190 237 288 357 423
#
# _framework density 24.791886000000002
#
# number of rings (size 3 to 8) (size 9 to 14) (size 15 to 20)
#    0.000    1.778    0.000    2.667   18.667    0.000 
#    0.000    4.444    0.000    0.000    0.000    0.000 
#    0.000    0.000    0.000    0.000    0.000    0.000 
#
# Total GULP energy -446077.624890 kJ/mol
# GULP energy per Si atom -12391.045136 kJ/mol
# Density = 2.473546 g / cm^3
# Si number density = 24.791886 Si / 1000 Ang^3
#
#
#
# Elastic Constant Matrix: (Units=GPa)
#
#
# Indices 1 2 3 4 5 6 
#
# 1 66.6166 33.0043 42.7642 0.0000 0.0000 0.0000
# 2 33.0043 155.9400 56.9786 0.0000 0.0000 0.0000
# 3 42.7642 56.9786 145.3416 0.0000 0.0000 0.0000
# 4 0.0000 0.0000 0.0000 16.4554 0.0000 0.0000
# 5 0.0000 0.0000 0.0000 0.0000 18.3115 0.0000
# 6 0.0000 0.0000 0.0000 0.0000 0.0000 30.1382
#
#
#
# Elastic Compliance Matrix: (Units=1/GPa)
#
#
# Indices 1 2 3 4 5 6 
#
# 1 0.019209 -0.002335 -0.004736 0.000000 0.000000 0.000000
# 2 -0.002335 0.007769 -0.002359 0.000000 0.000000 0.000000
# 3 -0.004736 -0.002359 0.009199 0.000000 0.000000 0.000000
# 4 0.000000 0.000000 0.000000 0.060770 0.000000 0.000000
# 5 0.000000 0.000000 0.000000 0.000000 0.054611 0.000000
# 6 0.000000 0.000000 0.000000 0.000000 0.000000 0.033180
#
#
# Mechanical properties :
#
#
# Convention : Reuss Voigt Hill
#
# Bulk Modulus (GPa) = 57.74962 70.37693 64.06327
# Shear Modulus (GPa) = 23.88127 28.65774 26.26951
#
# Velocity S-wave (km/s) = 3.10703 3.40359 3.25868
# Velocity P-wave (km/s) = 6.01796 6.62530 6.32892
#
# Compressibility (1/GPa) = 0.01731613
#
# Stress axis : x y z
#
# Youngs Moduli (GPa) = 52.06007 128.72193 108.71203
#
# Poissons Ratio (x) = 0.30054 0.51491
# Poissons Ratio (y) = 0.12155 0.25641
# Poissons Ratio (z) = 0.24658 0.30360
#
# Static dielectric constant tensor:
#      x y z
#    x 4.089100 0.000000 0.000000 
#    y 0.000000 1.339010 0.000000 
#    z 0.000000 0.000000 4.996160 
# 
# 
# High freq. dielectric constant tensor:
#      x y z
#    x 1.960710 0.000000 0.000000 
#    y 0.000000 2.003550 0.000000 
#    z 0.000000 0.000000 1.993510 
# 
# From -- ./inp_files/16438.got.cif
#   From: 2010.03.12/outbox.cif.g09.slc.cpg/sg56_9_cif.got.tgz:16438.got - 2010.04.16 15:33:40.
