data_PCOD8229142
_publ_section_title
;
Structure prediction by ZEFSAII (Michael W. Deem and Ramdas Pophale) SiO2 
 PCOD8229142
Probable space group: P C C N
;
_chemical_formula_sum "Si O2"
_cell_formula_units_Z 48
_cell_length_a 6.237564
_cell_length_b 20.925809
_cell_length_c 17.359294
_cell_angle_alpha 90.000000
_cell_angle_beta 90.000000
_cell_angle_gamma 90.000000
_cell_volume 2265.840474
_symmetry_space_group_name_H-M "P C C N"
_symmetry_group_IT_number 56
_symmetry_cell_setting 'orthorhombic'
loop_
_space_group_symop_operation_xyz
x,y,z
1/2-x,1/2-y,z
1/2+x,-y,1/2-z
-x,1/2+y,1/2-z
-x,-y,-z
1/2+x,1/2+y,-z
1/2-x,y,1/2+z
x,1/2-y,1/2+z
loop_
_atom_site_type_symbol
_atom_site_label
_atom_site_fract_x
_atom_site_fract_y
_atom_site_fract_z
Si Si1 0.786680 0.488844 0.353001
Si Si2 0.131909 0.185141 0.639950
Si Si3 0.681991 0.181060 0.006772
Si Si4 0.917225 0.906493 0.960949
Si Si5 0.873323 0.911424 0.230457
Si Si6 0.088664 0.091839 0.410036
O O1 0.692723 0.528874 0.282446
O O2 0.588253 0.464173 0.404587
O O3 0.946015 0.530892 0.407035
O O4 0.917696 0.429173 0.319334
O O5 0.250000 0.250000 0.662237
O O6 0.293512 0.144898 0.589029
O O7 0.067549 0.149768 0.718480
O O8 0.915774 0.194596 0.591194
O O9 0.750000 0.250000 0.973814
O O10 0.509062 0.156475 0.945410
O O11 0.862333 0.126063 0.012500
O O12 0.783747 0.929940 0.035138
O O13 0.676983 0.892758 0.174871
#
# Coordination Sequence:
#
# PCOD8229142 Si02
#       6
#     8   8   8   8   8   8
#     4  11  23  42  67  96 136 175 216 267 335 406
#     4  10  22  43  66  94 125 173 227 273 328 394
#     4  11  23  43  72  95 128 174 227 278 332 393
#     4  10  23  41  70  97 129 168 223 277 328 398
#     4  11  24  40  65  95 136 174 214 268 330 403
#     4  11  24  42  63  99 133 174 217 276 339 381
#
# _framework density 21.184193
#
# number of rings (size 3 to 8) (size 9 to 14) (size 15 to 20)
#    0.000    1.333    3.333    1.500    2.333    4.000 
#    6.000    0.000    0.000    0.000    0.000    0.000 
#    0.000    0.000    0.000    0.000    0.000    0.000 
#
# Total GULP energy -595275.051350 kJ/mol
# GULP energy per Si atom -12401.563570 kJ/mol
# Density = 2.113598 g / cm^3
# Si number density = 21.184193 Si / 1000 Ang^3
#
#
#
# Elastic Constant Matrix: (Units=GPa)
#
#
# Indices 1 2 3 4 5 6 
#
# 1 99.8143 48.7827 39.0314 0.0000 0.0000 0.0000
# 2 48.7827 112.9269 62.0857 0.0000 0.0000 0.0000
# 3 39.0314 62.0857 104.0314 0.0000 0.0000 0.0000
# 4 0.0000 0.0000 0.0000 28.8414 0.0000 0.0000
# 5 0.0000 0.0000 0.0000 0.0000 39.6144 0.0000
# 6 0.0000 0.0000 0.0000 0.0000 0.0000 35.0873
#
#
#
# Elastic Compliance Matrix: (Units=1/GPa)
#
#
# Indices 1 2 3 4 5 6 
#
# 1 0.013054 -0.004385 -0.002280 0.000000 0.000000 0.000000
# 2 -0.004385 0.014653 -0.007100 0.000000 0.000000 0.000000
# 3 -0.002280 -0.007100 0.014705 0.000000 0.000000 0.000000
# 4 0.000000 0.000000 0.000000 0.034672 0.000000 0.000000
# 5 0.000000 0.000000 0.000000 0.000000 0.025243 0.000000
# 6 0.000000 0.000000 0.000000 0.000000 0.000000 0.028500
#
#
# Mechanical properties :
#
#
# Convention : Reuss Voigt Hill
#
# Bulk Modulus (GPa) = 67.19920 68.50800 67.85360
# Shear Modulus (GPa) = 30.61509 31.83347 31.22428
#
# Velocity S-wave (km/s) = 3.80568 3.88067 3.84336
# Velocity P-wave (km/s) = 7.14851 7.24492 7.19688
#
# Compressibility (1/GPa) = 0.01488113
#
# Stress axis : x y z
#
# Youngs Moduli (GPa) = 76.60766 68.24631 68.00373
#
# Poissons Ratio (x) = 0.29927 0.15508
# Poissons Ratio (y) = 0.33593 0.48279
# Poissons Ratio (z) = 0.17470 0.48452
#
# Static dielectric constant tensor:
#      x y z
#    x 3.832740 0.000000 0.000000 
#    y 0.000000 3.786890 0.000000 
#    z 0.000000 0.000000 4.003320 
# 
# 
# High freq. dielectric constant tensor:
#      x y z
#    x 1.832320 0.000000 0.000000 
#    y 0.000000 1.825800 0.000000 
#    z 0.000000 0.000000 1.838990 
# 
# From -- ./inp_files/13981.got.cif
#   From: 2010.03.12/outbox.cif.g09.slc.cpg/sg56_7_cif.got.tgz:13981.got - 2010.04.16 15:33:40.
