data_PCOD8229625
_publ_section_title
;
Structure prediction by ZEFSAII (Michael W. Deem and Ramdas Pophale) SiO2 
 PCOD8229625
Probable space group: P C C N
;
_chemical_formula_sum "Si O2"
_cell_formula_units_Z 64
_cell_length_a 7.763185
_cell_length_b 29.272627
_cell_length_c 11.633738
_cell_angle_alpha 90.000000
_cell_angle_beta 90.000000
_cell_angle_gamma 90.000000
_cell_volume 2643.753219
_symmetry_space_group_name_H-M "P C C N"
_symmetry_group_IT_number 56
_symmetry_cell_setting 'orthorhombic'
loop_
_space_group_symop_operation_xyz
x,y,z
1/2-x,1/2-y,z
1/2+x,-y,1/2-z
-x,1/2+y,1/2-z
-x,-y,-z
1/2+x,1/2+y,-z
1/2-x,y,1/2+z
x,1/2-y,1/2+z
loop_
_atom_site_type_symbol
_atom_site_label
_atom_site_fract_x
_atom_site_fract_y
_atom_site_fract_z
Si Si1 0.910675 0.976781 0.842354
Si Si2 0.565688 0.833555 0.614142
Si Si3 0.053396 0.178429 0.444836
Si Si4 0.769885 0.181976 0.251073
Si Si5 0.478127 0.018466 0.126454
Si Si6 0.440753 0.573594 0.044198
Si Si7 0.076660 0.734167 0.449064
Si Si8 0.641607 0.109205 0.079780
O O1 0.713017 0.965601 0.851662
O O2 0.006308 0.937310 0.912429
O O3 0.966870 0.976757 0.709342
O O4 0.958259 0.027478 0.885028
O O5 0.769024 0.822000 0.629327
O O6 0.433327 0.811786 0.708653
O O7 0.556543 0.888444 0.607591
O O8 0.507547 0.812447 0.492617
O O9 0.892213 0.174068 0.359080
O O10 0.052657 0.223483 0.527476
O O11 0.028184 0.136104 0.533395
O O12 0.856787 0.224542 0.181616
O O13 0.761074 0.139513 0.163121
O O14 0.590960 0.063642 0.149027
O O15 0.500000 0.000000 0.000000
O O16 0.249130 0.594096 0.033879
O O17 0.250000 0.750000 0.518854
#
# Coordination Sequence:
#
# PCOD8229625 Si02
#       8
#     8   8   8   8   8   8   8   8
#     4  11  26  44  73 104 152 197 259 321 394 468
#     4  12  26  49  76 111 149 195 260 316 383 470
#     4  12  28  48  73 112 148 199 255 317 381 470
#     4  12  25  48  77 108 148 203 250 317 388 463
#     4  12  26  46  71 108 146 201 257 322 386 468
#     4  11  22  49  73 104 150 203 251 323 397 466
#     4  12  24  49  75 102 153 196 244 311 388 451
#     4  12  24  47  75 102 150 194 248 316 387 460
#
# _framework density 24.208008
#
# number of rings (size 3 to 8) (size 9 to 14) (size 15 to 20)
#    0.000    0.250    6.250    2.625    3.500    2.000 
#    9.000    0.000    0.000    0.000    0.000    0.000 
#    0.000    0.000    0.000    0.000    0.000    0.000 
#
# Total GULP energy -792998.322567 kJ/mol
# GULP energy per Si atom -12390.598790 kJ/mol
# Density = 2.415291 g / cm^3
# Si number density = 24.208008 Si / 1000 Ang^3
#
#
#
# Elastic Constant Matrix: (Units=GPa)
#
#
# Indices 1 2 3 4 5 6 
#
# 1 128.0705 21.8906 26.5835 0.0000 0.0000 0.0000
# 2 21.8906 83.3351 13.4919 0.0000 0.0000 0.0000
# 3 26.5835 13.4919 92.4447 0.0000 0.0000 0.0000
# 4 0.0000 0.0000 0.0000 29.6285 0.0000 0.0000
# 5 0.0000 0.0000 0.0000 0.0000 31.5740 0.0000
# 6 0.0000 0.0000 0.0000 0.0000 0.0000 38.4047
#
#
#
# Elastic Compliance Matrix: (Units=1/GPa)
#
#
# Indices 1 2 3 4 5 6 
#
# 1 0.008588 -0.001901 -0.002192 0.000000 0.000000 0.000000
# 2 -0.001901 0.012711 -0.001308 0.000000 0.000000 0.000000
# 3 -0.002192 -0.001308 0.011639 0.000000 0.000000 0.000000
# 4 0.000000 0.000000 0.000000 0.033751 0.000000 0.000000
# 5 0.000000 0.000000 0.000000 0.000000 0.031672 0.000000
# 6 0.000000 0.000000 0.000000 0.000000 0.000000 0.026038
#
#
# Mechanical properties :
#
#
# Convention : Reuss Voigt Hill
#
# Bulk Modulus (GPa) = 45.17849 47.53136 46.35493
# Shear Modulus (GPa) = 35.06789 36.04707 35.55748
#
# Velocity S-wave (km/s) = 3.81019 3.86301 3.83669
# Velocity P-wave (km/s) = 6.16926 6.29082 6.23034
#
# Compressibility (1/GPa) = 0.02213443
#
# Stress axis : x y z
#
# Youngs Moduli (GPa) = 116.43930 78.67236 85.92084
#
# Poissons Ratio (x) = 0.14956 0.18835
# Poissons Ratio (y) = 0.22136 0.11242
# Poissons Ratio (z) = 0.25526 0.10294
#
# Static dielectric constant tensor:
#      x y z
#    x 4.345560 0.000000 0.000000 
#    y 0.000000 4.518100 0.000000 
#    z 0.000000 0.000000 4.285330 
# 
# 
# High freq. dielectric constant tensor:
#      x y z
#    x 1.953830 0.000000 0.000000 
#    y 0.000000 1.971860 0.000000 
#    z 0.000000 0.000000 1.954440 
# 
# From -- ./inp_files/6616.got.cif
#   From: 2010.03.12/outbox.cif.g09.slc.cpg/sg56_4_cif.got.tgz:6616.got - 2010.04.16 15:33:40.
