data_PCOD8229238
_publ_section_title
;
Structure prediction by ZEFSAII (Michael W. Deem and Ramdas Pophale) SiO2 
 PCOD8229238
Probable space group: P C C N
;
_chemical_formula_sum "Si O2"
_cell_formula_units_Z 56
_cell_length_a 8.247049
_cell_length_b 14.888660
_cell_length_c 21.675768
_cell_angle_alpha 90.000000
_cell_angle_beta 90.000000
_cell_angle_gamma 90.000000
_cell_volume 2661.513549
_symmetry_space_group_name_H-M "P C C N"
_symmetry_group_IT_number 56
_symmetry_cell_setting 'orthorhombic'
loop_
_space_group_symop_operation_xyz
x,y,z
1/2-x,1/2-y,z
1/2+x,-y,1/2-z
-x,1/2+y,1/2-z
-x,-y,-z
1/2+x,1/2+y,-z
1/2-x,y,1/2+z
x,1/2-y,1/2+z
loop_
_atom_site_type_symbol
_atom_site_label
_atom_site_fract_x
_atom_site_fract_y
_atom_site_fract_z
Si Si1 0.807635 0.145277 0.384553
Si Si2 0.176723 0.913513 0.238311
Si Si3 0.750000 0.250000 0.683950
Si Si4 0.156196 0.100352 0.437898
Si Si5 0.670827 0.050684 0.496033
Si Si6 0.626978 0.975226 0.667171
Si Si7 0.468018 0.850391 0.402600
Si Si8 0.750000 0.750000 0.469808
O O1 0.750000 0.250000 0.385769
O O2 0.804327 0.103222 0.316506
O O3 0.687261 0.087252 0.427126
O O4 0.984919 0.119156 0.407305
O O5 0.163003 0.823467 0.276003
O O6 0.233077 0.990418 0.285972
O O7 0.999012 0.924435 0.210194
O O8 0.598831 0.222423 0.643161
O O9 0.161276 0.183431 0.484051
O O10 0.178313 0.010677 0.480296
O O11 0.291506 0.092043 0.383253
O O12 0.657171 0.137238 0.540552
O O13 0.500000 0.000000 0.500000
O O14 0.525088 0.054244 0.633374
O O15 0.639034 0.813001 0.426581
#
# Coordination Sequence:
#
# PCOD8229238 Si02
#       8
#     8   8   4   8   8   8   8   4
#     4  12  25  40  70 100 139 176 222 281 338 400
#     4  11  23  45  68  94 127 181 217 279 328 398
#     4  10  24  44  64  92 130 164 230 264 334 382
#     4  11  25  41  65 104 134 173 228 271 337 412
#     4  11  22  44  65  96 135 178 217 275 339 401
#     4  10  24  45  70  91 134 176 229 273 332 408
#     4  10  23  41  64  93 130 175 210 275 334 398
#     4  12  24  38  64 102 140 166 218 276 346 396
#
# _framework density 21.040659000000002
#
# number of rings (size 3 to 8) (size 9 to 14) (size 15 to 20)
#    0.000    1.143    2.143    3.857    5.000    1.143 
#    2.571    0.000    0.000    0.000    0.000    0.000 
#    0.000    0.000    0.000    0.000    0.000    0.000 
#
# Total GULP energy -693776.720173 kJ/mol
# GULP energy per Si atom -12388.870003 kJ/mol
# Density = 2.099277 g / cm^3
# Si number density = 21.040659 Si / 1000 Ang^3
#
#
#
# Elastic Constant Matrix: (Units=GPa)
#
#
# Indices 1 2 3 4 5 6 
#
# 1 93.4964 39.8361 30.8777 0.0000 0.0000 0.0000
# 2 39.8361 68.9137 37.7313 0.0000 0.0000 0.0000
# 3 30.8777 37.7313 125.1617 0.0000 0.0000 0.0000
# 4 0.0000 0.0000 0.0000 27.8776 0.0000 0.0000
# 5 0.0000 0.0000 0.0000 0.0000 34.9731 0.0000
# 6 0.0000 0.0000 0.0000 0.0000 0.0000 25.9657
#
#
#
# Elastic Compliance Matrix: (Units=1/GPa)
#
#
# Indices 1 2 3 4 5 6 
#
# 1 0.014351 -0.007614 -0.001245 0.000000 0.000000 0.000000
# 2 -0.007614 0.021419 -0.004579 0.000000 0.000000 0.000000
# 3 -0.001245 -0.004579 0.009677 0.000000 0.000000 0.000000
# 4 0.000000 0.000000 0.000000 0.035871 0.000000 0.000000
# 5 0.000000 0.000000 0.000000 0.000000 0.028593 0.000000
# 6 0.000000 0.000000 0.000000 0.000000 0.000000 0.038512
#
#
# Mechanical properties :
#
#
# Convention : Reuss Voigt Hill
#
# Bulk Modulus (GPa) = 53.84523 56.05132 54.94828
# Shear Modulus (GPa) = 27.54979 29.70507 28.62743
#
# Velocity S-wave (km/s) = 3.62243 3.76146 3.69260
# Velocity P-wave (km/s) = 6.56830 6.74997 6.65976
#
# Compressibility (1/GPa) = 0.01857175
#
# Stress axis : x y z
#
# Youngs Moduli (GPa) = 69.68220 46.68746 103.33667
#
# Poissons Ratio (x) = 0.35547 0.12867
# Poissons Ratio (y) = 0.53055 0.47314
# Poissons Ratio (z) = 0.08676 0.21376
#
# Static dielectric constant tensor:
#      x y z
#    x 3.119630 0.000000 0.000000 
#    y 0.000000 4.145380 0.000000 
#    z 0.000000 0.000000 4.479930 
# 
# 
# High freq. dielectric constant tensor:
#      x y z
#    x 1.813290 0.000000 0.000000 
#    y 0.000000 1.825100 0.000000 
#    z 0.000000 0.000000 1.854160 
# 
# From -- ./inp_files/18265.got.cif
#   From: 2010.03.12/outbox.cif.g09.slc.cpg/sg56_10_cif.got.tgz:18265.got - 2010.04.16 15:33:40.
