data_PCOD8229652
_publ_section_title
;
Structure prediction by ZEFSAII (Michael W. Deem and Ramdas Pophale) SiO2 
 PCOD8229652
Probable space group: P C C N
;
_chemical_formula_sum "Si O2"
_cell_formula_units_Z 48
_cell_length_a 21.327327
_cell_length_b 11.322576
_cell_length_c 8.854596
_cell_angle_alpha 90.000000
_cell_angle_beta 90.000000
_cell_angle_gamma 90.000000
_cell_volume 2138.210329
_symmetry_space_group_name_H-M "P C C N"
_symmetry_group_IT_number 56
_symmetry_cell_setting 'orthorhombic'
loop_
_space_group_symop_operation_xyz
x,y,z
1/2-x,1/2-y,z
1/2+x,-y,1/2-z
-x,1/2+y,1/2-z
-x,-y,-z
1/2+x,1/2+y,-z
1/2-x,y,1/2+z
x,1/2-y,1/2+z
loop_
_atom_site_type_symbol
_atom_site_label
_atom_site_fract_x
_atom_site_fract_y
_atom_site_fract_z
Si Si1 0.802234 0.428979 0.093434
Si Si2 0.394114 0.165128 0.402233
Si Si3 0.322299 0.967974 0.246536
Si Si4 0.967101 0.115774 0.834294
Si Si5 0.599340 0.276694 0.120333
Si Si6 0.112141 0.400246 0.733116
O O1 0.731311 0.410397 0.147854
O O2 0.841133 0.308193 0.094164
O O3 0.829566 0.523350 0.210875
O O4 0.800988 0.480803 0.925252
O O5 0.461825 0.103884 0.386939
O O6 0.370963 0.160132 0.574360
O O7 0.402023 0.300795 0.356469
O O8 0.342725 0.098262 0.300868
O O9 0.381101 0.879467 0.263035
O O10 0.959031 0.204077 0.691351
O O11 0.948382 0.984070 0.783622
O O12 0.920908 0.162730 0.964583
#
# Coordination Sequence:
#
# PCOD8229652 Si02
#       6
#     8   8   8   8   8   8
#     4  11  26  44  70 102 142 181 243 291 358 427
#     4  12  25  43  72  98 148 189 241 291 358 426
#     4  12  25  43  69 103 138 190 230 298 356 423
#     4  11  24  43  70 106 145 185 238 297 360 431
#     4  11  23  42  71 103 142 183 232 296 364 417
#     4  11  25  45  67 102 137 192 237 291 352 423
#
# _framework density 22.44868
#
# number of rings (size 3 to 8) (size 9 to 14) (size 15 to 20)
#    0.000    0.667    3.333    4.000    4.667    2.000 
#    0.000    7.500    0.000    0.000    0.000    0.000 
#    0.000    0.000    0.000    0.000    0.000    0.000 
#
# Total GULP energy -595500.961267 kJ/mol
# GULP energy per Si atom -12406.270026 kJ/mol
# Density = 2.239759 g / cm^3
# Si number density = 22.448680 Si / 1000 Ang^3
#
#
#
# Elastic Constant Matrix: (Units=GPa)
#
#
# Indices 1 2 3 4 5 6 
#
# 1 78.0709 14.9206 23.0038 0.0000 0.0000 0.0000
# 2 14.9206 106.7591 49.9394 0.0000 0.0000 0.0000
# 3 23.0038 49.9394 122.9624 0.0000 0.0000 0.0000
# 4 0.0000 0.0000 0.0000 44.0470 0.0000 0.0000
# 5 0.0000 0.0000 0.0000 0.0000 31.4036 0.0000
# 6 0.0000 0.0000 0.0000 0.0000 0.0000 23.8613
#
#
#
# Elastic Compliance Matrix: (Units=1/GPa)
#
#
# Indices 1 2 3 4 5 6 
#
# 1 0.013623 -0.000879 -0.002192 0.000000 0.000000 0.000000
# 2 -0.000879 0.011620 -0.004555 0.000000 0.000000 0.000000
# 3 -0.002192 -0.004555 0.010393 0.000000 0.000000 0.000000
# 4 0.000000 0.000000 0.000000 0.022703 0.000000 0.000000
# 5 0.000000 0.000000 0.000000 0.000000 0.031844 0.000000
# 6 0.000000 0.000000 0.000000 0.000000 0.000000 0.041909
#
#
# Mechanical properties :
#
#
# Convention : Reuss Voigt Hill
#
# Bulk Modulus (GPa) = 49.05630 53.72446 51.39038
# Shear Modulus (GPa) = 32.43873 34.52428 33.48150
#
# Velocity S-wave (km/s) = 3.80546 3.92589 3.86614
# Velocity P-wave (km/s) = 6.41941 6.67339 6.54763
#
# Compressibility (1/GPa) = 0.02038474
#
# Stress axis : x y z
#
# Youngs Moduli (GPa) = 73.40754 86.05515 96.22264
#
# Poissons Ratio (x) = 0.07562 0.21089
# Poissons Ratio (y) = 0.06450 0.43830
# Poissons Ratio (z) = 0.16088 0.39199
#
# Static dielectric constant tensor:
#      x y z
#    x 3.835100 0.000000 0.000000 
#    y 0.000000 4.076070 0.000000 
#    z 0.000000 0.000000 4.054690 
# 
# 
# High freq. dielectric constant tensor:
#      x y z
#    x 1.874210 0.000000 0.000000 
#    y 0.000000 1.894790 0.000000 
#    z 0.000000 0.000000 1.894010 
# 
# From -- ./inp_files/4739.got.cif
#   From: 2010.03.12/outbox.cif.g09.slc.cpg/sg56_3_cif.got.tgz:4739.got - 2010.04.16 15:33:40.
