data_PCOD8229204
_publ_section_title
;
Structure prediction by ZEFSAII (Michael W. Deem and Ramdas Pophale) SiO2 
 PCOD8229204
Probable space group: P C C N
;
_chemical_formula_sum "Si O2"
_cell_formula_units_Z 64
_cell_length_a 5.213170
_cell_length_b 17.954587
_cell_length_c 30.614819
_cell_angle_alpha 90.000000
_cell_angle_beta 90.000000
_cell_angle_gamma 90.000000
_cell_volume 2865.556681
_symmetry_space_group_name_H-M "P C C N"
_symmetry_group_IT_number 56
_symmetry_cell_setting 'orthorhombic'
loop_
_space_group_symop_operation_xyz
x,y,z
1/2-x,1/2-y,z
1/2+x,-y,1/2-z
-x,1/2+y,1/2-z
-x,-y,-z
1/2+x,1/2+y,-z
1/2-x,y,1/2+z
x,1/2-y,1/2+z
loop_
_atom_site_type_symbol
_atom_site_label
_atom_site_fract_x
_atom_site_fract_y
_atom_site_fract_z
Si Si1 0.001102 0.552943 0.293603
Si Si2 0.737337 0.115984 0.049289
Si Si3 0.212025 0.595042 0.711800
Si Si4 0.109904 0.887354 0.354516
Si Si5 0.382366 0.450605 0.927736
Si Si6 0.893614 0.675228 0.773612
Si Si7 0.778102 0.835710 0.997810
Si Si8 0.895876 0.044814 0.370767
O O1 0.966482 0.468644 0.310264
O O2 0.201959 0.548988 0.254310
O O3 0.108815 0.591556 0.337201
O O4 0.775306 0.601383 0.272107
O O5 0.639414 0.142938 0.096769
O O6 0.496188 0.131022 0.017420
O O7 0.994190 0.162499 0.038310
O O8 0.817470 0.029134 0.048865
O O9 0.087289 0.669807 0.731755
O O10 0.394371 0.606202 0.669547
O O11 0.017962 0.821432 0.321901
O O12 0.917600 0.959305 0.352178
O O13 0.658345 0.450759 0.904235
O O14 0.156114 0.432572 0.894408
O O15 0.388503 0.384955 0.962893
O O16 0.750000 0.750000 0.763666
O O17 0.750000 0.750000 0.012528
#
# Coordination Sequence:
#
# PCOD8229204 Si02
#       8
#     8   8   8   8   8   8   8   8
#     4  11  20  37  65  88 129 176 219 273 320 382
#     4  11  23  42  71 101 129 174 224 273 319 405
#     4  11  20  36  65  96 120 173 235 269 318 391
#     4  10  23  38  62  98 131 168 223 273 331 395
#     4  11  24  43  72 100 133 166 225 283 336 385
#     4  11  25  40  60  92 141 182 216 277 341 388
#     4  12  26  46  68  98 138 177 214 267 345 410
#     4  11  22  39  71 103 123 171 224 295 320 381
#
# _framework density 22.334229000000001
#
# number of rings (size 3 to 8) (size 9 to 14) (size 15 to 20)
#    0.000    1.000    2.500    5.625    3.500    2.500 
#    2.250    0.625    2.750    0.000    0.000    0.000 
#    0.000    0.000    0.000    0.000    0.000    0.000 
#
# Total GULP energy -792909.270842 kJ/mol
# GULP energy per Si atom -12389.207357 kJ/mol
# Density = 2.228340 g / cm^3
# Si number density = 22.334229 Si / 1000 Ang^3
#
#
#
# Elastic Constant Matrix: (Units=GPa)
#
#
# Indices 1 2 3 4 5 6 
#
# 1 95.6592 13.3465 15.8854 0.0000 0.0000 0.0000
# 2 13.3465 76.7149 29.1640 0.0000 0.0000 0.0000
# 3 15.8854 29.1640 72.7527 0.0000 0.0000 0.0000
# 4 0.0000 0.0000 0.0000 17.6530 0.0000 0.0000
# 5 0.0000 0.0000 0.0000 0.0000 19.5972 0.0000
# 6 0.0000 0.0000 0.0000 0.0000 0.0000 22.6791
#
#
#
# Elastic Compliance Matrix: (Units=1/GPa)
#
#
# Indices 1 2 3 4 5 6 
#
# 1 0.010936 -0.001174 -0.001917 0.000000 0.000000 0.000000
# 2 -0.001174 0.015505 -0.005959 0.000000 0.000000 0.000000
# 3 -0.001917 -0.005959 0.016553 0.000000 0.000000 0.000000
# 4 0.000000 0.000000 0.000000 0.056648 0.000000 0.000000
# 5 0.000000 0.000000 0.000000 0.000000 0.051028 0.000000
# 6 0.000000 0.000000 0.000000 0.000000 0.000000 0.044093
#
#
# Mechanical properties :
#
#
# Convention : Reuss Voigt Hill
#
# Bulk Modulus (GPa) = 40.17162 40.21319 40.19241
# Shear Modulus (GPa) = 22.60803 24.43458 23.52130
#
# Velocity S-wave (km/s) = 3.18505 3.31122 3.24875
# Velocity P-wave (km/s) = 5.61709 5.71517 5.66634
#
# Compressibility (1/GPa) = 0.02489319
#
# Stress axis : x y z
#
# Youngs Moduli (GPa) = 91.44172 64.49583 60.41330
#
# Poissons Ratio (x) = 0.07570 0.11583
# Poissons Ratio (y) = 0.10732 0.36001
# Poissons Ratio (z) = 0.17533 0.38434
#
# Static dielectric constant tensor:
#      x y z
#    x 4.363490 0.000000 0.000000 
#    y 0.000000 3.724700 0.000000 
#    z 0.000000 0.000000 4.244380 
# 
# 
# High freq. dielectric constant tensor:
#      x y z
#    x 1.897330 0.000000 0.000000 
#    y 0.000000 1.842580 0.000000 
#    z 0.000000 0.000000 1.890750 
# 
# From -- ./inp_files/22989.got.cif
#   From: 2010.03.12/outbox.cif.g09.slc.cpg/sg56_12_cif.got.tgz:22989.got - 2010.04.16 15:33:40.
