data_PCOD8229962
_publ_section_title
;
Structure prediction by ZEFSAII (Michael W. Deem and Ramdas Pophale) SiO2 
 PCOD8229962
Probable space group: P B C M
;
_chemical_formula_sum "Si O2"
_cell_formula_units_Z 48
_cell_length_a 31.517293
_cell_length_b 9.166311
_cell_length_c 8.658032
_cell_angle_alpha 90.000000
_cell_angle_beta 90.000000
_cell_angle_gamma 90.000000
_cell_volume 2501.282151
_symmetry_space_group_name_H-M "P B C M"
_symmetry_group_IT_number 57
_symmetry_cell_setting 'orthorhombic'
loop_
_space_group_symop_operation_xyz
x,y,z
-x,-y,1/2+z
x,1/2-y,-z
-x,1/2+y,1/2-z
-x,-y,-z
x,y,1/2-z
-x,1/2+y,z
x,1/2-y,1/2+z
loop_
_atom_site_type_symbol
_atom_site_label
_atom_site_fract_x
_atom_site_fract_y
_atom_site_fract_z
Si Si1 0.624551 0.912460 0.567143
Si Si2 0.879347 0.408696 0.932170
Si Si3 0.707828 0.590565 0.930473
Si Si4 0.038763 0.410634 0.067420
Si Si5 0.538858 0.588528 0.566485
Si Si6 0.199155 0.409367 0.069520
O O1 0.627567 0.750000 0.500000
O O2 0.619845 0.912146 0.750000
O O3 0.668416 0.993531 0.514730
O O4 0.582790 0.986846 0.492037
O O5 0.877231 0.393431 0.750000
O O6 0.918102 0.510316 0.984521
O O7 0.836001 0.480459 0.998330
O O8 0.886039 0.250000 0.000000
O O9 0.697440 0.598810 0.750000
O O10 0.754085 0.519563 0.963344
O O11 0.711443 0.750000 0.000000
O O12 0.034261 0.402436 0.250000
O O13 0.038808 0.250000 0.000000
O O14 0.000000 0.500000 0.000000
O O15 0.536031 0.750000 0.500000
O O16 0.500000 0.500000 0.500000
O O17 0.537390 0.590971 0.750000
O O18 0.192245 0.388436 0.250000
O O19 0.193246 0.250000 0.000000
#
# Coordination Sequence:
#
# PCOD8229962 Si02
#       6
#     8   8   8   8   8   8
#     4  10  17  27  44  69  99 131 168 211 257 309
#     4  10  22  38  55  78 107 142 180 220 262 312
#     4   9  15  25  43  68  97 127 160 205 256 307
#     4  11  23  39  60  85 114 145 182 224 271 321
#     4  11  21  35  53  76 104 137 175 217 265 317
#     4   9  18  32  51  76 104 132 168 211 259 310
#
# _framework density 19.190159999999999
#
# number of rings (size 3 to 8) (size 9 to 14) (size 15 to 20)
#    0.000    2.000    0.000    7.000    0.000    4.000 
#    0.000    0.000    0.000    1.000    0.000    4.667 
#    0.000    0.000    0.000    0.000    0.000    0.000 
#
# Total GULP energy -594916.733249 kJ/mol
# GULP energy per Si atom -12394.098609 kJ/mol
# Density = 1.914648 g / cm^3
# Si number density = 19.190160 Si / 1000 Ang^3
#
#
#
# Elastic Constant Matrix: (Units=GPa)
#
#
# Indices 1 2 3 4 5 6 
#
# 1 213.5282 70.3132 73.1746 0.0000 0.0000 0.0000
# 2 70.3132 91.0638 35.3071 0.0000 0.0000 0.0000
# 3 73.1746 35.3071 117.9469 0.0000 0.0000 0.0000
# 4 0.0000 0.0000 0.0000 25.1304 0.0000 0.0000
# 5 0.0000 0.0000 0.0000 0.0000 31.8795 0.0000
# 6 0.0000 0.0000 0.0000 0.0000 0.0000 29.8128
#
#
#
# Elastic Compliance Matrix: (Units=1/GPa)
#
#
# Indices 1 2 3 4 5 6 
#
# 1 0.007193 -0.004326 -0.003168 0.000000 0.000000 0.000000
# 2 -0.004326 0.015025 -0.001814 0.000000 0.000000 0.000000
# 3 -0.003168 -0.001814 0.010987 0.000000 0.000000 0.000000
# 4 0.000000 0.000000 0.000000 0.039792 0.000000 0.000000
# 5 0.000000 0.000000 0.000000 0.000000 0.031368 0.000000
# 6 0.000000 0.000000 0.000000 0.000000 0.000000 0.033543
#
#
# Mechanical properties :
#
#
# Convention : Reuss Voigt Hill
#
# Bulk Modulus (GPa) = 68.54174 86.68098 77.61136
# Shear Modulus (GPa) = 30.98158 33.61413 32.29785
#
# Velocity S-wave (km/s) = 4.02238 4.18979 4.10694
# Velocity P-wave (km/s) = 7.57413 8.28694 7.93854
#
# Compressibility (1/GPa) = 0.01458965
#
# Stress axis : x y z
#
# Youngs Moduli (GPa) = 139.01809 66.55678 91.01962
#
# Poissons Ratio (x) = 0.28792 0.28833
# Poissons Ratio (y) = 0.60139 0.16509
# Poissons Ratio (z) = 0.44038 0.12072
#
# Static dielectric constant tensor:
#      x y z
#    x 5.137740 0.000000 0.000000 
#    y 0.000000 3.315080 0.000000 
#    z 0.000000 0.000000 3.584810 
# 
# 
# High freq. dielectric constant tensor:
#      x y z
#    x 1.783800 0.000000 0.000000 
#    y 0.000000 1.694200 0.000000 
#    z 0.000000 0.000000 1.756410 
# 
# From -- ./inp_files/10085.got.cif
#   From: 2010.03.12/outbox.cif.g09.slc.cpg/sg57_6_cif.got.tgz:10085.got - 2010.04.16 15:48:40.
