data_PCOD8229042
_publ_section_title
;
Structure prediction by ZEFSAII (Michael W. Deem and Ramdas Pophale) SiO2 
 PCOD8229042
Probable space group: P C C N
;
_chemical_formula_sum "Si O2"
_cell_formula_units_Z 60
_cell_length_a 19.343666
_cell_length_b 16.030777
_cell_length_c 8.849097
_cell_angle_alpha 90.000000
_cell_angle_beta 90.000000
_cell_angle_gamma 90.000000
_cell_volume 2744.051850
_symmetry_space_group_name_H-M "P C C N"
_symmetry_group_IT_number 56
_symmetry_cell_setting 'orthorhombic'
loop_
_space_group_symop_operation_xyz
x,y,z
1/2-x,1/2-y,z
1/2+x,-y,1/2-z
-x,1/2+y,1/2-z
-x,-y,-z
1/2+x,1/2+y,-z
1/2-x,y,1/2+z
x,1/2-y,1/2+z
loop_
_atom_site_type_symbol
_atom_site_label
_atom_site_fract_x
_atom_site_fract_y
_atom_site_fract_z
Si Si1 0.989199 0.940838 0.803415
Si Si2 0.672586 0.657867 0.228128
Si Si3 0.750000 0.750000 0.979267
Si Si4 0.400640 0.688124 0.301857
Si Si5 0.472721 0.123246 0.379547
Si Si6 0.394338 0.650315 0.636868
Si Si7 0.840124 0.012985 0.734261
Si Si8 0.293278 0.500963 0.594773
O O1 0.033925 0.896504 0.674609
O O2 0.911441 0.962697 0.751838
O O3 0.986949 0.874956 0.941119
O O4 0.030233 0.025378 0.839648
O O5 0.688381 0.718352 0.370418
O O6 0.596533 0.672545 0.163175
O O7 0.674761 0.564159 0.288121
O O8 0.724441 0.674709 0.087296
O O9 0.470526 0.673549 0.211269
O O10 0.412934 0.693393 0.479390
O O11 0.370603 0.777586 0.252439
O O12 0.348915 0.612329 0.268702
O O13 0.328868 0.589058 0.631931
O O14 0.789401 0.998725 0.876161
O O15 0.805669 0.978856 0.580308
#
# Coordination Sequence:
#
# PCOD8229042 Si02
#       8
#     8   8   4   8   8   8   8   8
#     4  10  22  41  66  96 127 171 215 268 320 388
#     4  11  23  45  62  95 123 175 209 269 316 393
#     4  10  26  42  64  88 136 158 216 264 328 374
#     4  10  24  42  64 100 133 169 222 269 337 387
#     4  10  22  40  66  93 128 167 215 267 319 387
#     4  11  23  43  68  96 133 175 217 275 325 393
#     4  10  25  41  66 100 131 174 219 274 327 392
#     4  11  24  42  70  95 130 175 221 269 325 393
#
# _framework density 21.865476000000001
#
# number of rings (size 3 to 8) (size 9 to 14) (size 15 to 20)
#    0.000    1.600    1.333    1.600    5.600    6.400 
#    2.400    2.667    0.000    0.000    0.000    0.000 
#    0.000    0.000    0.000    0.000    0.000    0.000 
#
# Total GULP energy -743887.016938 kJ/mol
# GULP energy per Si atom -12398.116949 kJ/mol
# Density = 2.181571 g / cm^3
# Si number density = 21.865476 Si / 1000 Ang^3
#
#
#
# Elastic Constant Matrix: (Units=GPa)
#
#
# Indices 1 2 3 4 5 6 
#
# 1 89.7522 -5.1483 30.0438 0.0000 0.0000 0.0000
# 2 -5.1483 57.8752 17.1534 0.0000 0.0000 0.0000
# 3 30.0438 17.1534 118.1838 0.0000 0.0000 0.0000
# 4 0.0000 0.0000 0.0000 38.3557 0.0000 0.0000
# 5 0.0000 0.0000 0.0000 0.0000 36.3279 0.0000
# 6 0.0000 0.0000 0.0000 0.0000 0.0000 22.4274
#
#
#
# Elastic Compliance Matrix: (Units=1/GPa)
#
#
# Indices 1 2 3 4 5 6 
#
# 1 0.012425 0.002133 -0.003468 0.000000 0.000000 0.000000
# 2 0.002133 0.018422 -0.003216 0.000000 0.000000 0.000000
# 3 -0.003468 -0.003216 0.009810 0.000000 0.000000 0.000000
# 4 0.000000 0.000000 0.000000 0.026072 0.000000 0.000000
# 5 0.000000 0.000000 0.000000 0.000000 0.027527 0.000000
# 6 0.000000 0.000000 0.000000 0.000000 0.000000 0.044588
#
#
# Mechanical properties :
#
#
# Convention : Reuss Voigt Hill
#
# Bulk Modulus (GPa) = 31.69133 38.87879 35.28506
# Shear Modulus (GPa) = 31.55295 34.33968 32.94632
#
# Velocity S-wave (km/s) = 3.80287 3.96725 3.88593
# Velocity P-wave (km/s) = 5.81444 6.22936 6.02547
#
# Compressibility (1/GPa) = 0.03155437
#
# Stress axis : x y z
#
# Youngs Moduli (GPa) = 80.48213 54.28437 101.93845
#
# Poissons Ratio (x) = -0.11580 0.35355
# Poissons Ratio (y) = -0.17169 0.32784
# Poissons Ratio (z) = 0.27913 0.17458
#
# Static dielectric constant tensor:
#      x y z
#    x 3.751940 0.000000 0.000000 
#    y 0.000000 3.930510 0.000000 
#    z 0.000000 0.000000 4.112770 
# 
# 
# High freq. dielectric constant tensor:
#      x y z
#    x 1.851210 0.000000 0.000000 
#    y 0.000000 1.861690 0.000000 
#    z 0.000000 0.000000 1.872360 
# 
# From -- ./inp_files/4120.got.cif
#   From: 2010.03.12/outbox.cif.g09.slc.cpg/sg56_3_cif.got.tgz:4120.got - 2010.04.16 15:33:40.
