data_PCOD8229451
_publ_section_title
;
Structure prediction by ZEFSAII (Michael W. Deem and Ramdas Pophale) SiO2 
 PCOD8229451
Probable space group: P C C N
;
_chemical_formula_sum "Si O2"
_cell_formula_units_Z 40
_cell_length_a 17.199757
_cell_length_b 5.751060
_cell_length_c 18.470082
_cell_angle_alpha 90.000000
_cell_angle_beta 90.000000
_cell_angle_gamma 90.000000
_cell_volume 1827.002044
_symmetry_space_group_name_H-M "P C C N"
_symmetry_group_IT_number 56
_symmetry_cell_setting 'orthorhombic'
loop_
_space_group_symop_operation_xyz
x,y,z
1/2-x,1/2-y,z
1/2+x,-y,1/2-z
-x,1/2+y,1/2-z
-x,-y,-z
1/2+x,1/2+y,-z
1/2-x,y,1/2+z
x,1/2-y,1/2+z
loop_
_atom_site_type_symbol
_atom_site_label
_atom_site_fract_x
_atom_site_fract_y
_atom_site_fract_z
Si Si1 0.676649 0.097498 0.419727
Si Si2 0.567244 0.606120 0.169100
Si Si3 0.790546 0.993949 0.076051
Si Si4 0.416157 0.303876 0.180487
Si Si5 0.534117 0.081671 0.925291
O O1 0.750000 0.250000 0.396779
O O2 0.695926 0.945777 0.490790
O O3 0.599550 0.232468 0.443787
O O4 0.656331 0.958242 0.346437
O O5 0.630565 0.471828 0.121380
O O6 0.496884 0.438661 0.191240
O O7 0.607375 0.691780 0.243233
O O8 0.536041 0.822394 0.123167
O O9 0.750000 0.250000 0.085721
O O10 0.750000 0.750000 0.103640
O O11 0.424216 0.123164 0.116283
O O12 0.500000 0.000000 0.000000
#
# Coordination Sequence:
#
# PCOD8229451 Si02
#       5
#     8   8   8   8   8
#     4  10  25  44  69 104 141 185 244 303 361 433
#     4  11  24  44  68 104 141 184 244 298 367 441
#     4  11  27  47  73 104 146 194 241 303 365 439
#     4  11  23  43  71 101 141 188 235 306 362 435
#     4  11  23  41  75 101 133 189 239 297 354 430
#
# _framework density 21.893792000000001
#
# number of rings (size 3 to 8) (size 9 to 14) (size 15 to 20)
#    0.000    1.200    2.000    2.400   14.000    3.200 
#    3.600    0.000    0.000    0.000    0.000    0.000 
#    0.000    0.000    0.000    0.000    0.000    0.000 
#
# Total GULP energy -495865.328854 kJ/mol
# GULP energy per Si atom -12396.633221 kJ/mol
# Density = 2.184396 g / cm^3
# Si number density = 21.893792 Si / 1000 Ang^3
#
#
#
# Elastic Constant Matrix: (Units=GPa)
#
#
# Indices 1 2 3 4 5 6 
#
# 1 92.5512 26.8557 47.3531 0.0000 0.0000 0.0000
# 2 26.8557 94.7865 30.3965 0.0000 0.0000 0.0000
# 3 47.3531 30.3965 112.3064 0.0000 0.0000 0.0000
# 4 0.0000 0.0000 0.0000 37.0177 0.0000 0.0000
# 5 0.0000 0.0000 0.0000 0.0000 11.0992 0.0000
# 6 0.0000 0.0000 0.0000 0.0000 0.0000 12.5459
#
#
#
# Elastic Compliance Matrix: (Units=1/GPa)
#
#
# Indices 1 2 3 4 5 6 
#
# 1 0.014223 -0.002307 -0.005373 0.000000 0.000000 0.000000
# 2 -0.002307 0.011927 -0.002255 0.000000 0.000000 0.000000
# 3 -0.005373 -0.002255 0.011780 0.000000 0.000000 0.000000
# 4 0.000000 0.000000 0.000000 0.027014 0.000000 0.000000
# 5 0.000000 0.000000 0.000000 0.000000 0.090097 0.000000
# 6 0.000000 0.000000 0.000000 0.000000 0.000000 0.079708
#
#
# Mechanical properties :
#
#
# Convention : Reuss Voigt Hill
#
# Bulk Modulus (GPa) = 55.37084 56.53943 55.95513
# Shear Modulus (GPa) = 19.18368 25.13515 22.15941
#
# Velocity S-wave (km/s) = 2.96331 3.39196 3.18485
# Velocity P-wave (km/s) = 6.08718 6.42036 6.25599
#
# Compressibility (1/GPa) = 0.01806005
#
# Stress axis : x y z
#
# Youngs Moduli (GPa) = 70.30809 83.84403 84.88955
#
# Poissons Ratio (x) = 0.19342 0.45609
# Poissons Ratio (y) = 0.16219 0.19146
# Poissons Ratio (z) = 0.37774 0.18910
#
# Static dielectric constant tensor:
#      x y z
#    x 3.980030 0.000000 0.000000 
#    y 0.000000 4.153440 0.000000 
#    z 0.000000 0.000000 3.865880 
# 
# 
# High freq. dielectric constant tensor:
#      x y z
#    x 1.860570 0.000000 0.000000 
#    y 0.000000 1.866420 0.000000 
#    z 0.000000 0.000000 1.868350 
# 
# From -- ./inp_files/13804.got.cif
#   From: 2010.03.12/outbox.cif.g09.slc.cpg/sg56_7_cif.got.tgz:13804.got - 2010.04.16 15:33:40.
