data_PCOD8229917
_publ_section_title
;
Structure prediction by ZEFSAII (Michael W. Deem and Ramdas Pophale) SiO2 
 PCOD8229917
Probable space group: P B C M
;
_chemical_formula_sum "Si O2"
_cell_formula_units_Z 60
_cell_length_a 19.968392
_cell_length_b 5.293096
_cell_length_c 32.933328
_cell_angle_alpha 90.000000
_cell_angle_beta 90.000000
_cell_angle_gamma 90.000000
_cell_volume 3480.875451
_symmetry_space_group_name_H-M "P B C M"
_symmetry_group_IT_number 57
_symmetry_cell_setting 'orthorhombic'
loop_
_space_group_symop_operation_xyz
x,y,z
-x,-y,1/2+z
x,1/2-y,-z
-x,1/2+y,1/2-z
-x,-y,-z
x,y,1/2-z
-x,1/2+y,z
x,1/2-y,1/2+z
loop_
_atom_site_type_symbol
_atom_site_label
_atom_site_fract_x
_atom_site_fract_y
_atom_site_fract_z
Si Si1 0.139526 0.710381 0.930931
Si Si2 0.541927 0.192100 0.750000
Si Si3 0.578078 0.298237 0.338829
Si Si4 0.367482 0.235077 0.454069
Si Si5 0.716386 0.235076 0.046234
Si Si6 0.427633 0.202371 0.872876
Si Si7 0.928067 0.794091 0.043966
Si Si8 0.976444 0.283899 0.378149
O O1 0.219275 0.732175 0.924790
O O2 0.123292 0.436197 0.949103
O O3 0.102927 0.730619 0.886564
O O4 0.114268 0.946695 0.957723
O O5 0.485437 0.407110 0.750000
O O6 0.585719 0.228425 0.709598
O O7 0.612352 0.558854 0.353539
O O8 0.501275 0.322568 0.354106
O O9 0.611831 0.053778 0.359806
O O10 0.396225 0.250000 0.500000
O O11 0.315364 0.460609 0.445867
O O12 0.428269 0.270131 0.421895
O O13 0.335468 0.961689 0.445515
O O14 0.742097 0.250000 0.000000
O O15 0.986293 0.807042 0.077693
O O16 0.962530 0.750000 0.000000
O O17 0.996727 0.538549 0.353739
#
# Coordination Sequence:
#
# PCOD8229917 Si02
#       8
#     8   4   8   8   8   8   8   8
#     4  10  18  26  36  48  63  82 112 152 193 254
#     4  12  16  30  48  78 108 118 128 144 178 234
#     4  10  19  30  50  74  94 116 129 151 187 249
#     4  10  21  34  45  56  76 105 141 188 222 240
#     4  10  19  30  42  54  66  92 133 175 222 254
#     4  10  18  32  46  65  88 111 141 165 200 244
#     4  10  17  23  32  47  65  83 101 133 189 255
#     4   8  16  24  31  45  64  83 101 130 184 252
#
# _framework density 17.237044999999998
#
# number of rings (size 3 to 8) (size 9 to 14) (size 15 to 20)
#    0.000    2.133    2.667    2.800    0.000    6.400 
#    0.000    2.667    0.000    0.000    0.000    0.000 
#    0.000    0.000    0.000    0.000    0.000    0.000 
#
# Total GULP energy -743298.407542 kJ/mol
# GULP energy per Si atom -12388.306792 kJ/mol
# Density = 1.719781 g / cm^3
# Si number density = 17.237045 Si / 1000 Ang^3
#
#
#
# Elastic Constant Matrix: (Units=GPa)
#
#
# Indices 1 2 3 4 5 6 
#
# 1 18.9383 -4.1378 7.5615 0.0000 0.0000 0.0000
# 2 -4.1378 133.8928 7.3192 0.0000 0.0000 0.0000
# 3 7.5615 7.3192 63.5878 0.0000 0.0000 0.0000
# 4 0.0000 0.0000 0.0000 14.9901 0.0000 0.0000
# 5 0.0000 0.0000 0.0000 0.0000 0.6042 0.0000
# 6 0.0000 0.0000 0.0000 0.0000 0.0000 13.6711
#
#
#
# Elastic Compliance Matrix: (Units=1/GPa)
#
#
# Indices 1 2 3 4 5 6 
#
# 1 0.056021 0.002109 -0.006904 0.000000 0.000000 0.000000
# 2 0.002109 0.007595 -0.001125 0.000000 0.000000 0.000000
# 3 -0.006904 -0.001125 0.016677 0.000000 0.000000 0.000000
# 4 0.000000 0.000000 0.000000 0.066711 0.000000 0.000000
# 5 0.000000 0.000000 0.000000 0.000000 1.655024 0.000000
# 6 0.000000 0.000000 0.000000 0.000000 0.000000 0.073147
#
#
# Mechanical properties :
#
#
# Convention : Reuss Voigt Hill
#
# Bulk Modulus (GPa) = 14.60891 26.43384 20.52138
# Shear Modulus (GPa) = 2.61803 19.56481 11.09142
#
# Velocity S-wave (km/s) = 1.23375 3.37270 2.53941
# Velocity P-wave (km/s) = 3.24395 5.52590 4.53094
#
# Compressibility (1/GPa) = 0.06845137
#
# Stress axis : x y z
#
# Youngs Moduli (GPa) = 17.85058 131.65995 59.96348
#
# Poissons Ratio (x) = -0.27763 0.41401
# Poissons Ratio (y) = -0.03764 0.06746
# Poissons Ratio (z) = 0.12325 0.14812
#
# Static dielectric constant tensor:
#      x y z
#    x 2.764020 0.000000 0.000000 
#    y 0.000000 4.813880 0.000000 
#    z 0.000000 0.000000 2.826730 
# 
# 
# High freq. dielectric constant tensor:
#      x y z
#    x 1.610770 0.000000 0.000000 
#    y 0.000000 1.716910 0.000000 
#    z 0.000000 0.000000 1.599200 
# 
# From -- ./inp_files/29979.got.cif
#   From: 2010.03.12/outbox.cif.g09.slc.cpg/sg57_15_cif.got.tgz:29979.got - 2010.04.16 15:48:40.
