data_PCOD8229463
_publ_section_title
;
Structure prediction by ZEFSAII (Michael W. Deem and Ramdas Pophale) SiO2 
 PCOD8229463
Probable space group: P C C N
;
_chemical_formula_sum "Si O2"
_cell_formula_units_Z 56
_cell_length_a 13.125349
_cell_length_b 11.205035
_cell_length_c 13.797845
_cell_angle_alpha 90.000000
_cell_angle_beta 90.000000
_cell_angle_gamma 90.000000
_cell_volume 2029.248994
_symmetry_space_group_name_H-M "P C C N"
_symmetry_group_IT_number 56
_symmetry_cell_setting 'orthorhombic'
loop_
_space_group_symop_operation_xyz
x,y,z
1/2-x,1/2-y,z
1/2+x,-y,1/2-z
-x,1/2+y,1/2-z
-x,-y,-z
1/2+x,1/2+y,-z
1/2-x,y,1/2+z
x,1/2-y,1/2+z
loop_
_atom_site_type_symbol
_atom_site_label
_atom_site_fract_x
_atom_site_fract_y
_atom_site_fract_z
Si Si1 0.843523 0.679546 0.977097
Si Si2 0.847700 0.081688 0.980920
Si Si3 0.334031 0.524315 0.660179
Si Si4 0.688627 0.961068 0.170070
Si Si5 0.511622 0.813143 0.228264
Si Si6 0.060374 0.376028 0.418389
Si Si7 0.644679 0.222343 0.130060
O O1 0.750000 0.750000 0.927543
O O2 0.800833 0.630088 0.080300
O O3 0.933615 0.773459 0.998624
O O4 0.884940 0.585548 0.898798
O O5 0.839582 0.211972 0.027421
O O6 0.849591 0.976850 0.065623
O O7 0.758219 0.070634 0.904915
O O8 0.951873 0.059074 0.923222
O O9 0.291327 0.482764 0.765919
O O10 0.420458 0.626046 0.665868
O O11 0.601948 0.908798 0.243515
O O12 0.644301 0.080088 0.118525
O O13 0.561426 0.692282 0.184072
O O14 0.459889 0.773064 0.327514
O O15 0.750000 0.250000 0.192154
#
# Coordination Sequence:
#
# PCOD8229463 Si02
#       7
#     8   8   8   8   8   8   8
#     4  11  25  49  74 110 147 198 254 318 384 461
#     4  11  26  44  77 107 151 199 250 319 384 457
#     4  12  26  50  79 111 155 207 259 313 395 454
#     4  11  28  52  74 116 154 202 265 319 384 467
#     4  11  28  47  79 106 159 200 259 320 381 461
#     4  10  25  46  71 109 146 194 258 308 384 459
#     4  12  26  46  73 112 151 195 253 314 382 458
#
# _framework density 27.596416000000001
#
# number of rings (size 3 to 8) (size 9 to 14) (size 15 to 20)
#    0.000    0.857    2.857    1.714   12.000    1.714 
#    2.571    0.000    0.000    0.000    0.000    0.000 
#    0.000    0.000    0.000    0.000    0.000    0.000 
#
# Total GULP energy -693932.631598 kJ/mol
# GULP energy per Si atom -12391.654136 kJ/mol
# Density = 2.753361 g / cm^3
# Si number density = 27.596416 Si / 1000 Ang^3
#
#
#
# Elastic Constant Matrix: (Units=GPa)
#
#
# Indices 1 2 3 4 5 6 
#
# 1 69.5325 5.0410 -11.0434 0.0000 0.0000 0.0000
# 2 5.0410 114.8178 18.7157 0.0000 0.0000 0.0000
# 3 -11.0434 18.7157 87.4874 0.0000 0.0000 0.0000
# 4 0.0000 0.0000 0.0000 17.3659 0.0000 0.0000
# 5 0.0000 0.0000 0.0000 0.0000 31.0490 0.0000
# 6 0.0000 0.0000 0.0000 0.0000 0.0000 48.6485
#
#
#
# Elastic Compliance Matrix: (Units=1/GPa)
#
#
# Indices 1 2 3 4 5 6 
#
# 1 0.014783 -0.000988 0.002077 0.000000 0.000000 0.000000
# 2 -0.000988 0.009090 -0.002069 0.000000 0.000000 0.000000
# 3 0.002077 -0.002069 0.012135 0.000000 0.000000 0.000000
# 4 0.000000 0.000000 0.000000 0.057584 0.000000 0.000000
# 5 0.000000 0.000000 0.000000 0.000000 0.032207 0.000000
# 6 0.000000 0.000000 0.000000 0.000000 0.000000 0.020556
#
#
# Mechanical properties :
#
#
# Convention : Reuss Voigt Hill
#
# Bulk Modulus (GPa) = 29.36913 33.02937 31.19925
# Shear Modulus (GPa) = 31.31570 36.68763 34.00167
#
# Velocity S-wave (km/s) = 3.37230 3.65010 3.51394
# Velocity P-wave (km/s) = 5.08219 5.45518 5.27198
#
# Compressibility (1/GPa) = 0.03404936
#
# Stress axis : x y z
#
# Youngs Moduli (GPa) = 67.64391 110.00963 82.40551
#
# Poissons Ratio (x) = 0.10865 -0.17119
# Poissons Ratio (y) = 0.06681 0.17052
# Poissons Ratio (z) = -0.14052 0.22764
#
# Static dielectric constant tensor:
#      x y z
#    x 5.413710 0.000000 0.000000 
#    y 0.000000 5.439230 0.000000 
#    z 0.000000 0.000000 4.567810 
# 
# 
# High freq. dielectric constant tensor:
#      x y z
#    x 2.130710 0.000000 0.000000 
#    y 0.000000 2.128940 0.000000 
#    z 0.000000 0.000000 2.092070 
# 
# From -- ./inp_files/12295.got.cif
#   From: 2010.03.12/outbox.cif.g09.slc.cpg/sg56_7_cif.got.tgz:12295.got - 2010.04.16 15:33:40.
