data_PCOD8229706
_publ_section_title
;
Structure prediction by ZEFSAII (Michael W. Deem and Ramdas Pophale) SiO2 
 PCOD8229706
Probable space group: P C C N
;
_chemical_formula_sum "Si O2"
_cell_formula_units_Z 40
_cell_length_a 6.066492
_cell_length_b 12.704215
_cell_length_c 22.063113
_cell_angle_alpha 90.000000
_cell_angle_beta 90.000000
_cell_angle_gamma 90.000000
_cell_volume 1700.404531
_symmetry_space_group_name_H-M "P C C N"
_symmetry_group_IT_number 56
_symmetry_cell_setting 'orthorhombic'
loop_
_space_group_symop_operation_xyz
x,y,z
1/2-x,1/2-y,z
1/2+x,-y,1/2-z
-x,1/2+y,1/2-z
-x,-y,-z
1/2+x,1/2+y,-z
1/2-x,y,1/2+z
x,1/2-y,1/2+z
loop_
_atom_site_type_symbol
_atom_site_label
_atom_site_fract_x
_atom_site_fract_y
_atom_site_fract_z
Si Si1 0.633582 0.846186 0.644331
Si Si2 0.702916 0.959688 0.959262
Si Si3 0.945464 0.170869 0.977352
Si Si4 0.277902 0.626682 0.234906
Si Si5 0.035344 0.988065 0.341023
O O1 0.750000 0.750000 0.680498
O O2 0.524892 0.783547 0.587011
O O3 0.473139 0.906499 0.689710
O O4 0.799236 0.937118 0.621059
O O5 0.865130 0.056915 0.957306
O O6 0.624098 0.934772 0.890564
O O7 0.500000 0.000000 0.000000
O O8 0.839105 0.853373 0.979820
O O9 0.750000 0.250000 0.004010
O O10 0.250000 0.750000 0.226997
O O11 0.335067 0.602971 0.304926
O O12 0.070348 0.560170 0.211795
#
# Coordination Sequence:
#
# PCOD8229706 Si02
#       5
#     8   8   8   8   8
#     4  12  22  39  75 104 132 182 242 287 348 428
#     4  11  24  43  71 102 140 185 237 294 368 429
#     4  11  24  42  72 103 139 183 240 293 354 437
#     4  12  25  43  71 103 138 185 239 287 360 431
#     4  12  24  43  71 100 145 184 229 307 357 428
#
# _framework density 23.523814999999999
#
# number of rings (size 3 to 8) (size 9 to 14) (size 15 to 20)
#    0.000    0.400    8.000    1.800    0.000    0.000 
#    0.000    1.000   13.200    0.000    0.000    0.000 
#    0.000    0.000    0.000    0.000    0.000    0.000 
#
# Total GULP energy -495555.044860 kJ/mol
# GULP energy per Si atom -12388.876122 kJ/mol
# Density = 2.347027 g / cm^3
# Si number density = 23.523815 Si / 1000 Ang^3
#
#
#
# Elastic Constant Matrix: (Units=GPa)
#
#
# Indices 1 2 3 4 5 6 
#
# 1 104.3942 28.7179 40.3780 0.0000 0.0000 0.0000
# 2 28.7179 68.1714 32.5837 0.0000 0.0000 0.0000
# 3 40.3780 32.5837 118.4775 0.0000 0.0000 0.0000
# 4 0.0000 0.0000 0.0000 28.9804 0.0000 0.0000
# 5 0.0000 0.0000 0.0000 0.0000 36.8735 0.0000
# 6 0.0000 0.0000 0.0000 0.0000 0.0000 44.2253
#
#
#
# Elastic Compliance Matrix: (Units=1/GPa)
#
#
# Indices 1 2 3 4 5 6 
#
# 1 0.011710 -0.003483 -0.003033 0.000000 0.000000 0.000000
# 2 -0.003483 0.017925 -0.003743 0.000000 0.000000 0.000000
# 3 -0.003033 -0.003743 0.010503 0.000000 0.000000 0.000000
# 4 0.000000 0.000000 0.000000 0.034506 0.000000 0.000000
# 5 0.000000 0.000000 0.000000 0.000000 0.027120 0.000000
# 6 0.000000 0.000000 0.000000 0.000000 0.000000 0.022612
#
#
# Mechanical properties :
#
#
# Convention : Reuss Voigt Hill
#
# Bulk Modulus (GPa) = 50.96603 54.93359 52.94981
# Shear Modulus (GPa) = 33.01748 34.64004 33.82876
#
# Velocity S-wave (km/s) = 3.75050 3.84155 3.79630
# Velocity P-wave (km/s) = 6.36143 6.56351 6.46326
#
# Compressibility (1/GPa) = 0.01962091
#
# Stress axis : x y z
#
# Youngs Moduli (GPa) = 85.39369 55.78733 95.20743
#
# Poissons Ratio (x) = 0.19433 0.28876
# Poissons Ratio (y) = 0.29747 0.35632
# Poissons Ratio (z) = 0.25900 0.20879
#
# Static dielectric constant tensor:
#      x y z
#    x 4.788010 0.000000 0.000000 
#    y 0.000000 4.128300 0.000000 
#    z 0.000000 0.000000 3.981700 
# 
# 
# High freq. dielectric constant tensor:
#      x y z
#    x 1.949940 0.000000 0.000000 
#    y 0.000000 1.919610 0.000000 
#    z 0.000000 0.000000 1.913920 
# 
# From -- ./inp_files/19975.got.cif
#   From: 2010.03.12/outbox.cif.g09.slc.cpg/sg56_10_cif.got.tgz:19975.got - 2010.04.16 15:33:40.
