data_PCOD8229357
_publ_section_title
;
Structure prediction by ZEFSAII (Michael W. Deem and Ramdas Pophale) SiO2 
 PCOD8229357
Probable space group: P C C N
;
_chemical_formula_sum "Si O2"
_cell_formula_units_Z 36
_cell_length_a 17.997106
_cell_length_b 11.108201
_cell_length_c 8.426974
_cell_angle_alpha 90.000000
_cell_angle_beta 90.000000
_cell_angle_gamma 90.000000
_cell_volume 1684.682475
_symmetry_space_group_name_H-M "P C C N"
_symmetry_group_IT_number 56
_symmetry_cell_setting 'orthorhombic'
loop_
_space_group_symop_operation_xyz
x,y,z
1/2-x,1/2-y,z
1/2+x,-y,1/2-z
-x,1/2+y,1/2-z
-x,-y,-z
1/2+x,1/2+y,-z
1/2-x,y,1/2+z
x,1/2-y,1/2+z
loop_
_atom_site_type_symbol
_atom_site_label
_atom_site_fract_x
_atom_site_fract_y
_atom_site_fract_z
Si Si1 0.326215 0.604845 0.219150
Si Si2 0.250000 0.750000 0.965572
Si Si3 0.181958 0.154884 0.327622
Si Si4 0.993017 0.384060 0.392066
Si Si5 0.078581 0.294471 0.104274
O O1 0.317212 0.702778 0.357534
O O2 0.292349 0.477104 0.275069
O O3 0.411106 0.615317 0.174029
O O4 0.277543 0.637517 0.067142
O O5 0.250000 0.250000 0.343860
O O6 0.123768 0.191073 0.193101
O O7 0.138129 0.138420 0.493113
O O8 0.045837 0.387256 0.235071
O O9 0.013485 0.267030 0.498300
O O10 0.000000 0.500000 0.500000
#
# Coordination Sequence:
#
# PCOD8229357 Si02
#       5
#     8   4   8   8   8
#     4  11  24  46  67  96 137 177 231 283 335 416
#     4  10  26  44  66  96 128 188 228 272 346 400
#     4  11  24  41  68 103 135 180 223 289 344 405
#     4  11  22  45  68  97 133 176 222 281 338 404
#     4  10  24  42  66 101 134 176 231 270 357 403
#
# _framework density 21.369012999999999
#
# number of rings (size 3 to 8) (size 9 to 14) (size 15 to 20)
#    0.000    1.333    2.222    2.000    6.222    0.889 
#    8.000    0.000    0.000    0.000    0.000    0.000 
#    0.000    0.000    0.000    0.000    0.000    0.000 
#
# Total GULP energy -446244.427710 kJ/mol
# GULP energy per Si atom -12395.678548 kJ/mol
# Density = 2.132038 g / cm^3
# Si number density = 21.369013 Si / 1000 Ang^3
#
#
#
# Elastic Constant Matrix: (Units=GPa)
#
#
# Indices 1 2 3 4 5 6 
#
# 1 127.2127 64.6122 72.9864 0.0000 0.0000 0.0000
# 2 64.6122 129.0629 74.4259 0.0000 0.0000 0.0000
# 3 72.9864 74.4259 163.8448 0.0000 0.0000 0.0000
# 4 0.0000 0.0000 0.0000 20.9183 0.0000 0.0000
# 5 0.0000 0.0000 0.0000 0.0000 19.5886 0.0000
# 6 0.0000 0.0000 0.0000 0.0000 0.0000 26.6760
#
#
#
# Elastic Compliance Matrix: (Units=1/GPa)
#
#
# Indices 1 2 3 4 5 6 
#
# 1 0.011861 -0.003917 -0.003504 0.000000 0.000000 0.000000
# 2 -0.003917 0.011792 -0.003611 0.000000 0.000000 0.000000
# 3 -0.003504 -0.003611 0.009305 0.000000 0.000000 0.000000
# 4 0.000000 0.000000 0.000000 0.047805 0.000000 0.000000
# 5 0.000000 0.000000 0.000000 0.000000 0.051050 0.000000
# 6 0.000000 0.000000 0.000000 0.000000 0.000000 0.037487
#
#
# Mechanical properties :
#
#
# Convention : Reuss Voigt Hill
#
# Bulk Modulus (GPa) = 91.81134 93.79660 92.80397
# Shear Modulus (GPa) = 25.64159 27.30962 26.47561
#
# Velocity S-wave (km/s) = 3.46778 3.57879 3.52372
# Velocity P-wave (km/s) = 7.68713 7.81448 7.75106
#
# Compressibility (1/GPa) = 0.01089190
#
# Stress axis : x y z
#
# Youngs Moduli (GPa) = 84.31088 84.80496 107.47117
#
# Poissons Ratio (x) = 0.33219 0.37660
# Poissons Ratio (y) = 0.33025 0.38813
# Poissons Ratio (z) = 0.29544 0.30627
#
# Static dielectric constant tensor:
#      x y z
#    x 4.353540 0.000000 0.000000 
#    y 0.000000 3.566800 0.000000 
#    z 0.000000 0.000000 4.561930 
# 
# 
# High freq. dielectric constant tensor:
#      x y z
#    x 1.839570 0.000000 0.000000 
#    y 0.000000 1.824350 0.000000 
#    z 0.000000 0.000000 1.867570 
# 
# From -- ./inp_files/4333.got.cif
#   From: 2010.03.12/outbox.cif.g09.slc.cpg/sg56_3_cif.got.tgz:4333.got - 2010.04.16 15:33:40.
