data_PCOD8229032
_publ_section_title
;
Structure prediction by ZEFSAII (Michael W. Deem and Ramdas Pophale) SiO2 
 PCOD8229032
Probable space group: P C C N
;
_chemical_formula_sum "Si O2"
_cell_formula_units_Z 52
_cell_length_a 14.868457
_cell_length_b 9.027570
_cell_length_c 18.804496
_cell_angle_alpha 90.000000
_cell_angle_beta 90.000000
_cell_angle_gamma 90.000000
_cell_volume 2524.052964
_symmetry_space_group_name_H-M "P C C N"
_symmetry_group_IT_number 56
_symmetry_cell_setting 'orthorhombic'
loop_
_space_group_symop_operation_xyz
x,y,z
1/2-x,1/2-y,z
1/2+x,-y,1/2-z
-x,1/2+y,1/2-z
-x,-y,-z
1/2+x,1/2+y,-z
1/2-x,y,1/2+z
x,1/2-y,1/2+z
loop_
_atom_site_type_symbol
_atom_site_label
_atom_site_fract_x
_atom_site_fract_y
_atom_site_fract_z
Si Si1 0.250000 0.750000 0.512348
Si Si2 0.186020 0.542493 0.390846
Si Si3 0.432626 0.851484 0.073672
Si Si4 0.991015 0.621879 0.338006
Si Si5 0.750000 0.250000 0.225039
Si Si6 0.750000 0.750000 0.547431
Si Si7 0.937554 0.191165 0.786039
Si Si8 0.922648 0.815325 0.457353
O O1 0.214555 0.616361 0.464492
O O2 0.169951 0.804077 0.562359
O O3 0.243659 0.605525 0.325240
O O4 0.207794 0.370163 0.399316
O O5 0.081621 0.568801 0.376108
O O6 0.471887 0.780303 0.145366
O O7 0.438001 0.028109 0.081157
O O8 0.494353 0.789523 0.010424
O O9 0.947208 0.484379 0.296943
O O10 0.924154 0.684971 0.398486
O O11 0.007063 0.755287 0.282592
O O12 0.666283 0.230024 0.276180
O O13 0.828033 0.816316 0.497821
#
# Coordination Sequence:
#
# PCOD8229032 Si02
#       8
#     4   8   8   8   4   4   8   8
#     4  11  19  40  66  92 126 168 208 256 312 392
#     4  10  22  40  64  93 128 169 209 259 324 391
#     4  11  23  40  66  95 127 170 214 265 318 391
#     4  11  24  44  64  93 133 173 216 268 326 394
#     4   9  23  42  64  86 124 172 218 252 316 400
#     4  12  24  38  62 102 130 160 210 282 326 374
#     4  11  24  41  66  91 126 170 218 260 323 383
#     4  11  25  40  63  96 133 164 214 269 328 381
#
# _framework density 20.601785
#
# number of rings (size 3 to 8) (size 9 to 14) (size 15 to 20)
#    0.000    1.231    3.077    2.308    2.154    4.923 
#    0.000    0.000    0.000    0.923    0.000    0.000 
#    0.000    0.000    0.000    0.000    0.000    0.000 
#
# Total GULP energy -645036.959810 kJ/mol
# GULP energy per Si atom -12404.556919 kJ/mol
# Density = 2.055489 g / cm^3
# Si number density = 20.601785 Si / 1000 Ang^3
#
#
#
# Elastic Constant Matrix: (Units=GPa)
#
#
# Indices 1 2 3 4 5 6 
#
# 1 67.5740 14.9802 33.9708 0.0000 0.0000 0.0000
# 2 14.9802 112.8057 52.1179 0.0000 0.0000 0.0000
# 3 33.9708 52.1179 79.1480 0.0000 0.0000 0.0000
# 4 0.0000 0.0000 0.0000 36.8100 0.0000 0.0000
# 5 0.0000 0.0000 0.0000 0.0000 12.9843 0.0000
# 6 0.0000 0.0000 0.0000 0.0000 0.0000 21.9723
#
#
#
# Elastic Compliance Matrix: (Units=1/GPa)
#
#
# Indices 1 2 3 4 5 6 
#
# 1 0.019121 0.001800 -0.009392 0.000000 0.000000 0.000000
# 2 0.001800 0.012910 -0.009274 0.000000 0.000000 0.000000
# 3 -0.009392 -0.009274 0.022773 0.000000 0.000000 0.000000
# 4 0.000000 0.000000 0.000000 0.027167 0.000000 0.000000
# 5 0.000000 0.000000 0.000000 0.000000 0.077016 0.000000
# 6 0.000000 0.000000 0.000000 0.000000 0.000000 0.045512
#
#
# Mechanical properties :
#
#
# Convention : Reuss Voigt Hill
#
# Bulk Modulus (GPa) = 47.45641 51.29615 49.37628
# Shear Modulus (GPa) = 20.38696 24.91726 22.65211
#
# Velocity S-wave (km/s) = 3.14916 3.48152 3.31950
# Velocity P-wave (km/s) = 6.02562 6.41204 6.22183
#
# Compressibility (1/GPa) = 0.02107197
#
# Stress axis : x y z
#
# Youngs Moduli (GPa) = 52.29788 77.45651 43.91237
#
# Poissons Ratio (x) = -0.13943 0.41244
# Poissons Ratio (y) = -0.09414 0.40724
# Poissons Ratio (z) = 0.49120 0.71833
#
# Static dielectric constant tensor:
#      x y z
#    x 3.682930 0.000000 0.000000 
#    y 0.000000 3.778440 0.000000 
#    z 0.000000 0.000000 3.671920 
# 
# 
# High freq. dielectric constant tensor:
#      x y z
#    x 1.805300 0.000000 0.000000 
#    y 0.000000 1.811030 0.000000 
#    z 0.000000 0.000000 1.809540 
# 
# From -- ./inp_files/18178.got.cif
#   From: 2010.03.12/outbox.cif.g09.slc.cpg/sg56_10_cif.got.tgz:18178.got - 2010.04.16 15:33:40.
