data_PCOD8229750
_publ_section_title
;
Structure prediction by ZEFSAII (Michael W. Deem and Ramdas Pophale) SiO2 
 PCOD8229750
Probable space group: P C C N
;
_chemical_formula_sum "Si O2"
_cell_formula_units_Z 48
_cell_length_a 15.010491
_cell_length_b 17.180163
_cell_length_c 8.732882
_cell_angle_alpha 90.000000
_cell_angle_beta 90.000000
_cell_angle_gamma 90.000000
_cell_volume 2252.059033
_symmetry_space_group_name_H-M "P C C N"
_symmetry_group_IT_number 56
_symmetry_cell_setting 'orthorhombic'
loop_
_space_group_symop_operation_xyz
x,y,z
1/2-x,1/2-y,z
1/2+x,-y,1/2-z
-x,1/2+y,1/2-z
-x,-y,-z
1/2+x,1/2+y,-z
1/2-x,y,1/2+z
x,1/2-y,1/2+z
loop_
_atom_site_type_symbol
_atom_site_label
_atom_site_fract_x
_atom_site_fract_y
_atom_site_fract_z
Si Si1 0.743587 0.055945 0.406833
Si Si2 0.091733 0.172553 0.802769
Si Si3 0.250653 0.056296 0.842445
Si Si4 0.903625 0.324401 0.448547
Si Si5 0.095435 0.841345 0.688126
Si Si6 0.093393 0.335163 0.942754
O O1 0.667264 0.118129 0.371134
O O2 0.839822 0.090183 0.365104
O O3 0.738351 0.029686 0.583133
O O4 0.726908 0.970952 0.329226
O O5 0.161844 0.107143 0.848549
O O6 0.126637 0.255453 0.864165
O O7 0.076283 0.179178 0.621710
O O8 0.999653 0.150850 0.885079
O O9 0.331842 0.100786 0.919658
O O10 0.901749 0.328450 0.630944
O O11 0.876874 0.237905 0.397292
O O12 0.996401 0.865718 0.637031
#
# Coordination Sequence:
#
# PCOD8229750 Si02
#       6
#     8   8   8   8   8   8
#     4  12  27  44  65  99 135 172 215 267 331 388
#     4  11  25  44  70  97 128 175 220 269 322 381
#     4  12  27  44  65  99 135 172 215 267 331 388
#     4  11  25  44  70  96 130 172 222 269 319 387
#     4  11  25  44  70  97 128 175 220 269 322 381
#     4  11  25  44  70  96 130 172 222 269 319 387
#
# _framework density 21.313828999999998
#
# number of rings (size 3 to 8) (size 9 to 14) (size 15 to 20)
#    0.000    0.667    3.333    5.000    9.333    5.333 
#    0.000    0.000    0.000    0.000    0.000    0.000 
#    0.000    0.000    0.000    0.000    0.000    0.000 
#
# Total GULP energy -595342.635922 kJ/mol
# GULP energy per Si atom -12402.971582 kJ/mol
# Density = 2.126532 g / cm^3
# Si number density = 21.313829 Si / 1000 Ang^3
#
#
#
# Elastic Constant Matrix: (Units=GPa)
#
#
# Indices 1 2 3 4 5 6 
#
# 1 86.8462 49.8575 39.9676 0.0000 0.0000 0.0000
# 2 49.8575 84.8185 37.9638 0.0000 0.0000 0.0000
# 3 39.9676 37.9638 115.5056 0.0000 0.0000 0.0000
# 4 0.0000 0.0000 0.0000 43.1728 0.0000 0.0000
# 5 0.0000 0.0000 0.0000 0.0000 30.3364 0.0000
# 6 0.0000 0.0000 0.0000 0.0000 0.0000 16.0386
#
#
#
# Elastic Compliance Matrix: (Units=1/GPa)
#
#
# Indices 1 2 3 4 5 6 
#
# 1 0.018390 -0.009335 -0.003295 0.000000 0.000000 0.000000
# 2 -0.009335 0.018562 -0.002871 0.000000 0.000000 0.000000
# 3 -0.003295 -0.002871 0.010741 0.000000 0.000000 0.000000
# 4 0.000000 0.000000 0.000000 0.023163 0.000000 0.000000
# 5 0.000000 0.000000 0.000000 0.000000 0.032964 0.000000
# 6 0.000000 0.000000 0.000000 0.000000 0.000000 0.062350
#
#
# Mechanical properties :
#
#
# Convention : Reuss Voigt Hill
#
# Bulk Modulus (GPa) = 59.91059 60.30534 60.10796
# Shear Modulus (GPa) = 24.66260 28.53498 26.59879
#
# Velocity S-wave (km/s) = 3.40533 3.66293 3.53648
# Velocity P-wave (km/s) = 6.60542 6.80036 6.70360
#
# Compressibility (1/GPa) = 0.01669154
#
# Stress axis : x y z
#
# Youngs Moduli (GPa) = 54.37641 53.87309 93.09816
#
# Poissons Ratio (x) = 0.50292 0.30678
# Poissons Ratio (y) = 0.50761 0.26726
# Poissons Ratio (z) = 0.17918 0.15466
#
# Static dielectric constant tensor:
#      x y z
#    x 3.851990 0.000000 0.000000 
#    y 0.000000 3.808780 0.000000 
#    z 0.000000 0.000000 4.045790 
# 
# 
# High freq. dielectric constant tensor:
#      x y z
#    x 1.840890 0.000000 0.000000 
#    y 0.000000 1.841060 0.000000 
#    z 0.000000 0.000000 1.860850 
# 
# From -- ./inp_files/3407.got.cif
#   From: 2010.03.12/outbox.cif.g09.slc.cpg/sg56_2_cif.got.tgz:3407.got - 2010.04.16 15:33:40.
