data_PCOD8229818
_publ_section_title
;
Structure prediction by ZEFSAII (Michael W. Deem and Ramdas Pophale) SiO2 
 PCOD8229818
Probable space group: P C C N
;
_chemical_formula_sum "Si O2"
_cell_formula_units_Z 48
_cell_length_a 4.996531
_cell_length_b 26.408029
_cell_length_c 17.267443
_cell_angle_alpha 90.000000
_cell_angle_beta 90.000000
_cell_angle_gamma 90.000000
_cell_volume 2278.413816
_symmetry_space_group_name_H-M "P C C N"
_symmetry_group_IT_number 56
_symmetry_cell_setting 'orthorhombic'
loop_
_space_group_symop_operation_xyz
x,y,z
1/2-x,1/2-y,z
1/2+x,-y,1/2-z
-x,1/2+y,1/2-z
-x,-y,-z
1/2+x,1/2+y,-z
1/2-x,y,1/2+z
x,1/2-y,1/2+z
loop_
_atom_site_type_symbol
_atom_site_label
_atom_site_fract_x
_atom_site_fract_y
_atom_site_fract_z
Si Si1 0.750000 0.250000 0.210552
Si Si2 0.666818 0.402361 0.632779
Si Si3 0.731486 0.351458 0.793160
Si Si4 0.260447 0.386943 0.376360
Si Si5 0.729333 0.995178 0.696605
Si Si6 0.250000 0.250000 0.103965
Si Si7 0.667975 0.640150 0.949227
O O1 0.675897 0.296504 0.265334
O O2 0.500157 0.235260 0.157328
O O3 0.728799 0.389033 0.721162
O O4 0.693514 0.463157 0.631251
O O5 0.367360 0.385142 0.612593
O O6 0.867677 0.374648 0.574269
O O7 0.442266 0.348595 0.833620
O O8 0.938238 0.372113 0.856147
O O9 0.191112 0.443503 0.350245
O O10 0.231808 0.382534 0.467818
O O11 0.451105 0.010112 0.736859
O O12 0.311646 0.298670 0.050586
#
# Coordination Sequence:
#
# PCOD8229818 Si02
#       7
#     4   8   8   8   8   4   8
#     4  12  24  38  72  96 120 170 232 264 308 390
#     4  12  23  43  69  96 127 175 220 260 318 398
#     4  12  23  43  68  96 127 168 223 268 312 384
#     4  12  26  44  65 101 136 166 213 277 330 376
#     4  12  23  40  70  96 127 174 218 267 326 379
#     4  12  22  42  64  94 126 176 208 260 336 384
#     4  12  26  42  66  96 136 168 212 274 328 390
#
# _framework density 21.067291000000001
#
# number of rings (size 3 to 8) (size 9 to 14) (size 15 to 20)
#    0.000    0.000    6.667    4.000    0.000    2.667 
#    0.000    0.000    0.000    0.000    0.000    0.000 
#    0.000    0.000    0.000    0.000    0.000    0.000 
#
# Total GULP energy -595613.250149 kJ/mol
# GULP energy per Si atom -12408.609378 kJ/mol
# Density = 2.101934 g / cm^3
# Si number density = 21.067291 Si / 1000 Ang^3
#
#
#
# Elastic Constant Matrix: (Units=GPa)
#
#
# Indices 1 2 3 4 5 6 
#
# 1 78.6980 4.3053 15.6603 0.0000 0.0000 0.0000
# 2 4.3053 95.3212 26.2660 0.0000 0.0000 0.0000
# 3 15.6603 26.2660 81.8467 0.0000 0.0000 0.0000
# 4 0.0000 0.0000 0.0000 33.8286 0.0000 0.0000
# 5 0.0000 0.0000 0.0000 0.0000 44.9894 0.0000
# 6 0.0000 0.0000 0.0000 0.0000 0.0000 27.3075
#
#
#
# Elastic Compliance Matrix: (Units=1/GPa)
#
#
# Indices 1 2 3 4 5 6 
#
# 1 0.013211 0.000110 -0.002563 0.000000 0.000000 0.000000
# 2 0.000110 0.011509 -0.003715 0.000000 0.000000 0.000000
# 3 -0.002563 -0.003715 0.013900 0.000000 0.000000 0.000000
# 4 0.000000 0.000000 0.000000 0.029561 0.000000 0.000000
# 5 0.000000 0.000000 0.000000 0.000000 0.022227 0.000000
# 6 0.000000 0.000000 0.000000 0.000000 0.000000 0.036620
#
#
# Mechanical properties :
#
#
# Convention : Reuss Voigt Hill
#
# Bulk Modulus (GPa) = 38.04468 38.70324 38.37396
# Shear Modulus (GPa) = 33.75501 35.20074 34.47787
#
# Velocity S-wave (km/s) = 4.00715 4.09206 4.04983
# Velocity P-wave (km/s) = 6.28550 6.38262 6.33424
#
# Compressibility (1/GPa) = 0.02628488
#
# Stress axis : x y z
#
# Youngs Moduli (GPa) = 75.69566 86.88517 71.94040
#
# Poissons Ratio (x) = -0.00952 0.18437
# Poissons Ratio (y) = -0.00829 0.26723
# Poissons Ratio (z) = 0.19400 0.32274
#
# Static dielectric constant tensor:
#      x y z
#    x 3.948160 0.000000 0.000000 
#    y 0.000000 3.915010 0.000000 
#    z 0.000000 0.000000 3.584510 
# 
# 
# High freq. dielectric constant tensor:
#      x y z
#    x 1.843600 0.000000 0.000000 
#    y 0.000000 1.838550 0.000000 
#    z 0.000000 0.000000 1.810670 
# 
# From -- ./inp_files/9735.got.cif
#   From: 2010.03.12/outbox.cif.g09.slc.cpg/sg56_5_cif.got.tgz:9735.got - 2010.04.16 15:33:40.
