data_PCOD8229138
_publ_section_title
;
Structure prediction by ZEFSAII (Michael W. Deem and Ramdas Pophale) SiO2 
 PCOD8229138
Probable space group: P C C N
;
_chemical_formula_sum "Si O2"
_cell_formula_units_Z 48
_cell_length_a 17.752829
_cell_length_b 8.257760
_cell_length_c 16.642060
_cell_angle_alpha 90.000000
_cell_angle_beta 90.000000
_cell_angle_gamma 90.000000
_cell_volume 2439.702717
_symmetry_space_group_name_H-M "P C C N"
_symmetry_group_IT_number 56
_symmetry_cell_setting 'orthorhombic'
loop_
_space_group_symop_operation_xyz
x,y,z
1/2-x,1/2-y,z
1/2+x,-y,1/2-z
-x,1/2+y,1/2-z
-x,-y,-z
1/2+x,1/2+y,-z
1/2-x,y,1/2+z
x,1/2-y,1/2+z
loop_
_atom_site_type_symbol
_atom_site_label
_atom_site_fract_x
_atom_site_fract_y
_atom_site_fract_z
Si Si1 0.671804 0.051591 0.908554
Si Si2 0.548462 0.657630 0.331572
Si Si3 0.910340 0.552867 0.220091
Si Si4 0.840470 0.095068 0.871904
Si Si5 0.061469 0.371817 0.525981
Si Si6 0.170880 0.156683 0.434273
O O1 0.751800 0.069922 0.866116
O O2 0.634992 0.230825 0.908285
O O3 0.626089 0.931762 0.851817
O O4 0.677037 0.984343 0.999061
O O5 0.565776 0.775118 0.257305
O O6 0.485764 0.526480 0.313122
O O7 0.520467 0.753691 0.410613
O O8 0.875071 0.428584 0.283833
O O9 0.847950 0.576356 0.151038
O O10 0.869144 0.957398 0.930965
O O11 0.099672 0.274547 0.452761
O O12 0.000000 0.500000 0.500000
O O13 0.250000 0.250000 0.428830
#
# Coordination Sequence:
#
# PCOD8229138 Si02
#       6
#     8   8   8   8   8   8
#     4  10  22  43  67  87 124 176 211 259 316 392
#     4  10  24  40  63  90 131 168 214 257 325 381
#     4  11  25  40  64  96 130 167 212 272 316 380
#     4  10  22  43  64  90 130 168 210 256 332 382
#     4  10  23  39  66  89 126 171 210 262 317 385
#     4  11  24  42  65  98 126 163 221 266 318 380
#
# _framework density 19.674529
#
# number of rings (size 3 to 8) (size 9 to 14) (size 15 to 20)
#    0.000    1.667    1.667    1.000   11.667    1.333 
#    0.000    3.333    0.000    0.000    0.000    0.000 
#    0.000    0.000    0.000    0.000    0.000    0.000 
#
# Total GULP energy -595283.858721 kJ/mol
# GULP energy per Si atom -12401.747057 kJ/mol
# Density = 1.962975 g / cm^3
# Si number density = 19.674529 Si / 1000 Ang^3
#
#
#
# Elastic Constant Matrix: (Units=GPa)
#
#
# Indices 1 2 3 4 5 6 
#
# 1 76.0664 43.2015 48.6053 0.0000 0.0000 0.0000
# 2 43.2015 119.8839 53.9411 0.0000 0.0000 0.0000
# 3 48.6053 53.9411 102.6789 0.0000 0.0000 0.0000
# 4 0.0000 0.0000 0.0000 35.1677 0.0000 0.0000
# 5 0.0000 0.0000 0.0000 0.0000 21.6422 0.0000
# 6 0.0000 0.0000 0.0000 0.0000 0.0000 41.1508
#
#
#
# Elastic Compliance Matrix: (Units=1/GPa)
#
#
# Indices 1 2 3 4 5 6 
#
# 1 0.020142 -0.003887 -0.007492 0.000000 0.000000 0.000000
# 2 -0.003887 0.011674 -0.004293 0.000000 0.000000 0.000000
# 3 -0.007492 -0.004293 0.015541 0.000000 0.000000 0.000000
# 4 0.000000 0.000000 0.000000 0.028435 0.000000 0.000000
# 5 0.000000 0.000000 0.000000 0.000000 0.046206 0.000000
# 6 0.000000 0.000000 0.000000 0.000000 0.000000 0.024301
#
#
# Mechanical properties :
#
#
# Convention : Reuss Voigt Hill
#
# Bulk Modulus (GPa) = 62.45349 65.56944 64.01147
# Shear Modulus (GPa) = 27.32545 29.78421 28.55483
#
# Velocity S-wave (km/s) = 3.73080 3.89504 3.81381
# Velocity P-wave (km/s) = 7.09724 7.32310 7.21105
#
# Compressibility (1/GPa) = 0.01601191
#
# Stress axis : x y z
#
# Youngs Moduli (GPa) = 49.64843 85.66374 64.34659
#
# Poissons Ratio (x) = 0.33298 0.48211
# Poissons Ratio (y) = 0.19299 0.27621
# Poissons Ratio (z) = 0.37199 0.36771
#
# Static dielectric constant tensor:
#      x y z
#    x 3.487550 0.000000 0.000000 
#    y 0.000000 4.009590 0.000000 
#    z 0.000000 0.000000 3.645530 
# 
# 
# High freq. dielectric constant tensor:
#      x y z
#    x 1.771250 0.000000 0.000000 
#    y 0.000000 1.782500 0.000000 
#    z 0.000000 0.000000 1.764860 
# 
# From -- ./inp_files/12673.got.cif
#   From: 2010.03.12/outbox.cif.g09.slc.cpg/sg56_7_cif.got.tgz:12673.got - 2010.04.16 15:33:40.
