data_PCOD8229995
_publ_section_title
;
Structure prediction by ZEFSAII (Michael W. Deem and Ramdas Pophale) SiO2 
 PCOD8229995
Probable space group: P B C M
;
_chemical_formula_sum "Si O2"
_cell_formula_units_Z 64
_cell_length_a 13.872369
_cell_length_b 17.858447
_cell_length_c 15.191003
_cell_angle_alpha 90.000000
_cell_angle_beta 90.000000
_cell_angle_gamma 90.000000
_cell_volume 3763.403384
_symmetry_space_group_name_H-M "P B C M"
_symmetry_group_IT_number 57
_symmetry_cell_setting 'orthorhombic'
loop_
_space_group_symop_operation_xyz
x,y,z
-x,-y,1/2+z
x,1/2-y,-z
-x,1/2+y,1/2-z
-x,-y,-z
x,y,1/2-z
-x,1/2+y,z
x,1/2-y,1/2+z
loop_
_atom_site_type_symbol
_atom_site_label
_atom_site_fract_x
_atom_site_fract_y
_atom_site_fract_z
Si Si1 0.150461 0.739082 0.653348
Si Si2 0.449186 0.626652 0.150315
Si Si3 0.635321 0.219226 0.849324
Si Si4 0.642708 0.954769 0.849721
Si Si5 0.140267 0.070234 0.350729
Si Si6 0.009754 0.321402 0.547536
Si Si7 0.124781 0.588054 0.566288
Si Si8 0.339116 0.587910 0.520259
O O1 0.115483 0.760602 0.750000
O O2 0.261700 0.760449 0.637659
O O3 0.139846 0.649340 0.642806
O O4 0.087160 0.787805 0.588671
O O5 0.415257 0.603846 0.250000
O O6 0.443806 0.716147 0.138407
O O7 0.561051 0.607278 0.136653
O O8 0.384519 0.584121 0.077331
O O9 0.629916 0.184151 0.750000
O O10 0.620323 0.158981 0.925756
O O11 0.639241 0.988451 0.750000
O O12 0.746272 0.916315 0.865139
O O13 0.625536 0.018133 0.922027
O O14 0.111343 0.063540 0.250000
O O15 0.087070 0.143548 0.387334
O O16 0.104533 0.993717 0.395398
O O17 0.060686 0.250000 0.500000
O O18 0.971256 0.388569 0.486320
O O19 0.223312 0.587619 0.508935
#
# Coordination Sequence:
#
# PCOD8229995 Si02
#       8
#     8   8   8   8   8   8   8   8
#     4   9  16  28  46  71  97 121 149 185 230 279
#     4  10  19  30  44  67  96 122 147 184 230 276
#     4   9  17  28  46  71  97 120 147 184 230 278
#     4   9  19  33  49  68  90 117 157 199 227 257
#     4  10  19  33  51  68  87 121 162 195 226 267
#     4  10  19  30  45  68  97 124 149 185 231 278
#     4   9  18  30  48  71  96 118 148 193 234 271
#     4  10  17  30  50  70  91 121 152 185 230 280
#
# _framework density 17.005883999999998
#
# number of rings (size 3 to 8) (size 9 to 14) (size 15 to 20)
#    0.000    2.500    0.000    3.000    0.000    5.000 
#    0.000    1.875    0.000    0.000    0.000    1.750 
#    0.000    0.000    0.000    0.000    0.000    0.000 
#
# Total GULP energy -793259.169116 kJ/mol
# GULP energy per Si atom -12394.674517 kJ/mol
# Density = 1.696718 g / cm^3
# Si number density = 17.005884 Si / 1000 Ang^3
#
#
#
# Elastic Constant Matrix: (Units=GPa)
#
#
# Indices 1 2 3 4 5 6 
#
# 1 69.3034 47.2723 43.0747 0.0000 0.0000 0.0000
# 2 47.2723 87.9759 39.8014 0.0000 0.0000 0.0000
# 3 43.0747 39.8014 97.2777 0.0000 0.0000 0.0000
# 4 0.0000 0.0000 0.0000 24.3942 0.0000 0.0000
# 5 0.0000 0.0000 0.0000 0.0000 22.8887 0.0000
# 6 0.0000 0.0000 0.0000 0.0000 0.0000 26.9729
#
#
#
# Elastic Compliance Matrix: (Units=1/GPa)
#
#
# Indices 1 2 3 4 5 6 
#
# 1 0.026337 -0.010892 -0.007206 0.000000 0.000000 0.000000
# 2 -0.010892 0.018453 -0.002727 0.000000 0.000000 0.000000
# 3 -0.007206 -0.002727 0.014586 0.000000 0.000000 0.000000
# 4 0.000000 0.000000 0.000000 0.040993 0.000000 0.000000
# 5 0.000000 0.000000 0.000000 0.000000 0.043690 0.000000
# 6 0.000000 0.000000 0.000000 0.000000 0.000000 0.037074
#
#
# Mechanical properties :
#
#
# Convention : Reuss Voigt Hill
#
# Bulk Modulus (GPa) = 56.41061 57.20598 56.80829
# Shear Modulus (GPa) = 21.86335 23.14507 22.50421
#
# Velocity S-wave (km/s) = 3.58946 3.69318 3.64169
# Velocity P-wave (km/s) = 7.10086 7.20403 7.15263
#
# Compressibility (1/GPa) = 0.01772716
#
# Stress axis : x y z
#
# Youngs Moduli (GPa) = 37.96873 54.19124 68.55704
#
# Poissons Ratio (x) = 0.59025 0.49401
# Poissons Ratio (y) = 0.41356 0.18697
# Poissons Ratio (z) = 0.27359 0.14779
#
# Static dielectric constant tensor:
#      x y z
#    x 3.031410 0.000000 0.000000 
#    y 0.000000 3.086350 0.000000 
#    z 0.000000 0.000000 3.343210 
# 
# 
# High freq. dielectric constant tensor:
#      x y z
#    x 1.637820 0.000000 0.000000 
#    y 0.000000 1.644940 0.000000 
#    z 0.000000 0.000000 1.663830 
# 
# From -- ./inp_files/17969.got.cif
#   From: 2010.03.12/outbox.cif.g09.slc.cpg/sg57_9_cif.got.tgz:17969.got - 2010.04.16 15:48:40.
