data_PCOD8229310
_publ_section_title
;
Structure prediction by ZEFSAII (Michael W. Deem and Ramdas Pophale) SiO2 
 PCOD8229310
Probable space group: P C C N
;
_chemical_formula_sum "Si O2"
_cell_formula_units_Z 48
_cell_length_a 8.373036
_cell_length_b 14.618249
_cell_length_c 17.831045
_cell_angle_alpha 90.000000
_cell_angle_beta 90.000000
_cell_angle_gamma 90.000000
_cell_volume 2182.504308
_symmetry_space_group_name_H-M "P C C N"
_symmetry_group_IT_number 56
_symmetry_cell_setting 'orthorhombic'
loop_
_space_group_symop_operation_xyz
x,y,z
1/2-x,1/2-y,z
1/2+x,-y,1/2-z
-x,1/2+y,1/2-z
-x,-y,-z
1/2+x,1/2+y,-z
1/2-x,y,1/2+z
x,1/2-y,1/2+z
loop_
_atom_site_type_symbol
_atom_site_label
_atom_site_fract_x
_atom_site_fract_y
_atom_site_fract_z
Si Si1 0.662797 0.157284 0.087703
Si Si2 0.572138 0.217280 0.843255
Si Si3 0.369929 0.175759 0.986422
Si Si4 0.972621 0.115619 0.741475
Si Si5 0.188824 0.500561 0.502064
Si Si6 0.705721 0.474132 0.327956
O O1 0.750000 0.250000 0.068232
O O2 0.649666 0.142213 0.176010
O O3 0.487468 0.150786 0.053285
O O4 0.773647 0.081889 0.052804
O O5 0.750000 0.250000 0.865838
O O6 0.461440 0.217934 0.915810
O O7 0.490208 0.288477 0.784642
O O8 0.588402 0.113061 0.812682
O O9 0.250000 0.250000 0.020109
O O10 0.265391 0.088239 0.963128
O O11 0.880865 0.043881 0.794485
O O12 0.131192 0.065358 0.710086
O O13 0.269304 0.512931 0.583357
O O14 0.000000 0.500000 0.500000
#
# Coordination Sequence:
#
# PCOD8229310 Si02
#       6
#     8   8   8   8   8   8
#     4  12  24  46  74 104 141 188 235 303 357 430
#     4  10  23  45  72 102 143 193 236 297 363 432
#     4  12  25  43  71 107 140 185 242 295 355 428
#     4  11  26  45  70 105 144 191 235 299 365 430
#     4  12  27  46  77 106 142 188 246 301 363 434
#     4  11  24  48  71 104 145 188 243 295 362 432
#
# _framework density 21.993084
#
# number of rings (size 3 to 8) (size 9 to 14) (size 15 to 20)
#    0.000    0.667    3.333    4.500    9.333    1.333 
#    3.000    0.833    0.000    0.000    0.000    0.000 
#    0.000    0.000    0.000    0.000    0.000    0.000 
#
# Total GULP energy -595250.292699 kJ/mol
# GULP energy per Si atom -12401.047765 kJ/mol
# Density = 2.194303 g / cm^3
# Si number density = 21.993084 Si / 1000 Ang^3
#
#
#
# Elastic Constant Matrix: (Units=GPa)
#
#
# Indices 1 2 3 4 5 6 
#
# 1 86.8833 44.6124 14.0401 0.0000 0.0000 0.0000
# 2 44.6124 143.3009 37.7229 0.0000 0.0000 0.0000
# 3 14.0401 37.7229 104.8813 0.0000 0.0000 0.0000
# 4 0.0000 0.0000 0.0000 34.8560 0.0000 0.0000
# 5 0.0000 0.0000 0.0000 0.0000 11.8349 0.0000
# 6 0.0000 0.0000 0.0000 0.0000 0.0000 51.6129
#
#
#
# Elastic Compliance Matrix: (Units=1/GPa)
#
#
# Indices 1 2 3 4 5 6 
#
# 1 0.013710 -0.004181 -0.000332 0.000000 0.000000 0.000000
# 2 -0.004181 0.008983 -0.002671 0.000000 0.000000 0.000000
# 3 -0.000332 -0.002671 0.010540 0.000000 0.000000 0.000000
# 4 0.000000 0.000000 0.000000 0.028689 0.000000 0.000000
# 5 0.000000 0.000000 0.000000 0.000000 0.084496 0.000000
# 6 0.000000 0.000000 0.000000 0.000000 0.000000 0.019375
#
#
# Mechanical properties :
#
#
# Convention : Reuss Voigt Hill
#
# Bulk Modulus (GPa) = 53.00711 58.64626 55.82669
# Shear Modulus (GPa) = 26.81694 35.57344 31.19519
#
# Velocity S-wave (km/s) = 3.49569 4.02616 3.77026
# Velocity P-wave (km/s) = 6.35981 6.95248 6.66273
#
# Compressibility (1/GPa) = 0.01886539
#
# Stress axis : x y z
#
# Youngs Moduli (GPa) = 72.93902 111.31972 94.87883
#
# Poissons Ratio (x) = 0.46542 0.03146
# Poissons Ratio (y) = 0.30495 0.25345
# Poissons Ratio (z) = 0.02418 0.29737
#
# Static dielectric constant tensor:
#      x y z
#    x 3.824310 0.000000 0.000000 
#    y 0.000000 4.364920 0.000000 
#    z 0.000000 0.000000 4.101640 
# 
# 
# High freq. dielectric constant tensor:
#      x y z
#    x 1.862980 0.000000 0.000000 
#    y 0.000000 1.882750 0.000000 
#    z 0.000000 0.000000 1.867250 
# 
# From -- ./inp_files/14832.got.cif
#   From: 2010.03.12/outbox.cif.g09.slc.cpg/sg56_8_cif.got.tgz:14832.got - 2010.04.16 15:33:40.
