data_PCOD8229087
_publ_section_title
;
Structure prediction by ZEFSAII (Michael W. Deem and Ramdas Pophale) SiO2 
 PCOD8229087
Probable space group: P C C N
;
_chemical_formula_sum "Si O2"
_cell_formula_units_Z 64
_cell_length_a 31.157913
_cell_length_b 11.086480
_cell_length_c 8.617532
_cell_angle_alpha 90.000000
_cell_angle_beta 90.000000
_cell_angle_gamma 90.000000
_cell_volume 2976.767689
_symmetry_space_group_name_H-M "P C C N"
_symmetry_group_IT_number 56
_symmetry_cell_setting 'orthorhombic'
loop_
_space_group_symop_operation_xyz
x,y,z
1/2-x,1/2-y,z
1/2+x,-y,1/2-z
-x,1/2+y,1/2-z
-x,-y,-z
1/2+x,1/2+y,-z
1/2-x,y,1/2+z
x,1/2-y,1/2+z
loop_
_atom_site_type_symbol
_atom_site_label
_atom_site_fract_x
_atom_site_fract_y
_atom_site_fract_z
Si Si1 0.652670 0.667210 0.041015
Si Si2 0.207355 0.330088 0.169222
Si Si3 0.477396 0.610203 0.081650
Si Si4 0.304180 0.818441 0.735516
Si Si5 0.275328 0.903824 0.072479
Si Si6 0.919954 0.659768 0.136596
Si Si7 0.615504 0.038007 0.337502
Si Si8 0.521556 0.790717 0.869349
O O1 0.692140 0.641869 0.156638
O O2 0.611437 0.725781 0.123248
O O3 0.668795 0.758550 0.910045
O O4 0.638630 0.541664 0.967378
O O5 0.250000 0.250000 0.174713
O O6 0.214032 0.454939 0.078788
O O7 0.426539 0.596510 0.088163
O O8 0.497056 0.618901 0.254758
O O9 0.500000 0.500000 0.000000
O O10 0.486863 0.729762 0.982826
O O11 0.275287 0.887512 0.606673
O O12 0.300750 0.674563 0.703429
O O13 0.353475 0.855177 0.716479
O O14 0.286879 0.852847 0.904359
O O15 0.894496 0.539763 0.183379
O O16 0.953087 0.687322 0.275526
O O17 0.944704 0.635207 0.975324
#
# Coordination Sequence:
#
# PCOD8229087 Si02
#       8
#     8   8   8   8   8   8   8   8
#     4  12  24  42  66 106 136 181 225 299 359 404
#     4  12  27  42  71 103 141 178 234 291 359 415
#     4  11  23  45  68 102 137 188 226 295 355 423
#     4  11  26  46  71  99 137 192 235 279 344 428
#     4  11  26  47  71  99 140 192 236 280 356 425
#     4  11  19  41  66 100 132 180 224 292 354 422
#     4  12  24  41  73  99 145 178 245 292 349 429
#     4  10  22  41  69  96 138 177 235 274 365 425
#
# _framework density 21.499828999999998
#
# number of rings (size 3 to 8) (size 9 to 14) (size 15 to 20)
#    0.000    0.750    3.750    4.125    7.000    1.500 
#    0.000    0.000    0.000    0.000    0.000    0.000 
#    0.000    0.000    0.000    0.000    0.000    0.000 
#
# Total GULP energy -793812.172300 kJ/mol
# GULP energy per Si atom -12403.315192 kJ/mol
# Density = 2.145089 g / cm^3
# Si number density = 21.499829 Si / 1000 Ang^3
#
#
#
# Elastic Constant Matrix: (Units=GPa)
#
#
# Indices 1 2 3 4 5 6 
#
# 1 128.1978 53.4688 57.7892 0.0000 0.0000 0.0000
# 2 53.4688 73.5373 31.5972 0.0000 0.0000 0.0000
# 3 57.7892 31.5972 130.2428 0.0000 0.0000 0.0000
# 4 0.0000 0.0000 0.0000 30.9934 0.0000 0.0000
# 5 0.0000 0.0000 0.0000 0.0000 39.2687 0.0000
# 6 0.0000 0.0000 0.0000 0.0000 0.0000 40.5920
#
#
#
# Elastic Compliance Matrix: (Units=1/GPa)
#
#
# Indices 1 2 3 4 5 6 
#
# 1 0.012669 -0.007587 -0.003781 0.000000 0.000000 0.000000
# 2 -0.007587 0.019725 -0.001419 0.000000 0.000000 0.000000
# 3 -0.003781 -0.001419 0.009700 0.000000 0.000000 0.000000
# 4 0.000000 0.000000 0.000000 0.032265 0.000000 0.000000
# 5 0.000000 0.000000 0.000000 0.000000 0.025466 0.000000
# 6 0.000000 0.000000 0.000000 0.000000 0.000000 0.024635
#
#
# Mechanical properties :
#
#
# Convention : Reuss Voigt Hill
#
# Bulk Modulus (GPa) = 60.53186 68.63202 64.58194
# Shear Modulus (GPa) = 32.14608 34.77899 33.46254
#
# Velocity S-wave (km/s) = 3.87095 4.02635 3.94942
# Velocity P-wave (km/s) = 6.94224 7.32167 7.13448
#
# Compressibility (1/GPa) = 0.01652023
#
# Stress axis : x y z
#
# Youngs Moduli (GPa) = 78.93146 50.69748 103.09632
#
# Poissons Ratio (x) = 0.38466 0.38977
# Poissons Ratio (y) = 0.59888 0.14627
# Poissons Ratio (z) = 0.29841 0.07193
#
# Static dielectric constant tensor:
#      x y z
#    x 3.997960 0.000000 0.000000 
#    y 0.000000 3.738550 0.000000 
#    z 0.000000 0.000000 4.144120 
# 
# 
# High freq. dielectric constant tensor:
#      x y z
#    x 1.850720 0.000000 0.000000 
#    y 0.000000 1.831290 0.000000 
#    z 0.000000 0.000000 1.857300 
# 
# From -- ./inp_files/5222.got.cif
#   From: 2010.03.12/outbox.cif.g09.slc.cpg/sg56_3_cif.got.tgz:5222.got - 2010.04.16 15:33:40.
