data_PCOD8229502
_publ_section_title
;
Structure prediction by ZEFSAII (Michael W. Deem and Ramdas Pophale) SiO2 
 PCOD8229502
Probable space group: P C C N
;
_chemical_formula_sum "Si O2"
_cell_formula_units_Z 48
_cell_length_a 17.650070
_cell_length_b 14.949323
_cell_length_c 9.236221
_cell_angle_alpha 90.000000
_cell_angle_beta 90.000000
_cell_angle_gamma 90.000000
_cell_volume 2437.037846
_symmetry_space_group_name_H-M "P C C N"
_symmetry_group_IT_number 56
_symmetry_cell_setting 'orthorhombic'
loop_
_space_group_symop_operation_xyz
x,y,z
1/2-x,1/2-y,z
1/2+x,-y,1/2-z
-x,1/2+y,1/2-z
-x,-y,-z
1/2+x,1/2+y,-z
1/2-x,y,1/2+z
x,1/2-y,1/2+z
loop_
_atom_site_type_symbol
_atom_site_label
_atom_site_fract_x
_atom_site_fract_y
_atom_site_fract_z
Si Si1 0.504654 0.576017 0.615171
Si Si2 0.694358 0.950817 0.556027
Si Si3 0.672423 0.898759 0.230127
Si Si4 0.878810 0.713440 0.678654
Si Si5 0.942789 0.065386 0.087636
Si Si6 0.516688 0.752555 0.939084
O O1 0.500000 0.500000 0.500000
O O2 0.584610 0.581424 0.698490
O O3 0.446271 0.551035 0.740385
O O4 0.481090 0.666390 0.531027
O O5 0.697778 0.916690 0.393017
O O6 0.779878 0.960687 0.617032
O O7 0.660500 0.883080 0.678802
O O8 0.644407 0.041403 0.550502
O O9 0.682248 0.791938 0.206992
O O10 0.905810 0.721335 0.512969
O O11 0.954742 0.717487 0.779617
O O12 0.957594 0.170312 0.058333
O O13 0.000000 0.000000 0.000000
#
# Coordination Sequence:
#
# PCOD8229502 Si02
#       6
#     8   8   8   8   8   8
#     4  11  24  40  65  96 122 160 221 270 318 379
#     4  12  25  38  62  88 135 173 203 258 325 389
#     4  11  25  39  55  95 128 167 207 252 324 388
#     4  11  19  38  58  88 130 166 201 252 316 382
#     4  12  21  42  62  88 127 172 206 259 317 377
#     4  11  21  37  62  93 124 159 214 261 315 370
#
# _framework density 19.696043
#
# number of rings (size 3 to 8) (size 9 to 14) (size 15 to 20)
#    0.000    0.667    8.333    1.500    7.000    1.333 
#    0.000    0.000    0.000    1.000    0.000    0.000 
#    0.000    0.000    0.000    0.000    0.000    0.000 
#
# Total GULP energy -594755.315260 kJ/mol
# GULP energy per Si atom -12390.735735 kJ/mol
# Density = 1.965121 g / cm^3
# Si number density = 19.696043 Si / 1000 Ang^3
#
#
#
# Elastic Constant Matrix: (Units=GPa)
#
#
# Indices 1 2 3 4 5 6 
#
# 1 47.7819 20.7897 18.5332 0.0000 0.0000 0.0000
# 2 20.7897 80.2279 41.5279 0.0000 0.0000 0.0000
# 3 18.5332 41.5279 116.6352 0.0000 0.0000 0.0000
# 4 0.0000 0.0000 0.0000 34.3427 0.0000 0.0000
# 5 0.0000 0.0000 0.0000 0.0000 27.7576 0.0000
# 6 0.0000 0.0000 0.0000 0.0000 0.0000 27.7919
#
#
#
# Elastic Compliance Matrix: (Units=1/GPa)
#
#
# Indices 1 2 3 4 5 6 
#
# 1 0.023947 -0.005193 -0.001956 0.000000 0.000000 0.000000
# 2 -0.005193 0.016407 -0.005016 0.000000 0.000000 0.000000
# 3 -0.001956 -0.005016 0.010671 0.000000 0.000000 0.000000
# 4 0.000000 0.000000 0.000000 0.029118 0.000000 0.000000
# 5 0.000000 0.000000 0.000000 0.000000 0.036026 0.000000
# 6 0.000000 0.000000 0.000000 0.000000 0.000000 0.035982
#
#
# Mechanical properties :
#
#
# Convention : Reuss Voigt Hill
#
# Bulk Modulus (GPa) = 37.46287 45.14961 41.30624
# Shear Modulus (GPa) = 26.97180 28.89804 27.93492
#
# Velocity S-wave (km/s) = 3.70456 3.83456 3.77012
# Velocity P-wave (km/s) = 6.11229 6.52519 6.32211
#
# Compressibility (1/GPa) = 0.02669309
#
# Stress axis : x y z
#
# Youngs Moduli (GPa) = 41.75968 60.95041 93.71460
#
# Poissons Ratio (x) = 0.31650 0.18332
# Poissons Ratio (y) = 0.21685 0.47012
# Poissons Ratio (z) = 0.08169 0.30576
#
# Static dielectric constant tensor:
#      x y z
#    x 3.807560 0.000000 0.000000 
#    y 0.000000 3.539540 0.000000 
#    z 0.000000 0.000000 3.882070 
# 
# 
# High freq. dielectric constant tensor:
#      x y z
#    x 1.731330 0.000000 0.000000 
#    y 0.000000 1.752610 0.000000 
#    z 0.000000 0.000000 1.794700 
# 
# From -- ./inp_files/4001.got.cif
#   From: 2010.03.12/outbox.cif.g09.slc.cpg/sg56_3_cif.got.tgz:4001.got - 2010.04.16 15:33:40.
