data_PCOD8229820
_publ_section_title
;
Structure prediction by ZEFSAII (Michael W. Deem and Ramdas Pophale) SiO2 
 PCOD8229820
Probable space group: P C C N
;
_chemical_formula_sum "Si O2"
_cell_formula_units_Z 32
_cell_length_a 4.982035
_cell_length_b 9.170309
_cell_length_c 30.608866
_cell_angle_alpha 90.000000
_cell_angle_beta 90.000000
_cell_angle_gamma 90.000000
_cell_volume 1398.421151
_symmetry_space_group_name_H-M "P C C N"
_symmetry_group_IT_number 56
_symmetry_cell_setting 'orthorhombic'
loop_
_space_group_symop_operation_xyz
x,y,z
1/2-x,1/2-y,z
1/2+x,-y,1/2-z
-x,1/2+y,1/2-z
-x,-y,-z
1/2+x,1/2+y,-z
1/2-x,y,1/2+z
x,1/2-y,1/2+z
loop_
_atom_site_type_symbol
_atom_site_label
_atom_site_fract_x
_atom_site_fract_y
_atom_site_fract_z
Si Si1 0.156769 0.546127 0.411011
Si Si2 0.257075 0.574151 0.729105
Si Si3 0.250000 0.750000 0.989155
Si Si4 0.250000 0.250000 0.450444
Si Si5 0.158165 0.097491 0.644894
O O1 0.184089 0.612483 0.459076
O O2 0.201691 0.376459 0.415862
O O3 0.362792 0.614620 0.375841
O O4 0.854333 0.568618 0.395413
O O5 0.250000 0.750000 0.735117
O O6 0.467542 0.497484 0.761709
O O7 0.337278 0.533843 0.679607
O O8 0.499023 0.788608 0.019483
O O9 0.250000 0.250000 0.667698
#
# Coordination Sequence:
#
# PCOD8229820 Si02
#       5
#     8   8   4   4   8
#     4  12  25  42  68  98 135 178 230 282 348 405
#     4  12  27  48  77 110 147 186 235 287 352 422
#     4  12  22  46  62  98 130 182 226 284 348 410
#     4  12  26  40  68  94 136 172 234 288 342 408
#     4  12  24  45  70  98 139 181 227 281 341 412
#
# _framework density 22.882950000000001
#
# number of rings (size 3 to 8) (size 9 to 14) (size 15 to 20)
#    0.000    0.000    2.500    8.250    3.500    0.000 
#    0.000    0.000    0.000    0.000    0.000    0.000 
#    0.000    0.000    0.000    0.000    0.000    0.000 
#
# Total GULP energy -396972.213921 kJ/mol
# GULP energy per Si atom -12405.381685 kJ/mol
# Density = 2.283087 g / cm^3
# Si number density = 22.882950 Si / 1000 Ang^3
#
#
#
# Elastic Constant Matrix: (Units=GPa)
#
#
# Indices 1 2 3 4 5 6 
#
# 1 93.9710 5.0514 23.4965 0.0000 0.0000 0.0000
# 2 5.0514 151.4979 16.1127 0.0000 0.0000 0.0000
# 3 23.4965 16.1127 71.4600 0.0000 0.0000 0.0000
# 4 0.0000 0.0000 0.0000 45.5358 0.0000 0.0000
# 5 0.0000 0.0000 0.0000 0.0000 2.9608 0.0000
# 6 0.0000 0.0000 0.0000 0.0000 0.0000 30.9141
#
#
#
# Elastic Compliance Matrix: (Units=1/GPa)
#
#
# Indices 1 2 3 4 5 6 
#
# 1 0.011595 0.000019 -0.003817 0.000000 0.000000 0.000000
# 2 0.000019 0.006763 -0.001531 0.000000 0.000000 0.000000
# 3 -0.003817 -0.001531 0.015594 0.000000 0.000000 0.000000
# 4 0.000000 0.000000 0.000000 0.021961 0.000000 0.000000
# 5 0.000000 0.000000 0.000000 0.000000 0.337744 0.000000
# 6 0.000000 0.000000 0.000000 0.000000 0.000000 0.032348
#
#
# Mechanical properties :
#
#
# Convention : Reuss Voigt Hill
#
# Bulk Modulus (GPa) = 42.92866 45.13889 44.03377
# Shear Modulus (GPa) = 11.25045 34.03338 22.64191
#
# Velocity S-wave (km/s) = 2.21973 3.86071 3.14899
# Velocity P-wave (km/s) = 5.03691 6.29621 5.70143
#
# Compressibility (1/GPa) = 0.02329446
#
# Stress axis : x y z
#
# Youngs Moduli (GPa) = 86.24478 147.86418 64.12674
#
# Poissons Ratio (x) = -0.00286 0.24476
# Poissons Ratio (y) = -0.00167 0.09819
# Poissons Ratio (z) = 0.32918 0.22642
#
# Static dielectric constant tensor:
#      x y z
#    x 4.254700 0.000000 0.000000 
#    y 0.000000 4.315070 0.000000 
#    z 0.000000 0.000000 3.896710 
# 
# 
# High freq. dielectric constant tensor:
#      x y z
#    x 1.920430 0.000000 0.000000 
#    y 0.000000 1.918560 0.000000 
#    z 0.000000 0.000000 1.900660 
# 
# From -- ./inp_files/22680.got.cif
#   From: 2010.03.12/outbox.cif.g09.slc.cpg/sg56_12_cif.got.tgz:22680.got - 2010.04.16 15:33:40.
