data_PCOD8229290
_publ_section_title
;
Structure prediction by ZEFSAII (Michael W. Deem and Ramdas Pophale) SiO2 
 PCOD8229290
Probable space group: P C C N
;
_chemical_formula_sum "Si O2"
_cell_formula_units_Z 40
_cell_length_a 7.663188
_cell_length_b 9.534439
_cell_length_c 23.237018
_cell_angle_alpha 90.000000
_cell_angle_beta 90.000000
_cell_angle_gamma 90.000000
_cell_volume 1697.794096
_symmetry_space_group_name_H-M "P C C N"
_symmetry_group_IT_number 56
_symmetry_cell_setting 'orthorhombic'
loop_
_space_group_symop_operation_xyz
x,y,z
1/2-x,1/2-y,z
1/2+x,-y,1/2-z
-x,1/2+y,1/2-z
-x,-y,-z
1/2+x,1/2+y,-z
1/2-x,y,1/2+z
x,1/2-y,1/2+z
loop_
_atom_site_type_symbol
_atom_site_label
_atom_site_fract_x
_atom_site_fract_y
_atom_site_fract_z
Si Si1 0.750000 0.750000 0.897847
Si Si2 0.799295 0.528763 0.995158
Si Si3 0.648786 0.466116 0.711532
Si Si4 0.990842 0.820490 0.796142
Si Si5 0.389435 0.149461 0.891011
Si Si6 0.250000 0.750000 0.555192
O O1 0.772258 0.616912 0.938066
O O2 0.583059 0.714684 0.858885
O O3 0.698339 0.381124 0.986128
O O4 0.760523 0.604120 0.055504
O O5 0.000000 0.500000 0.000000
O O6 0.648696 0.591709 0.758533
O O7 0.542553 0.328489 0.733114
O O8 0.845275 0.422622 0.698155
O O9 0.564505 0.522307 0.651955
O O10 0.250000 0.250000 0.858084
O O11 0.577900 0.215624 0.907083
#
# Coordination Sequence:
#
# PCOD8229290 Si02
#       6
#     4   8   8   8   8   4
#     4  12  24  44  74 100 138 188 234 288 366 424
#     4  10  23  44  66 103 139 183 234 288 353 430
#     4  11  27  46  72 105 143 183 243 300 363 431
#     4  11  26  47  73 105 139 190 237 302 360 432
#     4  11  25  44  71 108 143 186 243 299 357 435
#     4  10  24  42  70 100 146 192 230 296 358 424
#
# _framework density 23.559984
#
# number of rings (size 3 to 8) (size 9 to 14) (size 15 to 20)
#    0.000    1.200    1.000    3.600    7.000    7.200 
#    0.000    0.000    0.000    0.000    0.000    0.000 
#    0.000    0.000    0.000    0.000    0.000    0.000 
#
# Total GULP energy -495661.306915 kJ/mol
# GULP energy per Si atom -12391.532673 kJ/mol
# Density = 2.350636 g / cm^3
# Si number density = 23.559984 Si / 1000 Ang^3
#
#
#
# Elastic Constant Matrix: (Units=GPa)
#
#
# Indices 1 2 3 4 5 6 
#
# 1 94.8972 44.9767 9.5307 0.0000 0.0000 0.0000
# 2 44.9767 167.4674 62.8174 0.0000 0.0000 0.0000
# 3 9.5307 62.8174 103.3838 0.0000 0.0000 0.0000
# 4 0.0000 0.0000 0.0000 34.4099 0.0000 0.0000
# 5 0.0000 0.0000 0.0000 0.0000 20.1842 0.0000
# 6 0.0000 0.0000 0.0000 0.0000 0.0000 44.5824
#
#
#
# Elastic Compliance Matrix: (Units=1/GPa)
#
#
# Indices 1 2 3 4 5 6 
#
# 1 0.012174 -0.003689 0.001119 0.000000 0.000000 0.000000
# 2 -0.003689 0.008852 -0.005039 0.000000 0.000000 0.000000
# 3 0.001119 -0.005039 0.012631 0.000000 0.000000 0.000000
# 4 0.000000 0.000000 0.000000 0.029061 0.000000 0.000000
# 5 0.000000 0.000000 0.000000 0.000000 0.049544 0.000000
# 6 0.000000 0.000000 0.000000 0.000000 0.000000 0.022430
#
#
# Mechanical properties :
#
#
# Convention : Reuss Voigt Hill
#
# Bulk Modulus (GPa) = 54.23001 66.71088 60.47044
# Shear Modulus (GPa) = 32.03969 36.39686 34.21827
#
# Velocity S-wave (km/s) = 3.69171 3.93473 3.81516
# Velocity P-wave (km/s) = 6.42179 7.00140 6.71785
#
# Compressibility (1/GPa) = 0.01843997
#
# Stress axis : x y z
#
# Youngs Moduli (GPa) = 82.14286 112.96661 79.17033
#
# Poissons Ratio (x) = 0.41679 -0.08863
# Poissons Ratio (y) = 0.30306 0.39891
# Poissons Ratio (z) = -0.09196 0.56919
#
# Static dielectric constant tensor:
#      x y z
#    x 3.972230 0.000000 0.000000 
#    y 0.000000 4.482210 0.000000 
#    z 0.000000 0.000000 5.763120 
# 
# 
# High freq. dielectric constant tensor:
#      x y z
#    x 1.932620 0.000000 0.000000 
#    y 0.000000 1.960060 0.000000 
#    z 0.000000 0.000000 1.922670 
# 
# From -- ./inp_files/20351.got.cif
#   From: 2010.03.12/outbox.cif.g09.slc.cpg/sg56_11_cif.got.tgz:20351.got - 2010.04.16 15:33:40.
