data_PCOD8229152
_publ_section_title
;
Structure prediction by ZEFSAII (Michael W. Deem and Ramdas Pophale) SiO2 
 PCOD8229152
Probable space group: P C C N
;
_chemical_formula_sum "Si O2"
_cell_formula_units_Z 48
_cell_length_a 13.763170
_cell_length_b 16.744926
_cell_length_c 9.520103
_cell_angle_alpha 90.000000
_cell_angle_beta 90.000000
_cell_angle_gamma 90.000000
_cell_volume 2194.034003
_symmetry_space_group_name_H-M "P C C N"
_symmetry_group_IT_number 56
_symmetry_cell_setting 'orthorhombic'
loop_
_space_group_symop_operation_xyz
x,y,z
1/2-x,1/2-y,z
1/2+x,-y,1/2-z
-x,1/2+y,1/2-z
-x,-y,-z
1/2+x,1/2+y,-z
1/2-x,y,1/2+z
x,1/2-y,1/2+z
loop_
_atom_site_type_symbol
_atom_site_label
_atom_site_fract_x
_atom_site_fract_y
_atom_site_fract_z
Si Si1 0.185753 0.175103 0.156097
Si Si2 0.356437 0.725535 0.534178
Si Si3 0.465385 0.824058 0.310147
Si Si4 0.548252 0.999644 0.780051
Si Si5 0.636404 0.052309 0.071215
Si Si6 0.788448 0.576032 0.616196
O O1 0.250000 0.250000 0.109038
O O2 0.222049 0.140493 0.304233
O O3 0.075762 0.205725 0.173459
O O4 0.193446 0.106126 0.040439
O O5 0.250000 0.750000 0.588237
O O6 0.401676 0.795590 0.440966
O O7 0.425276 0.712068 0.666199
O O8 0.346979 0.646441 0.439390
O O9 0.462663 0.919716 0.308682
O O10 0.442393 0.962891 0.807133
O O11 0.608182 0.934389 0.692266
O O12 0.602636 0.013797 0.925952
O O13 0.736518 0.010276 0.115425
#
# Coordination Sequence:
#
# PCOD8229152 Si02
#       6
#     8   8   8   8   8   8
#     4  12  29  44  70 105 146 188 238 293 359 429
#     4  11  25  45  73 102 143 186 237 298 361 424
#     4  11  26  46  70 109 142 185 240 291 360 428
#     4  10  22  43  71 100 138 187 233 291 353 425
#     4  10  22  43  70  99 142 183 234 292 359 414
#     4  12  24  47  72 101 138 190 239 291 357 425
#
# _framework density 21.877507999999999
#
# number of rings (size 3 to 8) (size 9 to 14) (size 15 to 20)
#    0.000    1.000    3.333    2.000    7.000    2.000 
#    3.000    0.000    0.000    0.000    0.000    0.000 
#    0.000    0.000    0.000    0.000    0.000    0.000 
#
# Total GULP energy -595634.179240 kJ/mol
# GULP energy per Si atom -12409.045401 kJ/mol
# Density = 2.182771 g / cm^3
# Si number density = 21.877508 Si / 1000 Ang^3
#
#
#
# Elastic Constant Matrix: (Units=GPa)
#
#
# Indices 1 2 3 4 5 6 
#
# 1 155.3984 46.3155 41.7842 0.0000 0.0000 0.0000
# 2 46.3155 68.5319 13.0399 0.0000 0.0000 0.0000
# 3 41.7842 13.0399 69.0737 0.0000 0.0000 0.0000
# 4 0.0000 0.0000 0.0000 29.1304 0.0000 0.0000
# 5 0.0000 0.0000 0.0000 0.0000 32.5600 0.0000
# 6 0.0000 0.0000 0.0000 0.0000 0.0000 39.3005
#
#
#
# Elastic Compliance Matrix: (Units=1/GPa)
#
#
# Indices 1 2 3 4 5 6 
#
# 1 0.009279 -0.005397 -0.004594 0.000000 0.000000 0.000000
# 2 -0.005397 0.018274 -0.000185 0.000000 0.000000 0.000000
# 3 -0.004594 -0.000185 0.017291 0.000000 0.000000 0.000000
# 4 0.000000 0.000000 0.000000 0.034328 0.000000 0.000000
# 5 0.000000 0.000000 0.000000 0.000000 0.030712 0.000000
# 6 0.000000 0.000000 0.000000 0.000000 0.000000 0.025445
#
#
# Mechanical properties :
#
#
# Convention : Reuss Voigt Hill
#
# Bulk Modulus (GPa) = 40.82943 55.03146 47.93044
# Shear Modulus (GPa) = 30.51636 32.98916 31.75276
#
# Velocity S-wave (km/s) = 3.73885 3.88739 3.81384
# Velocity P-wave (km/s) = 6.11081 6.73483 6.43039
#
# Compressibility (1/GPa) = 0.02449214
#
# Stress axis : x y z
#
# Youngs Moduli (GPa) = 107.77239 54.72191 57.83234
#
# Poissons Ratio (x) = 0.29532 0.26569
# Poissons Ratio (y) = 0.58161 0.01072
# Poissons Ratio (z) = 0.49512 0.01014
#
# Static dielectric constant tensor:
#      x y z
#    x 4.078680 0.000000 0.000000 
#    y 0.000000 3.867780 0.000000 
#    z 0.000000 0.000000 3.843840 
# 
# 
# High freq. dielectric constant tensor:
#      x y z
#    x 1.872900 0.000000 0.000000 
#    y 0.000000 1.860310 0.000000 
#    z 0.000000 0.000000 1.860610 
# 
# From -- ./inp_files/3406.got.cif
#   From: 2010.03.12/outbox.cif.g09.slc.cpg/sg56_2_cif.got.tgz:3406.got - 2010.04.16 15:33:40.
