data_PCOD8229294
_publ_section_title
;
Structure prediction by ZEFSAII (Michael W. Deem and Ramdas Pophale) SiO2 
 PCOD8229294
Probable space group: P C C N
;
_chemical_formula_sum "Si O2"
_cell_formula_units_Z 40
_cell_length_a 19.908099
_cell_length_b 8.295245
_cell_length_c 9.456183
_cell_angle_alpha 90.000000
_cell_angle_beta 90.000000
_cell_angle_gamma 90.000000
_cell_volume 1561.618256
_symmetry_space_group_name_H-M "P C C N"
_symmetry_group_IT_number 56
_symmetry_cell_setting 'orthorhombic'
loop_
_space_group_symop_operation_xyz
x,y,z
1/2-x,1/2-y,z
1/2+x,-y,1/2-z
-x,1/2+y,1/2-z
-x,-y,-z
1/2+x,1/2+y,-z
1/2-x,y,1/2+z
x,1/2-y,1/2+z
loop_
_atom_site_type_symbol
_atom_site_label
_atom_site_fract_x
_atom_site_fract_y
_atom_site_fract_z
Si Si1 0.164039 0.106697 0.865329
Si Si2 0.308285 0.030852 0.860211
Si Si3 0.096017 0.058560 0.577307
Si Si4 0.915407 0.983247 0.869363
Si Si5 0.991577 0.704364 0.151731
O O1 0.229165 0.986263 0.855116
O O2 0.188569 0.282141 0.911171
O O3 0.132793 0.134755 0.711210
O O4 0.106904 0.031865 0.967698
O O5 0.345357 0.986859 0.713971
O O6 0.350653 0.947752 0.987787
O O7 0.065783 0.197664 0.470706
O O8 0.037912 0.948060 0.633555
O O9 0.954188 0.824941 0.803920
O O10 0.033038 0.868568 0.147432
#
# Coordination Sequence:
#
# PCOD8229294 Si02
#       5
#     8   8   8   8   8
#     4  11  23  43  75 104 135 188 247 289 360 415
#     4  10  23  45  71 103 142 183 242 302 344 430
#     4  10  23  44  67 101 147 180 229 301 342 427
#     4  11  25  47  73 106 141 197 232 294 361 432
#     4  10  26  47  68 104 153 185 239 283 366 432
#
# _framework density 25.614455
#
# number of rings (size 3 to 8) (size 9 to 14) (size 15 to 20)
#    0.000    1.600    0.000    2.400    8.400    8.800 
#    3.600    6.000    0.000    0.000    0.000    0.000 
#    0.000    0.000    0.000    0.000    0.000    0.000 
#
# Total GULP energy -495545.557867 kJ/mol
# GULP energy per Si atom -12388.638947 kJ/mol
# Density = 2.555615 g / cm^3
# Si number density = 25.614455 Si / 1000 Ang^3
#
#
#
# Elastic Constant Matrix: (Units=GPa)
#
#
# Indices 1 2 3 4 5 6 
#
# 1 202.5539 39.3564 53.4417 0.0000 0.0000 0.0000
# 2 39.3564 42.7058 8.3333 0.0000 0.0000 0.0000
# 3 53.4417 8.3333 156.7572 0.0000 0.0000 0.0000
# 4 0.0000 0.0000 0.0000 24.0825 0.0000 0.0000
# 5 0.0000 0.0000 0.0000 0.0000 36.2686 0.0000
# 6 0.0000 0.0000 0.0000 0.0000 0.0000 13.9039
#
#
#
# Elastic Compliance Matrix: (Units=1/GPa)
#
#
# Indices 1 2 3 4 5 6 
#
# 1 0.006545 -0.005655 -0.001931 0.000000 0.000000 0.000000
# 2 -0.005655 0.028548 0.000410 0.000000 0.000000 0.000000
# 3 -0.001931 0.000410 0.007016 0.000000 0.000000 0.000000
# 4 0.000000 0.000000 0.000000 0.041524 0.000000 0.000000
# 5 0.000000 0.000000 0.000000 0.000000 0.027572 0.000000
# 6 0.000000 0.000000 0.000000 0.000000 0.000000 0.071922
#
#
# Mechanical properties :
#
#
# Convention : Reuss Voigt Hill
#
# Bulk Modulus (GPa) = 36.02643 67.14218 51.58430
# Shear Modulus (GPa) = 24.18616 34.91005 29.54811
#
# Velocity S-wave (km/s) = 3.07618 3.69576 3.40011
# Velocity P-wave (km/s) = 5.16842 6.66941 5.96631
#
# Compressibility (1/GPa) = 0.02775740
#
# Stress axis : x y z
#
# Youngs Moduli (GPa) = 152.78491 35.02932 142.53722
#
# Poissons Ratio (x) = 0.19809 0.27520
# Poissons Ratio (y) = 0.86401 -0.05849
# Poissons Ratio (z) = 0.29499 -0.01437
#
# Static dielectric constant tensor:
#      x y z
#    x 5.638510 0.000000 0.000000 
#    y 0.000000 4.043070 0.000000 
#    z 0.000000 0.000000 4.823410 
# 
# 
# High freq. dielectric constant tensor:
#      x y z
#    x 2.061300 0.000000 0.000000 
#    y 0.000000 1.978000 0.000000 
#    z 0.000000 0.000000 2.037940 
# 
# From -- ./inp_files/2680.got.cif
#   From: 2010.03.12/outbox.cif.g09.slc.cpg/sg56_2_cif.got.tgz:2680.got - 2010.04.16 15:33:40.
