data_PCOD8229571
_publ_section_title
;
Structure prediction by ZEFSAII (Michael W. Deem and Ramdas Pophale) SiO2 
 PCOD8229571
Probable space group: P C C N
;
_chemical_formula_sum "Si O2"
_cell_formula_units_Z 60
_cell_length_a 11.138280
_cell_length_b 12.200779
_cell_length_c 21.213888
_cell_angle_alpha 90.000000
_cell_angle_beta 90.000000
_cell_angle_gamma 90.000000
_cell_volume 2882.876005
_symmetry_space_group_name_H-M "P C C N"
_symmetry_group_IT_number 56
_symmetry_cell_setting 'orthorhombic'
loop_
_space_group_symop_operation_xyz
x,y,z
1/2-x,1/2-y,z
1/2+x,-y,1/2-z
-x,1/2+y,1/2-z
-x,-y,-z
1/2+x,1/2+y,-z
1/2-x,y,1/2+z
x,1/2-y,1/2+z
loop_
_atom_site_type_symbol
_atom_site_label
_atom_site_fract_x
_atom_site_fract_y
_atom_site_fract_z
Si Si1 0.798137 0.911041 0.766030
Si Si2 0.177976 0.851307 0.290619
Si Si3 0.823179 0.643249 0.529880
Si Si4 0.942212 0.711760 0.735584
Si Si5 0.898960 0.568675 0.398735
Si Si6 0.684941 0.084727 0.584069
Si Si7 0.250000 0.750000 0.523121
Si Si8 0.555552 0.174800 0.399630
O O1 0.894984 0.836023 0.729618
O O2 0.664661 0.873980 0.747730
O O3 0.831711 0.883722 0.837905
O O4 0.811186 0.038543 0.750148
O O5 0.250000 0.750000 0.258332
O O6 0.231006 0.869334 0.360340
O O7 0.038914 0.812036 0.291272
O O8 0.750000 0.750000 0.548436
O O9 0.824351 0.620709 0.455741
O O10 0.777371 0.541236 0.572110
O O11 0.957940 0.667448 0.546751
O O12 0.006033 0.693551 0.669481
O O13 0.873930 0.439770 0.399387
O O14 0.042864 0.595216 0.399483
O O15 0.719129 0.146570 0.520175
O O16 0.359087 0.729596 0.572616
#
# Coordination Sequence:
#
# PCOD8229571 Si02
#       8
#     8   8   8   8   8   8   4   8
#     4  11  26  46  70 104 145 185 237 295 362 429
#     4  12  26  44  74 101 138 190 238 291 356 438
#     4  11  24  42  72 101 134 188 232 285 357 422
#     4  11  27  45  69 103 143 188 232 299 366 421
#     4  11  21  47  70  97 139 188 233 283 354 434
#     4  11  23  45  73 100 138 181 236 290 354 421
#     4  12  22  44  70 102 130 178 236 292 348 412
#     4  11  23  44  70  96 136 184 234 289 353 424
#
# _framework density 20.812548
#
# number of rings (size 3 to 8) (size 9 to 14) (size 15 to 20)
#    0.000    0.800    4.667    3.200    8.400    0.000 
#    0.000    0.667    0.000    0.000    0.000    0.000 
#    0.000    0.000    0.000    0.000    0.000    0.000 
#
# Total GULP energy -743586.404044 kJ/mol
# GULP energy per Si atom -12393.106734 kJ/mol
# Density = 2.076518 g / cm^3
# Si number density = 20.812548 Si / 1000 Ang^3
#
#
#
# Elastic Constant Matrix: (Units=GPa)
#
#
# Indices 1 2 3 4 5 6 
#
# 1 95.8095 56.3772 52.0721 0.0000 0.0000 0.0000
# 2 56.3772 132.4962 25.6218 0.0000 0.0000 0.0000
# 3 52.0721 25.6218 111.1515 0.0000 0.0000 0.0000
# 4 0.0000 0.0000 0.0000 31.1797 0.0000 0.0000
# 5 0.0000 0.0000 0.0000 0.0000 50.9469 0.0000
# 6 0.0000 0.0000 0.0000 0.0000 0.0000 31.0659
#
#
#
# Elastic Compliance Matrix: (Units=1/GPa)
#
#
# Indices 1 2 3 4 5 6 
#
# 1 0.017902 -0.006275 -0.006940 0.000000 0.000000 0.000000
# 2 -0.006275 0.010099 0.000612 0.000000 0.000000 0.000000
# 3 -0.006940 0.000612 0.012107 0.000000 0.000000 0.000000
# 4 0.000000 0.000000 0.000000 0.032072 0.000000 0.000000
# 5 0.000000 0.000000 0.000000 0.000000 0.019628 0.000000
# 6 0.000000 0.000000 0.000000 0.000000 0.000000 0.032190
#
#
# Mechanical properties :
#
#
# Convention : Reuss Voigt Hill
#
# Bulk Modulus (GPa) = 67.10955 67.51105 67.31030
# Shear Modulus (GPa) = 32.43132 36.33091 34.38112
#
# Velocity S-wave (km/s) = 3.95176 4.18260 4.06882
# Velocity P-wave (km/s) = 7.28949 7.47219 7.38140
#
# Compressibility (1/GPa) = 0.01490101
#
# Stress axis : x y z
#
# Youngs Moduli (GPa) = 55.86031 99.01805 82.59688
#
# Poissons Ratio (x) = 0.62136 0.57323
# Poissons Ratio (y) = 0.35053 -0.05053
# Poissons Ratio (z) = 0.38768 -0.06058
#
# Static dielectric constant tensor:
#      x y z
#    x 3.855780 0.000000 0.000000 
#    y 0.000000 3.903090 0.000000 
#    z 0.000000 0.000000 3.860250 
# 
# 
# High freq. dielectric constant tensor:
#      x y z
#    x 1.811660 0.000000 0.000000 
#    y 0.000000 1.819270 0.000000 
#    z 0.000000 0.000000 1.827780 
# 
# From -- ./inp_files/18808.got.cif
#   From: 2010.03.12/outbox.cif.g09.slc.cpg/sg56_10_cif.got.tgz:18808.got - 2010.04.16 15:33:40.
