data_PCOD8229631
_publ_section_title
;
Structure prediction by ZEFSAII (Michael W. Deem and Ramdas Pophale) SiO2 
 PCOD8229631
Probable space group: P C C N
;
_chemical_formula_sum "Si O2"
_cell_formula_units_Z 40
_cell_length_a 8.907927
_cell_length_b 7.774093
_cell_length_c 24.454054
_cell_angle_alpha 90.000000
_cell_angle_beta 90.000000
_cell_angle_gamma 90.000000
_cell_volume 1693.468988
_symmetry_space_group_name_H-M "P C C N"
_symmetry_group_IT_number 56
_symmetry_cell_setting 'orthorhombic'
loop_
_space_group_symop_operation_xyz
x,y,z
1/2-x,1/2-y,z
1/2+x,-y,1/2-z
-x,1/2+y,1/2-z
-x,-y,-z
1/2+x,1/2+y,-z
1/2-x,y,1/2+z
x,1/2-y,1/2+z
loop_
_atom_site_type_symbol
_atom_site_label
_atom_site_fract_x
_atom_site_fract_y
_atom_site_fract_z
Si Si1 0.923859 0.250481 0.488923
Si Si2 0.387954 0.009209 0.309728
Si Si3 0.949007 0.919412 0.916575
Si Si4 0.943035 0.907585 0.703496
Si Si5 0.343055 0.570626 0.608489
O O1 0.750000 0.250000 0.506187
O O2 0.977311 0.414022 0.453705
O O3 0.944630 0.088293 0.447291
O O4 0.019590 0.250225 0.545423
O O5 0.210878 0.983286 0.298297
O O6 0.421120 0.210610 0.312319
O O7 0.434276 0.920863 0.366422
O O8 0.484422 0.917935 0.262938
O O9 0.776991 0.916421 0.896133
O O10 0.055437 0.986975 0.658937
O O11 0.250000 0.750000 0.617931
#
# Coordination Sequence:
#
# PCOD8229631 Si02
#       5
#     8   8   8   8   8
#     4   8  15  29  55  86 113 150 208 241 298 357
#     4  11  23  38  62  90 124 153 209 247 306 368
#     4   9  16  32  57  86 111 159 199 249 293 356
#     4  11  23  39  60  92 119 165 198 252 304 368
#     4   9  16  33  60  82 118 158 203 242 304 358
#
# _framework density 23.620156999999999
#
# number of rings (size 3 to 8) (size 9 to 14) (size 15 to 20)
#    0.000    2.800    4.000    1.200    0.000    0.000 
#    3.600    0.000    0.000   24.000   20.800    0.000 
#    0.000    0.000    0.000    0.000    0.000    0.000 
#
# Total GULP energy -495699.291755 kJ/mol
# GULP energy per Si atom -12392.482294 kJ/mol
# Density = 2.356640 g / cm^3
# Si number density = 23.620157 Si / 1000 Ang^3
#
#
#
# Elastic Constant Matrix: (Units=GPa)
#
#
# Indices 1 2 3 4 5 6 
#
# 1 137.2224 16.0652 94.0558 0.0000 0.0000 0.0000
# 2 16.0652 42.6034 20.4514 0.0000 0.0000 0.0000
# 3 94.0558 20.4514 179.7339 0.0000 0.0000 0.0000
# 4 0.0000 0.0000 0.0000 -32.0714 0.0000 0.0000
# 5 0.0000 0.0000 0.0000 0.0000 -84.7784 0.0000
# 6 0.0000 0.0000 0.0000 0.0000 0.0000 6.7595
#
#
#
# Elastic Compliance Matrix: (Units=1/GPa)
#
#
# Indices 1 2 3 4 5 6 
#
# 1 0.011456 -0.001525 -0.005822 0.000000 0.000000 0.000000
# 2 -0.001525 0.025032 -0.002050 0.000000 0.000000 0.000000
# 3 -0.005822 -0.002050 0.008844 0.000000 0.000000 0.000000
# 4 0.000000 0.000000 0.000000 -0.031180 0.000000 0.000000
# 5 0.000000 0.000000 0.000000 0.000000 -0.011795 0.000000
# 6 0.000000 0.000000 0.000000 0.000000 0.000000 0.147940
#
#
# Mechanical properties :
#
#
# Convention : Reuss Voigt Hill
#
# Bulk Modulus (GPa) = 37.68267 68.96719 53.32493
# Shear Modulus (GPa) = 28.10013 -6.75223 10.67395
#
# Velocity S-wave (km/s) = 3.45290 -1.69260 2.12810
# Velocity P-wave (km/s) = 5.64667 5.04401 5.35383
#
# Compressibility (1/GPa) = 0.02653740
#
# Stress axis : x y z
#
# Youngs Moduli (GPa) = 87.28836 39.94947 113.07732
#
# Poissons Ratio (x) = 0.06094 0.65829
# Poissons Ratio (y) = 0.13315 0.23181
# Poissons Ratio (z) = 0.50815 0.08190
#
# Static dielectric constant tensor:
#      x y z
#    x 4.434030 0.000000 0.000000 
#    y 0.000000 3.970130 0.000000 
#    z 0.000000 0.000000 4.422840 
# 
# 
# High freq. dielectric constant tensor:
#      x y z
#    x 1.930120 0.000000 0.000000 
#    y 0.000000 1.914400 0.000000 
#    z 0.000000 0.000000 1.947020 
# 
# From -- ./inp_files/20319.got.cif
#   From: 2010.03.12/outbox.cif.g09.slc.cpg/sg56_11_cif.got.tgz:20319.got - 2010.04.16 15:33:40.
