data_PCOD8229063
_publ_section_title
;
Structure prediction by ZEFSAII (Michael W. Deem and Ramdas Pophale) SiO2 
 PCOD8229063
Probable space group: P C C N
;
_chemical_formula_sum "Si O2"
_cell_formula_units_Z 44
_cell_length_a 28.340542
_cell_length_b 7.609708
_cell_length_c 8.537283
_cell_angle_alpha 90.000000
_cell_angle_beta 90.000000
_cell_angle_gamma 90.000000
_cell_volume 1841.178191
_symmetry_space_group_name_H-M "P C C N"
_symmetry_group_IT_number 56
_symmetry_cell_setting 'orthorhombic'
loop_
_space_group_symop_operation_xyz
x,y,z
1/2-x,1/2-y,z
1/2+x,-y,1/2-z
-x,1/2+y,1/2-z
-x,-y,-z
1/2+x,1/2+y,-z
1/2-x,y,1/2+z
x,1/2-y,1/2+z
loop_
_atom_site_type_symbol
_atom_site_label
_atom_site_fract_x
_atom_site_fract_y
_atom_site_fract_z
Si Si1 0.443473 0.210437 0.175366
Si Si2 0.387481 0.075668 0.441184
Si Si3 0.250000 0.750000 0.061600
Si Si4 0.597032 0.227945 0.867858
Si Si5 0.041272 0.938974 0.370334
Si Si6 0.688767 0.090078 0.697386
O O1 0.422733 0.063561 0.291914
O O2 0.458147 0.375447 0.281929
O O3 0.487718 0.124186 0.079820
O O4 0.402150 0.266190 0.054078
O O5 0.390110 0.888354 0.520125
O O6 0.333471 0.095204 0.368808
O O7 0.269130 0.911163 0.173680
O O8 0.206546 0.810564 0.957441
O O9 0.555838 0.289766 0.752406
O O10 0.644244 0.188789 0.772351
O O11 0.576551 0.067791 0.977549
#
# Coordination Sequence:
#
# PCOD8229063 Si02
#       6
#     8   8   4   8   8   8
#     4  11  26  41  63  97 141 193 234 275 322 390
#     4  11  24  43  62  99 138 179 226 277 336 398
#     4  10  22  40  76 106 126 158 216 290 348 424
#     4  11  21  39  66  95 135 175 225 287 327 392
#     4  11  23  38  62  95 136 188 238 272 322 380
#     4  11  21  42  69 107 126 162 217 284 346 406
#
# _framework density 23.897742999999998
#
# number of rings (size 3 to 8) (size 9 to 14) (size 15 to 20)
#    0.000    1.091    3.636    2.182    2.545    4.364 
#    0.000    0.000    0.000    3.273    0.000    0.000 
#    0.000    0.000    0.000    0.000    0.000    0.000 
#
# Total GULP energy -545133.167894 kJ/mol
# GULP energy per Si atom -12389.390179 kJ/mol
# Density = 2.384335 g / cm^3
# Si number density = 23.897743 Si / 1000 Ang^3
#
#
#
# Elastic Constant Matrix: (Units=GPa)
#
#
# Indices 1 2 3 4 5 6 
#
# 1 146.4949 58.1645 74.7396 0.0000 0.0000 0.0000
# 2 58.1645 69.3885 41.1252 0.0000 0.0000 0.0000
# 3 74.7396 41.1252 145.7705 0.0000 0.0000 0.0000
# 4 0.0000 0.0000 0.0000 31.4398 0.0000 0.0000
# 5 0.0000 0.0000 0.0000 0.0000 60.0561 0.0000
# 6 0.0000 0.0000 0.0000 0.0000 0.0000 33.8933
#
#
#
# Elastic Compliance Matrix: (Units=1/GPa)
#
#
# Indices 1 2 3 4 5 6 
#
# 1 0.011851 -0.007604 -0.003931 0.000000 0.000000 0.000000
# 2 -0.007604 0.022184 -0.002360 0.000000 0.000000 0.000000
# 3 -0.003931 -0.002360 0.009541 0.000000 0.000000 0.000000
# 4 0.000000 0.000000 0.000000 0.031807 0.000000 0.000000
# 5 0.000000 0.000000 0.000000 0.000000 0.016651 0.000000
# 6 0.000000 0.000000 0.000000 0.000000 0.000000 0.029504
#
#
# Mechanical properties :
#
#
# Convention : Reuss Voigt Hill
#
# Bulk Modulus (GPa) = 63.34446 78.85695 71.10070
# Shear Modulus (GPa) = 32.34343 37.58613 34.96478
#
# Velocity S-wave (km/s) = 3.68286 3.97014 3.82920
# Velocity P-wave (km/s) = 6.68196 7.35427 7.02616
#
# Compressibility (1/GPa) = 0.01578670
#
# Stress axis : x y z
#
# Youngs Moduli (GPa) = 84.38256 45.07674 104.80726
#
# Poissons Ratio (x) = 0.34277 0.41198
# Poissons Ratio (y) = 0.64165 0.24734
# Poissons Ratio (z) = 0.33170 0.10638
#
# Static dielectric constant tensor:
#      x y z
#    x 4.566000 0.000000 0.000000 
#    y 0.000000 4.277910 0.000000 
#    z 0.000000 0.000000 5.195800 
# 
# 
# High freq. dielectric constant tensor:
#      x y z
#    x 1.942110 0.000000 0.000000 
#    y 0.000000 1.927310 0.000000 
#    z 0.000000 0.000000 2.002230 
# 
# From -- ./inp_files/5098.got.cif
#   From: 2010.03.12/outbox.cif.g09.slc.cpg/sg56_3_cif.got.tgz:5098.got - 2010.04.16 15:33:40.
