data_PCOD8229199
_publ_section_title
;
Structure prediction by ZEFSAII (Michael W. Deem and Ramdas Pophale) SiO2 
 PCOD8229199
Probable space group: P C C N
;
_chemical_formula_sum "Si O2"
_cell_formula_units_Z 48
_cell_length_a 14.844386
_cell_length_b 9.705834
_cell_length_c 16.307216
_cell_angle_alpha 90.000000
_cell_angle_beta 90.000000
_cell_angle_gamma 90.000000
_cell_volume 2349.497146
_symmetry_space_group_name_H-M "P C C N"
_symmetry_group_IT_number 56
_symmetry_cell_setting 'orthorhombic'
loop_
_space_group_symop_operation_xyz
x,y,z
1/2-x,1/2-y,z
1/2+x,-y,1/2-z
-x,1/2+y,1/2-z
-x,-y,-z
1/2+x,1/2+y,-z
1/2-x,y,1/2+z
x,1/2-y,1/2+z
loop_
_atom_site_type_symbol
_atom_site_label
_atom_site_fract_x
_atom_site_fract_y
_atom_site_fract_z
Si Si1 0.750000 0.750000 0.659666
Si Si2 0.427523 0.151149 0.428656
Si Si3 0.581895 0.135442 0.932724
Si Si4 0.966015 0.894669 0.885384
Si Si5 0.465107 0.893601 0.885703
Si Si6 0.750000 0.250000 0.335282
Si Si7 0.164723 0.496238 0.750072
O O1 0.667050 0.790687 0.601794
O O2 0.731899 0.620486 0.718041
O O3 0.503899 0.260445 0.404952
O O4 0.422606 0.130008 0.525812
O O5 0.453183 0.006104 0.386453
O O6 0.674384 0.187025 0.894336
O O7 0.555483 0.982599 0.902279
O O8 0.591914 0.130811 0.031131
O O9 0.884725 0.943291 0.830151
O O10 0.005937 0.753454 0.848798
O O11 0.405390 0.973060 0.821267
O O12 0.781875 0.367541 0.273681
#
# Coordination Sequence:
#
# PCOD8229199 Si02
#       7
#     4   8   8   8   8   4   8
#     4  12  28  44  70 100 142 174 230 280 340 402
#     4  10  22  49  70  96 131 185 228 273 331 411
#     4  10  22  49  70  96 131 185 228 273 331 411
#     4  10  24  44  73  97 134 179 227 274 340 402
#     4  10  24  44  73  97 134 179 227 274 340 402
#     4  12  28  44  70 100 142 174 230 280 340 402
#     4  12  28  42  66 110 134 180 218 290 348 386
#
# _framework density 20.429904000000001
#
# number of rings (size 3 to 8) (size 9 to 14) (size 15 to 20)
#    0.000    1.333    3.333    0.000    9.333    2.667 
#    0.000    0.000    0.000    0.000    0.000    0.000 
#    0.000    0.000    0.000    0.000    0.000    0.000 
#
# Total GULP energy -595404.060558 kJ/mol
# GULP energy per Si atom -12404.251262 kJ/mol
# Density = 2.038340 g / cm^3
# Si number density = 20.429904 Si / 1000 Ang^3
#
#
#
# Elastic Constant Matrix: (Units=GPa)
#
#
# Indices 1 2 3 4 5 6 
#
# 1 85.0830 13.9145 34.4435 0.0000 0.0000 0.0000
# 2 13.9145 110.8232 24.1766 0.0000 0.0000 0.0000
# 3 34.4435 24.1766 62.6145 0.0000 0.0000 0.0000
# 4 0.0000 0.0000 0.0000 32.1339 0.0000 0.0000
# 5 0.0000 0.0000 0.0000 0.0000 13.6561 0.0000
# 6 0.0000 0.0000 0.0000 0.0000 0.0000 34.3188
#
#
#
# Elastic Compliance Matrix: (Units=1/GPa)
#
#
# Indices 1 2 3 4 5 6 
#
# 1 0.015121 -0.000092 -0.008283 0.000000 0.000000 0.000000
# 2 -0.000092 0.009854 -0.003754 0.000000 0.000000 0.000000
# 3 -0.008283 -0.003754 0.021977 0.000000 0.000000 0.000000
# 4 0.000000 0.000000 0.000000 0.031120 0.000000 0.000000
# 5 0.000000 0.000000 0.000000 0.000000 0.073227 0.000000
# 6 0.000000 0.000000 0.000000 0.000000 0.000000 0.029139
#
#
# Mechanical properties :
#
#
# Convention : Reuss Voigt Hill
#
# Bulk Modulus (GPa) = 44.06373 44.84333 44.45353
# Shear Modulus (GPa) = 23.55608 28.42084 25.98846
#
# Velocity S-wave (km/s) = 3.39930 3.73384 3.57049
# Velocity P-wave (km/s) = 6.08457 6.37074 6.22930
#
# Compressibility (1/GPa) = 0.02269440
#
# Stress axis : x y z
#
# Youngs Moduli (GPa) = 66.13234 101.48242 45.50308
#
# Poissons Ratio (x) = 0.00930 0.37688
# Poissons Ratio (y) = 0.00606 0.17084
# Poissons Ratio (z) = 0.54775 0.38100
#
# Static dielectric constant tensor:
#      x y z
#    x 3.588700 0.000000 0.000000 
#    y 0.000000 4.394970 0.000000 
#    z 0.000000 0.000000 3.708730 
# 
# 
# High freq. dielectric constant tensor:
#      x y z
#    x 1.784840 0.000000 0.000000 
#    y 0.000000 1.827580 0.000000 
#    z 0.000000 0.000000 1.804250 
# 
# From -- ./inp_files/12728.got.cif
#   From: 2010.03.12/outbox.cif.g09.slc.cpg/sg56_7_cif.got.tgz:12728.got - 2010.04.16 15:33:40.
