data_PCOD8229828
_publ_section_title
;
Structure prediction by ZEFSAII (Michael W. Deem and Ramdas Pophale) SiO2 
 PCOD8229828
Probable space group: P C C N
;
_chemical_formula_sum "Si O2"
_cell_formula_units_Z 36
_cell_length_a 10.985202
_cell_length_b 10.985197
_cell_length_c 13.947347
_cell_angle_alpha 90.000000
_cell_angle_beta 90.000000
_cell_angle_gamma 90.000000
_cell_volume 1683.090633
_symmetry_space_group_name_H-M "P C C N"
_symmetry_group_IT_number 56
_symmetry_cell_setting 'orthorhombic'
loop_
_space_group_symop_operation_xyz
x,y,z
1/2-x,1/2-y,z
1/2+x,-y,1/2-z
-x,1/2+y,1/2-z
-x,-y,-z
1/2+x,1/2+y,-z
1/2-x,y,1/2+z
x,1/2-y,1/2+z
loop_
_atom_site_type_symbol
_atom_site_label
_atom_site_fract_x
_atom_site_fract_y
_atom_site_fract_z
Si Si1 0.648076 0.351924 0.783108
Si Si2 0.489540 0.319866 0.166714
Si Si3 0.147394 0.647394 0.502327
Si Si4 0.250000 0.250000 0.750000
Si Si5 0.319866 0.489540 0.833286
O O1 0.750000 0.250000 0.791940
O O2 0.534636 0.297033 0.726499
O O3 0.702967 0.465364 0.726499
O O4 0.607790 0.392210 0.890927
O O5 0.528184 0.302497 0.054894
O O6 0.344615 0.321264 0.180793
O O7 0.554403 0.445597 0.205467
O O8 0.250000 0.750000 0.501188
O O9 0.197503 0.528184 0.445106
O O10 0.321264 0.344615 0.819207
#
# Coordination Sequence:
#
# PCOD8229828 Si02
#       5
#     8   8   8   4   8
#     4   9  16  35  65  89 117 154 199 243 299 350
#     4   9  20  38  56  90 115 157 198 241 294 346
#     4   9  16  35  65  89 115 158 197 245 295 350
#     4  12  24  36  66  84 124 162 196 240 294 348
#     4   9  20  38  56  90 115 157 198 241 294 346
#
# _framework density 21.389223999999999
#
# number of rings (size 3 to 8) (size 9 to 14) (size 15 to 20)
#    1.333    1.333    2.222    0.000    3.111    0.000 
#    0.000    8.889    0.000    8.000    0.000    0.000 
#    0.000    0.000    0.000    0.000    0.000    0.000 
#
# Total GULP energy -445979.637951 kJ/mol
# GULP energy per Si atom -12388.323276 kJ/mol
# Density = 2.134054 g / cm^3
# Si number density = 21.389224 Si / 1000 Ang^3
#
#
#
# Elastic Constant Matrix: (Units=GPa)
#
#
# Indices 1 2 3 4 5 6 
#
# 1 84.9162 18.5434 9.3267 0.0000 0.0000 0.0000
# 2 18.5434 84.9159 9.3267 0.0000 0.0000 0.0000
# 3 9.3267 9.3267 124.8164 0.0000 0.0000 0.0000
# 4 0.0000 0.0000 0.0000 6.4465 0.0000 0.0000
# 5 0.0000 0.0000 0.0000 0.0000 6.4465 0.0000
# 6 0.0000 0.0000 0.0000 0.0000 0.0000 13.6624
#
#
#
# Elastic Compliance Matrix: (Units=1/GPa)
#
#
# Indices 1 2 3 4 5 6 
#
# 1 0.012432 -0.002634 -0.000732 0.000000 0.000000 0.000000
# 2 -0.002634 0.012432 -0.000732 0.000000 0.000000 0.000000
# 3 -0.000732 -0.000732 0.008121 0.000000 0.000000 0.000000
# 4 0.000000 0.000000 0.000000 0.155124 0.000000 0.000000
# 5 0.000000 0.000000 0.000000 0.000000 0.155122 0.000000
# 6 0.000000 0.000000 0.000000 0.000000 0.000000 0.073193
#
#
# Mechanical properties :
#
#
# Convention : Reuss Voigt Hill
#
# Bulk Modulus (GPa) = 40.34216 41.00470 40.67343
# Shear Modulus (GPa) = 11.55042 22.47453 17.01248
#
# Velocity S-wave (km/s) = 2.32634 3.24503 2.82330
# Velocity P-wave (km/s) = 5.11055 5.76651 5.44841
#
# Compressibility (1/GPa) = 0.02478796
#
# Stress axis : x y z
#
# Youngs Moduli (GPa) = 80.43749 80.43721 123.13485
#
# Poissons Ratio (x) = 0.21191 0.09015
# Poissons Ratio (y) = 0.21191 0.09015
# Poissons Ratio (z) = 0.05889 0.05889
#
# Static dielectric constant tensor:
#      x y z
#    x 3.658760 0.000000 0.000000 
#    y 0.000000 3.658750 0.000000 
#    z 0.000000 0.000000 3.897900 
# 
# 
# High freq. dielectric constant tensor:
#      x y z
#    x 1.831970 0.000000 0.000000 
#    y 0.000000 1.831970 0.000000 
#    z 0.000000 0.000000 1.819550 
# 
# From -- ./inp_files/11355.got.cif
#   From: 2010.03.12/outbox.cif.g09.slc.cpg/sg56_6_cif.got.tgz:11355.got - 2010.04.16 15:33:40.
