data_PCOD8229939
_publ_section_title
;
Structure prediction by ZEFSAII (Michael W. Deem and Ramdas Pophale) SiO2 
 PCOD8229939
Probable space group: P B C M
;
_chemical_formula_sum "Si O2"
_cell_formula_units_Z 48
_cell_length_a 9.759524
_cell_length_b 31.481954
_cell_length_c 8.773514
_cell_angle_alpha 90.000000
_cell_angle_beta 90.000000
_cell_angle_gamma 90.000000
_cell_volume 2695.652400
_symmetry_space_group_name_H-M "P B C M"
_symmetry_group_IT_number 57
_symmetry_cell_setting 'orthorhombic'
loop_
_space_group_symop_operation_xyz
x,y,z
-x,-y,1/2+z
x,1/2-y,-z
-x,1/2+y,1/2-z
-x,-y,-z
x,y,1/2-z
-x,1/2+y,z
x,1/2-y,1/2+z
loop_
_atom_site_type_symbol
_atom_site_label
_atom_site_fract_x
_atom_site_fract_y
_atom_site_fract_z
Si Si1 0.648856 0.116667 0.927895
Si Si2 0.846334 0.543820 0.929802
Si Si3 0.339329 0.378362 0.068974
Si Si4 0.842511 0.043812 0.569299
Si Si5 0.358800 0.709574 0.928546
Si Si6 0.657583 0.792213 0.930087
O O1 0.641035 0.107547 0.750000
O O2 0.494023 0.113437 0.992387
O O3 0.747816 0.081245 0.001849
O O4 0.713236 0.163889 0.957518
O O5 0.837325 0.538315 0.750000
O O6 0.753713 0.582693 0.986570
O O7 0.001839 0.552294 0.984267
O O8 0.788597 0.500931 0.005329
O O9 0.337436 0.372606 0.250000
O O10 0.275867 0.335548 0.995317
O O11 0.833241 0.042847 0.750000
O O12 0.385617 0.716741 0.750000
O O13 0.274818 0.750000 0.000000
O O14 0.500837 0.708029 0.017829
O O15 0.671781 0.791176 0.750000
O O16 0.730742 0.750000 0.000000
#
# Coordination Sequence:
#
# PCOD8229939 Si02
#       6
#     8   8   8   8   8   8
#     4   8  15  27  44  64  87 115 145 178 215 256
#     4   9  18  31  47  65  86 114 147 182 220 261
#     4   9  17  30  45  64  90 117 145 179 219 258
#     4   9  17  31  48  64  84 115 150 179 215 265
#     4   9  15  25  41  62  89 118 146 176 213 256
#     4  10  17  26  42  65  91 118 147 178 215 257
#
# _framework density 17.806450999999999
#
# number of rings (size 3 to 8) (size 9 to 14) (size 15 to 20)
#    0.000    3.000    0.000    4.000    0.000    1.333 
#    0.000    4.167    0.000    1.000    0.000    2.333 
#    0.000    0.000    0.000    0.000    0.000    0.000 
#
# Total GULP energy -594772.348929 kJ/mol
# GULP energy per Si atom -12391.090603 kJ/mol
# Density = 1.776592 g / cm^3
# Si number density = 17.806451 Si / 1000 Ang^3
#
#
#
# Elastic Constant Matrix: (Units=GPa)
#
#
# Indices 1 2 3 4 5 6 
#
# 1 52.9999 69.6346 17.6466 0.0000 0.0000 0.0000
# 2 69.6346 210.1888 46.0913 0.0000 0.0000 0.0000
# 3 17.6466 46.0913 52.1793 0.0000 0.0000 0.0000
# 4 0.0000 0.0000 0.0000 33.4055 0.0000 0.0000
# 5 0.0000 0.0000 0.0000 0.0000 10.9737 0.0000
# 6 0.0000 0.0000 0.0000 0.0000 0.0000 8.6261
#
#
#
# Elastic Compliance Matrix: (Units=1/GPa)
#
#
# Indices 1 2 3 4 5 6 
#
# 1 0.033561 -0.010703 -0.001896 0.000000 0.000000 0.000000
# 2 -0.010703 0.009314 -0.004607 0.000000 0.000000 0.000000
# 3 -0.001896 -0.004607 0.023876 0.000000 0.000000 0.000000
# 4 0.000000 0.000000 0.000000 0.029935 0.000000 0.000000
# 5 0.000000 0.000000 0.000000 0.000000 0.091127 0.000000
# 6 0.000000 0.000000 0.000000 0.000000 0.000000 0.115927
#
#
# Mechanical properties :
#
#
# Convention : Reuss Voigt Hill
#
# Bulk Modulus (GPa) = 30.92318 64.67921 47.80119
# Shear Modulus (GPa) = 14.32945 22.73413 18.53179
#
# Velocity S-wave (km/s) = 2.83986 3.57702 3.22954
# Velocity P-wave (km/s) = 5.30632 7.31180 6.38825
#
# Compressibility (1/GPa) = 0.03233820
#
# Stress axis : x y z
#
# Youngs Moduli (GPa) = 29.79607 107.36713 41.88348
#
# Poissons Ratio (x) = 1.14915 0.07941
# Poissons Ratio (y) = 0.31891 0.19298
# Poissons Ratio (z) = 0.05649 0.49469
#
# Static dielectric constant tensor:
#      x y z
#    x 3.076840 0.000000 0.000000 
#    y 0.000000 4.141610 0.000000 
#    z 0.000000 0.000000 3.122810 
# 
# 
# High freq. dielectric constant tensor:
#      x y z
#    x 1.634120 0.000000 0.000000 
#    y 0.000000 1.716380 0.000000 
#    z 0.000000 0.000000 1.671700 
# 
# From -- ./inp_files/3526.got.cif
#   From: 2010.03.12/outbox.cif.g09.slc.cpg/sg57_2_cif.got.tgz:3526.got - 2010.04.16 15:48:40.
