data_PCOD8229428
_publ_section_title
;
Structure prediction by ZEFSAII (Michael W. Deem and Ramdas Pophale) SiO2 
 PCOD8229428
Probable space group: P C C N
;
_chemical_formula_sum "Si O2"
_cell_formula_units_Z 32
_cell_length_a 11.573360
_cell_length_b 10.530955
_cell_length_c 9.413214
_cell_angle_alpha 90.000000
_cell_angle_beta 90.000000
_cell_angle_gamma 90.000000
_cell_volume 1147.268717
_symmetry_space_group_name_H-M "P C C N"
_symmetry_group_IT_number 56
_symmetry_cell_setting 'orthorhombic'
loop_
_space_group_symop_operation_xyz
x,y,z
1/2-x,1/2-y,z
1/2+x,-y,1/2-z
-x,1/2+y,1/2-z
-x,-y,-z
1/2+x,1/2+y,-z
1/2-x,y,1/2+z
x,1/2-y,1/2+z
loop_
_atom_site_type_symbol
_atom_site_label
_atom_site_fract_x
_atom_site_fract_y
_atom_site_fract_z
Si Si1 0.617912 0.323254 0.380662
Si Si2 0.382037 0.369036 0.302477
Si Si3 0.563928 0.853899 0.519465
Si Si4 0.794441 0.421739 0.607474
O O1 0.506223 0.417023 0.370478
O O2 0.571415 0.187267 0.444915
O O3 0.724062 0.368337 0.474647
O O4 0.668358 0.312386 0.219708
O O5 0.352835 0.237291 0.385135
O O6 0.287586 0.477131 0.314064
O O7 0.399644 0.327131 0.140766
O O8 0.587967 0.001098 0.562845
#
# Coordination Sequence:
#
# PCOD8229428 Si02
#       4
#     8   8   8   8
#     4  10  27  45  77 119 152 206 274 317 402 485
#     4  10  24  46  76 111 157 203 264 327 389 475
#     4  10  25  46  76 113 158 205 264 329 390 479
#     4  12  22  49  81 108 161 211 257 333 403 459
#
# _framework density 27.892330999999999
#
# number of rings (size 3 to 8) (size 9 to 14) (size 15 to 20)
#    1.500    0.000    2.500    1.500    3.500    3.000 
#    4.500    3.750    0.000    0.000    0.000    0.000 
#    0.000    0.000    0.000    0.000    0.000    0.000 
#
# Total GULP energy -396548.043007 kJ/mol
# GULP energy per Si atom -12392.126344 kJ/mol
# Density = 2.782885 g / cm^3
# Si number density = 27.892331 Si / 1000 Ang^3
#
#
#
# Elastic Constant Matrix: (Units=GPa)
#
#
# Indices 1 2 3 4 5 6 
#
# 1 180.8915 62.2501 62.7759 0.0000 0.0000 0.0000
# 2 62.2501 115.9775 68.1281 0.0000 0.0000 0.0000
# 3 62.7759 68.1281 223.7211 0.0000 0.0000 0.0000
# 4 0.0000 0.0000 0.0000 -304.4956 0.0000 0.0000
# 5 0.0000 0.0000 0.0000 0.0000 291.7348 0.0000
# 6 0.0000 0.0000 0.0000 0.0000 0.0000 31.6614
#
#
#
# Elastic Compliance Matrix: (Units=1/GPa)
#
#
# Indices 1 2 3 4 5 6 
#
# 1 0.006957 -0.003151 -0.000993 0.000000 0.000000 0.000000
# 2 -0.003151 0.011928 -0.002748 0.000000 0.000000 0.000000
# 3 -0.000993 -0.002748 0.005585 0.000000 0.000000 0.000000
# 4 0.000000 0.000000 0.000000 -0.003284 0.000000 0.000000
# 5 0.000000 0.000000 0.000000 0.000000 0.003428 0.000000
# 6 0.000000 0.000000 0.000000 0.000000 0.000000 0.031584
#
#
# Mechanical properties :
#
#
# Convention : Reuss Voigt Hill
#
# Bulk Modulus (GPa) = 93.57438 100.76645 97.17042
# Shear Modulus (GPa) = 67.98654 25.60919 46.79786
#
# Velocity S-wave (km/s) = 4.94242 3.03338 4.10054
# Velocity P-wave (km/s) = 8.13581 6.96232 7.57183
#
# Compressibility (1/GPa) = 0.01068669
#
# Stress axis : x y z
#
# Youngs Moduli (GPa) = 143.74000 83.83620 179.04338
#
# Poissons Ratio (x) = 0.26417 0.17771
# Poissons Ratio (y) = 0.45293 0.49204
# Poissons Ratio (z) = 0.14267 0.23040
#
# Static dielectric constant tensor:
#      x y z
#    x 5.904570 0.000000 0.000000 
#    y 0.000000 5.219270 0.000000 
#    z 0.000000 0.000000 4.998860 
# 
# 
# High freq. dielectric constant tensor:
#      x y z
#    x 2.181550 0.000000 0.000000 
#    y 0.000000 2.120600 0.000000 
#    z 0.000000 0.000000 2.137200 
# 
# From -- ./inp_files/2478.got.cif
#   From: 2010.03.12/outbox.cif.g09.slc.cpg/sg56_2_cif.got.tgz:2478.got - 2010.04.16 15:33:40.
