data_PCOD8229010
_publ_section_title
;
Structure prediction by ZEFSAII (Michael W. Deem and Ramdas Pophale) SiO2 
 PCOD8229010
Probable space group: P C C N
;
_chemical_formula_sum "Si O2"
_cell_formula_units_Z 48
_cell_length_a 17.621284
_cell_length_b 10.909830
_cell_length_c 12.073329
_cell_angle_alpha 90.000000
_cell_angle_beta 90.000000
_cell_angle_gamma 90.000000
_cell_volume 2321.039703
_symmetry_space_group_name_H-M "P C C N"
_symmetry_group_IT_number 56
_symmetry_cell_setting 'orthorhombic'
loop_
_space_group_symop_operation_xyz
x,y,z
1/2-x,1/2-y,z
1/2+x,-y,1/2-z
-x,1/2+y,1/2-z
-x,-y,-z
1/2+x,1/2+y,-z
1/2-x,y,1/2+z
x,1/2-y,1/2+z
loop_
_atom_site_type_symbol
_atom_site_label
_atom_site_fract_x
_atom_site_fract_y
_atom_site_fract_z
Si Si1 0.122249 0.284714 0.027858
Si Si2 0.360965 0.927080 0.996959
Si Si3 0.618165 0.372500 0.761401
Si Si4 0.631948 0.635574 0.763146
Si Si5 0.992763 0.205497 0.380578
Si Si6 0.250000 0.250000 0.878979
Si Si7 0.750000 0.250000 0.389749
O O1 0.146136 0.426817 0.010183
O O2 0.129141 0.250817 0.155634
O O3 0.037115 0.247060 0.990223
O O4 0.181636 0.200704 0.957296
O O5 0.428041 0.887255 0.079883
O O6 0.282856 0.859200 0.032643
O O7 0.380495 0.886888 0.871385
O O8 0.629248 0.503908 0.821696
O O9 0.539094 0.314672 0.804066
O O10 0.685153 0.289608 0.805717
O O11 0.558408 0.633757 0.684429
O O12 0.711643 0.644019 0.696160
#
# Coordination Sequence:
#
# PCOD8229010 Si02
#       7
#     8   8   8   8   8   4   4
#     4  11  23  39  66  94 128 165 209 262 319 374
#     4  11  22  43  68  88 130 170 207 258 325 379
#     4  11  23  43  64  91 130 163 216 260 311 386
#     4  11  24  38  65  94 127 164 215 261 315 377
#     4  10  23  41  62  94 120 168 213 255 313 374
#     4  10  22  40  58  98 124 164 206 258 318 378
#     4  10  26  40  64  98 124 168 210 262 318 380
#
# _framework density 20.680387
#
# number of rings (size 3 to 8) (size 9 to 14) (size 15 to 20)
#    0.000    1.333    3.333    2.500    7.000    0.667 
#    0.000    0.000    0.000    0.000    0.000    0.000 
#    0.000    0.000    0.000    0.000    0.000    0.000 
#
# Total GULP energy -594749.740930 kJ/mol
# GULP energy per Si atom -12390.619603 kJ/mol
# Density = 2.063332 g / cm^3
# Si number density = 20.680387 Si / 1000 Ang^3
#
#
#
# Elastic Constant Matrix: (Units=GPa)
#
#
# Indices 1 2 3 4 5 6 
#
# 1 116.6683 43.6247 30.0569 0.0000 0.0000 0.0000
# 2 43.6247 104.7098 50.9845 0.0000 0.0000 0.0000
# 3 30.0569 50.9845 109.6600 0.0000 0.0000 0.0000
# 4 0.0000 0.0000 0.0000 32.8566 0.0000 0.0000
# 5 0.0000 0.0000 0.0000 0.0000 32.9115 0.0000
# 6 0.0000 0.0000 0.0000 0.0000 0.0000 22.5706
#
#
#
# Elastic Compliance Matrix: (Units=1/GPa)
#
#
# Indices 1 2 3 4 5 6 
#
# 1 0.010248 -0.003751 -0.001065 0.000000 0.000000 0.000000
# 2 -0.003751 0.013718 -0.005350 0.000000 0.000000 0.000000
# 3 -0.001065 -0.005350 0.011898 0.000000 0.000000 0.000000
# 4 0.000000 0.000000 0.000000 0.030435 0.000000 0.000000
# 5 0.000000 0.000000 0.000000 0.000000 0.030384 0.000000
# 6 0.000000 0.000000 0.000000 0.000000 0.000000 0.044305
#
#
# Mechanical properties :
#
#
# Convention : Reuss Voigt Hill
#
# Bulk Modulus (GPa) = 64.38001 64.48560 64.43280
# Shear Modulus (GPa) = 30.03025 31.42589 30.72807
#
# Velocity S-wave (km/s) = 3.81479 3.90243 3.85886
# Velocity P-wave (km/s) = 7.11351 7.18018 7.14692
#
# Compressibility (1/GPa) = 0.01553277
#
# Stress axis : x y z
#
# Youngs Moduli (GPa) = 97.57707 72.89752 84.04597
#
# Poissons Ratio (x) = 0.27345 0.08950
# Poissons Ratio (y) = 0.36603 0.44962
# Poissons Ratio (z) = 0.10391 0.38998
#
# Static dielectric constant tensor:
#      x y z
#    x 4.008720 0.000000 0.000000 
#    y 0.000000 3.642340 0.000000 
#    z 0.000000 0.000000 3.909390 
# 
# 
# High freq. dielectric constant tensor:
#      x y z
#    x 1.824500 0.000000 0.000000 
#    y 0.000000 1.789700 0.000000 
#    z 0.000000 0.000000 1.818310 
# 
# From -- ./inp_files/7179.got.cif
#   From: 2010.03.12/outbox.cif.g09.slc.cpg/sg56_4_cif.got.tgz:7179.got - 2010.04.16 15:33:40.
