data_PCOD8229095
_publ_section_title
;
Structure prediction by ZEFSAII (Michael W. Deem and Ramdas Pophale) SiO2 
 PCOD8229095
Probable space group: P C C N
;
_chemical_formula_sum "Si O2"
_cell_formula_units_Z 40
_cell_length_a 17.140905
_cell_length_b 7.255932
_cell_length_c 15.072960
_cell_angle_alpha 90.000000
_cell_angle_beta 90.000000
_cell_angle_gamma 90.000000
_cell_volume 1874.672888
_symmetry_space_group_name_H-M "P C C N"
_symmetry_group_IT_number 56
_symmetry_cell_setting 'orthorhombic'
loop_
_space_group_symop_operation_xyz
x,y,z
1/2-x,1/2-y,z
1/2+x,-y,1/2-z
-x,1/2+y,1/2-z
-x,-y,-z
1/2+x,1/2+y,-z
1/2-x,y,1/2+z
x,1/2-y,1/2+z
loop_
_atom_site_type_symbol
_atom_site_label
_atom_site_fract_x
_atom_site_fract_y
_atom_site_fract_z
Si Si1 0.925546 0.807333 0.686421
Si Si2 0.780403 0.936518 0.601831
Si Si3 0.918936 0.374188 0.320419
Si Si4 0.772420 0.452898 0.416445
Si Si5 0.324906 0.538021 0.755284
O O1 0.874335 0.924217 0.614563
O O2 0.884918 0.626490 0.726846
O O3 0.005818 0.735209 0.641397
O O4 0.947242 0.951427 0.763437
O O5 0.750000 0.750000 0.647901
O O6 0.733393 0.084676 0.661767
O O7 0.754229 0.927402 0.499906
O O8 0.866015 0.455511 0.400538
O O9 0.867289 0.231929 0.262799
O O10 0.750000 0.250000 0.445950
O O11 0.727252 0.521565 0.329324
#
# Coordination Sequence:
#
# PCOD8229095 Si02
#       5
#     8   8   8   8   8
#     4  11  22  40  66  92 130 169 213 272 330 376
#     4  10  23  39  64  95 127 169 224 262 318 390
#     4  11  22  40  66  92 130 169 213 272 330 376
#     4  10  23  39  64  95 127 169 224 262 318 390
#     4  10  22  42  62  94 122 176 224 260 322 390
#
# _framework density 21.337053999999998
#
# number of rings (size 3 to 8) (size 9 to 14) (size 15 to 20)
#    0.000    1.600    4.000    0.000    5.600    0.000 
#    0.000   10.000    0.000    0.000    0.000    0.000 
#    0.000    0.000    0.000    0.000    0.000    0.000 
#
# Total GULP energy -495536.066476 kJ/mol
# GULP energy per Si atom -12388.401662 kJ/mol
# Density = 2.128849 g / cm^3
# Si number density = 21.337054 Si / 1000 Ang^3
#
#
#
# Elastic Constant Matrix: (Units=GPa)
#
#
# Indices 1 2 3 4 5 6 
#
# 1 162.1284 23.6227 50.2198 0.0000 0.0000 0.0000
# 2 23.6227 60.8864 6.5407 0.0000 0.0000 0.0000
# 3 50.2198 6.5407 112.7185 0.0000 0.0000 0.0000
# 4 0.0000 0.0000 0.0000 13.5214 0.0000 0.0000
# 5 0.0000 0.0000 0.0000 0.0000 21.4961 0.0000
# 6 0.0000 0.0000 0.0000 0.0000 0.0000 31.1353
#
#
#
# Elastic Compliance Matrix: (Units=1/GPa)
#
#
# Indices 1 2 3 4 5 6 
#
# 1 0.007538 -0.002580 -0.003209 0.000000 0.000000 0.000000
# 2 -0.002580 0.017410 0.000139 0.000000 0.000000 0.000000
# 3 -0.003209 0.000139 0.010293 0.000000 0.000000 0.000000
# 4 0.000000 0.000000 0.000000 0.073957 0.000000 0.000000
# 5 0.000000 0.000000 0.000000 0.000000 0.046520 0.000000
# 6 0.000000 0.000000 0.000000 0.000000 0.000000 0.032118
#
#
# Mechanical properties :
#
#
# Convention : Reuss Voigt Hill
#
# Bulk Modulus (GPa) = 41.76708 55.16664 48.46686
# Shear Modulus (GPa) = 24.14120 30.25390 27.19755
#
# Velocity S-wave (km/s) = 3.36731 3.76959 3.57412
# Velocity P-wave (km/s) = 5.89371 6.69757 6.30845
#
# Compressibility (1/GPa) = 0.02394230
#
# Stress axis : x y z
#
# Youngs Moduli (GPa) = 132.66625 57.43829 97.15221
#
# Poissons Ratio (x) = 0.14818 0.31172
# Poissons Ratio (y) = 0.34225 -0.01352
# Poissons Ratio (z) = 0.42567 -0.00799
#
# Static dielectric constant tensor:
#      x y z
#    x 4.112190 0.000000 0.000000 
#    y 0.000000 3.979700 0.000000 
#    z 0.000000 0.000000 3.398820 
# 
# 
# High freq. dielectric constant tensor:
#      x y z
#    x 1.843600 0.000000 0.000000 
#    y 0.000000 1.855370 0.000000 
#    z 0.000000 0.000000 1.799170 
# 
# From -- ./inp_files/10508.got.cif
#   From: 2010.03.12/outbox.cif.g09.slc.cpg/sg56_6_cif.got.tgz:10508.got - 2010.04.16 15:33:40.
