data_PCOD8229500
_publ_section_title
;
Structure prediction by ZEFSAII (Michael W. Deem and Ramdas Pophale) SiO2 
 PCOD8229500
Probable space group: P C C N
;
_chemical_formula_sum "Si O2"
_cell_formula_units_Z 64
_cell_length_a 11.525353
_cell_length_b 14.891163
_cell_length_c 18.132701
_cell_angle_alpha 90.000000
_cell_angle_beta 90.000000
_cell_angle_gamma 90.000000
_cell_volume 3112.041313
_symmetry_space_group_name_H-M "P C C N"
_symmetry_group_IT_number 56
_symmetry_cell_setting 'orthorhombic'
loop_
_space_group_symop_operation_xyz
x,y,z
1/2-x,1/2-y,z
1/2+x,-y,1/2-z
-x,1/2+y,1/2-z
-x,-y,-z
1/2+x,1/2+y,-z
1/2-x,y,1/2+z
x,1/2-y,1/2+z
loop_
_atom_site_type_symbol
_atom_site_label
_atom_site_fract_x
_atom_site_fract_y
_atom_site_fract_z
Si Si1 0.187656 0.666647 0.101889
Si Si2 0.663996 0.989606 0.180700
Si Si3 0.586133 0.496699 0.185268
Si Si4 0.805091 0.846896 0.430610
Si Si5 0.504925 0.866285 0.808897
Si Si6 0.630991 0.294382 0.237900
Si Si7 0.535210 0.914839 0.047809
Si Si8 0.840052 0.994573 0.855131
O O1 0.250000 0.750000 0.060318
O O2 0.133797 0.708927 0.174676
O O3 0.273971 0.585946 0.124916
O O4 0.084064 0.639891 0.047946
O O5 0.792525 0.976047 0.146332
O O6 0.621460 0.092350 0.171792
O O7 0.571902 0.932250 0.133074
O O8 0.668582 0.966107 0.268403
O O9 0.566576 0.565200 0.252645
O O10 0.605852 0.395014 0.211873
O O11 0.478327 0.505013 0.128695
O O12 0.750000 0.750000 0.424612
O O13 0.915547 0.859332 0.379361
O O14 0.855417 0.863110 0.512299
O O15 0.706344 0.917338 0.408325
O O16 0.481676 0.766078 0.780601
O O17 0.750000 0.250000 0.205708
O O18 0.500000 0.000000 0.000000
#
# Coordination Sequence:
#
# PCOD8229500 Si02
#       8
#     8   8   8   8   8   8   8   8
#     4  11  21  42  71  98 133 175 235 279 346 400
#     4  11  20  39  69 100 129 173 236 270 338 410
#     4  11  20  36  63 102 131 164 218 289 333 392
#     4  12  25  46  64  96 137 181 226 278 348 411
#     4  11  21  38  67  95 132 173 221 277 348 390
#     4  11  19  35  61 101 130 161 215 291 332 389
#     4  12  25  46  72  90 137 194 222 272 341 428
#     4  11  21  41  70 101 134 174 225 294 340 396
#
# _framework density 20.565279
#
# number of rings (size 3 to 8) (size 9 to 14) (size 15 to 20)
#    0.000    0.750    6.250    4.500    0.000    0.000 
#    4.500    4.375    0.000    0.000    0.000    0.000 
#    0.000    0.000    0.000    0.000    0.000    0.000 
#
# Total GULP energy -793040.327803 kJ/mol
# GULP energy per Si atom -12391.255122 kJ/mol
# Density = 2.051847 g / cm^3
# Si number density = 20.565279 Si / 1000 Ang^3
#
#
#
# Elastic Constant Matrix: (Units=GPa)
#
#
# Indices 1 2 3 4 5 6 
#
# 1 136.6656 30.4425 32.9227 0.0000 0.0000 0.0000
# 2 30.4425 104.8589 28.5193 0.0000 0.0000 0.0000
# 3 32.9227 28.5193 47.6250 0.0000 0.0000 0.0000
# 4 0.0000 0.0000 0.0000 27.9032 0.0000 0.0000
# 5 0.0000 0.0000 0.0000 0.0000 36.2483 0.0000
# 6 0.0000 0.0000 0.0000 0.0000 0.0000 35.0094
#
#
#
# Elastic Compliance Matrix: (Units=1/GPa)
#
#
# Indices 1 2 3 4 5 6 
#
# 1 0.008881 -0.001085 -0.005490 0.000000 0.000000 0.000000
# 2 -0.001085 0.011525 -0.006151 0.000000 0.000000 0.000000
# 3 -0.005490 -0.006151 0.028476 0.000000 0.000000 0.000000
# 4 0.000000 0.000000 0.000000 0.035838 0.000000 0.000000
# 5 0.000000 0.000000 0.000000 0.000000 0.027587 0.000000
# 6 0.000000 0.000000 0.000000 0.000000 0.000000 0.028564
#
#
# Mechanical properties :
#
#
# Convention : Reuss Voigt Hill
#
# Bulk Modulus (GPa) = 42.68088 52.54648 47.61368
# Shear Modulus (GPa) = 28.71368 32.98318 30.84843
#
# Velocity S-wave (km/s) = 3.74066 4.00913 3.87722
# Velocity P-wave (km/s) = 6.28137 6.85838 6.57620
#
# Compressibility (1/GPa) = 0.02342970
#
# Stress axis : x y z
#
# Youngs Moduli (GPa) = 112.59552 86.77049 35.11769
#
# Poissons Ratio (x) = 0.09418 0.19278
# Poissons Ratio (y) = 0.12221 0.21601
# Poissons Ratio (z) = 0.61811 0.53373
#
# Static dielectric constant tensor:
#      x y z
#    x 4.354090 0.000000 0.000000 
#    y 0.000000 4.033330 0.000000 
#    z 0.000000 0.000000 3.571180 
# 
# 
# High freq. dielectric constant tensor:
#      x y z
#    x 1.825570 0.000000 0.000000 
#    y 0.000000 1.807430 0.000000 
#    z 0.000000 0.000000 1.766950 
# 
# From -- ./inp_files/15818.got.cif
#   From: 2010.03.12/outbox.cif.g09.slc.cpg/sg56_8_cif.got.tgz:15818.got - 2010.04.16 15:33:40.
