data_PCOD8229167
_publ_section_title
;
Structure prediction by ZEFSAII (Michael W. Deem and Ramdas Pophale) SiO2 
 PCOD8229167
Probable space group: P C C N
;
_chemical_formula_sum "Si O2"
_cell_formula_units_Z 56
_cell_length_a 13.240434
_cell_length_b 15.670971
_cell_length_c 11.441978
_cell_angle_alpha 90.000000
_cell_angle_beta 90.000000
_cell_angle_gamma 90.000000
_cell_volume 2374.101247
_symmetry_space_group_name_H-M "P C C N"
_symmetry_group_IT_number 56
_symmetry_cell_setting 'orthorhombic'
loop_
_space_group_symop_operation_xyz
x,y,z
1/2-x,1/2-y,z
1/2+x,-y,1/2-z
-x,1/2+y,1/2-z
-x,-y,-z
1/2+x,1/2+y,-z
1/2-x,y,1/2+z
x,1/2-y,1/2+z
loop_
_atom_site_type_symbol
_atom_site_label
_atom_site_fract_x
_atom_site_fract_y
_atom_site_fract_z
Si Si1 0.250000 0.750000 0.273341
Si Si2 0.250000 0.250000 0.922574
Si Si3 0.529717 0.918828 0.832331
Si Si4 0.734673 0.580057 0.224695
Si Si5 0.037883 0.291032 0.972441
Si Si6 0.846038 0.087171 0.107565
Si Si7 0.038906 0.412472 0.765336
Si Si8 0.908974 0.152501 0.880013
O O1 0.288367 0.827622 0.352351
O O2 0.163103 0.785128 0.190311
O O3 0.277396 0.332603 0.846239
O O4 0.153969 0.269721 0.004877
O O5 0.651625 0.919446 0.827463
O O6 0.485253 0.895777 0.705126
O O7 0.487931 0.013099 0.859341
O O8 0.491767 0.854937 0.931916
O O9 0.716871 0.496393 0.144220
O O10 0.846581 0.574342 0.281316
O O11 0.033014 0.325622 0.839413
O O12 0.971297 0.206824 0.975808
O O13 0.959474 0.085783 0.160116
O O14 0.850284 0.086434 0.965323
#
# Coordination Sequence:
#
# PCOD8229167 Si02
#       8
#     4   4   8   8   8   8   8   8
#     4  12  24  46  68 104 140 184 234 290 352 420
#     4  10  22  44  68 100 142 182 230 276 344 416
#     4  11  24  44  68  99 140 180 235 289 346 414
#     4  10  23  45  69 104 138 183 236 283 345 412
#     4  11  23  43  68 100 137 184 230 282 347 416
#     4  11  25  46  72 104 140 184 233 293 346 415
#     4  10  23  46  70  99 138 183 233 284 347 412
#     4  12  25  43  69 103 136 181 232 288 355 409
#
# _framework density 23.587872000000001
#
# number of rings (size 3 to 8) (size 9 to 14) (size 15 to 20)
#    0.000    1.143    2.857    2.571    0.000    5.143 
#   15.429    0.000    0.000    0.000    0.000    0.000 
#    0.000    0.000    0.000    0.000    0.000    0.000 
#
# Total GULP energy -694411.353405 kJ/mol
# GULP energy per Si atom -12400.202739 kJ/mol
# Density = 2.353419 g / cm^3
# Si number density = 23.587872 Si / 1000 Ang^3
#
#
#
# Elastic Constant Matrix: (Units=GPa)
#
#
# Indices 1 2 3 4 5 6 
#
# 1 100.4546 29.3390 10.2677 0.0000 0.0000 0.0000
# 2 29.3390 112.8498 11.0891 0.0000 0.0000 0.0000
# 3 10.2677 11.0891 57.7518 0.0000 0.0000 0.0000
# 4 0.0000 0.0000 0.0000 26.0716 0.0000 0.0000
# 5 0.0000 0.0000 0.0000 0.0000 12.9781 0.0000
# 6 0.0000 0.0000 0.0000 0.0000 0.0000 38.3432
#
#
#
# Elastic Compliance Matrix: (Units=1/GPa)
#
#
# Indices 1 2 3 4 5 6 
#
# 1 0.010886 -0.002691 -0.001419 0.000000 0.000000 0.000000
# 2 -0.002691 0.009697 -0.001384 0.000000 0.000000 0.000000
# 3 -0.001419 -0.001384 0.017833 0.000000 0.000000 0.000000
# 4 0.000000 0.000000 0.000000 0.038356 0.000000 0.000000
# 5 0.000000 0.000000 0.000000 0.000000 0.077053 0.000000
# 6 0.000000 0.000000 0.000000 0.000000 0.000000 0.026080
#
#
# Mechanical properties :
#
#
# Convention : Reuss Voigt Hill
#
# Bulk Modulus (GPa) = 36.45650 41.38310 38.91980
# Shear Modulus (GPa) = 24.99577 30.16927 27.58252
#
# Velocity S-wave (km/s) = 3.25882 3.58021 3.42329
# Velocity P-wave (km/s) = 5.44509 5.88837 5.67106
#
# Compressibility (1/GPa) = 0.02742995
#
# Stress axis : x y z
#
# Youngs Moduli (GPa) = 91.86447 103.12662 56.07464
#
# Poissons Ratio (x) = 0.27748 0.07955
# Poissons Ratio (y) = 0.24718 0.07758
# Poissons Ratio (z) = 0.13033 0.14268
#
# Static dielectric constant tensor:
#      x y z
#    x 4.455040 0.000000 0.000000 
#    y 0.000000 4.538230 0.000000 
#    z 0.000000 0.000000 3.738530 
# 
# 
# High freq. dielectric constant tensor:
#      x y z
#    x 1.946980 0.000000 0.000000 
#    y 0.000000 1.956150 0.000000 
#    z 0.000000 0.000000 1.907330 
# 
# From -- ./inp_files/7918.got.cif
#   From: 2010.03.12/outbox.cif.g09.slc.cpg/sg56_4_cif.got.tgz:7918.got - 2010.04.16 15:33:40.
