data_PCOD8229614
_publ_section_title
;
Structure prediction by ZEFSAII (Michael W. Deem and Ramdas Pophale) SiO2 
 PCOD8229614
Probable space group: P C C N
;
_chemical_formula_sum "Si O2"
_cell_formula_units_Z 56
_cell_length_a 12.505705
_cell_length_b 14.247322
_cell_length_c 14.453251
_cell_angle_alpha 90.000000
_cell_angle_beta 90.000000
_cell_angle_gamma 90.000000
_cell_volume 2575.176286
_symmetry_space_group_name_H-M "P C C N"
_symmetry_group_IT_number 56
_symmetry_cell_setting 'orthorhombic'
loop_
_space_group_symop_operation_xyz
x,y,z
1/2-x,1/2-y,z
1/2+x,-y,1/2-z
-x,1/2+y,1/2-z
-x,-y,-z
1/2+x,1/2+y,-z
1/2-x,y,1/2+z
x,1/2-y,1/2+z
loop_
_atom_site_type_symbol
_atom_site_label
_atom_site_fract_x
_atom_site_fract_y
_atom_site_fract_z
Si Si1 0.021975 0.867066 0.808917
Si Si2 0.721622 0.858942 0.363884
Si Si3 0.905907 0.927575 0.238893
Si Si4 0.627379 0.242811 0.526454
Si Si5 0.027318 0.243602 0.869611
Si Si6 0.049333 0.568866 0.899644
Si Si7 0.358082 0.402914 0.475229
O O1 0.902304 0.879223 0.847541
O O2 0.017464 0.806718 0.714756
O O3 0.096020 0.817483 0.884518
O O4 0.080538 0.966248 0.795349
O O5 0.750000 0.750000 0.348291
O O6 0.793634 0.918779 0.292827
O O7 0.746389 0.888880 0.470620
O O8 0.905703 0.848486 0.159327
O O9 0.013361 0.902298 0.296853
O O10 0.750000 0.250000 0.504942
O O11 0.569932 0.207137 0.433191
O O12 0.600603 0.349603 0.543205
O O13 0.106891 0.303130 0.934626
O O14 0.134972 0.481710 0.893987
O O15 0.936484 0.547635 0.949813
#
# Coordination Sequence:
#
# PCOD8229614 Si02
#       7
#     8   8   8   8   8   8   8
#     4  12  25  47  71 105 145 183 242 305 357 441
#     4  11  22  44  69 106 144 183 241 309 358 430
#     4  11  23  42  70 103 143 183 235 297 358 426
#     4  11  26  45  67  99 141 184 234 291 357 432
#     4  11  22  45  71  99 136 186 241 290 360 432
#     4   9  17  38  66  97 129 173 230 282 334 432
#     4   9  19  36  69  98 127 177 232 285 354 418
#
# _framework density 21.746084
#
# number of rings (size 3 to 8) (size 9 to 14) (size 15 to 20)
#    0.000    1.429    4.286    1.714    2.000    3.429 
#    7.714    0.000    0.000    0.000    0.000    0.000 
#    0.000    0.000    0.000    0.000    0.000    0.000 
#
# Total GULP energy -693948.001181 kJ/mol
# GULP energy per Si atom -12391.928593 kJ/mol
# Density = 2.169659 g / cm^3
# Si number density = 21.746084 Si / 1000 Ang^3
#
#
#
# Elastic Constant Matrix: (Units=GPa)
#
#
# Indices 1 2 3 4 5 6 
#
# 1 63.9620 5.3582 21.9742 0.0000 0.0000 0.0000
# 2 5.3582 90.4729 8.3874 0.0000 0.0000 0.0000
# 3 21.9742 8.3874 92.7359 0.0000 0.0000 0.0000
# 4 0.0000 0.0000 0.0000 43.4708 0.0000 0.0000
# 5 0.0000 0.0000 0.0000 0.0000 -141.7003 0.0000
# 6 0.0000 0.0000 0.0000 0.0000 0.0000 22.5448
#
#
#
# Elastic Compliance Matrix: (Units=1/GPa)
#
#
# Indices 1 2 3 4 5 6 
#
# 1 0.017057 -0.000641 -0.003984 0.000000 0.000000 0.000000
# 2 -0.000641 0.011171 -0.000858 0.000000 0.000000 0.000000
# 3 -0.003984 -0.000858 0.011805 0.000000 0.000000 0.000000
# 4 0.000000 0.000000 0.000000 0.023004 0.000000 0.000000
# 5 0.000000 0.000000 0.000000 0.000000 -0.007057 0.000000
# 6 0.000000 0.000000 0.000000 0.000000 0.000000 0.044356
#
#
# Mechanical properties :
#
#
# Convention : Reuss Voigt Hill
#
# Bulk Modulus (GPa) = 34.40436 35.40115 34.90276
# Shear Modulus (GPa) = 41.32588 -1.04020 20.14284
#
# Velocity S-wave (km/s) = 4.36407 -0.69237 3.04678
# Velocity P-wave (km/s) = 6.42252 3.95923 5.33499
#
# Compressibility (1/GPa) = 0.02906608
#
# Stress axis : x y z
#
# Youngs Moduli (GPa) = 58.62842 89.52092 84.71055
#
# Poissons Ratio (x) = 0.05737 0.33746
# Poissons Ratio (y) = 0.03757 0.07272
# Poissons Ratio (z) = 0.23356 0.07685
#
# Static dielectric constant tensor:
#      x y z
#    x 3.658590 0.000000 0.000000 
#    y 0.000000 3.933320 0.000000 
#    z 0.000000 0.000000 4.206560 
# 
# 
# High freq. dielectric constant tensor:
#      x y z
#    x 1.836380 0.000000 0.000000 
#    y 0.000000 1.859170 0.000000 
#    z 0.000000 0.000000 1.862480 
# 
# From -- ./inp_files/11706.got.cif
#   From: 2010.03.12/outbox.cif.g09.slc.cpg/sg56_6_cif.got.tgz:11706.got - 2010.04.16 15:33:40.
