data_PCOD8229935
_publ_section_title
;
Structure prediction by ZEFSAII (Michael W. Deem and Ramdas Pophale) SiO2 
 PCOD8229935
Probable space group: P B C M
;
_chemical_formula_sum "Si O2"
_cell_formula_units_Z 56
_cell_length_a 17.696728
_cell_length_b 22.463268
_cell_length_c 8.888231
_cell_angle_alpha 90.000000
_cell_angle_beta 90.000000
_cell_angle_gamma 90.000000
_cell_volume 3533.305972
_symmetry_space_group_name_H-M "P B C M"
_symmetry_group_IT_number 57
_symmetry_cell_setting 'orthorhombic'
loop_
_space_group_symop_operation_xyz
x,y,z
-x,-y,1/2+z
x,1/2-y,-z
-x,1/2+y,1/2-z
-x,-y,-z
x,y,1/2-z
-x,1/2+y,z
x,1/2-y,1/2+z
loop_
_atom_site_type_symbol
_atom_site_label
_atom_site_fract_x
_atom_site_fract_y
_atom_site_fract_z
Si Si1 0.171872 0.465410 0.927070
Si Si2 0.870075 0.404137 0.425650
Si Si3 0.972048 0.939677 0.426253
Si Si4 0.323244 0.028337 0.922070
Si Si5 0.623339 0.104197 0.072690
Si Si6 0.484433 0.062405 0.924967
Si Si7 0.746054 0.314331 0.429397
O O1 0.164064 0.460498 0.750000
O O2 0.156982 0.532098 0.991186
O O3 0.108086 0.421452 0.999134
O O4 0.255484 0.445961 0.976894
O O5 0.854522 0.407776 0.250000
O O6 0.818887 0.351106 0.491201
O O7 0.959643 0.392455 0.458252
O O8 0.960480 0.948983 0.250000
O O9 0.000000 0.000000 0.500000
O O10 0.296605 0.028218 0.750000
O O11 0.394361 0.073315 0.944394
O O12 0.344530 0.960926 0.970161
O O13 0.623932 0.115778 0.250000
O O14 0.537039 0.110417 0.010633
O O15 0.670713 0.154330 0.988342
O O16 0.506685 0.060311 0.750000
O O17 0.500000 0.000000 0.000000
O O18 0.752877 0.250000 0.500000
O O19 0.743416 0.309845 0.250000
#
# Coordination Sequence:
#
# PCOD8229935 Si02
#       7
#     8   8   8   8   8   8   8
#     4  10  17  26  41  63  87 117 147 175 216 261
#     4   8  16  29  43  58  81 113 146 180 222 261
#     4   9  16  27  41  60  82 110 144 178 216 262
#     4   9  17  27  41  63  89 116 148 180 213 259
#     4  10  19  31  45  63  85 115 151 186 227 266
#     4   9  17  28  42  62  86 115 148 182 220 264
#     4  11  21  34  48  65  87 116 153 193 227 263
#
# _framework density 15.84918
#
# number of rings (size 3 to 8) (size 9 to 14) (size 15 to 20)
#    0.000    2.571    1.429    3.857    0.000    2.857 
#    0.000    2.143    0.000    0.000    0.000    0.000 
#    0.000    1.143    0.000    7.714    0.000    5.571 
#
# Total GULP energy -693901.133899 kJ/mol
# GULP energy per Si atom -12391.091677 kJ/mol
# Density = 1.581311 g / cm^3
# Si number density = 15.849180 Si / 1000 Ang^3
#
#
#
# Elastic Constant Matrix: (Units=GPa)
#
#
# Indices 1 2 3 4 5 6 
#
# 1 141.0617 40.9799 56.0015 0.0000 0.0000 0.0000
# 2 40.9799 46.7717 22.9316 0.0000 0.0000 0.0000
# 3 56.0015 22.9316 83.3707 0.0000 0.0000 0.0000
# 4 0.0000 0.0000 0.0000 16.0902 0.0000 0.0000
# 5 0.0000 0.0000 0.0000 0.0000 30.0783 0.0000
# 6 0.0000 0.0000 0.0000 0.0000 0.0000 13.8247
#
#
#
# Elastic Compliance Matrix: (Units=1/GPa)
#
#
# Indices 1 2 3 4 5 6 
#
# 1 0.011458 -0.007242 -0.005704 0.000000 0.000000 0.000000
# 2 -0.007242 0.029291 -0.003192 0.000000 0.000000 0.000000
# 3 -0.005704 -0.003192 0.016704 0.000000 0.000000 0.000000
# 4 0.000000 0.000000 0.000000 0.062149 0.000000 0.000000
# 5 0.000000 0.000000 0.000000 0.000000 0.033247 0.000000
# 6 0.000000 0.000000 0.000000 0.000000 0.000000 0.072334
#
#
# Mechanical properties :
#
#
# Convention : Reuss Voigt Hill
#
# Bulk Modulus (GPa) = 39.72049 56.78112 48.25080
# Shear Modulus (GPa) = 18.80750 22.08472 20.44611
#
# Velocity S-wave (km/s) = 3.44852 3.73692 3.59561
# Velocity P-wave (km/s) = 6.40097 7.38397 6.90997
#
# Compressibility (1/GPa) = 0.02517593
#
# Stress axis : x y z
#
# Youngs Moduli (GPa) = 87.27846 34.14050 59.86496
#
# Poissons Ratio (x) = 0.24725 0.34149
# Poissons Ratio (y) = 0.63207 0.19109
# Poissons Ratio (z) = 0.49786 0.10898
#
# Static dielectric constant tensor:
#      x y z
#    x 3.613210 0.000000 0.000000 
#    y 0.000000 2.590310 0.000000 
#    z 0.000000 0.000000 3.071980 
# 
# 
# High freq. dielectric constant tensor:
#      x y z
#    x 1.629010 0.000000 0.000000 
#    y 0.000000 1.530970 0.000000 
#    z 0.000000 0.000000 1.616930 
# 
# From -- ./inp_files/7062.got.cif
#   From: 2010.03.12/outbox.cif.g09.slc.cpg/sg57_4_cif.got.tgz:7062.got - 2010.04.16 15:48:40.
