data_PCOD8229796
_publ_section_title
;
Structure prediction by ZEFSAII (Michael W. Deem and Ramdas Pophale) SiO2 
 PCOD8229796
Probable space group: P C C N
;
_chemical_formula_sum "Si O2"
_cell_formula_units_Z 24
_cell_length_a 5.101518
_cell_length_b 13.351244
_cell_length_c 13.918657
_cell_angle_alpha 90.000000
_cell_angle_beta 90.000000
_cell_angle_gamma 90.000000
_cell_volume 948.022159
_symmetry_space_group_name_H-M "P C C N"
_symmetry_group_IT_number 56
_symmetry_cell_setting 'orthorhombic'
loop_
_space_group_symop_operation_xyz
x,y,z
1/2-x,1/2-y,z
1/2+x,-y,1/2-z
-x,1/2+y,1/2-z
-x,-y,-z
1/2+x,1/2+y,-z
1/2-x,y,1/2+z
x,1/2-y,1/2+z
loop_
_atom_site_type_symbol
_atom_site_label
_atom_site_fract_x
_atom_site_fract_y
_atom_site_fract_z
Si Si1 0.858123 0.639998 0.440680
Si Si2 0.872174 0.066017 0.663602
Si Si3 0.141574 0.360086 0.338478
O O1 0.750000 0.750000 0.419024
O O2 0.621602 0.568767 0.407901
O O3 0.941812 0.624691 0.551186
O O4 0.118713 0.616561 0.382700
O O5 0.904161 0.125256 0.764149
O O6 0.847121 0.947989 0.687542
O O7 0.250000 0.250000 0.320749
#
# Coordination Sequence:
#
# PCOD8229796 Si02
#       3
#     8   8   8
#     4  11  26  48  77 109 148 191 241 297 362 434
#     4  12  25  48  76 108 147 192 242 300 361 431
#     4  11  27  50  76 109 147 193 244 301 364 431
#
# _framework density 25.315866
#
# number of rings (size 3 to 8) (size 9 to 14) (size 15 to 20)
#    0.000    0.667    0.000    6.000    0.000    8.000 
#    0.000   21.667    0.000    2.000    0.000    0.000 
#    0.000    0.000    0.000    0.000    0.000    0.000 
#
# Total GULP energy -297576.986430 kJ/mol
# GULP energy per Si atom -12399.041101 kJ/mol
# Density = 2.525825 g / cm^3
# Si number density = 25.315866 Si / 1000 Ang^3
#
#
#
# Elastic Constant Matrix: (Units=GPa)
#
#
# Indices 1 2 3 4 5 6 
#
# 1 188.3104 69.0266 121.0624 0.0000 0.0000 0.0000
# 2 69.0266 160.6725 110.2331 0.0000 0.0000 0.0000
# 3 121.0624 110.2331 190.8279 0.0000 0.0000 0.0000
# 4 0.0000 0.0000 0.0000 -8.7700 0.0000 0.0000
# 5 0.0000 0.0000 0.0000 0.0000 34.1004 0.0000
# 6 0.0000 0.0000 0.0000 0.0000 0.0000 23.6024
#
#
#
# Elastic Compliance Matrix: (Units=1/GPa)
#
#
# Indices 1 2 3 4 5 6 
#
# 1 0.008969 0.000084 -0.005738 0.000000 0.000000 0.000000
# 2 0.000084 0.010311 -0.006009 0.000000 0.000000 0.000000
# 3 -0.005738 -0.006009 0.012352 0.000000 0.000000 0.000000
# 4 0.000000 0.000000 0.000000 -0.114026 0.000000 0.000000
# 5 0.000000 0.000000 0.000000 0.000000 0.029325 0.000000
# 6 0.000000 0.000000 0.000000 0.000000 0.000000 0.042369
#
#
# Mechanical properties :
#
#
# Convention : Reuss Voigt Hill
#
# Bulk Modulus (GPa) = 120.42299 126.71722 123.57011
# Shear Modulus (GPa) = 324.79795 25.75248 175.27521
#
# Velocity S-wave (km/s) = 11.33917 3.19289 8.32980
# Velocity P-wave (km/s) = 14.80227 7.98473 11.89250
#
# Compressibility (1/GPa) = 0.00830406
#
# Stress axis : x y z
#
# Youngs Moduli (GPa) = 111.49915 96.98818 80.95946
#
# Poissons Ratio (x) = -0.00813 0.46456
# Poissons Ratio (y) = -0.00934 0.48649
# Poissons Ratio (z) = 0.63980 0.58281
#
# Static dielectric constant tensor:
#      x y z
#    x 4.615800 0.000000 0.000000 
#    y 0.000000 4.997870 0.000000 
#    z 0.000000 0.000000 5.097470 
# 
# 
# High freq. dielectric constant tensor:
#      x y z
#    x 2.003230 0.000000 0.000000 
#    y 0.000000 2.030000 0.000000 
#    z 0.000000 0.000000 2.039990 
# 
# From -- ./inp_files/9306.got.cif
#   From: 2010.03.12/outbox.cif.g09.slc.cpg/sg56_5_cif.got.tgz:9306.got - 2010.04.16 15:33:40.
