data_PCOD8229715
_publ_section_title
;
Structure prediction by ZEFSAII (Michael W. Deem and Ramdas Pophale) SiO2 
 PCOD8229715
Probable space group: P C C N
;
_chemical_formula_sum "Si O2"
_cell_formula_units_Z 56
_cell_length_a 5.535361
_cell_length_b 27.161270
_cell_length_c 16.862909
_cell_angle_alpha 90.000000
_cell_angle_beta 90.000000
_cell_angle_gamma 90.000000
_cell_volume 2535.295109
_symmetry_space_group_name_H-M "P C C N"
_symmetry_group_IT_number 56
_symmetry_cell_setting 'orthorhombic'
loop_
_space_group_symop_operation_xyz
x,y,z
1/2-x,1/2-y,z
1/2+x,-y,1/2-z
-x,1/2+y,1/2-z
-x,-y,-z
1/2+x,1/2+y,-z
1/2-x,y,1/2+z
x,1/2-y,1/2+z
loop_
_atom_site_type_symbol
_atom_site_label
_atom_site_fract_x
_atom_site_fract_y
_atom_site_fract_z
Si Si1 0.155136 0.555372 0.920771
Si Si2 0.019744 0.128902 0.298269
Si Si3 0.155136 0.444628 0.920770
Si Si4 0.361745 0.799380 0.077857
Si Si5 0.861745 0.799380 0.422143
Si Si6 0.000000 0.626187 0.500000
Si Si7 0.480256 0.628902 0.298270
O O1 0.240997 0.500000 0.900688
O O2 0.380313 0.591199 0.934178
O O3 0.008542 0.577271 0.846254
O O4 0.000000 0.555941 0.000000
O O5 0.008543 0.077271 0.346254
O O6 0.265691 0.132117 0.247863
O O7 0.038061 0.175452 0.358243
O O8 0.765691 0.132117 0.252137
O O9 0.380314 0.408801 0.934178
O O10 0.250000 0.750000 0.116374
O O11 0.500000 0.780973 0.000000
O O12 0.173039 0.840785 0.052751
O O13 0.750000 0.750000 0.383626
O O14 0.673038 0.840785 0.447249
O O15 0.038061 0.824548 0.358243
#
# Coordination Sequence:
#
# PCOD8229715 Si02
#       7
#     8   8   8   8   8   8   8
#     4  11  24  43  73 104 134 187 249 305 361 435
#     4  12  27  47  70 103 154 193 230 298 372 448
#     4  11  24  43  73 104 134 187 249 305 361 435
#     4  12  25  43  75 105 137 195 259 310 369 440
#     4  12  25  43  75 105 137 195 259 310 369 440
#     4  12  19  44  72 104 142 178 245 322 364 420
#     4  12  27  47  70 103 154 193 230 298 372 448
#
# _framework density 22.088156999999999
#
# number of rings (size 3 to 8) (size 9 to 14) (size 15 to 20)
#    0.000    0.286    7.143    2.143    0.000    2.286 
#    0.000    0.000    0.000    0.000    0.000    0.000 
#    0.000    0.000    0.000    0.000    0.000    0.000 
#
# Total GULP energy -694353.460571 kJ/mol
# GULP energy per Si atom -12399.168939 kJ/mol
# Density = 2.203788 g / cm^3
# Si number density = 22.088157 Si / 1000 Ang^3
#
#
#
# Elastic Constant Matrix: (Units=GPa)
#
#
# Indices 1 2 3 4 5 6 
#
# 1 117.9726 45.3584 42.2923 0.0000 0.0000 0.0000
# 2 45.3584 181.3312 45.4204 0.0000 0.0000 0.0000
# 3 42.2923 45.4204 105.1509 0.0000 0.0000 0.0000
# 4 0.0000 0.0000 0.0000 2.3745 0.0000 0.0000
# 5 0.0000 0.0000 0.0000 0.0000 49.7470 0.0000
# 6 0.0000 0.0000 0.0000 0.0000 0.0000 -34.4815
#
#
#
# Elastic Compliance Matrix: (Units=1/GPa)
#
#
# Indices 1 2 3 4 5 6 
#
# 1 0.010371 -0.001737 -0.003421 0.000000 0.000000 0.000000
# 2 -0.001737 0.006475 -0.002098 0.000000 0.000000 0.000000
# 3 -0.003421 -0.002098 0.011792 0.000000 0.000000 0.000000
# 4 0.000000 0.000000 0.000000 0.421142 0.000000 0.000000
# 5 0.000000 0.000000 0.000000 0.000000 0.020102 0.000000
# 6 0.000000 0.000000 0.000000 0.000000 0.000000 -0.029001
#
#
# Mechanical properties :
#
#
# Convention : Reuss Voigt Hill
#
# Bulk Modulus (GPa) = 70.79332 74.51075 72.65203
# Shear Modulus (GPa) = 10.86717 21.62024 16.24370
#
# Velocity S-wave (km/s) = 2.22049 3.13200 2.71477
# Velocity P-wave (km/s) = 6.22045 6.84732 6.54140
#
# Compressibility (1/GPa) = 0.01412563
#
# Stress axis : x y z
#
# Youngs Moduli (GPa) = 96.42427 154.44293 84.80125
#
# Poissons Ratio (x) = 0.26832 0.29009
# Poissons Ratio (y) = 0.16752 0.17792
# Poissons Ratio (z) = 0.32984 0.32404
#
# Static dielectric constant tensor:
#      x y z
#    x 4.026990 0.000000 0.000000 
#    y 0.000000 4.334660 0.000000 
#    z 0.000000 0.000000 4.213830 
# 
# 
# High freq. dielectric constant tensor:
#      x y z
#    x 1.870230 0.000000 0.000000 
#    y 0.000000 1.883670 0.000000 
#    z 0.000000 0.000000 1.866610 
# 
# From -- ./inp_files/9793.got.cif
#   From: 2010.03.12/outbox.cif.g09.slc.cpg/sg56_5_cif.got.tgz:9793.got - 2010.04.16 15:33:40.
