data_PCOD8229742
_publ_section_title
;
Structure prediction by ZEFSAII (Michael W. Deem and Ramdas Pophale) SiO2 
 PCOD8229742
Probable space group: P C C N
;
_chemical_formula_sum "Si O2"
_cell_formula_units_Z 32
_cell_length_a 25.563220
_cell_length_b 4.937952
_cell_length_c 9.066273
_cell_angle_alpha 90.000000
_cell_angle_beta 90.000000
_cell_angle_gamma 90.000000
_cell_volume 1144.435218
_symmetry_space_group_name_H-M "P C C N"
_symmetry_group_IT_number 56
_symmetry_cell_setting 'orthorhombic'
loop_
_space_group_symop_operation_xyz
x,y,z
1/2-x,1/2-y,z
1/2+x,-y,1/2-z
-x,1/2+y,1/2-z
-x,-y,-z
1/2+x,1/2+y,-z
1/2-x,y,1/2+z
x,1/2-y,1/2+z
loop_
_atom_site_type_symbol
_atom_site_label
_atom_site_fract_x
_atom_site_fract_y
_atom_site_fract_z
Si Si1 0.563837 0.411844 0.157287
Si Si2 0.339850 0.572300 0.392087
Si Si3 0.804778 0.906551 0.933558
Si Si4 0.539850 0.698828 0.420569
O O1 0.598629 0.144324 0.132513
O O2 0.580723 0.547191 0.312420
O O3 0.500847 0.383167 0.172985
O O4 0.575773 0.611860 0.021702
O O5 0.344226 0.317516 0.501308
O O6 0.307789 0.824809 0.463051
O O7 0.314553 0.489272 0.235604
O O8 0.750000 0.750000 0.949237
O O9 0.500000 0.500000 0.500000
#
# Coordination Sequence:
#
# PCOD8229742 Si02
#       4
#     8   8   8   8
#     4  11  27  46  78 116 161 225 281 344 419 485
#     4  12  30  54  89 123 172 218 291 349 416 533
#     4  12  29  57  88 127 168 223 276 359 442 510
#     4  11  24  48  74 110 168 222 277 344 410 499
#
# _framework density 27.961390999999999
#
# number of rings (size 3 to 8) (size 9 to 14) (size 15 to 20)
#    0.000    0.500    2.500    3.000    7.000    4.000 
#    0.000    3.750    0.000    0.000    0.000    0.000 
#    0.000    0.000    0.000    0.000    0.000    0.000 
#
# Total GULP energy -396669.309244 kJ/mol
# GULP energy per Si atom -12395.915914 kJ/mol
# Density = 2.789775 g / cm^3
# Si number density = 27.961391 Si / 1000 Ang^3
#
#
#
# Elastic Constant Matrix: (Units=GPa)
#
#
# Indices 1 2 3 4 5 6 
#
# 1 97.6528 26.9503 29.2061 0.0000 0.0000 0.0000
# 2 26.9503 191.9971 93.5736 0.0000 0.0000 0.0000
# 3 29.2061 93.5736 175.9249 0.0000 0.0000 0.0000
# 4 0.0000 0.0000 0.0000 68.9073 0.0000 0.0000
# 5 0.0000 0.0000 0.0000 0.0000 24.1497 0.0000
# 6 0.0000 0.0000 0.0000 0.0000 0.0000 68.0301
#
#
#
# Elastic Compliance Matrix: (Units=1/GPa)
#
#
# Indices 1 2 3 4 5 6 
#
# 1 0.010883 -0.000874 -0.001342 0.000000 0.000000 0.000000
# 2 -0.000874 0.007101 -0.003632 0.000000 0.000000 0.000000
# 3 -0.001342 -0.003632 0.007839 0.000000 0.000000 0.000000
# 4 0.000000 0.000000 0.000000 0.014512 0.000000 0.000000
# 5 0.000000 0.000000 0.000000 0.000000 0.041408 0.000000
# 6 0.000000 0.000000 0.000000 0.000000 0.000000 0.014699
#
#
# Mechanical properties :
#
#
# Convention : Reuss Voigt Hill
#
# Bulk Modulus (GPa) = 70.78341 85.00385 77.89363
# Shear Modulus (GPa) = 44.30756 53.27373 48.79065
#
# Velocity S-wave (km/s) = 3.98502 4.36966 4.18177
# Velocity P-wave (km/s) = 6.82228 7.47831 7.15781
#
# Compressibility (1/GPa) = 0.01412760
#
# Stress axis : x y z
#
# Youngs Moduli (GPa) = 91.88789 140.82146 127.56833
#
# Poissons Ratio (x) = 0.12301 0.17121
# Poissons Ratio (y) = 0.08026 0.46334
# Poissons Ratio (z) = 0.12332 0.51147
#
# Static dielectric constant tensor:
#      x y z
#    x 9.975960 0.000000 0.000000 
#    y 0.000000 10.430140 0.000000 
#    z 0.000000 0.000000 5.299490 
# 
# 
# High freq. dielectric constant tensor:
#      x y z
#    x 2.133760 0.000000 0.000000 
#    y 0.000000 2.153320 0.000000 
#    z 0.000000 0.000000 2.145470 
# 
# From -- ./inp_files/5045.got.cif
#   From: 2010.03.12/outbox.cif.g09.slc.cpg/sg56_3_cif.got.tgz:5045.got - 2010.04.16 15:33:40.
