data_PCOD8229967
_publ_section_title
;
Structure prediction by ZEFSAII (Michael W. Deem and Ramdas Pophale) SiO2 
 PCOD8229967
Probable space group: P B C M
;
_chemical_formula_sum "Si O2"
_cell_formula_units_Z 40
_cell_length_a 9.389119
_cell_length_b 26.303488
_cell_length_c 8.523259
_cell_angle_alpha 90.000000
_cell_angle_beta 90.000000
_cell_angle_gamma 90.000000
_cell_volume 2104.960117
_symmetry_space_group_name_H-M "P B C M"
_symmetry_group_IT_number 57
_symmetry_cell_setting 'orthorhombic'
loop_
_space_group_symop_operation_xyz
x,y,z
-x,-y,1/2+z
x,1/2-y,-z
-x,1/2+y,1/2-z
-x,-y,-z
x,y,1/2-z
-x,1/2+y,z
x,1/2-y,1/2+z
loop_
_atom_site_type_symbol
_atom_site_label
_atom_site_fract_x
_atom_site_fract_y
_atom_site_fract_z
Si Si1 0.657054 0.500677 0.565575
Si Si2 0.170041 0.092834 0.065117
Si Si3 0.834092 0.801664 0.433178
Si Si4 0.153579 0.589738 0.066558
Si Si5 0.145301 0.700727 0.434095
O O1 0.500000 0.500000 0.500000
O O2 0.648110 0.494335 0.750000
O O3 0.732181 0.552893 0.522927
O O4 0.746173 0.453377 0.490229
O O5 0.181758 0.084648 0.250000
O O6 0.008023 0.086030 0.001794
O O7 0.228555 0.148837 0.021181
O O8 0.761022 0.750000 0.500000
O O9 0.802632 0.806276 0.250000
O O10 0.001496 0.799048 0.466087
O O11 0.144129 0.579912 0.250000
O O12 0.220283 0.646163 0.033040
O O13 0.234466 0.750000 0.500000
O O14 0.110939 0.706225 0.250000
#
# Coordination Sequence:
#
# PCOD8229967 Si02
#       5
#     8   8   8   8   8
#     4  11  22  37  53  73 100 135 173 214 260 311
#     4  10  19  34  54  78 103 132 168 212 257 303
#     4  10  17  27  45  73 105 136 165 202 247 297
#     4   8  17  32  52  75 103 133 167 207 253 302
#     4   9  15  26  44  71 102 132 162 201 248 297
#
# _framework density 19.002737
#
# number of rings (size 3 to 8) (size 9 to 14) (size 15 to 20)
#    0.000    2.400    0.000    6.600    0.000    0.000 
#    0.000   11.000    0.000    1.200    0.000    5.600 
#    0.000    0.000    0.000    0.000    0.000    0.000 
#
# Total GULP energy -495657.659568 kJ/mol
# GULP energy per Si atom -12391.441489 kJ/mol
# Density = 1.895949 g / cm^3
# Si number density = 19.002737 Si / 1000 Ang^3
#
#
#
# Elastic Constant Matrix: (Units=GPa)
#
#
# Indices 1 2 3 4 5 6 
#
# 1 72.8252 62.1485 17.6564 0.0000 0.0000 0.0000
# 2 62.1485 182.9430 17.0627 0.0000 0.0000 0.0000
# 3 17.6564 17.0627 55.1512 0.0000 0.0000 0.0000
# 4 0.0000 0.0000 0.0000 32.4750 0.0000 0.0000
# 5 0.0000 0.0000 0.0000 0.0000 18.4323 0.0000
# 6 0.0000 0.0000 0.0000 0.0000 0.0000 1.8127
#
#
#
# Elastic Compliance Matrix: (Units=1/GPa)
#
#
# Indices 1 2 3 4 5 6 
#
# 1 0.020372 -0.006500 -0.004511 0.000000 0.000000 0.000000
# 2 -0.006500 0.007703 -0.000302 0.000000 0.000000 0.000000
# 3 -0.004511 -0.000302 0.019670 0.000000 0.000000 0.000000
# 4 0.000000 0.000000 0.000000 0.030793 0.000000 0.000000
# 5 0.000000 0.000000 0.000000 0.000000 0.054253 0.000000
# 6 0.000000 0.000000 0.000000 0.000000 0.000000 0.551658
#
#
# Mechanical properties :
#
#
# Convention : Reuss Voigt Hill
#
# Bulk Modulus (GPa) = 39.81200 56.07272 47.94236
# Shear Modulus (GPa) = 6.98863 24.81413 15.90138
#
# Velocity S-wave (km/s) = 1.91981 3.61753 2.89588
# Velocity P-wave (km/s) = 5.09023 6.85715 6.03866
#
# Compressibility (1/GPa) = 0.02511805
#
# Stress axis : x y z
#
# Youngs Moduli (GPa) = 49.08619 129.82769 50.83980
#
# Poissons Ratio (x) = 0.84389 0.22934
# Poissons Ratio (y) = 0.31906 0.01536
# Poissons Ratio (z) = 0.22143 0.03921
#
# Static dielectric constant tensor:
#      x y z
#    x 3.065030 0.000000 0.000000 
#    y 0.000000 4.095220 0.000000 
#    z 0.000000 0.000000 3.354170 
# 
# 
# High freq. dielectric constant tensor:
#      x y z
#    x 1.669650 0.000000 0.000000 
#    y 0.000000 1.773920 0.000000 
#    z 0.000000 0.000000 1.733420 
# 
# From -- ./inp_files/1706.got.cif
#   From: 2010.03.12/outbox.cif.g09.slc.cpg/sg57_1_cif.got.tgz:1706.got - 2010.04.16 15:48:40.
