data_PCOD8229642
_publ_section_title
;
Structure prediction by ZEFSAII (Michael W. Deem and Ramdas Pophale) SiO2 
 PCOD8229642
Probable space group: P C C N
;
_chemical_formula_sum "Si O2"
_cell_formula_units_Z 32
_cell_length_a 4.684521
_cell_length_b 12.394666
_cell_length_c 23.302382
_cell_angle_alpha 90.000000
_cell_angle_beta 90.000000
_cell_angle_gamma 90.000000
_cell_volume 1353.007911
_symmetry_space_group_name_H-M "P C C N"
_symmetry_group_IT_number 56
_symmetry_cell_setting 'orthorhombic'
loop_
_space_group_symop_operation_xyz
x,y,z
1/2-x,1/2-y,z
1/2+x,-y,1/2-z
-x,1/2+y,1/2-z
-x,-y,-z
1/2+x,1/2+y,-z
1/2-x,y,1/2+z
x,1/2-y,1/2+z
loop_
_atom_site_type_symbol
_atom_site_label
_atom_site_fract_x
_atom_site_fract_y
_atom_site_fract_z
Si Si1 0.008237 0.676830 0.877351
Si Si2 0.465104 0.996969 0.209815
Si Si3 0.186101 0.874048 0.604844
Si Si4 0.690722 0.506449 0.056615
O O1 0.250000 0.750000 0.848192
O O2 0.172520 0.609105 0.927034
O O3 0.750000 0.750000 0.903103
O O4 0.879024 0.600063 0.828603
O O5 0.786208 0.009024 0.231938
O O6 0.444416 0.891784 0.168621
O O7 0.250000 0.750000 0.593467
O O8 0.962120 0.911773 0.554836
O O9 0.472973 0.946628 0.604024
O O10 0.500000 0.500000 0.000000
#
# Coordination Sequence:
#
# PCOD8229642 Si02
#       4
#     8   8   8   8
#     4  11  23  42  67  99 135 175 224 279 335 401
#     4  11  23  41  65  97 135 176 223 275 332 397
#     4  11  24  44  68  99 137 178 225 281 336 401
#     4  11  24  45  70  99 134 175 227 283 339 403
#
# _framework density 23.651007
#
# number of rings (size 3 to 8) (size 9 to 14) (size 15 to 20)
#    0.000    1.000    0.000    9.000    0.000    4.000 
#    0.000    7.500    0.000    0.000    0.000    0.000 
#    0.000    0.000    0.000    0.000    0.000    0.000 
#
# Total GULP energy -396586.715380 kJ/mol
# GULP energy per Si atom -12393.334856 kJ/mol
# Density = 2.359718 g / cm^3
# Si number density = 23.651007 Si / 1000 Ang^3
#
#
#
# Elastic Constant Matrix: (Units=GPa)
#
#
# Indices 1 2 3 4 5 6 
#
# 1 148.4319 71.4656 36.0186 0.0000 0.0000 0.0000
# 2 71.4656 152.9052 61.4563 0.0000 0.0000 0.0000
# 3 36.0186 61.4563 78.0725 0.0000 0.0000 0.0000
# 4 0.0000 0.0000 0.0000 9.9903 0.0000 0.0000
# 5 0.0000 0.0000 0.0000 0.0000 49.0480 0.0000
# 6 0.0000 0.0000 0.0000 0.0000 0.0000 59.7797
#
#
#
# Elastic Compliance Matrix: (Units=1/GPa)
#
#
# Indices 1 2 3 4 5 6 
#
# 1 0.008769 -0.003617 -0.001199 0.000000 0.000000 0.000000
# 2 -0.003617 0.011059 -0.007036 0.000000 0.000000 0.000000
# 3 -0.001199 -0.007036 0.018900 0.000000 0.000000 0.000000
# 4 0.000000 0.000000 0.000000 0.100098 0.000000 0.000000
# 5 0.000000 0.000000 0.000000 0.000000 0.020388 0.000000
# 6 0.000000 0.000000 0.000000 0.000000 0.000000 0.016728
#
#
# Mechanical properties :
#
#
# Convention : Reuss Voigt Hill
#
# Bulk Modulus (GPa) = 66.55739 79.69896 73.12817
# Shear Modulus (GPa) = 24.43148 37.79485 31.11316
#
# Velocity S-wave (km/s) = 3.21752 4.00186 3.63093
# Velocity P-wave (km/s) = 6.48119 7.42457 6.96886
#
# Compressibility (1/GPa) = 0.01502463
#
# Stress axis : x y z
#
# Youngs Moduli (GPa) = 114.03281 90.42766 52.90908
#
# Poissons Ratio (x) = 0.32707 0.06342
# Poissons Ratio (y) = 0.41245 0.37228
# Poissons Ratio (z) = 0.13668 0.63628
#
# Static dielectric constant tensor:
#      x y z
#    x 4.724080 0.000000 0.000000 
#    y 0.000000 4.289820 0.000000 
#    z 0.000000 0.000000 3.886450 
# 
# 
# High freq. dielectric constant tensor:
#      x y z
#    x 1.970280 0.000000 0.000000 
#    y 0.000000 1.930230 0.000000 
#    z 0.000000 0.000000 1.917130 
# 
# From -- ./inp_files/19813.got.cif
#   From: 2010.03.12/outbox.cif.g09.slc.cpg/sg56_10_cif.got.tgz:19813.got - 2010.04.16 15:33:40.
