data_PCOD8229137
_publ_section_title
;
Structure prediction by ZEFSAII (Michael W. Deem and Ramdas Pophale) SiO2 
 PCOD8229137
Probable space group: P C C N
;
_chemical_formula_sum "Si O2"
_cell_formula_units_Z 64
_cell_length_a 22.085190
_cell_length_b 15.781443
_cell_length_c 9.476388
_cell_angle_alpha 90.000000
_cell_angle_beta 90.000000
_cell_angle_gamma 90.000000
_cell_volume 3302.863952
_symmetry_space_group_name_H-M "P C C N"
_symmetry_group_IT_number 56
_symmetry_cell_setting 'orthorhombic'
loop_
_space_group_symop_operation_xyz
x,y,z
1/2-x,1/2-y,z
1/2+x,-y,1/2-z
-x,1/2+y,1/2-z
-x,-y,-z
1/2+x,1/2+y,-z
1/2-x,y,1/2+z
x,1/2-y,1/2+z
loop_
_atom_site_type_symbol
_atom_site_label
_atom_site_fract_x
_atom_site_fract_y
_atom_site_fract_z
Si Si1 0.372043 0.356619 0.290439
Si Si2 0.191708 0.304300 0.289665
Si Si3 0.055159 0.530555 0.100469
Si Si4 0.503730 0.191821 0.807084
Si Si5 0.576897 0.993648 0.583839
Si Si6 0.505616 0.351888 0.997237
Si Si7 0.190007 0.430372 0.522541
Si Si8 0.322753 0.061726 0.054341
O O1 0.365510 0.256166 0.262403
O O2 0.442817 0.365023 0.326903
O O3 0.345751 0.417604 0.169460
O O4 0.331133 0.373772 0.426421
O O5 0.250000 0.250000 0.242018
O O6 0.198639 0.337919 0.449998
O O7 0.178074 0.387127 0.198858
O O8 0.048348 0.493433 0.259306
O O9 0.122275 0.506217 0.044319
O O10 0.054113 0.632862 0.116928
O O11 0.000000 0.500000 0.000000
O O12 0.507837 0.285922 0.868974
O O13 0.512463 0.202674 0.639602
O O14 0.557148 0.075451 0.491897
O O15 0.557030 0.904716 0.509755
O O16 0.649773 0.992038 0.577544
O O17 0.254879 0.477550 0.541789
#
# Coordination Sequence:
#
# PCOD8229137 Si02
#       8
#     8   8   8   8   8   8   8   8
#     4  12  24  33  54  90 121 160 212 247 305 379
#     4  12  23  37  55  84 132 170 205 247 304 388
#     4  11  24  42  61  88 125 167 215 264 313 373
#     4  11  24  40  60  90 119 160 216 258 309 375
#     4  10  22  43  64  89 131 166 206 263 329 381
#     4  10  23  40  64  91 121 165 208 261 317 372
#     4  12  22  40  58  87 125 173 206 247 322 384
#     4  12  24  38  58  85 122 170 204 258 312 373
#
# _framework density 19.377123000000001
#
# number of rings (size 3 to 8) (size 9 to 14) (size 15 to 20)
#    0.000    0.750    6.250    1.500    3.500    0.000 
#    0.000    0.000    0.000    0.750    0.000    3.500 
#    0.000    0.000    0.000    0.000    0.000    0.000 
#
# Total GULP energy -793056.555019 kJ/mol
# GULP energy per Si atom -12391.508672 kJ/mol
# Density = 1.933302 g / cm^3
# Si number density = 19.377123 Si / 1000 Ang^3
#
#
#
# Elastic Constant Matrix: (Units=GPa)
#
#
# Indices 1 2 3 4 5 6 
#
# 1 135.5036 51.4772 33.0056 0.0000 0.0000 0.0000
# 2 51.4772 92.7146 39.2112 0.0000 0.0000 0.0000
# 3 33.0056 39.2112 84.6123 0.0000 0.0000 0.0000
# 4 0.0000 0.0000 0.0000 22.6672 0.0000 0.0000
# 5 0.0000 0.0000 0.0000 0.0000 21.3664 0.0000
# 6 0.0000 0.0000 0.0000 0.0000 0.0000 25.2580
#
#
#
# Elastic Compliance Matrix: (Units=1/GPa)
#
#
# Indices 1 2 3 4 5 6 
#
# 1 0.009518 -0.004620 -0.001572 0.000000 0.000000 0.000000
# 2 -0.004620 0.015657 -0.005454 0.000000 0.000000 0.000000
# 3 -0.001572 -0.005454 0.014959 0.000000 0.000000 0.000000
# 4 0.000000 0.000000 0.000000 0.044117 0.000000 0.000000
# 5 0.000000 0.000000 0.000000 0.000000 0.046803 0.000000
# 6 0.000000 0.000000 0.000000 0.000000 0.000000 0.039591
#
#
# Mechanical properties :
#
#
# Convention : Reuss Voigt Hill
#
# Bulk Modulus (GPa) = 59.37025 62.24648 60.80836
# Shear Modulus (GPa) = 25.05638 26.46744 25.76191
#
# Velocity S-wave (km/s) = 3.59986 3.69983 3.65019
# Velocity P-wave (km/s) = 6.92709 7.10247 7.01533
#
# Compressibility (1/GPa) = 0.01684345
#
# Stress axis : x y z
#
# Youngs Moduli (GPa) = 105.06701 63.86787 66.84856
#
# Poissons Ratio (x) = 0.29505 0.10507
# Poissons Ratio (y) = 0.48538 0.36458
# Poissons Ratio (z) = 0.16515 0.34833
#
# Static dielectric constant tensor:
#      x y z
#    x 3.713650 0.000000 0.000000 
#    y 0.000000 3.264060 0.000000 
#    z 0.000000 0.000000 3.628210 
# 
# 
# High freq. dielectric constant tensor:
#      x y z
#    x 1.752030 0.000000 0.000000 
#    y 0.000000 1.715050 0.000000 
#    z 0.000000 0.000000 1.770900 
# 
# From -- ./inp_files/4819.got.cif
#   From: 2010.03.12/outbox.cif.g09.slc.cpg/sg56_3_cif.got.tgz:4819.got - 2010.04.16 15:33:40.
