data_PCOD8229826
_publ_section_title
;
Structure prediction by ZEFSAII (Michael W. Deem and Ramdas Pophale) SiO2 
 PCOD8229826
Probable space group: P C C N
;
_chemical_formula_sum "Si O2"
_cell_formula_units_Z 36
_cell_length_a 5.145003
_cell_length_b 13.201583
_cell_length_c 21.458537
_cell_angle_alpha 90.000000
_cell_angle_beta 90.000000
_cell_angle_gamma 90.000000
_cell_volume 1457.510701
_symmetry_space_group_name_H-M "P C C N"
_symmetry_group_IT_number 56
_symmetry_cell_setting 'orthorhombic'
loop_
_space_group_symop_operation_xyz
x,y,z
1/2-x,1/2-y,z
1/2+x,-y,1/2-z
-x,1/2+y,1/2-z
-x,-y,-z
1/2+x,1/2+y,-z
1/2-x,y,1/2+z
x,1/2-y,1/2+z
loop_
_atom_site_type_symbol
_atom_site_label
_atom_site_fract_x
_atom_site_fract_y
_atom_site_fract_z
Si Si1 0.917449 0.562305 0.938033
Si Si2 0.902718 0.937579 0.078414
Si Si3 0.994411 0.688247 0.827835
Si Si4 0.750000 0.750000 0.510822
Si Si5 0.881675 0.947413 0.225365
O O1 0.637216 0.509679 0.940527
O O2 0.002802 0.582912 0.866288
O O3 0.146201 0.482910 0.959385
O O4 0.925592 0.674254 0.969304
O O5 0.934976 0.822150 0.053915
O O6 0.859666 0.934305 0.151856
O O7 0.750000 0.750000 0.852615
O O8 0.250000 0.750000 0.841418
O O9 0.972148 0.659678 0.754926
O O10 0.100278 0.029960 0.243762
#
# Coordination Sequence:
#
# PCOD8229826 Si02
#       5
#     8   8   8   4   8
#     4  12  26  49  76 103 146 193 242 297 358 433
#     4  12  27  50  72 110 145 191 242 301 366 430
#     4  12  24  42  73 107 143 187 242 288 353 442
#     4  12  30  48  76 106 144 192 248 302 358 424
#     4  12  23  45  72 103 145 185 231 295 364 427
#
# _framework density 24.699646999999999
#
# number of rings (size 3 to 8) (size 9 to 14) (size 15 to 20)
#    0.000    0.000    5.556    4.000    1.556    2.667 
#    0.000    0.000    0.000    0.000    0.000    0.000 
#    0.000    0.000    0.000    0.000    0.000    0.000 
#
# Total GULP energy -446438.746545 kJ/mol
# GULP energy per Si atom -12401.076293 kJ/mol
# Density = 2.464343 g / cm^3
# Si number density = 24.699647 Si / 1000 Ang^3
#
#
#
# Elastic Constant Matrix: (Units=GPa)
#
#
# Indices 1 2 3 4 5 6 
#
# 1 164.2597 67.3815 43.0376 0.0000 0.0000 0.0000
# 2 67.3815 165.0693 63.7826 0.0000 0.0000 0.0000
# 3 43.0376 63.7826 138.9085 0.0000 0.0000 0.0000
# 4 0.0000 0.0000 0.0000 56.6622 0.0000 0.0000
# 5 0.0000 0.0000 0.0000 0.0000 37.1542 0.0000
# 6 0.0000 0.0000 0.0000 0.0000 0.0000 44.0222
#
#
#
# Elastic Compliance Matrix: (Units=1/GPa)
#
#
# Indices 1 2 3 4 5 6 
#
# 1 0.007450 -0.002613 -0.001109 0.000000 0.000000 0.000000
# 2 -0.002613 0.008281 -0.002993 0.000000 0.000000 0.000000
# 3 -0.001109 -0.002993 0.008917 0.000000 0.000000 0.000000
# 4 0.000000 0.000000 0.000000 0.017648 0.000000 0.000000
# 5 0.000000 0.000000 0.000000 0.000000 0.026915 0.000000
# 6 0.000000 0.000000 0.000000 0.000000 0.000000 0.022716
#
#
# Mechanical properties :
#
#
# Convention : Reuss Voigt Hill
#
# Bulk Modulus (GPa) = 89.13116 90.73786 89.93451
# Shear Modulus (GPa) = 45.83145 47.17011 46.50078
#
# Velocity S-wave (km/s) = 4.31228 4.37481 4.34366
# Velocity P-wave (km/s) = 7.80761 7.89524 7.85155
#
# Compressibility (1/GPa) = 0.01121942
#
# Stress axis : x y z
#
# Youngs Moduli (GPa) = 134.22478 120.75729 112.14936
#
# Poissons Ratio (x) = 0.31552 0.12432
# Poissons Ratio (y) = 0.35071 0.33565
# Poissons Ratio (z) = 0.14879 0.36141
#
# Static dielectric constant tensor:
#      x y z
#    x 4.379070 0.000000 0.000000 
#    y 0.000000 4.503530 0.000000 
#    z 0.000000 0.000000 4.955770 
# 
# 
# High freq. dielectric constant tensor:
#      x y z
#    x 1.982500 0.000000 0.000000 
#    y 0.000000 1.982810 0.000000 
#    z 0.000000 0.000000 2.028460 
# 
# From -- ./inp_files/19880.got.cif
#   From: 2010.03.12/outbox.cif.g09.slc.cpg/sg56_10_cif.got.tgz:19880.got - 2010.04.16 15:33:40.
