data_PCOD8229434
_publ_section_title
;
Structure prediction by ZEFSAII (Michael W. Deem and Ramdas Pophale) SiO2 
 PCOD8229434
Probable space group: P C C N
;
_chemical_formula_sum "Si O2"
_cell_formula_units_Z 40
_cell_length_a 15.409447
_cell_length_b 11.904637
_cell_length_c 9.813432
_cell_angle_alpha 90.000000
_cell_angle_beta 90.000000
_cell_angle_gamma 90.000000
_cell_volume 1800.213973
_symmetry_space_group_name_H-M "P C C N"
_symmetry_group_IT_number 56
_symmetry_cell_setting 'orthorhombic'
loop_
_space_group_symop_operation_xyz
x,y,z
1/2-x,1/2-y,z
1/2+x,-y,1/2-z
-x,1/2+y,1/2-z
-x,-y,-z
1/2+x,1/2+y,-z
1/2-x,y,1/2+z
x,1/2-y,1/2+z
loop_
_atom_site_type_symbol
_atom_site_label
_atom_site_fract_x
_atom_site_fract_y
_atom_site_fract_z
Si Si1 0.053052 0.397494 0.944092
Si Si2 0.300551 0.637578 0.822277
Si Si3 0.037668 0.664612 0.508333
Si Si4 0.284209 0.495661 0.560764
Si Si5 0.600128 0.536645 0.852920
O O1 0.070566 0.411038 0.786383
O O2 0.993574 0.288690 0.958252
O O3 0.144764 0.399395 0.025467
O O4 0.000000 0.500000 0.000000
O O5 0.250000 0.750000 0.785701
O O6 0.320874 0.577189 0.678821
O O7 0.393545 0.666758 0.885901
O O8 0.240236 0.563788 0.923201
O O9 0.082832 0.599142 0.636666
O O10 0.951501 0.595551 0.474203
O O11 0.200349 0.434065 0.621626
#
# Coordination Sequence:
#
# PCOD8229434 Si02
#       5
#     8   8   8   8   8
#     4  12  25  43  73 107 138 192 241 293 358 434
#     4  11  22  42  70 103 139 190 237 300 357 419
#     4  10  25  44  73 101 145 187 236 307 352 429
#     4  11  23  43  69 103 147 181 239 297 358 433
#     4  10  24  48  68 104 144 188 239 292 365 428
#
# _framework density 22.219581000000002
#
# number of rings (size 3 to 8) (size 9 to 14) (size 15 to 20)
#    0.000    1.200    2.000    3.000    2.800    4.000 
#    0.000    2.000    0.000    0.000    0.000    0.000 
#    0.000    0.000    0.000    0.000    0.000    0.000 
#
# Total GULP energy -495942.152429 kJ/mol
# GULP energy per Si atom -12398.553811 kJ/mol
# Density = 2.216901 g / cm^3
# Si number density = 22.219581 Si / 1000 Ang^3
#
#
#
# Elastic Constant Matrix: (Units=GPa)
#
#
# Indices 1 2 3 4 5 6 
#
# 1 131.1202 35.5596 13.1253 0.0000 0.0000 0.0000
# 2 35.5596 92.6361 18.4227 0.0000 0.0000 0.0000
# 3 13.1253 18.4227 93.5439 0.0000 0.0000 0.0000
# 4 0.0000 0.0000 0.0000 28.5918 0.0000 0.0000
# 5 0.0000 0.0000 0.0000 0.0000 30.4827 0.0000
# 6 0.0000 0.0000 0.0000 0.0000 0.0000 34.8082
#
#
#
# Elastic Compliance Matrix: (Units=1/GPa)
#
#
# Indices 1 2 3 4 5 6 
#
# 1 0.008542 -0.003165 -0.000575 0.000000 0.000000 0.000000
# 2 -0.003165 0.012407 -0.001999 0.000000 0.000000 0.000000
# 3 -0.000575 -0.001999 0.011165 0.000000 0.000000 0.000000
# 4 0.000000 0.000000 0.000000 0.034975 0.000000 0.000000
# 5 0.000000 0.000000 0.000000 0.000000 0.032805 0.000000
# 6 0.000000 0.000000 0.000000 0.000000 0.000000 0.028729
#
#
# Mechanical properties :
#
#
# Convention : Reuss Voigt Hill
#
# Bulk Modulus (GPa) = 48.46034 50.16837 49.31436
# Shear Modulus (GPa) = 34.01790 35.45605 34.73697
#
# Velocity S-wave (km/s) = 3.91703 3.99897 3.95821
# Velocity P-wave (km/s) = 6.50497 6.62947 6.56751
#
# Compressibility (1/GPa) = 0.02063543
#
# Stress axis : x y z
#
# Youngs Moduli (GPa) = 117.06246 80.59716 89.56817
#
# Poissons Ratio (x) = 0.25507 0.05153
# Poissons Ratio (y) = 0.37047 0.17909
# Poissons Ratio (z) = 0.06735 0.16115
#
# Static dielectric constant tensor:
#      x y z
#    x 4.451170 0.000000 0.000000 
#    y 0.000000 4.369260 0.000000 
#    z 0.000000 0.000000 4.116300 
# 
# 
# High freq. dielectric constant tensor:
#      x y z
#    x 1.901880 0.000000 0.000000 
#    y 0.000000 1.856040 0.000000 
#    z 0.000000 0.000000 1.879920 
# 
# From -- ./inp_files/3883.got.cif
#   From: 2010.03.12/outbox.cif.g09.slc.cpg/sg56_2_cif.got.tgz:3883.got - 2010.04.16 15:33:40.
