data_PCOD8229449
_publ_section_title
;
Structure prediction by ZEFSAII (Michael W. Deem and Ramdas Pophale) SiO2 
 PCOD8229449
Probable space group: P C C N
;
_chemical_formula_sum "Si O2"
_cell_formula_units_Z 32
_cell_length_a 8.898747
_cell_length_b 16.519482
_cell_length_c 9.449182
_cell_angle_alpha 90.000000
_cell_angle_beta 90.000000
_cell_angle_gamma 90.000000
_cell_volume 1389.055181
_symmetry_space_group_name_H-M "P C C N"
_symmetry_group_IT_number 56
_symmetry_cell_setting 'orthorhombic'
loop_
_space_group_symop_operation_xyz
x,y,z
1/2-x,1/2-y,z
1/2+x,-y,1/2-z
-x,1/2+y,1/2-z
-x,-y,-z
1/2+x,1/2+y,-z
1/2-x,y,1/2+z
x,1/2-y,1/2+z
loop_
_atom_site_type_symbol
_atom_site_label
_atom_site_fract_x
_atom_site_fract_y
_atom_site_fract_z
Si Si1 0.691040 0.472486 0.057243
Si Si2 0.098970 0.792937 0.007846
Si Si3 0.096463 0.469988 0.722647
Si Si4 0.086777 0.285314 0.755991
O O1 0.844236 0.472792 0.149000
O O2 0.564916 0.503203 0.169702
O O3 0.640590 0.387112 0.992722
O O4 0.703210 0.530202 0.918660
O O5 0.250000 0.750000 0.957797
O O6 0.043620 0.761297 0.158882
O O7 0.959619 0.772838 0.906062
O O8 0.086046 0.380780 0.790516
O O9 0.250000 0.250000 0.787175
#
# Coordination Sequence:
#
# PCOD8229449 Si02
#       4
#     8   8   8   8
#     4  10  25  45  69 102 137 182 239 286 351 420
#     4  11  26  45  70 101 140 187 235 291 357 426
#     4  10  25  44  68 100 137 182 230 290 346 418
#     4  11  26  44  70 102 139 184 231 293 357 427
#
# _framework density 23.037241000000002
#
# number of rings (size 3 to 8) (size 9 to 14) (size 15 to 20)
#    0.000    1.500    0.000    1.500   24.500    1.000 
#    0.000    0.000    0.000    0.000    0.000    0.000 
#    0.000    0.000    0.000    0.000    0.000    0.000 
#
# Total GULP energy -396666.671395 kJ/mol
# GULP energy per Si atom -12395.833481 kJ/mol
# Density = 2.298481 g / cm^3
# Si number density = 23.037241 Si / 1000 Ang^3
#
#
#
# Elastic Constant Matrix: (Units=GPa)
#
#
# Indices 1 2 3 4 5 6 
#
# 1 72.2746 40.1443 15.8849 0.0000 0.0000 0.0000
# 2 40.1443 100.4970 43.7611 0.0000 0.0000 0.0000
# 3 15.8849 43.7611 52.7831 0.0000 0.0000 0.0000
# 4 0.0000 0.0000 0.0000 29.6482 0.0000 0.0000
# 5 0.0000 0.0000 0.0000 0.0000 46.5472 0.0000
# 6 0.0000 0.0000 0.0000 0.0000 0.0000 35.5960
#
#
#
# Elastic Compliance Matrix: (Units=1/GPa)
#
#
# Indices 1 2 3 4 5 6 
#
# 1 0.017805 -0.007479 0.000842 0.000000 0.000000 0.000000
# 2 -0.007479 0.018714 -0.013265 0.000000 0.000000 0.000000
# 3 0.000842 -0.013265 0.029689 0.000000 0.000000 0.000000
# 4 0.000000 0.000000 0.000000 0.033729 0.000000 0.000000
# 5 0.000000 0.000000 0.000000 0.000000 0.021484 0.000000
# 6 0.000000 0.000000 0.000000 0.000000 0.000000 0.028093
#
#
# Mechanical properties :
#
#
# Convention : Reuss Voigt Hill
#
# Bulk Modulus (GPa) = 37.87035 47.23725 42.55380
# Shear Modulus (GPa) = 25.23733 30.74257 27.98995
#
# Velocity S-wave (km/s) = 3.31343 3.65701 3.48945
# Velocity P-wave (km/s) = 5.57789 6.19523 5.89464
#
# Compressibility (1/GPa) = 0.02640588
#
# Stress axis : x y z
#
# Youngs Moduli (GPa) = 56.16321 53.43524 33.68214
#
# Poissons Ratio (x) = 0.39966 -0.02838
# Poissons Ratio (y) = 0.42006 0.44678
# Poissons Ratio (z) = -0.04732 0.70880
#
# Static dielectric constant tensor:
#      x y z
#    x 4.148950 0.000000 0.000000 
#    y 0.000000 4.069220 0.000000 
#    z 0.000000 0.000000 4.122040 
# 
# 
# High freq. dielectric constant tensor:
#      x y z
#    x 1.907990 0.000000 0.000000 
#    y 0.000000 1.901490 0.000000 
#    z 0.000000 0.000000 1.916060 
# 
# From -- ./inp_files/5946.got.cif
#   From: 2010.03.12/outbox.cif.g09.slc.cpg/sg56_3_cif.got.tgz:5946.got - 2010.04.16 15:33:40.
