data_PCOD8229701
_publ_section_title
;
Structure prediction by ZEFSAII (Michael W. Deem and Ramdas Pophale) SiO2 
 PCOD8229701
Probable space group: P C C N
;
_chemical_formula_sum "Si O2"
_cell_formula_units_Z 24
_cell_length_a 4.830406
_cell_length_b 8.131659
_cell_length_c 26.108460
_cell_angle_alpha 90.000000
_cell_angle_beta 90.000000
_cell_angle_gamma 90.000000
_cell_volume 1025.519799
_symmetry_space_group_name_H-M "P C C N"
_symmetry_group_IT_number 56
_symmetry_cell_setting 'orthorhombic'
loop_
_space_group_symop_operation_xyz
x,y,z
1/2-x,1/2-y,z
1/2+x,-y,1/2-z
-x,1/2+y,1/2-z
-x,-y,-z
1/2+x,1/2+y,-z
1/2-x,y,1/2+z
x,1/2-y,1/2+z
loop_
_atom_site_type_symbol
_atom_site_label
_atom_site_fract_x
_atom_site_fract_y
_atom_site_fract_z
Si Si1 0.146681 0.566735 0.106544
Si Si2 0.621144 0.427732 0.276010
Si Si3 0.365842 0.931756 0.448525
O O1 0.250000 0.750000 0.096967
O O2 0.053879 0.537622 0.164741
O O3 0.392522 0.437553 0.094165
O O4 0.887408 0.545784 0.068926
O O5 0.750000 0.250000 0.266868
O O6 0.333815 0.436793 0.245482
O O7 0.250000 0.750000 0.456243
O O8 0.500000 0.000000 0.500000
#
# Coordination Sequence:
#
# PCOD8229701 Si02
#       3
#     8   8   8
#     4  11  25  45  68  97 135 177 220 272 330 392
#     4  11  24  42  67  99 136 176 220 271 328 389
#     4  12  26  45  68  98 132 173 222 275 333 395
#
# _framework density 23.40277
#
# number of rings (size 3 to 8) (size 9 to 14) (size 15 to 20)
#    0.000    0.667    0.000    7.000    0.000   16.000 
#    0.000    0.000    0.000    0.000    0.000    0.000 
#    0.000    0.000    0.000    0.000    0.000    0.000 
#
# Total GULP energy -297753.313489 kJ/mol
# GULP energy per Si atom -12406.388062 kJ/mol
# Density = 2.334950 g / cm^3
# Si number density = 23.402770 Si / 1000 Ang^3
#
#
#
# Elastic Constant Matrix: (Units=GPa)
#
#
# Indices 1 2 3 4 5 6 
#
# 1 163.3054 43.4297 73.7709 0.0000 0.0000 0.0000
# 2 43.4297 95.7801 81.9456 0.0000 0.0000 0.0000
# 3 73.7709 81.9456 147.6348 0.0000 0.0000 0.0000
# 4 0.0000 0.0000 0.0000 12.1677 0.0000 0.0000
# 5 0.0000 0.0000 0.0000 0.0000 -4.1403 0.0000
# 6 0.0000 0.0000 0.0000 0.0000 0.0000 45.6321
#
#
#
# Elastic Compliance Matrix: (Units=1/GPa)
#
#
# Indices 1 2 3 4 5 6 
#
# 1 0.007916 -0.000391 -0.003739 0.000000 0.000000 0.000000
# 2 -0.000391 0.019902 -0.010851 0.000000 0.000000 0.000000
# 3 -0.003739 -0.010851 0.014665 0.000000 0.000000 0.000000
# 4 0.000000 0.000000 0.000000 0.082185 0.000000 0.000000
# 5 0.000000 0.000000 0.000000 0.000000 -0.241527 0.000000
# 6 0.000000 0.000000 0.000000 0.000000 0.000000 0.021914
#
#
# Mechanical properties :
#
#
# Convention : Reuss Voigt Hill
#
# Bulk Modulus (GPa) = 79.86508 89.44587 84.65547
# Shear Modulus (GPa) = -82.22356 24.57017 -28.82669
#
# Velocity S-wave (km/s) = -5.93383 3.24371 -3.51346
# Velocity P-wave (km/s) = 3.57026 7.23409 4.44889
#
# Compressibility (1/GPa) = 0.01252112
#
# Stress axis : x y z
#
# Youngs Moduli (GPa) = 126.32067 50.24695 68.19063
#
# Poissons Ratio (x) = 0.01963 0.25495
# Poissons Ratio (y) = 0.04936 0.73996
# Poissons Ratio (z) = 0.47229 0.54524
#
# Static dielectric constant tensor:
#      x y z
#    x 4.935420 0.000000 0.000000 
#    y 0.000000 4.178520 0.000000 
#    z 0.000000 0.000000 4.361600 
# 
# 
# High freq. dielectric constant tensor:
#      x y z
#    x 1.949030 0.000000 0.000000 
#    y 0.000000 1.927500 0.000000 
#    z 0.000000 0.000000 1.935410 
# 
# From -- ./inp_files/19718.got.cif
#   From: 2010.03.12/outbox.cif.g09.slc.cpg/sg56_10_cif.got.tgz:19718.got - 2010.04.16 15:33:40.
