data_PCOD8229540
_publ_section_title
;
Structure prediction by ZEFSAII (Michael W. Deem and Ramdas Pophale) SiO2 
 PCOD8229540
Probable space group: P C C N
;
_chemical_formula_sum "Si O2"
_cell_formula_units_Z 64
_cell_length_a 33.286977
_cell_length_b 4.974419
_cell_length_c 17.592583
_cell_angle_alpha 90.000000
_cell_angle_beta 90.000000
_cell_angle_gamma 90.000000
_cell_volume 2913.039195
_symmetry_space_group_name_H-M "P C C N"
_symmetry_group_IT_number 56
_symmetry_cell_setting 'orthorhombic'
loop_
_space_group_symop_operation_xyz
x,y,z
1/2-x,1/2-y,z
1/2+x,-y,1/2-z
-x,1/2+y,1/2-z
-x,-y,-z
1/2+x,1/2+y,-z
1/2-x,y,1/2+z
x,1/2-y,1/2+z
loop_
_atom_site_type_symbol
_atom_site_label
_atom_site_fract_x
_atom_site_fract_y
_atom_site_fract_z
Si Si1 0.724252 0.491745 0.720245
Si Si2 0.707546 0.152489 0.392422
Si Si3 0.845452 0.654697 0.920867
Si Si4 0.522632 0.091247 0.724870
Si Si5 0.039925 0.992880 0.950446
Si Si6 0.407024 0.516542 0.456009
Si Si7 0.135878 0.969898 0.305006
Si Si8 0.891885 0.968331 0.277756
O O1 0.750000 0.250000 0.687616
O O2 0.716035 0.469653 0.809839
O O3 0.682754 0.489157 0.674407
O O4 0.750000 0.750000 0.701254
O O5 0.750000 0.250000 0.430635
O O6 0.682282 0.421497 0.388299
O O7 0.681733 0.921491 0.436021
O O8 0.879828 0.678838 0.856465
O O9 0.867928 0.575512 0.997729
O O10 0.513429 0.392525 0.752734
O O11 0.529746 0.098161 0.634929
O O12 0.560452 0.995235 0.774339
O O13 0.069910 0.775877 0.990028
O O14 0.060636 0.281377 0.949101
O O15 0.000000 0.000000 0.000000
O O16 0.390593 0.624475 0.375714
O O17 0.122564 0.272264 0.288340
O O18 0.128662 0.760244 0.235807
#
# Coordination Sequence:
#
# PCOD8229540 Si02
#       8
#     8   8   8   8   8   8   8   8
#     4  11  21  36  63  96 127 163 213 265 324 381
#     4  11  22  40  65  98 136 168 217 280 331 383
#     4  12  24  41  67 102 127 180 227 270 325 401
#     4  12  26  43  69 100 133 172 218 282 337 387
#     4  12  27  47  67  96 135 179 220 272 345 407
#     4  12  26  47  67  95 137 179 219 272 338 404
#     4  12  22  44  66  93 131 175 214 275 326 392
#     4  12  23  42  67  95 133 169 230 272 320 390
#
# _framework density 21.970182999999999
#
# number of rings (size 3 to 8) (size 9 to 14) (size 15 to 20)
#    0.000    0.250    5.000    5.250    3.500    0.000 
#    0.000    1.875    0.000    0.000    0.000    0.000 
#    0.000    0.000    0.000    0.000    0.000    0.000 
#
# Total GULP energy -793650.218636 kJ/mol
# GULP energy per Si atom -12400.784666 kJ/mol
# Density = 2.192018 g / cm^3
# Si number density = 21.970183 Si / 1000 Ang^3
#
#
#
# Elastic Constant Matrix: (Units=GPa)
#
#
# Indices 1 2 3 4 5 6 
#
# 1 114.6389 36.0727 10.0091 0.0000 0.0000 0.0000
# 2 36.0727 117.6778 1.9395 0.0000 0.0000 0.0000
# 3 10.0091 1.9395 48.9076 0.0000 0.0000 0.0000
# 4 0.0000 0.0000 0.0000 20.5761 0.0000 0.0000
# 5 0.0000 0.0000 0.0000 0.0000 23.5411 0.0000
# 6 0.0000 0.0000 0.0000 0.0000 0.0000 56.4126
#
#
#
# Elastic Compliance Matrix: (Units=1/GPa)
#
#
# Indices 1 2 3 4 5 6 
#
# 1 0.009826 -0.002981 -0.001893 0.000000 0.000000 0.000000
# 2 -0.002981 0.009408 0.000237 0.000000 0.000000 0.000000
# 3 -0.001893 0.000237 0.020825 0.000000 0.000000 0.000000
# 4 0.000000 0.000000 0.000000 0.048600 0.000000 0.000000
# 5 0.000000 0.000000 0.000000 0.000000 0.042479 0.000000
# 6 0.000000 0.000000 0.000000 0.000000 0.000000 0.017727
#
#
# Mechanical properties :
#
#
# Convention : Reuss Voigt Hill
#
# Bulk Modulus (GPa) = 32.48317 41.91854 37.20085
# Shear Modulus (GPa) = 29.69135 35.65284 32.67209
#
# Velocity S-wave (km/s) = 3.68018 4.03275 3.86049
# Velocity P-wave (km/s) = 5.73372 6.38790 6.06963
#
# Compressibility (1/GPa) = 0.03078518
#
# Stress axis : x y z
#
# Youngs Moduli (GPa) = 101.76778 106.29649 48.01998
#
# Poissons Ratio (x) = 0.31686 0.09089
# Poissons Ratio (y) = 0.30336 -0.01138
# Poissons Ratio (z) = 0.19262 -0.02519
#
# Static dielectric constant tensor:
#      x y z
#    x 4.338490 0.000000 0.000000 
#    y 0.000000 4.270860 0.000000 
#    z 0.000000 0.000000 3.603270 
# 
# 
# High freq. dielectric constant tensor:
#      x y z
#    x 1.888360 0.000000 0.000000 
#    y 0.000000 1.884360 0.000000 
#    z 0.000000 0.000000 1.827910 
# 
# From -- ./inp_files/17142.got.cif
#   From: 2010.03.12/outbox.cif.g09.slc.cpg/sg56_9_cif.got.tgz:17142.got - 2010.04.16 15:33:40.
