data_PCOD8229128
_publ_section_title
;
Structure prediction by ZEFSAII (Michael W. Deem and Ramdas Pophale) SiO2 
 PCOD8229128
Probable space group: P C C N
;
_chemical_formula_sum "Si O2"
_cell_formula_units_Z 60
_cell_length_a 11.564865
_cell_length_b 9.217156
_cell_length_c 24.446116
_cell_angle_alpha 90.000000
_cell_angle_beta 90.000000
_cell_angle_gamma 90.000000
_cell_volume 2605.837764
_symmetry_space_group_name_H-M "P C C N"
_symmetry_group_IT_number 56
_symmetry_cell_setting 'orthorhombic'
loop_
_space_group_symop_operation_xyz
x,y,z
1/2-x,1/2-y,z
1/2+x,-y,1/2-z
-x,1/2+y,1/2-z
-x,-y,-z
1/2+x,1/2+y,-z
1/2-x,y,1/2+z
x,1/2-y,1/2+z
loop_
_atom_site_type_symbol
_atom_site_label
_atom_site_fract_x
_atom_site_fract_y
_atom_site_fract_z
Si Si1 0.134734 0.808262 0.782518
Si Si2 0.460769 0.150379 0.442953
Si Si3 0.651865 0.572976 0.945746
Si Si4 0.126231 0.139193 0.609734
Si Si5 0.580308 0.893234 0.772719
Si Si6 0.061405 0.022799 0.441937
Si Si7 0.278971 0.990803 0.378827
Si Si8 0.250000 0.250000 0.306000
O O1 0.250000 0.750000 0.750634
O O2 0.045747 0.673866 0.786608
O O3 0.075105 0.944383 0.752060
O O4 0.185588 0.851657 0.842939
O O5 0.386736 0.152407 0.498769
O O6 0.463012 0.313757 0.422640
O O7 0.401414 0.050326 0.398422
O O8 0.590502 0.084298 0.446254
O O9 0.620760 0.686143 0.897043
O O10 0.790235 0.559474 0.935961
O O11 0.159072 0.103492 0.672378
O O12 0.998659 0.080152 0.601723
O O13 0.638113 0.785625 0.729668
O O14 0.196006 0.971862 0.433206
O O15 0.000000 0.000000 0.500000
O O16 0.214114 0.111231 0.342131
#
# Coordination Sequence:
#
# PCOD8229128 Si02
#       8
#     8   8   8   8   8   8   8   4
#     4  11  27  49  73 107 144 188 247 310 377 457
#     4  11  22  41  66  97 133 182 232 289 349 432
#     4  10  23  42  62  93 138 177 231 275 359 421
#     4  11  23  42  66  94 133 179 221 293 352 427
#     4  11  26  45  74  99 144 185 246 298 377 437
#     4  12  23  39  70 102 140 181 237 293 361 427
#     4  11  23  42  72  99 139 184 241 297 366 433
#     4  10  22  42  70 100 128 188 238 304 360 438
#
# _framework density 23.025224000000001
#
# number of rings (size 3 to 8) (size 9 to 14) (size 15 to 20)
#    0.000    1.067    2.667    3.200    7.467    0.533 
#    4.800    0.000    0.000    0.000    0.000    0.000 
#    0.000    0.000    0.000    0.000    0.000    0.000 
#
# Total GULP energy -743345.191764 kJ/mol
# GULP energy per Si atom -12389.086529 kJ/mol
# Density = 2.297282 g / cm^3
# Si number density = 23.025224 Si / 1000 Ang^3
#
#
#
# Elastic Constant Matrix: (Units=GPa)
#
#
# Indices 1 2 3 4 5 6 
#
# 1 111.5909 45.3257 18.6223 0.0000 0.0000 0.0000
# 2 45.3257 89.9625 13.2380 0.0000 0.0000 0.0000
# 3 18.6223 13.2380 90.9669 0.0000 0.0000 0.0000
# 4 0.0000 0.0000 0.0000 21.4997 0.0000 0.0000
# 5 0.0000 0.0000 0.0000 0.0000 35.4464 0.0000
# 6 0.0000 0.0000 0.0000 0.0000 0.0000 46.4093
#
#
#
# Elastic Compliance Matrix: (Units=1/GPa)
#
#
# Indices 1 2 3 4 5 6 
#
# 1 0.011475 -0.005554 -0.001541 0.000000 0.000000 0.000000
# 2 -0.005554 0.014048 -0.000907 0.000000 0.000000 0.000000
# 3 -0.001541 -0.000907 0.011440 0.000000 0.000000 0.000000
# 4 0.000000 0.000000 0.000000 0.046512 0.000000 0.000000
# 5 0.000000 0.000000 0.000000 0.000000 0.028212 0.000000
# 6 0.000000 0.000000 0.000000 0.000000 0.000000 0.021547
#
#
# Mechanical properties :
#
#
# Convention : Reuss Voigt Hill
#
# Bulk Modulus (GPa) = 47.71465 49.65470 48.68467
# Shear Modulus (GPa) = 32.00519 35.02671 33.51595
#
# Velocity S-wave (km/s) = 3.73232 3.90453 3.81940
# Velocity P-wave (km/s) = 6.27227 6.47606 6.37498
#
# Compressibility (1/GPa) = 0.02095792
#
# Stress axis : x y z
#
# Youngs Moduli (GPa) = 87.14970 71.18585 87.40926
#
# Poissons Ratio (x) = 0.39540 0.13467
# Poissons Ratio (y) = 0.48407 0.07930
# Poissons Ratio (z) = 0.13427 0.06458
#
# Static dielectric constant tensor:
#      x y z
#    x 4.276110 0.000000 0.000000 
#    y 0.000000 4.288910 0.000000 
#    z 0.000000 0.000000 4.333280 
# 
# 
# High freq. dielectric constant tensor:
#      x y z
#    x 1.911110 0.000000 0.000000 
#    y 0.000000 1.906210 0.000000 
#    z 0.000000 0.000000 1.907180 
# 
# From -- ./inp_files/22344.got.cif
#   From: 2010.03.12/outbox.cif.g09.slc.cpg/sg56_12_cif.got.tgz:22344.got - 2010.04.16 15:33:40.
