data_PCOD8229692
_publ_section_title
;
Structure prediction by ZEFSAII (Michael W. Deem and Ramdas Pophale) SiO2 
 PCOD8229692
Probable space group: P C C N
;
_chemical_formula_sum "Si O2"
_cell_formula_units_Z 48
_cell_length_a 8.375394
_cell_length_b 16.631994
_cell_length_c 14.370380
_cell_angle_alpha 90.000000
_cell_angle_beta 90.000000
_cell_angle_gamma 90.000000
_cell_volume 2001.786788
_symmetry_space_group_name_H-M "P C C N"
_symmetry_group_IT_number 56
_symmetry_cell_setting 'orthorhombic'
loop_
_space_group_symop_operation_xyz
x,y,z
1/2-x,1/2-y,z
1/2+x,-y,1/2-z
-x,1/2+y,1/2-z
-x,-y,-z
1/2+x,1/2+y,-z
1/2-x,y,1/2+z
x,1/2-y,1/2+z
loop_
_atom_site_type_symbol
_atom_site_label
_atom_site_fract_x
_atom_site_fract_y
_atom_site_fract_z
Si Si1 0.422352 0.726481 0.915386
Si Si2 0.649080 0.426324 0.187311
Si Si3 0.646013 0.672012 0.080546
Si Si4 0.366682 0.174672 0.211023
Si Si5 0.818569 0.988053 0.531194
Si Si6 0.812364 0.988936 0.840868
O O1 0.250000 0.750000 0.956491
O O2 0.404983 0.664690 0.829075
O O3 0.516670 0.681133 0.998179
O O4 0.500286 0.805805 0.867952
O O5 0.498307 0.486192 0.183606
O O6 0.729395 0.437147 0.287439
O O7 0.784852 0.450803 0.113982
O O8 0.750000 0.750000 0.079367
O O9 0.774652 0.601681 0.063480
O O10 0.565508 0.662054 0.183413
O O11 0.250000 0.250000 0.209207
O O12 0.273567 0.095586 0.179143
O O13 0.700056 0.012041 0.448269
O O14 0.000000 0.000000 0.500000
#
# Coordination Sequence:
#
# PCOD8229692 Si02
#       6
#     8   8   8   8   8   8
#     4  12  28  47  72 108 151 192 249 311 372 446
#     4  12  27  47  71 112 144 194 243 304 369 442
#     4  11  25  47  76 103 147 195 247 302 378 447
#     4  11  23  48  75 101 139 197 245 298 371 439
#     4  12  26  45  74 109 148 194 244 303 372 444
#     4  12  25  45  76 102 151 186 247 300 369 439
#
# _framework density 23.978577999999999
#
# number of rings (size 3 to 8) (size 9 to 14) (size 15 to 20)
#    0.000    0.333    5.000    3.000    7.000    0.667 
#    0.000    0.000    0.000    0.000    0.000    0.000 
#    0.000    0.000    0.000    0.000    0.000    0.000 
#
# Total GULP energy -595198.369534 kJ/mol
# GULP energy per Si atom -12399.966032 kJ/mol
# Density = 2.392400 g / cm^3
# Si number density = 23.978578 Si / 1000 Ang^3
#
#
#
# Elastic Constant Matrix: (Units=GPa)
#
#
# Indices 1 2 3 4 5 6 
#
# 1 119.4412 10.0695 8.0318 0.0000 0.0000 0.0000
# 2 10.0695 70.7984 16.8842 0.0000 0.0000 0.0000
# 3 8.0318 16.8842 89.4559 0.0000 0.0000 0.0000
# 4 0.0000 0.0000 0.0000 31.1198 0.0000 0.0000
# 5 0.0000 0.0000 0.0000 0.0000 38.9763 0.0000
# 6 0.0000 0.0000 0.0000 0.0000 0.0000 30.5624
#
#
#
# Elastic Compliance Matrix: (Units=1/GPa)
#
#
# Indices 1 2 3 4 5 6 
#
# 1 0.008501 -0.001075 -0.000560 0.000000 0.000000 0.000000
# 2 -0.001075 0.014926 -0.002721 0.000000 0.000000 0.000000
# 3 -0.000560 -0.002721 0.011743 0.000000 0.000000 0.000000
# 4 0.000000 0.000000 0.000000 0.032134 0.000000 0.000000
# 5 0.000000 0.000000 0.000000 0.000000 0.025657 0.000000
# 6 0.000000 0.000000 0.000000 0.000000 0.000000 0.032720
#
#
# Mechanical properties :
#
#
# Convention : Reuss Voigt Hill
#
# Bulk Modulus (GPa) = 37.79744 38.85184 38.32464
# Shear Modulus (GPa) = 34.91335 36.44570 35.67953
#
# Velocity S-wave (km/s) = 3.81993 3.90285 3.86161
# Velocity P-wave (km/s) = 5.93742 6.04546 5.99169
#
# Compressibility (1/GPa) = 0.02645682
#
# Stress axis : x y z
#
# Youngs Moduli (GPa) = 117.63796 66.99538 85.16069
#
# Poissons Ratio (x) = 0.07205 0.04771
# Poissons Ratio (y) = 0.12651 0.23170
# Poissons Ratio (z) = 0.06591 0.18227
#
# Static dielectric constant tensor:
#      x y z
#    x 4.458760 0.000000 0.000000 
#    y 0.000000 4.584780 0.000000 
#    z 0.000000 0.000000 4.985340 
# 
# 
# High freq. dielectric constant tensor:
#      x y z
#    x 1.952730 0.000000 0.000000 
#    y 0.000000 1.958020 0.000000 
#    z 0.000000 0.000000 1.958780 
# 
# From -- ./inp_files/10636.got.cif
#   From: 2010.03.12/outbox.cif.g09.slc.cpg/sg56_6_cif.got.tgz:10636.got - 2010.04.16 15:33:40.
