data_PCOD8229486
_publ_section_title
;
Structure prediction by ZEFSAII (Michael W. Deem and Ramdas Pophale) SiO2 
 PCOD8229486
Probable space group: P C C N
;
_chemical_formula_sum "Si O2"
_cell_formula_units_Z 60
_cell_length_a 26.479059
_cell_length_b 11.350520
_cell_length_c 8.883876
_cell_angle_alpha 90.000000
_cell_angle_beta 90.000000
_cell_angle_gamma 90.000000
_cell_volume 2670.058604
_symmetry_space_group_name_H-M "P C C N"
_symmetry_group_IT_number 56
_symmetry_cell_setting 'orthorhombic'
loop_
_space_group_symop_operation_xyz
x,y,z
1/2-x,1/2-y,z
1/2+x,-y,1/2-z
-x,1/2+y,1/2-z
-x,-y,-z
1/2+x,1/2+y,-z
1/2-x,y,1/2+z
x,1/2-y,1/2+z
loop_
_atom_site_type_symbol
_atom_site_label
_atom_site_fract_x
_atom_site_fract_y
_atom_site_fract_z
Si Si1 0.093238 0.665227 0.104774
Si Si2 0.698705 0.393369 0.260857
Si Si3 0.551060 0.361887 0.086855
Si Si4 0.700330 0.666305 0.261627
Si Si5 0.552509 0.529293 0.584617
Si Si6 0.942962 0.911356 0.918791
Si Si7 0.750000 0.250000 0.010892
Si Si8 0.130123 0.229058 0.487147
O O1 0.141554 0.636649 0.204267
O O2 0.050455 0.662075 0.233618
O O3 0.090041 0.787815 0.015664
O O4 0.090473 0.569923 0.972848
O O5 0.712286 0.529815 0.222503
O O6 0.708800 0.312402 0.115766
O O7 0.729550 0.355147 0.407782
O O8 0.492896 0.334481 0.040866
O O9 0.564916 0.497257 0.055075
O O10 0.750000 0.750000 0.255837
O O11 0.675900 0.663955 0.427805
O O12 0.655634 0.716322 0.159505
O O13 0.500000 0.500000 0.500000
O O14 0.546705 0.517881 0.763779
O O15 0.580610 0.651775 0.549033
O O16 0.892491 0.833742 0.909541
#
# Coordination Sequence:
#
# PCOD8229486 Si02
#       8
#     8   8   8   8   8   8   4   8
#     4  12  23  44  69 100 138 186 238 295 362 448
#     4  11  25  48  74 104 146 187 252 311 381 456
#     4  11  25  41  68 101 140 188 238 295 365 442
#     4  12  28  48  76 110 151 199 258 318 387 457
#     4  12  24  44  70 101 146 192 239 300 372 448
#     4  11  25  44  66 102 143 190 241 300 364 446
#     4  10  26  48  74 106 140 192 240 324 384 444
#     4  12  26  47  72 107 145 195 249 310 375 449
#
# _framework density 22.471416999999999
#
# number of rings (size 3 to 8) (size 9 to 14) (size 15 to 20)
#    0.000    0.533    4.000    3.600    3.733    0.000 
#    2.400    0.000    0.000    0.000    0.000    0.000 
#    0.000    0.000    0.000    0.000    0.000    0.000 
#
# Total GULP energy -743632.845085 kJ/mol
# GULP energy per Si atom -12393.880751 kJ/mol
# Density = 2.242027 g / cm^3
# Si number density = 22.471417 Si / 1000 Ang^3
#
#
#
# Elastic Constant Matrix: (Units=GPa)
#
#
# Indices 1 2 3 4 5 6 
#
# 1 101.7101 55.8223 26.6174 0.0000 0.0000 0.0000
# 2 55.8223 109.8633 34.8310 0.0000 0.0000 0.0000
# 3 26.6174 34.8310 96.2124 0.0000 0.0000 0.0000
# 4 0.0000 0.0000 0.0000 33.7136 0.0000 0.0000
# 5 0.0000 0.0000 0.0000 0.0000 32.9185 0.0000
# 6 0.0000 0.0000 0.0000 0.0000 0.0000 43.8196
#
#
#
# Elastic Compliance Matrix: (Units=1/GPa)
#
#
# Indices 1 2 3 4 5 6 
#
# 1 0.013810 -0.006558 -0.001446 0.000000 0.000000 0.000000
# 2 -0.006558 0.013397 -0.003036 0.000000 0.000000 0.000000
# 3 -0.001446 -0.003036 0.011893 0.000000 0.000000 0.000000
# 4 0.000000 0.000000 0.000000 0.029662 0.000000 0.000000
# 5 0.000000 0.000000 0.000000 0.000000 0.030378 0.000000
# 6 0.000000 0.000000 0.000000 0.000000 0.000000 0.022821
#
#
# Mechanical properties :
#
#
# Convention : Reuss Voigt Hill
#
# Bulk Modulus (GPa) = 58.75753 60.25858 59.50805
# Shear Modulus (GPa) = 33.39712 34.79134 34.09423
#
# Velocity S-wave (km/s) = 3.85931 3.93905 3.89938
# Velocity P-wave (km/s) = 6.78701 6.89652 6.84198
#
# Compressibility (1/GPa) = 0.01701910
#
# Stress axis : x y z
#
# Youngs Moduli (GPa) = 72.41228 74.64374 84.08496
#
# Poissons Ratio (x) = 0.48954 0.12161
# Poissons Ratio (y) = 0.47490 0.25525
# Poissons Ratio (z) = 0.10473 0.22659
#
# Static dielectric constant tensor:
#      x y z
#    x 4.165960 0.000000 0.000000 
#    y 0.000000 4.027840 0.000000 
#    z 0.000000 0.000000 4.135210 
# 
# 
# High freq. dielectric constant tensor:
#      x y z
#    x 1.887930 0.000000 0.000000 
#    y 0.000000 1.885060 0.000000 
#    z 0.000000 0.000000 1.899390 
# 
# From -- ./inp_files/4980.got.cif
#   From: 2010.03.12/outbox.cif.g09.slc.cpg/sg56_3_cif.got.tgz:4980.got - 2010.04.16 15:33:40.
