data_PCOD8229524
_publ_section_title
;
Structure prediction by ZEFSAII (Michael W. Deem and Ramdas Pophale) SiO2 
 PCOD8229524
Probable space group: P C C N
;
_chemical_formula_sum "Si O2"
_cell_formula_units_Z 64
_cell_length_a 11.108107
_cell_length_b 18.026139
_cell_length_c 15.023264
_cell_angle_alpha 90.000000
_cell_angle_beta 90.000000
_cell_angle_gamma 90.000000
_cell_volume 3008.202509
_symmetry_space_group_name_H-M "P C C N"
_symmetry_group_IT_number 56
_symmetry_cell_setting 'orthorhombic'
loop_
_space_group_symop_operation_xyz
x,y,z
1/2-x,1/2-y,z
1/2+x,-y,1/2-z
-x,1/2+y,1/2-z
-x,-y,-z
1/2+x,1/2+y,-z
1/2-x,y,1/2+z
x,1/2-y,1/2+z
loop_
_atom_site_type_symbol
_atom_site_label
_atom_site_fract_x
_atom_site_fract_y
_atom_site_fract_z
Si Si1 0.047966 0.452360 0.806929
Si Si2 0.403354 0.587392 0.844795
Si Si3 0.381122 0.716529 0.498051
Si Si4 0.773168 0.952317 0.082371
Si Si5 0.023590 0.141996 0.982973
Si Si6 0.320724 0.816893 0.809445
Si Si7 0.381315 0.575586 0.170749
Si Si8 0.849328 0.052954 0.431648
O O1 0.174162 0.423062 0.846256
O O2 0.067309 0.508068 0.725805
O O3 0.964631 0.394017 0.751912
O O4 0.969089 0.485211 0.889338
O O5 0.374084 0.500730 0.866279
O O6 0.272738 0.624769 0.852182
O O7 0.495715 0.620775 0.916079
O O8 0.250000 0.750000 0.521495
O O9 0.486858 0.771637 0.534596
O O10 0.400336 0.713346 0.391211
O O11 0.392724 0.634325 0.536778
O O12 0.837202 0.879009 0.039766
O O13 0.706459 0.001677 0.007805
O O14 0.942842 0.087418 0.923602
O O15 0.250000 0.750000 0.762476
O O16 0.402118 0.852794 0.733365
O O17 0.241478 0.561287 0.151100
#
# Coordination Sequence:
#
# PCOD8229524 Si02
#       8
#     8   8   8   8   8   8   8   8
#     4  12  25  38  61  98 133 175 228 280 336 402
#     4  12  20  39  64  94 127 169 222 276 329 387
#     4  11  20  40  64  97 127 167 223 276 338 406
#     4  12  23  42  61  96 135 181 220 278 346 413
#     4  12  24  39  66  97 135 175 217 280 352 411
#     4  11  21  37  64  96 132 154 212 283 329 389
#     4  12  22  37  62  95 130 166 217 282 338 398
#     4  12  23  41  68  93 134 177 227 279 338 413
#
# _framework density 21.275162999999999
#
# number of rings (size 3 to 8) (size 9 to 14) (size 15 to 20)
#    0.000    0.250   10.000    1.500    1.750    0.000 
#    0.000    0.625    0.000    0.000    0.000    0.000 
#    0.000    0.000    0.000    0.000    0.000    0.000 
#
# Total GULP energy -793112.451498 kJ/mol
# GULP energy per Si atom -12392.382055 kJ/mol
# Density = 2.122674 g / cm^3
# Si number density = 21.275163 Si / 1000 Ang^3
#
#
#
# Elastic Constant Matrix: (Units=GPa)
#
#
# Indices 1 2 3 4 5 6 
#
# 1 95.2693 34.7075 49.7080 0.0000 0.0000 0.0000
# 2 34.7075 71.2203 18.4878 0.0000 0.0000 0.0000
# 3 49.7080 18.4878 92.1819 0.0000 0.0000 0.0000
# 4 0.0000 0.0000 0.0000 26.7264 0.0000 0.0000
# 5 0.0000 0.0000 0.0000 0.0000 181.8533 0.0000
# 6 0.0000 0.0000 0.0000 0.0000 0.0000 24.6683
#
#
#
# Elastic Compliance Matrix: (Units=1/GPa)
#
#
# Indices 1 2 3 4 5 6 
#
# 1 0.016835 -0.006169 -0.007841 0.000000 0.000000 0.000000
# 2 -0.006169 0.017072 -0.000098 0.000000 0.000000 0.000000
# 3 -0.007841 -0.000098 0.015096 0.000000 0.000000 0.000000
# 4 0.000000 0.000000 0.000000 0.037416 0.000000 0.000000
# 5 0.000000 0.000000 0.000000 0.000000 0.005499 0.000000
# 6 0.000000 0.000000 0.000000 0.000000 0.000000 0.040538
#
#
# Mechanical properties :
#
#
# Convention : Reuss Voigt Hill
#
# Bulk Modulus (GPa) = 48.10282 51.60869 49.85576
# Shear Modulus (GPa) = 29.83291 57.03415 43.43353
#
# Velocity S-wave (km/s) = 3.74871 5.18325 4.52321
# Velocity P-wave (km/s) = 6.43398 7.75447 7.12488
#
# Compressibility (1/GPa) = 0.02078880
#
# Stress axis : x y z
#
# Youngs Moduli (GPa) = 59.40021 58.57387 66.24373
#
# Poissons Ratio (x) = 0.36133 0.51941
# Poissons Ratio (y) = 0.36642 0.00647
# Poissons Ratio (z) = 0.46575 0.00572
#
# Static dielectric constant tensor:
#      x y z
#    x 3.889190 0.000000 0.000000 
#    y 0.000000 3.816130 0.000000 
#    z 0.000000 0.000000 3.998540 
# 
# 
# High freq. dielectric constant tensor:
#      x y z
#    x 1.817510 0.000000 0.000000 
#    y 0.000000 1.807740 0.000000 
#    z 0.000000 0.000000 1.854550 
# 
# From -- ./inp_files/11841.got.cif
#   From: 2010.03.12/outbox.cif.g09.slc.cpg/sg56_6_cif.got.tgz:11841.got - 2010.04.16 15:33:40.
