data_PCOD8229256
_publ_section_title
;
Structure prediction by ZEFSAII (Michael W. Deem and Ramdas Pophale) SiO2 
 PCOD8229256
Probable space group: P C C N
;
_chemical_formula_sum "Si O2"
_cell_formula_units_Z 28
_cell_length_a 18.362170
_cell_length_b 4.745670
_cell_length_c 9.669470
_cell_angle_alpha 90.000000
_cell_angle_beta 90.000000
_cell_angle_gamma 90.000000
_cell_volume 842.605345
_symmetry_space_group_name_H-M "P C C N"
_symmetry_group_IT_number 56
_symmetry_cell_setting 'orthorhombic'
loop_
_space_group_symop_operation_xyz
x,y,z
1/2-x,1/2-y,z
1/2+x,-y,1/2-z
-x,1/2+y,1/2-z
-x,-y,-z
1/2+x,1/2+y,-z
1/2-x,y,1/2+z
x,1/2-y,1/2+z
loop_
_atom_site_type_symbol
_atom_site_label
_atom_site_fract_x
_atom_site_fract_y
_atom_site_fract_z
Si Si1 0.373554 0.755135 0.934608
Si Si2 0.839667 0.762387 0.744687
Si Si3 0.250000 0.750000 0.152276
Si Si4 0.480801 0.423001 0.157044
O O1 0.332934 0.558963 0.817874
O O2 0.323208 0.803190 0.067047
O O3 0.455497 0.626335 0.970132
O O4 0.382019 0.068300 0.875262
O O5 0.898335 0.794708 0.871862
O O6 0.763585 0.946566 0.771694
O O7 0.479871 0.734443 0.222943
#
# Coordination Sequence:
#
# PCOD8229256 Si02
#       4
#     8   8   4   8
#     4  10  23  42  64  94 133 173 222 273 325 393
#     4  10  23  42  64  94 133 173 222 273 325 393
#     4  12  26  40  68 100 136 180 214 268 348 402
#     4   8  16  37  64  87 122 172 218 271 320 375
#
# _framework density 33.230263000000001
#
# number of rings (size 3 to 8) (size 9 to 14) (size 15 to 20)
#    0.000    2.286    0.000    0.857    0.000   10.286 
#    0.000    0.000    0.000   20.571    0.000    0.000 
#    0.000    0.000    0.000    0.000    0.000    0.000 
#
# Total GULP energy -346972.108916 kJ/mol
# GULP energy per Si atom -12391.861033 kJ/mol
# Density = 3.315463 g / cm^3
# Si number density = 33.230263 Si / 1000 Ang^3
#
#
#
# Elastic Constant Matrix: (Units=GPa)
#
#
# Indices 1 2 3 4 5 6 
#
# 1 202.8088 43.8472 33.0854 0.0000 0.0000 0.0000
# 2 43.8472 212.8077 26.0124 0.0000 0.0000 0.0000
# 3 33.0854 26.0124 89.4801 0.0000 0.0000 0.0000
# 4 0.0000 0.0000 0.0000 7.4156 0.0000 0.0000
# 5 0.0000 0.0000 0.0000 0.0000 64.6198 0.0000
# 6 0.0000 0.0000 0.0000 0.0000 0.0000 48.2815
#
#
#
# Elastic Compliance Matrix: (Units=1/GPa)
#
#
# Indices 1 2 3 4 5 6 
#
# 1 0.005409 -0.000902 -0.001738 0.000000 0.000000 0.000000
# 2 -0.000902 0.005023 -0.001127 0.000000 0.000000 0.000000
# 3 -0.001738 -0.001127 0.012146 0.000000 0.000000 0.000000
# 4 0.000000 0.000000 0.000000 0.134851 0.000000 0.000000
# 5 0.000000 0.000000 0.000000 0.000000 0.015475 0.000000
# 6 0.000000 0.000000 0.000000 0.000000 0.000000 0.020712
#
#
# Mechanical properties :
#
#
# Convention : Reuss Voigt Hill
#
# Bulk Modulus (GPa) = 66.46880 78.99850 72.73365
# Shear Modulus (GPa) = 24.25256 50.87348 37.56302
#
# Velocity S-wave (km/s) = 2.70447 3.91697 3.36577
# Velocity P-wave (km/s) = 5.45877 6.65443 6.08603
#
# Compressibility (1/GPa) = 0.01504465
#
# Stress axis : x y z
#
# Youngs Moduli (GPa) = 184.86697 199.09786 82.33344
#
# Poissons Ratio (x) = 0.17961 0.14308
# Poissons Ratio (y) = 0.16677 0.09275
# Poissons Ratio (z) = 0.32127 0.22429
#
# Static dielectric constant tensor:
#      x y z
#    x 7.836870 0.000000 0.000000 
#    y 0.000000 6.653300 0.000000 
#    z 0.000000 0.000000 6.543780 
# 
# 
# High freq. dielectric constant tensor:
#      x y z
#    x 2.466720 0.000000 0.000000 
#    y 0.000000 2.437270 0.000000 
#    z 0.000000 0.000000 2.384920 
# 
# From -- ./inp_files/5388.got.cif
#   From: 2010.03.12/outbox.cif.g09.slc.cpg/sg56_3_cif.got.tgz:5388.got - 2010.04.16 15:33:40.
