data_PCOD8229655
_publ_section_title
;
Structure prediction by ZEFSAII (Michael W. Deem and Ramdas Pophale) SiO2 
 PCOD8229655
Probable space group: P C C N
;
_chemical_formula_sum "Si O2"
_cell_formula_units_Z 32
_cell_length_a 8.215184
_cell_length_b 4.956822
_cell_length_c 36.028244
_cell_angle_alpha 90.000000
_cell_angle_beta 90.000000
_cell_angle_gamma 90.000000
_cell_volume 1467.113502
_symmetry_space_group_name_H-M "P C C N"
_symmetry_group_IT_number 56
_symmetry_cell_setting 'orthorhombic'
loop_
_space_group_symop_operation_xyz
x,y,z
1/2-x,1/2-y,z
1/2+x,-y,1/2-z
-x,1/2+y,1/2-z
-x,-y,-z
1/2+x,1/2+y,-z
1/2-x,y,1/2+z
x,1/2-y,1/2+z
loop_
_atom_site_type_symbol
_atom_site_label
_atom_site_fract_x
_atom_site_fract_y
_atom_site_fract_z
Si Si1 0.137061 0.988510 0.469430
Si Si2 0.430985 0.859357 0.650023
Si Si3 0.927865 0.142781 0.612811
Si Si4 0.939820 0.693215 0.729307
O O1 0.250000 0.250000 0.465432
O O2 0.250000 0.750000 0.483165
O O3 0.050086 0.918006 0.430649
O O4 0.000000 0.000000 0.500000
O O5 0.250000 0.750000 0.646863
O O6 0.552947 0.633242 0.635012
O O7 0.480910 0.926557 0.692037
O O8 0.442499 0.131462 0.625616
O O9 0.750000 0.250000 0.622449
O O10 0.750000 0.750000 0.724334
O O11 0.965924 0.468470 0.760859
#
# Coordination Sequence:
#
# PCOD8229655 Si02
#       4
#     8   8   8   8
#     4  11  24  43  67  97 132 172 215 266 322 385
#     4  12  25  42  65  96 128 167 216 268 320 382
#     4  11  23  43  65  92 128 171 214 262 321 383
#     4  12  25  44  67  95 130 170 213 266 323 384
#
# _framework density 21.811537999999999
#
# number of rings (size 3 to 8) (size 9 to 14) (size 15 to 20)
#    0.000    0.500    0.000   10.500    0.000    3.000 
#    0.000    0.000    0.000    0.000    0.000    0.000 
#    0.000    0.000    0.000    0.000    0.000    0.000 
#
# Total GULP energy -397028.913264 kJ/mol
# GULP energy per Si atom -12407.153539 kJ/mol
# Density = 2.176189 g / cm^3
# Si number density = 21.811538 Si / 1000 Ang^3
#
#
#
# Elastic Constant Matrix: (Units=GPa)
#
#
# Indices 1 2 3 4 5 6 
#
# 1 87.2187 27.2317 61.0990 0.0000 0.0000 0.0000
# 2 27.2317 138.4326 48.9628 0.0000 0.0000 0.0000
# 3 61.0990 48.9628 132.9702 0.0000 0.0000 0.0000
# 4 0.0000 0.0000 0.0000 45.3981 0.0000 0.0000
# 5 0.0000 0.0000 0.0000 0.0000 29.4433 0.0000
# 6 0.0000 0.0000 0.0000 0.0000 0.0000 38.0334
#
#
#
# Elastic Compliance Matrix: (Units=1/GPa)
#
#
# Indices 1 2 3 4 5 6 
#
# 1 0.016961 -0.000667 -0.007548 0.000000 0.000000 0.000000
# 2 -0.000667 0.008332 -0.002762 0.000000 0.000000 0.000000
# 3 -0.007548 -0.002762 0.012006 0.000000 0.000000 0.000000
# 4 0.000000 0.000000 0.000000 0.022027 0.000000 0.000000
# 5 0.000000 0.000000 0.000000 0.000000 0.033964 0.000000
# 6 0.000000 0.000000 0.000000 0.000000 0.000000 0.026293
#
#
# Mechanical properties :
#
#
# Convention : Reuss Voigt Hill
#
# Bulk Modulus (GPa) = 65.16468 70.35650 67.76059
# Shear Modulus (GPa) = 34.09477 37.33017 35.71247
#
# Velocity S-wave (km/s) = 3.95796 4.14150 4.05077
# Velocity P-wave (km/s) = 7.12940 7.42940 7.28095
#
# Compressibility (1/GPa) = 0.01534574
#
# Stress axis : x y z
#
# Youngs Moduli (GPa) = 58.95794 120.02448 83.29432
#
# Poissons Ratio (x) = 0.08004 0.62871
# Poissons Ratio (y) = 0.03931 0.23002
# Poissons Ratio (z) = 0.44502 0.33145
#
# Static dielectric constant tensor:
#      x y z
#    x 11.709270 0.000000 0.000000 
#    y 0.000000 4.269380 0.000000 
#    z 0.000000 0.000000 4.018460 
# 
# 
# High freq. dielectric constant tensor:
#      x y z
#    x 1.864050 0.000000 0.000000 
#    y 0.000000 1.878850 0.000000 
#    z 0.000000 0.000000 1.864710 
# 
# From -- ./inp_files/22660.got.cif
#   From: 2010.03.12/outbox.cif.g09.slc.cpg/sg56_12_cif.got.tgz:22660.got - 2010.04.16 15:33:40.
