data_PCOD8229650
_publ_section_title
;
Structure prediction by ZEFSAII (Michael W. Deem and Ramdas Pophale) SiO2 
 PCOD8229650
Probable space group: P C C N
;
_chemical_formula_sum "Si O2"
_cell_formula_units_Z 48
_cell_length_a 28.500949
_cell_length_b 9.192498
_cell_length_c 8.837140
_cell_angle_alpha 90.000000
_cell_angle_beta 90.000000
_cell_angle_gamma 90.000000
_cell_volume 2315.285758
_symmetry_space_group_name_H-M "P C C N"
_symmetry_group_IT_number 56
_symmetry_cell_setting 'orthorhombic'
loop_
_space_group_symop_operation_xyz
x,y,z
1/2-x,1/2-y,z
1/2+x,-y,1/2-z
-x,1/2+y,1/2-z
-x,-y,-z
1/2+x,1/2+y,-z
1/2-x,y,1/2+z
x,1/2-y,1/2+z
loop_
_atom_site_type_symbol
_atom_site_label
_atom_site_fract_x
_atom_site_fract_y
_atom_site_fract_z
Si Si1 0.533697 0.572333 0.885346
Si Si2 0.803481 0.119474 0.464666
Si Si3 0.983818 0.913287 0.357261
Si Si4 0.635561 0.627294 0.977846
Si Si5 0.377275 0.426427 0.678864
Si Si6 0.791103 0.072411 0.824530
O O1 0.526548 0.469449 0.743298
O O2 0.517537 0.739207 0.865896
O O3 0.500000 0.500000 0.000000
O O4 0.587115 0.551237 0.933259
O O5 0.796705 0.099064 0.645082
O O6 0.762780 0.036971 0.368856
O O7 0.804634 0.289314 0.426467
O O8 0.852773 0.061447 0.402873
O O9 0.932245 0.963802 0.302132
O O10 0.000000 0.000000 0.500000
O O11 0.644689 0.609463 0.156875
O O12 0.631403 0.796001 0.938149
O O13 0.677209 0.561050 0.878088
#
# Coordination Sequence:
#
# PCOD8229650 Si02
#       6
#     8   8   8   8   8   8
#     4  11  23  44  63  94 130 173 219 272 325 389
#     4  11  23  42  67  95 131 164 214 260 326 377
#     4  11  25  40  67  92 132 173 221 270 330 388
#     4  11  24  42  66  91 131 167 215 264 324 382
#     4  11  24  43  64  94 127 170 213 267 321 387
#     4  11  23  42  67  96 129 168 208 268 316 387
#
# _framework density 20.731783
#
# number of rings (size 3 to 8) (size 9 to 14) (size 15 to 20)
#    0.000    1.000    1.667    6.000    9.333    3.333 
#    0.000    3.333    0.000    0.000    0.000    0.000 
#    0.000    0.000    0.000    0.000    0.000    0.000 
#
# Total GULP energy -594867.301183 kJ/mol
# GULP energy per Si atom -12393.068775 kJ/mol
# Density = 2.068460 g / cm^3
# Si number density = 20.731783 Si / 1000 Ang^3
#
#
#
# Elastic Constant Matrix: (Units=GPa)
#
#
# Indices 1 2 3 4 5 6 
#
# 1 76.7639 31.8388 1.7314 0.0000 0.0000 0.0000
# 2 31.8388 52.0504 4.5457 0.0000 0.0000 0.0000
# 3 1.7314 4.5457 136.9119 0.0000 0.0000 0.0000
# 4 0.0000 0.0000 0.0000 37.7866 0.0000 0.0000
# 5 0.0000 0.0000 0.0000 0.0000 39.6010 0.0000
# 6 0.0000 0.0000 0.0000 0.0000 0.0000 40.6946
#
#
#
# Elastic Compliance Matrix: (Units=1/GPa)
#
#
# Indices 1 2 3 4 5 6 
#
# 1 0.017458 -0.010691 0.000134 0.000000 0.000000 0.000000
# 2 -0.010691 0.025815 -0.000722 0.000000 0.000000 0.000000
# 3 0.000134 -0.000722 0.007326 0.000000 0.000000 0.000000
# 4 0.000000 0.000000 0.000000 0.026464 0.000000 0.000000
# 5 0.000000 0.000000 0.000000 0.000000 0.025252 0.000000
# 6 0.000000 0.000000 0.000000 0.000000 0.000000 0.024573
#
#
# Mechanical properties :
#
#
# Convention : Reuss Voigt Hill
#
# Bulk Modulus (GPa) = 35.66068 37.99535 36.82801
# Shear Modulus (GPa) = 31.48762 38.79046 35.13904
#
# Velocity S-wave (km/s) = 3.90142 4.33027 4.12143
# Velocity P-wave (km/s) = 6.12642 6.58548 6.36009
#
# Compressibility (1/GPa) = 0.02804209
#
# Stress axis : x y z
#
# Youngs Moduli (GPa) = 57.28026 38.73776 136.49573
#
# Poissons Ratio (x) = 0.41413 -0.01831
# Poissons Ratio (y) = 0.61236 0.09854
# Poissons Ratio (z) = -0.00769 0.02796
#
# Static dielectric constant tensor:
#      x y z
#    x 3.698870 0.000000 0.000000 
#    y 0.000000 3.586440 0.000000 
#    z 0.000000 0.000000 3.858020 
# 
# 
# High freq. dielectric constant tensor:
#      x y z
#    x 1.818830 0.000000 0.000000 
#    y 0.000000 1.806360 0.000000 
#    z 0.000000 0.000000 1.834830 
# 
# From -- ./inp_files/4938.got.cif
#   From: 2010.03.12/outbox.cif.g09.slc.cpg/sg56_3_cif.got.tgz:4938.got - 2010.04.16 15:33:40.
