data_PCOD8229067
_publ_section_title
;
Structure prediction by ZEFSAII (Michael W. Deem and Ramdas Pophale) SiO2 
 PCOD8229067
Probable space group: P C C N
;
_chemical_formula_sum "Si O2"
_cell_formula_units_Z 64
_cell_length_a 14.301257
_cell_length_b 23.207344
_cell_length_c 9.966819
_cell_angle_alpha 90.000000
_cell_angle_beta 90.000000
_cell_angle_gamma 90.000000
_cell_volume 3307.929327
_symmetry_space_group_name_H-M "P C C N"
_symmetry_group_IT_number 56
_symmetry_cell_setting 'orthorhombic'
loop_
_space_group_symop_operation_xyz
x,y,z
1/2-x,1/2-y,z
1/2+x,-y,1/2-z
-x,1/2+y,1/2-z
-x,-y,-z
1/2+x,1/2+y,-z
1/2-x,y,1/2+z
x,1/2-y,1/2+z
loop_
_atom_site_type_symbol
_atom_site_label
_atom_site_fract_x
_atom_site_fract_y
_atom_site_fract_z
Si Si1 0.247546 0.991391 0.857695
Si Si2 0.521699 0.252705 0.098045
Si Si3 0.373888 0.902764 0.734629
Si Si4 0.240758 0.070211 0.607433
Si Si5 0.145109 0.730140 0.665032
Si Si6 0.582399 0.642549 0.982855
Si Si7 0.569740 0.050457 0.529851
Si Si8 0.435582 0.362939 0.703825
O O1 0.307303 0.932929 0.842929
O O2 0.138972 0.970850 0.852554
O O3 0.266381 0.038273 0.744101
O O4 0.276204 0.022236 0.995163
O O5 0.595745 0.266100 0.216195
O O6 0.434749 0.297106 0.092244
O O7 0.471710 0.191620 0.119728
O O8 0.581135 0.257957 0.962788
O O9 0.349293 0.836350 0.709030
O O10 0.362794 0.938073 0.596861
O O11 0.479945 0.908856 0.788379
O O12 0.324996 0.112569 0.570212
O O13 0.149296 0.109238 0.623583
O O14 0.250000 0.750000 0.636349
O O15 0.490072 0.606969 0.939097
O O16 0.591592 0.652852 0.142777
O O17 0.500000 0.000000 0.500000
#
# Coordination Sequence:
#
# PCOD8229067 Si02
#       8
#     8   8   8   8   8   8   8   8
#     4  12  23  39  66 103 128 171 225 265 328 405
#     4  11  22  44  67  97 129 175 219 274 328 394
#     4  10  22  41  63  91 136 170 203 272 331 387
#     4  12  24  42  68  95 132 171 226 275 325 391
#     4  11  24  41  67  99 136 171 219 268 330 396
#     4  11  22  44  68  93 134 180 215 272 342 395
#     4  11  19  39  66  89 128 178 213 252 326 397
#     4  10  23  45  65  94 135 167 221 281 329 395
#
# _framework density 19.347452000000001
#
# number of rings (size 3 to 8) (size 9 to 14) (size 15 to 20)
#    0.000    1.000    7.500    1.125    1.750    4.000 
#    0.000    1.250    0.000    0.000    0.000    0.000 
#    0.000    0.000    0.000    0.000    0.000    0.000 
#
# Total GULP energy -793447.847449 kJ/mol
# GULP energy per Si atom -12397.622616 kJ/mol
# Density = 1.930342 g / cm^3
# Si number density = 19.347452 Si / 1000 Ang^3
#
#
#
# Elastic Constant Matrix: (Units=GPa)
#
#
# Indices 1 2 3 4 5 6 
#
# 1 131.5717 57.3073 47.5921 0.0000 0.0000 0.0000
# 2 57.3073 99.3885 50.4947 0.0000 0.0000 0.0000
# 3 47.5921 50.4947 92.1584 0.0000 0.0000 0.0000
# 4 0.0000 0.0000 0.0000 36.1187 0.0000 0.0000
# 5 0.0000 0.0000 0.0000 0.0000 31.5640 0.0000
# 6 0.0000 0.0000 0.0000 0.0000 0.0000 38.7066
#
#
#
# Elastic Compliance Matrix: (Units=1/GPa)
#
#
# Indices 1 2 3 4 5 6 
#
# 1 0.010707 -0.004662 -0.002975 0.000000 0.000000 0.000000
# 2 -0.004662 0.015973 -0.006344 0.000000 0.000000 0.000000
# 3 -0.002975 -0.006344 0.015863 0.000000 0.000000 0.000000
# 4 0.000000 0.000000 0.000000 0.027686 0.000000 0.000000
# 5 0.000000 0.000000 0.000000 0.000000 0.031682 0.000000
# 6 0.000000 0.000000 0.000000 0.000000 0.000000 0.025835
#
#
# Mechanical properties :
#
#
# Convention : Reuss Voigt Hill
#
# Bulk Modulus (GPa) = 68.58336 70.43409 69.50873
# Shear Modulus (GPa) = 31.13914 32.45949 31.79931
#
# Velocity S-wave (km/s) = 4.01617 4.10043 4.05852
# Velocity P-wave (km/s) = 7.55191 7.67476 7.61359
#
# Compressibility (1/GPa) = 0.01458080
#
# Stress axis : x y z
#
# Youngs Moduli (GPa) = 93.39488 62.60563 63.03936
#
# Poissons Ratio (x) = 0.29189 0.18753
# Poissons Ratio (y) = 0.43545 0.39993
# Poissons Ratio (z) = 0.27783 0.39717
#
# Static dielectric constant tensor:
#      x y z
#    x 3.765450 0.000000 0.000000 
#    y 0.000000 3.911380 0.000000 
#    z 0.000000 0.000000 3.612580 
# 
# 
# High freq. dielectric constant tensor:
#      x y z
#    x 1.760600 0.000000 0.000000 
#    y 0.000000 1.761110 0.000000 
#    z 0.000000 0.000000 1.748150 
# 
# From -- ./inp_files/3707.got.cif
#   From: 2010.03.12/outbox.cif.g09.slc.cpg/sg56_2_cif.got.tgz:3707.got - 2010.04.16 15:33:40.
