data_PCOD8229201
_publ_section_title
;
Structure prediction by ZEFSAII (Michael W. Deem and Ramdas Pophale) SiO2 
 PCOD8229201
Probable space group: P C C N
;
_chemical_formula_sum "Si O2"
_cell_formula_units_Z 52
_cell_length_a 8.336963
_cell_length_b 14.822338
_cell_length_c 19.585934
_cell_angle_alpha 90.000000
_cell_angle_beta 90.000000
_cell_angle_gamma 90.000000
_cell_volume 2420.298174
_symmetry_space_group_name_H-M "P C C N"
_symmetry_group_IT_number 56
_symmetry_cell_setting 'orthorhombic'
loop_
_space_group_symop_operation_xyz
x,y,z
1/2-x,1/2-y,z
1/2+x,-y,1/2-z
-x,1/2+y,1/2-z
-x,-y,-z
1/2+x,1/2+y,-z
1/2-x,y,1/2+z
x,1/2-y,1/2+z
loop_
_atom_site_type_symbol
_atom_site_label
_atom_site_fract_x
_atom_site_fract_y
_atom_site_fract_z
Si Si1 0.944001 0.501898 0.095743
Si Si2 0.046037 0.344041 0.815675
Si Si3 0.250000 0.750000 0.745215
Si Si4 0.769510 0.489383 0.476117
Si Si5 0.250000 0.250000 0.430773
Si Si6 0.250000 0.250000 0.205815
Si Si7 0.510517 0.646810 0.970623
Si Si8 0.960173 0.195613 0.633825
O O1 0.937238 0.547974 0.170927
O O2 0.923172 0.394251 0.092626
O O3 0.117429 0.533997 0.069854
O O4 0.799225 0.534561 0.046527
O O5 0.124479 0.303050 0.883556
O O6 0.146476 0.320004 0.749087
O O7 0.862468 0.311568 0.803546
O O8 0.357603 0.808782 0.796645
O O9 0.890331 0.561004 0.439753
O O10 0.859989 0.394488 0.488592
O O11 0.133202 0.305587 0.479114
O O12 0.355796 0.188691 0.156349
O O13 0.438132 0.713562 0.912020
#
# Coordination Sequence:
#
# PCOD8229201 Si02
#       8
#     8   8   4   8   4   4   8   8
#     4  11  22  40  59  97 131 160 206 272 320 386
#     4  10  23  40  63  87 130 162 214 269 308 384
#     4  10  24  44  60  96 120 178 226 260 318 382
#     4  10  23  38  58  97 132 157 212 254 330 396
#     4  11  21  40  64  92 121 175 208 252 344 389
#     4   9  21  42  62  84 113 179 218 242 306 385
#     4  11  22  40  64  92 125 170 204 265 319 397
#     4  11  22  40  67  88 128 168 216 257 324 377
#
# _framework density 21.484957000000001
#
# number of rings (size 3 to 8) (size 9 to 14) (size 15 to 20)
#    0.000    1.538    1.538    3.231    4.308    1.231 
#    0.000    0.000    0.000    0.000    0.000    0.000 
#    0.000    0.000    0.000    0.000    0.000    0.000 
#
# Total GULP energy -644296.322373 kJ/mol
# GULP energy per Si atom -12390.313892 kJ/mol
# Density = 2.143606 g / cm^3
# Si number density = 21.484957 Si / 1000 Ang^3
#
#
#
# Elastic Constant Matrix: (Units=GPa)
#
#
# Indices 1 2 3 4 5 6 
#
# 1 92.3158 34.3798 9.8058 0.0000 0.0000 0.0000
# 2 34.3798 115.7479 35.5805 0.0000 0.0000 0.0000
# 3 9.8058 35.5805 64.4693 0.0000 0.0000 0.0000
# 4 0.0000 0.0000 0.0000 24.7960 0.0000 0.0000
# 5 0.0000 0.0000 0.0000 0.0000 13.5877 0.0000
# 6 0.0000 0.0000 0.0000 0.0000 0.0000 30.5561
#
#
#
# Elastic Compliance Matrix: (Units=1/GPa)
#
#
# Indices 1 2 3 4 5 6 
#
# 1 0.012181 -0.003671 0.000174 0.000000 0.000000 0.000000
# 2 -0.003671 0.011511 -0.005795 0.000000 0.000000 0.000000
# 3 0.000174 -0.005795 0.018683 0.000000 0.000000 0.000000
# 4 0.000000 0.000000 0.000000 0.040329 0.000000 0.000000
# 5 0.000000 0.000000 0.000000 0.000000 0.073596 0.000000
# 6 0.000000 0.000000 0.000000 0.000000 0.000000 0.032727
#
#
# Mechanical properties :
#
#
# Convention : Reuss Voigt Hill
#
# Bulk Modulus (GPa) = 42.03398 48.00724 45.02061
# Shear Modulus (GPa) = 23.19733 26.63911 24.91822
#
# Velocity S-wave (km/s) = 3.28945 3.52504 3.40928
# Velocity P-wave (km/s) = 5.83388 6.24187 6.04132
#
# Compressibility (1/GPa) = 0.02379028
#
# Stress axis : x y z
#
# Youngs Moduli (GPa) = 82.09332 86.87189 53.52495
#
# Poissons Ratio (x) = 0.31895 -0.00929
# Poissons Ratio (y) = 0.30140 0.31015
# Poissons Ratio (z) = -0.01424 0.50339
#
# Static dielectric constant tensor:
#      x y z
#    x 4.314520 0.000000 0.000000 
#    y 0.000000 3.792430 0.000000 
#    z 0.000000 0.000000 3.748660 
# 
# 
# High freq. dielectric constant tensor:
#      x y z
#    x 1.868450 0.000000 0.000000 
#    y 0.000000 1.833950 0.000000 
#    z 0.000000 0.000000 1.828330 
# 
# From -- ./inp_files/18197.got.cif
#   From: 2010.03.12/outbox.cif.g09.slc.cpg/sg56_10_cif.got.tgz:18197.got - 2010.04.16 15:33:40.
