data_PCOD8229608
_publ_section_title
;
Structure prediction by ZEFSAII (Michael W. Deem and Ramdas Pophale) SiO2 
 PCOD8229608
Probable space group: P C C N
;
_chemical_formula_sum "Si O2"
_cell_formula_units_Z 40
_cell_length_a 15.437375
_cell_length_b 7.347334
_cell_length_c 16.994285
_cell_angle_alpha 90.000000
_cell_angle_beta 90.000000
_cell_angle_gamma 90.000000
_cell_volume 1927.552138
_symmetry_space_group_name_H-M "P C C N"
_symmetry_group_IT_number 56
_symmetry_cell_setting 'orthorhombic'
loop_
_space_group_symop_operation_xyz
x,y,z
1/2-x,1/2-y,z
1/2+x,-y,1/2-z
-x,1/2+y,1/2-z
-x,-y,-z
1/2+x,1/2+y,-z
1/2-x,y,1/2+z
x,1/2-y,1/2+z
loop_
_atom_site_type_symbol
_atom_site_label
_atom_site_fract_x
_atom_site_fract_y
_atom_site_fract_z
Si Si1 0.654978 0.832699 0.481993
Si Si2 0.062265 0.621057 0.825734
Si Si3 0.561224 0.955240 0.334722
Si Si4 0.000620 0.294292 0.925181
Si Si5 0.653780 0.222960 0.534013
O O1 0.750000 0.750000 0.492325
O O2 0.638968 0.885211 0.390682
O O3 0.581639 0.695045 0.513993
O O4 0.640588 0.007138 0.537529
O O5 0.101573 0.547501 0.743481
O O6 0.006926 0.460218 0.865196
O O7 0.141903 0.688789 0.879650
O O8 0.998193 0.787530 0.809121
O O9 0.502189 0.101675 0.380294
O O10 0.913230 0.320072 0.975279
O O11 0.750000 0.250000 0.501165
#
# Coordination Sequence:
#
# PCOD8229608 Si02
#       5
#     8   8   8   8   8
#     4  11  23  43  67  97 131 169 222 273 317 384
#     4  12  22  41  67  96 132 174 214 267 330 388
#     4  11  23  41  64  98 133 172 216 264 331 392
#     4  11  22  42  70  94 128 172 218 270 319 383
#     4  11  23  40  67 101 126 167 220 269 322 383
#
# _framework density 20.751708000000001
#
# number of rings (size 3 to 8) (size 9 to 14) (size 15 to 20)
#    0.000    0.800    6.000    3.000    2.800    0.000 
#    0.000    9.000    0.000    0.000    0.000    0.000 
#    0.000    0.000    0.000    0.000    0.000    0.000 
#
# Total GULP energy -495971.702681 kJ/mol
# GULP energy per Si atom -12399.292567 kJ/mol
# Density = 2.070448 g / cm^3
# Si number density = 20.751708 Si / 1000 Ang^3
#
#
#
# Elastic Constant Matrix: (Units=GPa)
#
#
# Indices 1 2 3 4 5 6 
#
# 1 130.3527 18.0861 52.8884 0.0000 0.0000 0.0000
# 2 18.0861 87.8636 46.6314 0.0000 0.0000 0.0000
# 3 52.8884 46.6314 147.6945 0.0000 0.0000 0.0000
# 4 0.0000 0.0000 0.0000 37.7217 0.0000 0.0000
# 5 0.0000 0.0000 0.0000 0.0000 27.3306 0.0000
# 6 0.0000 0.0000 0.0000 0.0000 0.0000 26.0091
#
#
#
# Elastic Compliance Matrix: (Units=1/GPa)
#
#
# Indices 1 2 3 4 5 6 
#
# 1 0.008978 -0.000170 -0.003161 0.000000 0.000000 0.000000
# 2 -0.000170 0.013675 -0.004257 0.000000 0.000000 0.000000
# 3 -0.003161 -0.004257 0.009247 0.000000 0.000000 0.000000
# 4 0.000000 0.000000 0.000000 0.026510 0.000000 0.000000
# 5 0.000000 0.000000 0.000000 0.000000 0.036589 0.000000
# 6 0.000000 0.000000 0.000000 0.000000 0.000000 0.038448
#
#
# Mechanical properties :
#
#
# Convention : Reuss Voigt Hill
#
# Bulk Modulus (GPa) = 59.79594 66.79139 63.29366
# Shear Modulus (GPa) = 32.42592 34.76595 33.59594
#
# Velocity S-wave (km/s) = 3.95722 4.09752 4.02798
# Velocity P-wave (km/s) = 7.05386 7.39203 7.22492
#
# Compressibility (1/GPa) = 0.01672354
#
# Stress axis : x y z
#
# Youngs Moduli (GPa) = 111.38745 73.12347 108.14716
#
# Poissons Ratio (x) = 0.01246 0.34186
# Poissons Ratio (y) = 0.01897 0.46036
# Poissons Ratio (z) = 0.35210 0.31127
#
# Static dielectric constant tensor:
#      x y z
#    x 3.525990 0.000000 0.000000 
#    y 0.000000 4.043130 0.000000 
#    z 0.000000 0.000000 3.862980 
# 
# 
# High freq. dielectric constant tensor:
#      x y z
#    x 1.784450 0.000000 0.000000 
#    y 0.000000 1.839150 0.000000 
#    z 0.000000 0.000000 1.809370 
# 
# From -- ./inp_files/14617.got.cif
#   From: 2010.03.12/outbox.cif.g09.slc.cpg/sg56_8_cif.got.tgz:14617.got - 2010.04.16 15:33:40.
