data_PCOD8229597
_publ_section_title
;
Structure prediction by ZEFSAII (Michael W. Deem and Ramdas Pophale) SiO2 
 PCOD8229597
Probable space group: P C C N
;
_chemical_formula_sum "Si O2"
_cell_formula_units_Z 48
_cell_length_a 10.499548
_cell_length_b 8.291993
_cell_length_c 22.060989
_cell_angle_alpha 90.000000
_cell_angle_beta 90.000000
_cell_angle_gamma 90.000000
_cell_volume 1920.677763
_symmetry_space_group_name_H-M "P C C N"
_symmetry_group_IT_number 56
_symmetry_cell_setting 'orthorhombic'
loop_
_space_group_symop_operation_xyz
x,y,z
1/2-x,1/2-y,z
1/2+x,-y,1/2-z
-x,1/2+y,1/2-z
-x,-y,-z
1/2+x,1/2+y,-z
1/2-x,y,1/2+z
x,1/2-y,1/2+z
loop_
_atom_site_type_symbol
_atom_site_label
_atom_site_fract_x
_atom_site_fract_y
_atom_site_fract_z
Si Si1 0.463235 0.004108 0.685389
Si Si2 0.200755 0.534180 0.120353
Si Si3 0.970195 0.368052 0.182127
Si Si4 0.788188 0.920124 0.612540
Si Si5 0.682185 0.083928 0.502346
Si Si6 0.506593 0.219882 0.415693
O O1 0.490509 0.934237 0.751038
O O2 0.545839 0.902602 0.636451
O O3 0.313421 0.996111 0.669118
O O4 0.531392 0.176611 0.683109
O O5 0.248641 0.489245 0.052761
O O6 0.141231 0.716723 0.114775
O O7 0.086859 0.417139 0.139426
O O8 0.834072 0.439752 0.158084
O O9 0.750000 0.750000 0.645174
O O10 0.913024 0.869149 0.572598
O O11 0.681295 0.972242 0.562584
O O12 0.750000 0.250000 0.521858
O O13 0.539179 0.129899 0.479137
#
# Coordination Sequence:
#
# PCOD8229597 Si02
#       6
#     8   8   8   8   8   8
#     4  11  22  41  66  93 128 169 215 261 320 388
#     4   9  20  42  67  90 122 168 218 263 315 386
#     4  11  24  39  65  98 128 166 213 269 324 378
#     4  11  25  42  61  92 133 168 210 266 318 371
#     4   9  20  40  66  92 123 168 214 257 314 383
#     4   9  21  42  67  92 124 169 216 257 312 387
#
# _framework density 24.99118
#
# number of rings (size 3 to 8) (size 9 to 14) (size 15 to 20)
#    0.000    2.000    0.000    4.000    0.000   13.333 
#    0.000    3.333    0.000    3.000    0.000    0.000 
#    0.000    0.000    0.000    0.000    0.000    0.000 
#
# Total GULP energy -594770.036736 kJ/mol
# GULP energy per Si atom -12391.042432 kJ/mol
# Density = 2.493430 g / cm^3
# Si number density = 24.991180 Si / 1000 Ang^3
#
#
#
# Elastic Constant Matrix: (Units=GPa)
#
#
# Indices 1 2 3 4 5 6 
#
# 1 78.6214 14.8466 25.6856 0.0000 0.0000 0.0000
# 2 14.8466 127.1389 47.4223 0.0000 0.0000 0.0000
# 3 25.6856 47.4223 112.0992 0.0000 0.0000 0.0000
# 4 0.0000 0.0000 0.0000 28.8226 0.0000 0.0000
# 5 0.0000 0.0000 0.0000 0.0000 33.3591 0.0000
# 6 0.0000 0.0000 0.0000 0.0000 0.0000 32.1429
#
#
#
# Elastic Compliance Matrix: (Units=1/GPa)
#
#
# Indices 1 2 3 4 5 6 
#
# 1 0.013776 -0.000512 -0.002940 0.000000 0.000000 0.000000
# 2 -0.000512 0.009358 -0.003841 0.000000 0.000000 0.000000
# 3 -0.002940 -0.003841 0.011219 0.000000 0.000000 0.000000
# 4 0.000000 0.000000 0.000000 0.034695 0.000000 0.000000
# 5 0.000000 0.000000 0.000000 0.000000 0.029977 0.000000
# 6 0.000000 0.000000 0.000000 0.000000 0.000000 0.031111
#
#
# Mechanical properties :
#
#
# Convention : Reuss Voigt Hill
#
# Bulk Modulus (GPa) = 50.59016 54.86317 52.72667
# Shear Modulus (GPa) = 33.04412 34.19191 33.61802
#
# Velocity S-wave (km/s) = 3.64019 3.70288 3.67167
# Velocity P-wave (km/s) = 6.16078 6.34684 6.25450
#
# Compressibility (1/GPa) = 0.01976669
#
# Stress axis : x y z
#
# Youngs Moduli (GPa) = 72.58806 106.85953 89.13124
#
# Poissons Ratio (x) = 0.05473 0.26204
# Poissons Ratio (y) = 0.03718 0.34240
# Poissons Ratio (z) = 0.21341 0.41050
#
# Static dielectric constant tensor:
#      x y z
#    x 5.002240 0.000000 0.000000 
#    y 0.000000 4.618810 0.000000 
#    z 0.000000 0.000000 4.226320 
# 
# 
# High freq. dielectric constant tensor:
#      x y z
#    x 2.026980 0.000000 0.000000 
#    y 0.000000 1.999800 0.000000 
#    z 0.000000 0.000000 1.976710 
# 
# From -- ./inp_files/20915.got.cif
#   From: 2010.03.12/outbox.cif.g09.slc.cpg/sg56_11_cif.got.tgz:20915.got - 2010.04.16 15:33:40.
