data_PCOD8229993
_publ_section_title
;
Structure prediction by ZEFSAII (Michael W. Deem and Ramdas Pophale) SiO2 
 PCOD8229993
Probable space group: P B C M
;
_chemical_formula_sum "Si O2"
_cell_formula_units_Z 64
_cell_length_a 14.787866
_cell_length_b 29.376483
_cell_length_c 9.479767
_cell_angle_alpha 90.000000
_cell_angle_beta 90.000000
_cell_angle_gamma 90.000000
_cell_volume 4118.157666
_symmetry_space_group_name_H-M "P B C M"
_symmetry_group_IT_number 57
_symmetry_cell_setting 'orthorhombic'
loop_
_space_group_symop_operation_xyz
x,y,z
-x,-y,1/2+z
x,1/2-y,-z
-x,1/2+y,1/2-z
-x,-y,-z
x,y,1/2-z
-x,1/2+y,z
x,1/2-y,1/2+z
loop_
_atom_site_type_symbol
_atom_site_label
_atom_site_fract_x
_atom_site_fract_y
_atom_site_fract_z
Si Si1 0.955470 0.106531 0.416975
Si Si2 0.218076 0.208410 0.088474
Si Si3 0.623064 0.024864 0.589985
Si Si4 0.133609 0.055315 0.416780
Si Si5 0.175251 0.546381 0.586559
Si Si6 0.697235 0.613317 0.085196
Si Si7 0.567555 0.560372 0.587585
Si Si8 0.009999 0.206672 0.413776
O O1 0.946380 0.099631 0.250000
O O2 0.868494 0.085881 0.493454
O O3 0.958985 0.160081 0.455366
O O4 0.043995 0.080023 0.475922
O O5 0.225399 0.222378 0.250000
O O6 0.277577 0.164913 0.052832
O O7 0.114530 0.198154 0.047839
O O8 0.258157 0.250000 0.000000
O O9 0.623387 0.004661 0.750000
O O10 0.717358 0.049969 0.560383
O O11 0.541220 0.060683 0.572033
O O12 0.611003 0.984596 0.479619
O O13 0.134067 0.060258 0.250000
O O14 0.222944 0.080734 0.473030
O O15 0.137046 0.002698 0.463973
O O16 0.151298 0.554337 0.750000
O O17 0.679040 0.605069 0.250000
O O18 0.606419 0.603493 0.996956
O O19 0.597168 0.562638 0.750000
O O20 0.971173 0.250000 0.500000
O O21 0.996791 0.217836 0.250000
#
# Coordination Sequence:
#
# PCOD8229993 Si02
#       8
#     8   8   8   8   8   8   8   8
#     4  10  19  31  46  66  92 122 155 192 228 264
#     4   9  17  29  47  67  90 122 155 186 226 275
#     4   9  18  33  48  63  90 124 153 185 231 278
#     4   9  16  29  46  62  89 128 161 181 212 269
#     4  10  19  31  47  64  88 126 162 189 221 268
#     4  10  17  30  49  66  91 130 159 178 224 286
#     4  10  19  29  46  71  92 114 151 196 230 261
#     4   9  17  30  47  66  89 118 151 189 230 271
#
# _framework density 15.540931
#
# number of rings (size 3 to 8) (size 9 to 14) (size 15 to 20)
#    0.000    2.500    2.500    0.750    0.000    2.000 
#    0.000    0.625    0.000    0.000    0.000    0.875 
#    0.000    0.000    0.000    0.000    0.000    0.000 
#
# Total GULP energy -793519.779073 kJ/mol
# GULP energy per Si atom -12398.746548 kJ/mol
# Density = 1.550556 g / cm^3
# Si number density = 15.540931 Si / 1000 Ang^3
#
#
#
# Elastic Constant Matrix: (Units=GPa)
#
#
# Indices 1 2 3 4 5 6 
#
# 1 87.9921 56.8865 43.5339 0.0000 0.0000 0.0000
# 2 56.8865 112.3910 58.8037 0.0000 0.0000 0.0000
# 3 43.5339 58.8037 63.8853 0.0000 0.0000 0.0000
# 4 0.0000 0.0000 0.0000 28.6784 0.0000 0.0000
# 5 0.0000 0.0000 0.0000 0.0000 24.3070 0.0000
# 6 0.0000 0.0000 0.0000 0.0000 0.0000 20.5862
#
#
#
# Elastic Compliance Matrix: (Units=1/GPa)
#
#
# Indices 1 2 3 4 5 6 
#
# 1 0.018701 -0.005397 -0.007776 0.000000 0.000000 0.000000
# 2 -0.005397 0.018721 -0.013554 0.000000 0.000000 0.000000
# 3 -0.007776 -0.013554 0.033427 0.000000 0.000000 0.000000
# 4 0.000000 0.000000 0.000000 0.034869 0.000000 0.000000
# 5 0.000000 0.000000 0.000000 0.000000 0.041140 0.000000
# 6 0.000000 0.000000 0.000000 0.000000 0.000000 0.048576
#
#
# Mechanical properties :
#
#
# Convention : Reuss Voigt Hill
#
# Bulk Modulus (GPa) = 57.48525 64.74628 61.11577
# Shear Modulus (GPa) = 19.63197 21.71727 20.67462
#
# Velocity S-wave (km/s) = 3.55807 3.74227 3.65133
# Velocity P-wave (km/s) = 7.34505 7.77335 7.56223
#
# Compressibility (1/GPa) = 0.01739577
#
# Stress axis : x y z
#
# Youngs Moduli (GPa) = 53.47338 53.41693 29.91568
#
# Poissons Ratio (x) = 0.28830 0.23261
# Poissons Ratio (y) = 0.28860 0.40547
# Poissons Ratio (z) = 0.41579 0.72400
#
# Static dielectric constant tensor:
#      x y z
#    x 2.948140 0.000000 0.000000 
#    y 0.000000 2.945120 0.000000 
#    z 0.000000 0.000000 2.883900 
# 
# 
# High freq. dielectric constant tensor:
#      x y z
#    x 1.579480 0.000000 0.000000 
#    y 0.000000 1.582710 0.000000 
#    z 0.000000 0.000000 1.588330 
# 
# From -- ./inp_files/5987.got.cif
#   From: 2010.03.12/outbox.cif.g09.slc.cpg/sg57_3_cif.got.tgz:5987.got - 2010.04.16 15:48:40.
