data_PCOD8229057
_publ_section_title
;
Structure prediction by ZEFSAII (Michael W. Deem and Ramdas Pophale) SiO2 
 PCOD8229057
Probable space group: P C C N
;
_chemical_formula_sum "Si O2"
_cell_formula_units_Z 52
_cell_length_a 20.122602
_cell_length_b 8.156131
_cell_length_c 14.292131
_cell_angle_alpha 90.000000
_cell_angle_beta 90.000000
_cell_angle_gamma 90.000000
_cell_volume 2345.661384
_symmetry_space_group_name_H-M "P C C N"
_symmetry_group_IT_number 56
_symmetry_cell_setting 'orthorhombic'
loop_
_space_group_symop_operation_xyz
x,y,z
1/2-x,1/2-y,z
1/2+x,-y,1/2-z
-x,1/2+y,1/2-z
-x,-y,-z
1/2+x,1/2+y,-z
1/2-x,y,1/2+z
x,1/2-y,1/2+z
loop_
_atom_site_type_symbol
_atom_site_label
_atom_site_fract_x
_atom_site_fract_y
_atom_site_fract_z
Si Si1 0.174031 0.264853 0.758745
Si Si2 0.434062 0.996860 0.816206
Si Si3 0.031467 0.765977 0.152476
Si Si4 0.607353 0.281199 0.532522
Si Si5 0.200060 0.389686 0.556790
Si Si6 0.250000 0.750000 0.025027
Si Si7 0.900424 0.553961 0.610101
O O1 0.250000 0.250000 0.791356
O O2 0.134731 0.404617 0.813462
O O3 0.168402 0.307528 0.649591
O O4 0.137117 0.096365 0.791552
O O5 0.433090 0.862715 0.735229
O O6 0.501969 0.098944 0.803764
O O7 0.432032 0.931742 0.922317
O O8 0.088060 0.736425 0.075679
O O9 0.971130 0.858256 0.102056
O O10 0.687204 0.298687 0.538480
O O11 0.585639 0.137330 0.602988
O O12 0.250000 0.250000 0.518593
O O13 0.231109 0.574632 0.578418
O O14 0.142641 0.399413 0.480751
#
# Coordination Sequence:
#
# PCOD8229057 Si02
#       7
#     8   8   8   8   8   4   8
#     4  10  23  43  64 101 131 181 228 284 353 408
#     4  11  24  43  67 100 138 179 233 288 349 432
#     4  11  24  44  67  98 137 178 232 280 358 415
#     4  11  24  43  66 101 134 180 228 296 342 423
#     4  10  22  43  68  97 141 178 232 289 345 422
#     4  10  24  42  68 102 132 184 232 280 358 414
#     4  10  22  40  71  94 132 180 223 284 351 413
#
# _framework density 22.168588
#
# number of rings (size 3 to 8) (size 9 to 14) (size 15 to 20)
#    0.000    1.538    0.000    4.154    8.615    2.462 
#   22.154    0.769    0.000    0.000    0.000    0.000 
#    0.000    0.000    0.000    0.000    0.000    0.000 
#
# Total GULP energy -644237.408126 kJ/mol
# GULP energy per Si atom -12389.180926 kJ/mol
# Density = 2.211813 g / cm^3
# Si number density = 22.168588 Si / 1000 Ang^3
#
#
#
# Elastic Constant Matrix: (Units=GPa)
#
#
# Indices 1 2 3 4 5 6 
#
# 1 89.9232 19.8350 18.2646 0.0000 0.0000 0.0000
# 2 19.8350 88.5559 39.0299 0.0000 0.0000 0.0000
# 3 18.2646 39.0299 90.5400 0.0000 0.0000 0.0000
# 4 0.0000 0.0000 0.0000 30.0522 0.0000 0.0000
# 5 0.0000 0.0000 0.0000 0.0000 -23.0773 0.0000
# 6 0.0000 0.0000 0.0000 0.0000 0.0000 22.8005
#
#
#
# Elastic Compliance Matrix: (Units=1/GPa)
#
#
# Indices 1 2 3 4 5 6 
#
# 1 0.011870 -0.001979 -0.001541 0.000000 0.000000 0.000000
# 2 -0.001979 0.014271 -0.005753 0.000000 0.000000 0.000000
# 3 -0.001541 -0.005753 0.013836 0.000000 0.000000 0.000000
# 4 0.000000 0.000000 0.000000 0.033275 0.000000 0.000000
# 5 0.000000 0.000000 0.000000 0.000000 -0.043333 0.000000
# 6 0.000000 0.000000 0.000000 0.000000 0.000000 0.043859
#
#
# Mechanical properties :
#
#
# Convention : Reuss Voigt Hill
#
# Bulk Modulus (GPa) = 46.66309 47.03089 46.84699
# Shear Modulus (GPa) = 50.26712 18.74772 34.50742
#
# Velocity S-wave (km/s) = 4.76699 2.91123 3.94965
# Velocity P-wave (km/s) = 7.16894 5.70627 6.47901
#
# Compressibility (1/GPa) = 0.02143021
#
# Stress axis : x y z
#
# Youngs Moduli (GPa) = 84.24409 70.07186 72.27721
#
# Poissons Ratio (x) = 0.13870 0.11140
# Poissons Ratio (y) = 0.16675 0.41579
# Poissons Ratio (z) = 0.12984 0.40310
#
# Static dielectric constant tensor:
#      x y z
#    x 4.020620 0.000000 0.000000 
#    y 0.000000 4.533650 0.000000 
#    z 0.000000 0.000000 3.725850 
# 
# 
# High freq. dielectric constant tensor:
#      x y z
#    x 1.880460 0.000000 0.000000 
#    y 0.000000 1.883390 0.000000 
#    z 0.000000 0.000000 1.861310 
# 
# From -- ./inp_files/13032.got.cif
#   From: 2010.03.12/outbox.cif.g09.slc.cpg/sg56_7_cif.got.tgz:13032.got - 2010.04.16 15:33:40.
