data_PCOD8229062
_publ_section_title
;
Structure prediction by ZEFSAII (Michael W. Deem and Ramdas Pophale) SiO2 
 PCOD8229062
Probable space group: P C C N
;
_chemical_formula_sum "Si O2"
_cell_formula_units_Z 48
_cell_length_a 13.594034
_cell_length_b 17.797991
_cell_length_c 8.648199
_cell_angle_alpha 90.000000
_cell_angle_beta 90.000000
_cell_angle_gamma 90.000000
_cell_volume 2092.401434
_symmetry_space_group_name_H-M "P C C N"
_symmetry_group_IT_number 56
_symmetry_cell_setting 'orthorhombic'
loop_
_space_group_symop_operation_xyz
x,y,z
1/2-x,1/2-y,z
1/2+x,-y,1/2-z
-x,1/2+y,1/2-z
-x,-y,-z
1/2+x,1/2+y,-z
1/2-x,y,1/2+z
x,1/2-y,1/2+z
loop_
_atom_site_type_symbol
_atom_site_label
_atom_site_fract_x
_atom_site_fract_y
_atom_site_fract_z
Si Si1 0.250000 0.750000 0.008061
Si Si2 0.996418 0.926787 0.716493
Si Si3 0.309674 0.592665 0.553360
Si Si4 0.885453 0.688347 0.047773
Si Si5 0.250000 0.250000 0.695195
Si Si6 0.451644 0.811486 0.476582
Si Si7 0.120893 0.928262 0.207709
O O1 0.209876 0.679308 0.108689
O O2 0.153905 0.780045 0.913379
O O3 0.930351 0.894845 0.573818
O O4 0.103865 0.945024 0.651138
O O5 0.953645 0.002947 0.783461
O O6 0.000046 0.864483 0.849224
O O7 0.332534 0.592812 0.372051
O O8 0.209371 0.547464 0.591395
O O9 0.831709 0.708488 0.206528
O O10 0.974800 0.744207 0.013416
O O11 0.805249 0.687990 0.911157
O O12 0.436980 0.856977 0.637364
#
# Coordination Sequence:
#
# PCOD8229062 Si02
#       7
#     4   8   8   8   4   8   8
#     4  10  22  40  74 106 138 170 238 302 356 416
#     4  12  25  46  69 102 142 190 238 290 367 433
#     4  11  24  45  71 105 140 186 239 296 368 424
#     4  11  23  44  70  99 135 183 240 297 349 423
#     4  10  24  44  62 102 132 176 236 290 352 414
#     4  11  24  43  72 103 144 184 236 303 363 424
#     4  11  27  45  67 102 145 185 234 291 367 436
#
# _framework density 22.940148000000001
#
# number of rings (size 3 to 8) (size 9 to 14) (size 15 to 20)
#    0.000    1.000    3.333    3.000    4.667    4.667 
#    6.000    0.000    0.000    0.000    0.000    0.000 
#    0.000    0.000    0.000    0.000    0.000    0.000 
#
# Total GULP energy -595053.643004 kJ/mol
# GULP energy per Si atom -12396.950896 kJ/mol
# Density = 2.288794 g / cm^3
# Si number density = 22.940148 Si / 1000 Ang^3
#
#
#
# Elastic Constant Matrix: (Units=GPa)
#
#
# Indices 1 2 3 4 5 6 
#
# 1 122.4920 34.8924 25.1894 0.0000 0.0000 0.0000
# 2 34.8924 67.2135 5.2596 0.0000 0.0000 0.0000
# 3 25.1894 5.2596 89.1479 0.0000 0.0000 0.0000
# 4 0.0000 0.0000 0.0000 18.8230 0.0000 0.0000
# 5 0.0000 0.0000 0.0000 0.0000 35.5634 0.0000
# 6 0.0000 0.0000 0.0000 0.0000 0.0000 41.6853
#
#
#
# Elastic Compliance Matrix: (Units=1/GPa)
#
#
# Indices 1 2 3 4 5 6 
#
# 1 0.010132 -0.005059 -0.002564 0.000000 0.000000 0.000000
# 2 -0.005059 0.017473 0.000399 0.000000 0.000000 0.000000
# 3 -0.002564 0.000399 0.011918 0.000000 0.000000 0.000000
# 4 0.000000 0.000000 0.000000 0.053127 0.000000 0.000000
# 5 0.000000 0.000000 0.000000 0.000000 0.028119 0.000000
# 6 0.000000 0.000000 0.000000 0.000000 0.000000 0.023989
#
#
# Mechanical properties :
#
#
# Convention : Reuss Voigt Hill
#
# Bulk Modulus (GPa) = 39.88246 45.50402 42.69324
# Shear Modulus (GPa) = 29.83888 33.44847 31.64368
#
# Velocity S-wave (km/s) = 3.61047 3.82262 3.71806
# Velocity P-wave (km/s) = 5.89948 6.27393 6.08959
#
# Compressibility (1/GPa) = 0.02507368
#
# Stress axis : x y z
#
# Youngs Moduli (GPa) = 98.69404 57.23058 83.90385
#
# Poissons Ratio (x) = 0.28955 0.21517
# Poissons Ratio (y) = 0.49932 -0.03345
# Poissons Ratio (z) = 0.25310 -0.02282
#
# Static dielectric constant tensor:
#      x y z
#    x 4.535790 0.000000 0.000000 
#    y 0.000000 3.923260 0.000000 
#    z 0.000000 0.000000 4.157230 
# 
# 
# High freq. dielectric constant tensor:
#      x y z
#    x 1.931670 0.000000 0.000000 
#    y 0.000000 1.883780 0.000000 
#    z 0.000000 0.000000 1.904230 
# 
# From -- ./inp_files/3416.got.cif
#   From: 2010.03.12/outbox.cif.g09.slc.cpg/sg56_2_cif.got.tgz:3416.got - 2010.04.16 15:33:40.
