data_PCOD8229448
_publ_section_title
;
Structure prediction by ZEFSAII (Michael W. Deem and Ramdas Pophale) SiO2 
 PCOD8229448
Probable space group: P C C N
;
_chemical_formula_sum "Si O2"
_cell_formula_units_Z 40
_cell_length_a 7.847846
_cell_length_b 18.988950
_cell_length_c 12.448568
_cell_angle_alpha 90.000000
_cell_angle_beta 90.000000
_cell_angle_gamma 90.000000
_cell_volume 1855.114923
_symmetry_space_group_name_H-M "P C C N"
_symmetry_group_IT_number 56
_symmetry_cell_setting 'orthorhombic'
loop_
_space_group_symop_operation_xyz
x,y,z
1/2-x,1/2-y,z
1/2+x,-y,1/2-z
-x,1/2+y,1/2-z
-x,-y,-z
1/2+x,1/2+y,-z
1/2-x,y,1/2+z
x,1/2-y,1/2+z
loop_
_atom_site_type_symbol
_atom_site_label
_atom_site_fract_x
_atom_site_fract_y
_atom_site_fract_z
Si Si1 0.672432 0.415994 0.737931
Si Si2 0.510873 0.807058 0.904419
Si Si3 0.105288 0.169929 0.167474
Si Si4 0.464409 0.519025 0.877028
Si Si5 0.612575 0.186037 0.863672
O O1 0.614455 0.346134 0.676363
O O2 0.521965 0.457019 0.797189
O O3 0.766215 0.467733 0.652109
O O4 0.800143 0.387198 0.828392
O O5 0.698032 0.821856 0.858967
O O6 0.489553 0.721737 0.907568
O O7 0.472377 0.832948 0.023219
O O8 0.067056 0.089372 0.147036
O O9 0.050626 0.198130 0.285964
O O10 0.500000 0.500000 0.000000
O O11 0.750000 0.250000 0.867133
#
# Coordination Sequence:
#
# PCOD8229448 Si02
#       5
#     8   8   8   8   8
#     4  11  24  44  67 103 137 183 235 286 342 426
#     4  11  24  42  71  97 136 179 230 293 341 407
#     4  10  25  44  64 102 136 173 235 278 345 412
#     4  11  25  42  67  95 138 183 223 286 348 414
#     4  11  24  42  72  99 135 180 231 289 348 404
#
# _framework density 21.562006
#
# number of rings (size 3 to 8) (size 9 to 14) (size 15 to 20)
#    0.000    1.200    2.000    2.400    8.400    8.000 
#    0.000    7.000    0.000    0.000    0.000    0.000 
#    0.000    0.000    0.000    0.000    0.000    0.000 
#
# Total GULP energy -495658.993404 kJ/mol
# GULP energy per Si atom -12391.474835 kJ/mol
# Density = 2.151293 g / cm^3
# Si number density = 21.562006 Si / 1000 Ang^3
#
#
#
# Elastic Constant Matrix: (Units=GPa)
#
#
# Indices 1 2 3 4 5 6 
#
# 1 98.6764 22.4730 52.3655 0.0000 0.0000 0.0000
# 2 22.4730 79.0862 27.3910 0.0000 0.0000 0.0000
# 3 52.3655 27.3910 133.1937 0.0000 0.0000 0.0000
# 4 0.0000 0.0000 0.0000 29.3326 0.0000 0.0000
# 5 0.0000 0.0000 0.0000 0.0000 24.9863 0.0000
# 6 0.0000 0.0000 0.0000 0.0000 0.0000 32.3468
#
#
#
# Elastic Compliance Matrix: (Units=1/GPa)
#
#
# Indices 1 2 3 4 5 6 
#
# 1 0.013119 -0.002090 -0.004728 0.000000 0.000000 0.000000
# 2 -0.002090 0.013947 -0.002046 0.000000 0.000000 0.000000
# 3 -0.004728 -0.002046 0.009788 0.000000 0.000000 0.000000
# 4 0.000000 0.000000 0.000000 0.034092 0.000000 0.000000
# 5 0.000000 0.000000 0.000000 0.000000 0.040022 0.000000
# 6 0.000000 0.000000 0.000000 0.000000 0.000000 0.030915
#
#
# Mechanical properties :
#
#
# Convention : Reuss Voigt Hill
#
# Bulk Modulus (GPa) = 52.28919 57.26838 54.77878
# Shear Modulus (GPa) = 30.12286 31.24827 30.68557
#
# Velocity S-wave (km/s) = 3.74175 3.81100 3.77653
# Velocity P-wave (km/s) = 6.55521 6.78104 6.66908
#
# Compressibility (1/GPa) = 0.01912441
#
# Stress axis : x y z
#
# Youngs Moduli (GPa) = 76.22386 71.69909 102.17109
#
# Poissons Ratio (x) = 0.14988 0.48306
# Poissons Ratio (y) = 0.15934 0.20908
# Poissons Ratio (z) = 0.36038 0.14672
#
# Static dielectric constant tensor:
#      x y z
#    x 4.009900 0.000000 0.000000 
#    y 0.000000 4.249950 0.000000 
#    z 0.000000 0.000000 3.983460 
# 
# 
# High freq. dielectric constant tensor:
#      x y z
#    x 1.848760 0.000000 0.000000 
#    y 0.000000 1.859260 0.000000 
#    z 0.000000 0.000000 1.848670 
# 
# From -- ./inp_files/6166.got.cif
#   From: 2010.03.12/outbox.cif.g09.slc.cpg/sg56_4_cif.got.tgz:6166.got - 2010.04.16 15:33:40.
