data_PCOD8229604
_publ_section_title
;
Structure prediction by ZEFSAII (Michael W. Deem and Ramdas Pophale) SiO2 
 PCOD8229604
Probable space group: P C C N
;
_chemical_formula_sum "Si O2"
_cell_formula_units_Z 56
_cell_length_a 8.134573
_cell_length_b 18.415848
_cell_length_c 17.944208
_cell_angle_alpha 90.000000
_cell_angle_beta 90.000000
_cell_angle_gamma 90.000000
_cell_volume 2688.133155
_symmetry_space_group_name_H-M "P C C N"
_symmetry_group_IT_number 56
_symmetry_cell_setting 'orthorhombic'
loop_
_space_group_symop_operation_xyz
x,y,z
1/2-x,1/2-y,z
1/2+x,-y,1/2-z
-x,1/2+y,1/2-z
-x,-y,-z
1/2+x,1/2+y,-z
1/2-x,y,1/2+z
x,1/2-y,1/2+z
loop_
_atom_site_type_symbol
_atom_site_label
_atom_site_fract_x
_atom_site_fract_y
_atom_site_fract_z
Si Si1 0.204814 0.123134 0.909170
Si Si2 0.962736 0.656164 0.438041
Si Si3 0.720021 0.423371 0.788778
Si Si4 0.518150 0.791589 0.710509
Si Si5 0.068024 0.979843 0.846842
Si Si6 0.250000 0.250000 0.661149
Si Si7 0.250000 0.750000 0.986811
Si Si8 0.567975 0.340119 0.393469
O O1 0.394928 0.134888 0.927701
O O2 0.162161 0.173156 0.838745
O O3 0.172789 0.039600 0.890532
O O4 0.090756 0.148662 0.976544
O O5 0.807769 0.683324 0.390131
O O6 0.019719 0.579214 0.407608
O O7 0.110628 0.714576 0.434621
O O8 0.626569 0.348158 0.774327
O O9 0.595784 0.487712 0.809609
O O10 0.819552 0.444275 0.715819
O O11 0.845104 0.410525 0.857331
O O12 0.594351 0.773015 0.790018
O O13 0.446844 0.720848 0.670308
O O14 0.176586 0.686470 0.037892
#
# Coordination Sequence:
#
# PCOD8229604 Si02
#       8
#     8   8   8   8   8   4   4   8
#     4  11  23  45  70  95 136 188 224 273 353 420
#     4  12  27  45  65 102 142 180 229 285 346 412
#     4  11  24  41  69 102 132 182 230 285 344 403
#     4  11  22  41  71 100 134 174 230 288 344 403
#     4  11  26  45  67  96 145 178 234 282 342 416
#     4  12  26  40  70 102 138 174 228 300 344 400
#     4  12  24  42  68 102 138 184 222 288 348 406
#     4  12  20  42  72 102 129 177 233 280 342 419
#
# _framework density 20.832303
#
# number of rings (size 3 to 8) (size 9 to 14) (size 15 to 20)
#    0.000    0.571    4.286    3.857    6.000    0.000 
#    0.000    1.429    0.000    0.000    0.000    0.000 
#    0.000    0.000    0.000    0.000    0.000    0.000 
#
# Total GULP energy -694812.966460 kJ/mol
# GULP energy per Si atom -12407.374401 kJ/mol
# Density = 2.078489 g / cm^3
# Si number density = 20.832303 Si / 1000 Ang^3
#
#
#
# Elastic Constant Matrix: (Units=GPa)
#
#
# Indices 1 2 3 4 5 6 
#
# 1 104.9191 29.2751 20.6010 0.0000 0.0000 0.0000
# 2 29.2751 82.5798 34.6602 0.0000 0.0000 0.0000
# 3 20.6010 34.6602 67.0946 0.0000 0.0000 0.0000
# 4 0.0000 0.0000 0.0000 36.3946 0.0000 0.0000
# 5 0.0000 0.0000 0.0000 0.0000 -19.6861 0.0000
# 6 0.0000 0.0000 0.0000 0.0000 0.0000 28.8942
#
#
#
# Elastic Compliance Matrix: (Units=1/GPa)
#
#
# Indices 1 2 3 4 5 6 
#
# 1 0.010727 -0.003090 -0.001697 0.000000 0.000000 0.000000
# 2 -0.003090 0.016352 -0.007499 0.000000 0.000000 0.000000
# 3 -0.001697 -0.007499 0.019299 0.000000 0.000000 0.000000
# 4 0.000000 0.000000 0.000000 0.027477 0.000000 0.000000
# 5 0.000000 0.000000 0.000000 0.000000 -0.050797 0.000000
# 6 0.000000 0.000000 0.000000 0.000000 0.000000 0.034609
#
#
# Mechanical properties :
#
#
# Convention : Reuss Voigt Hill
#
# Bulk Modulus (GPa) = 45.85884 47.07400 46.46642
# Shear Modulus (GPa) = 55.86153 20.45769 38.15961
#
# Velocity S-wave (km/s) = 5.18392 3.13712 4.28454
# Velocity P-wave (km/s) = 7.60867 5.98061 6.84323
#
# Compressibility (1/GPa) = 0.02180605
#
# Stress axis : x y z
#
# Youngs Moduli (GPa) = 93.22552 61.15340 51.81594
#
# Poissons Ratio (x) = 0.18899 0.08794
# Poissons Ratio (y) = 0.28810 0.38854
# Poissons Ratio (z) = 0.15822 0.45856
#
# Static dielectric constant tensor:
#      x y z
#    x 5.114400 0.000000 0.000000 
#    y 0.000000 3.876460 0.000000 
#    z 0.000000 0.000000 3.646950 
# 
# 
# High freq. dielectric constant tensor:
#      x y z
#    x 1.833680 0.000000 0.000000 
#    y 0.000000 1.817620 0.000000 
#    z 0.000000 0.000000 1.813860 
# 
# From -- ./inp_files/10916.got.cif
#   From: 2010.03.12/outbox.cif.g09.slc.cpg/sg56_6_cif.got.tgz:10916.got - 2010.04.16 15:33:40.
