data_PCOD8229268
_publ_section_title
;
Structure prediction by ZEFSAII (Michael W. Deem and Ramdas Pophale) SiO2 
 PCOD8229268
Probable space group: P C C N
;
_chemical_formula_sum "Si O2"
_cell_formula_units_Z 56
_cell_length_a 14.136060
_cell_length_b 8.446767
_cell_length_c 19.197078
_cell_angle_alpha 90.000000
_cell_angle_beta 90.000000
_cell_angle_gamma 90.000000
_cell_volume 2292.208000
_symmetry_space_group_name_H-M "P C C N"
_symmetry_group_IT_number 56
_symmetry_cell_setting 'orthorhombic'
loop_
_space_group_symop_operation_xyz
x,y,z
1/2-x,1/2-y,z
1/2+x,-y,1/2-z
-x,1/2+y,1/2-z
-x,-y,-z
1/2+x,1/2+y,-z
1/2-x,y,1/2+z
x,1/2-y,1/2+z
loop_
_atom_site_type_symbol
_atom_site_label
_atom_site_fract_x
_atom_site_fract_y
_atom_site_fract_z
Si Si1 0.389987 0.394650 0.936700
Si Si2 0.439412 0.915014 0.655062
Si Si3 0.623298 0.130074 0.146506
Si Si4 0.220552 0.575131 0.553140
Si Si5 0.608178 0.542780 0.511452
Si Si6 0.973839 0.433511 0.781742
Si Si7 0.814458 0.035571 0.190060
O O1 0.497672 0.435567 0.914883
O O2 0.382749 0.221457 0.966857
O O3 0.328054 0.394332 0.865224
O O4 0.350482 0.515276 0.993469
O O5 0.331127 0.929655 0.628767
O O6 0.464727 0.745910 0.691331
O O7 0.461745 0.052081 0.711397
O O8 0.703668 0.068606 0.201491
O O9 0.625630 0.318271 0.154274
O O10 0.651842 0.076257 0.069277
O O11 0.521547 0.049026 0.161386
O O12 0.250000 0.750000 0.533823
O O13 0.321053 0.478755 0.554828
O O14 0.500000 0.500000 0.500000
O O15 0.867801 0.497856 0.763192
#
# Coordination Sequence:
#
# PCOD8229268 Si02
#       7
#     8   8   8   8   8   8   8
#     4  11  23  46  72 106 146 193 246 315 376 449
#     4  11  25  46  74 107 151 198 249 314 379 464
#     4  11  22  44  69 101 143 192 245 305 368 454
#     4  12  26  45  73 111 150 196 251 311 393 458
#     4  12  26  44  71 109 149 190 247 318 387 446
#     4  11  23  45  70 106 144 195 249 307 375 447
#     4  10  23  42  73 100 139 196 250 294 376 459
#
# _framework density 24.430592000000001
#
# number of rings (size 3 to 8) (size 9 to 14) (size 15 to 20)
#    0.000    0.857    4.286    2.571    0.000    3.429 
#    0.000    1.429    0.000    0.000    0.000    0.000 
#    0.000    0.000    0.000    0.000    0.000    0.000 
#
# Total GULP energy -693903.121337 kJ/mol
# GULP energy per Si atom -12391.127167 kJ/mol
# Density = 2.437499 g / cm^3
# Si number density = 24.430592 Si / 1000 Ang^3
#
#
#
# Elastic Constant Matrix: (Units=GPa)
#
#
# Indices 1 2 3 4 5 6 
#
# 1 142.6375 54.2922 49.2601 0.0000 0.0000 0.0000
# 2 54.2922 79.9803 34.0786 0.0000 0.0000 0.0000
# 3 49.2601 34.0786 75.3783 0.0000 0.0000 0.0000
# 4 0.0000 0.0000 0.0000 20.6038 0.0000 0.0000
# 5 0.0000 0.0000 0.0000 0.0000 37.4536 0.0000
# 6 0.0000 0.0000 0.0000 0.0000 0.0000 33.9777
#
#
#
# Elastic Compliance Matrix: (Units=1/GPa)
#
#
# Indices 1 2 3 4 5 6 
#
# 1 0.010575 -0.005244 -0.004540 0.000000 0.000000 0.000000
# 2 -0.005244 0.018087 -0.004750 0.000000 0.000000 0.000000
# 3 -0.004540 -0.004750 0.018381 0.000000 0.000000 0.000000
# 4 0.000000 0.000000 0.000000 0.048535 0.000000 0.000000
# 5 0.000000 0.000000 0.000000 0.000000 0.026700 0.000000
# 6 0.000000 0.000000 0.000000 0.000000 0.000000 0.029431
#
#
# Mechanical properties :
#
#
# Convention : Reuss Voigt Hill
#
# Bulk Modulus (GPa) = 55.63453 63.69532 59.66492
# Shear Modulus (GPa) = 26.77140 29.09803 27.93472
#
# Velocity S-wave (km/s) = 3.31390 3.45490 3.38514
# Velocity P-wave (km/s) = 6.12083 6.48411 6.30508
#
# Compressibility (1/GPa) = 0.01797445
#
# Stress axis : x y z
#
# Youngs Moduli (GPa) = 94.56636 55.28930 54.40487
#
# Poissons Ratio (x) = 0.28993 0.24699
# Poissons Ratio (y) = 0.49590 0.25843
# Poissons Ratio (z) = 0.42931 0.26263
#
# Static dielectric constant tensor:
#      x y z
#    x 4.951110 0.000000 0.000000 
#    y 0.000000 4.225050 0.000000 
#    z 0.000000 0.000000 4.504870 
# 
# 
# High freq. dielectric constant tensor:
#      x y z
#    x 1.984010 0.000000 0.000000 
#    y 0.000000 1.960390 0.000000 
#    z 0.000000 0.000000 1.959350 
# 
# From -- ./inp_files/19139.got.cif
#   From: 2010.03.12/outbox.cif.g09.slc.cpg/sg56_10_cif.got.tgz:19139.got - 2010.04.16 15:33:40.
