data_PCOD8229327
_publ_section_title
;
Structure prediction by ZEFSAII (Michael W. Deem and Ramdas Pophale) SiO2 
 PCOD8229327
Probable space group: P C C N
;
_chemical_formula_sum "Si O2"
_cell_formula_units_Z 44
_cell_length_a 11.903108
_cell_length_b 23.038038
_cell_length_c 9.051120
_cell_angle_alpha 90.000000
_cell_angle_beta 90.000000
_cell_angle_gamma 90.000000
_cell_volume 2482.036634
_symmetry_space_group_name_H-M "P C C N"
_symmetry_group_IT_number 56
_symmetry_cell_setting 'orthorhombic'
loop_
_space_group_symop_operation_xyz
x,y,z
1/2-x,1/2-y,z
1/2+x,-y,1/2-z
-x,1/2+y,1/2-z
-x,-y,-z
1/2+x,1/2+y,-z
1/2-x,y,1/2+z
x,1/2-y,1/2+z
loop_
_atom_site_type_symbol
_atom_site_label
_atom_site_fract_x
_atom_site_fract_y
_atom_site_fract_z
Si Si1 0.467803 0.080681 0.200284
Si Si2 0.898064 0.047211 0.270742
Si Si3 0.178133 0.170990 0.824895
Si Si4 0.694051 0.455364 0.590924
Si Si5 0.374879 0.084329 0.878840
Si Si6 0.250000 0.250000 0.075396
O O1 0.428980 0.127993 0.321552
O O2 0.600435 0.085175 0.168935
O O3 0.441510 0.017209 0.261992
O O4 0.397161 0.092566 0.051909
O O5 0.820391 0.048305 0.416170
O O6 0.818049 0.067536 0.136049
O O7 0.006862 0.088399 0.289269
O O8 0.294350 0.134705 0.819954
O O9 0.171025 0.211126 0.679591
O O10 0.170824 0.210031 0.971786
O O11 0.681296 0.521616 0.647441
#
# Coordination Sequence:
#
# PCOD8229327 Si02
#       6
#     8   8   8   8   8   4
#     4   9  17  30  50  67 103 135 155 193 248 287
#     4   9  17  30  46  74 100 134 162 184 231 310
#     4  11  18  36  48  74  96 128 160 209 252 278
#     4   9  17  30  46  74 100 134 162 184 231 310
#     4   9  17  30  50  67 103 135 155 193 248 287
#     4  10  24  30  52  70  94 122 180 206 240 294
#
# _framework density 17.727376
#
# number of rings (size 3 to 8) (size 9 to 14) (size 15 to 20)
#    0.000    2.545    3.636    2.182    0.000    0.000 
#    3.273    1.818    0.000    0.000    0.000    7.636 
#    0.000    0.000    0.000    0.000    0.000    0.000 
#
# Total GULP energy -545390.396200 kJ/mol
# GULP energy per Si atom -12395.236277 kJ/mol
# Density = 1.768703 g / cm^3
# Si number density = 17.727376 Si / 1000 Ang^3
#
#
#
# Elastic Constant Matrix: (Units=GPa)
#
#
# Indices 1 2 3 4 5 6 
#
# 1 45.8547 17.3722 1.7879 0.0000 0.0000 0.0000
# 2 17.3722 63.6259 19.6889 0.0000 0.0000 0.0000
# 3 1.7879 19.6889 42.9840 0.0000 0.0000 0.0000
# 4 0.0000 0.0000 0.0000 24.7332 0.0000 0.0000
# 5 0.0000 0.0000 0.0000 0.0000 29.3454 0.0000
# 6 0.0000 0.0000 0.0000 0.0000 0.0000 18.2094
#
#
#
# Elastic Compliance Matrix: (Units=1/GPa)
#
#
# Indices 1 2 3 4 5 6 
#
# 1 0.024532 -0.007437 0.002386 0.000000 0.000000 0.000000
# 2 -0.007437 0.020567 -0.009111 0.000000 0.000000 0.000000
# 3 0.002386 -0.009111 0.027339 0.000000 0.000000 0.000000
# 4 0.000000 0.000000 0.000000 0.040431 0.000000 0.000000
# 5 0.000000 0.000000 0.000000 0.000000 0.034077 0.000000
# 6 0.000000 0.000000 0.000000 0.000000 0.000000 0.054917
#
#
# Mechanical properties :
#
#
# Convention : Reuss Voigt Hill
#
# Bulk Modulus (GPa) = 22.66859 25.57363 24.12111
# Shear Modulus (GPa) = 20.41721 22.03198 21.22460
#
# Velocity S-wave (km/s) = 3.39740 3.52919 3.46392
# Velocity P-wave (km/s) = 5.31083 5.57354 5.44377
#
# Compressibility (1/GPa) = 0.04411390
#
# Stress axis : x y z
#
# Youngs Moduli (GPa) = 40.76251 48.62196 36.57813
#
# Poissons Ratio (x) = 0.36158 -0.08727
# Poissons Ratio (y) = 0.30313 0.33328
# Poissons Ratio (z) = -0.09726 0.44301
#
# Static dielectric constant tensor:
#      x y z
#    x 3.174200 0.000000 0.000000 
#    y 0.000000 3.158650 0.000000 
#    z 0.000000 0.000000 3.188640 
# 
# 
# High freq. dielectric constant tensor:
#      x y z
#    x 1.669370 0.000000 0.000000 
#    y 0.000000 1.653100 0.000000 
#    z 0.000000 0.000000 1.681100 
# 
# From -- ./inp_files/2735.got.cif
#   From: 2010.03.12/outbox.cif.g09.slc.cpg/sg56_2_cif.got.tgz:2735.got - 2010.04.16 15:33:40.
