data_PCOD8229699
_publ_section_title
;
Structure prediction by ZEFSAII (Michael W. Deem and Ramdas Pophale) SiO2 
 PCOD8229699
Probable space group: P C C N
;
_chemical_formula_sum "Si O2"
_cell_formula_units_Z 32
_cell_length_a 8.690661
_cell_length_b 8.591479
_cell_length_c 19.941130
_cell_angle_alpha 90.000000
_cell_angle_beta 90.000000
_cell_angle_gamma 90.000000
_cell_volume 1488.917064
_symmetry_space_group_name_H-M "P C C N"
_symmetry_group_IT_number 56
_symmetry_cell_setting 'orthorhombic'
loop_
_space_group_symop_operation_xyz
x,y,z
1/2-x,1/2-y,z
1/2+x,-y,1/2-z
-x,1/2+y,1/2-z
-x,-y,-z
1/2+x,1/2+y,-z
1/2-x,y,1/2+z
x,1/2-y,1/2+z
loop_
_atom_site_type_symbol
_atom_site_label
_atom_site_fract_x
_atom_site_fract_y
_atom_site_fract_z
Si Si1 0.913384 0.813862 0.937070
Si Si2 0.412560 0.818643 0.816133
Si Si3 0.914598 0.815127 0.693682
Si Si4 0.414258 0.824443 0.572040
O O1 0.750000 0.750000 0.962416
O O2 0.962575 0.713841 0.873195
O O3 0.903134 0.992413 0.914723
O O4 0.035931 0.789240 0.996160
O O5 0.250000 0.750000 0.840046
O O6 0.457693 0.737313 0.746730
O O7 0.401999 0.000986 0.806101
O O8 0.750000 0.750000 0.715725
O O9 0.959515 0.749927 0.620965
O O10 0.250000 0.750000 0.586603
#
# Coordination Sequence:
#
# PCOD8229699 Si02
#       4
#     8   8   8   8
#     4  11  24  42  65  94 128 166 209 257 311 370
#     4  12  25  43  66  93 127 165 209 258 312 371
#     4  12  25  43  66  93 127 165 209 258 312 371
#     4  11  24  42  65  94 128 166 209 257 311 370
#
# _framework density 21.492131000000001
#
# number of rings (size 3 to 8) (size 9 to 14) (size 15 to 20)
#    0.000    0.500    0.000    9.000    0.000    8.000 
#    0.000    0.000    0.000    0.000    0.000    0.000 
#    0.000    0.000    0.000    0.000    0.000    0.000 
#
# Total GULP energy -397159.343480 kJ/mol
# GULP energy per Si atom -12411.229484 kJ/mol
# Density = 2.144321 g / cm^3
# Si number density = 21.492131 Si / 1000 Ang^3
#
#
#
# Elastic Constant Matrix: (Units=GPa)
#
#
# Indices 1 2 3 4 5 6 
#
# 1 101.1109 34.6931 12.4026 0.0000 0.0000 0.0000
# 2 34.6931 157.6191 37.0563 0.0000 0.0000 0.0000
# 3 12.4026 37.0563 87.1390 0.0000 0.0000 0.0000
# 4 0.0000 0.0000 0.0000 223.5531 0.0000 0.0000
# 5 0.0000 0.0000 0.0000 0.0000 23.8489 0.0000
# 6 0.0000 0.0000 0.0000 0.0000 0.0000 35.3061
#
#
#
# Elastic Compliance Matrix: (Units=1/GPa)
#
#
# Indices 1 2 3 4 5 6 
#
# 1 0.010724 -0.002224 -0.000581 0.000000 0.000000 0.000000
# 2 -0.002224 0.007510 -0.002877 0.000000 0.000000 0.000000
# 3 -0.000581 -0.002877 0.012782 0.000000 0.000000 0.000000
# 4 0.000000 0.000000 0.000000 0.004473 0.000000 0.000000
# 5 0.000000 0.000000 0.000000 0.000000 0.041931 0.000000
# 6 0.000000 0.000000 0.000000 0.000000 0.000000 0.028324
#
#
# Mechanical properties :
#
#
# Convention : Reuss Voigt Hill
#
# Bulk Modulus (GPa) = 50.88261 57.13033 54.00647
# Shear Modulus (GPa) = 40.43363 73.98944 57.21153
#
# Velocity S-wave (km/s) = 4.34213 5.87376 5.16503
# Velocity P-wave (km/s) = 6.99036 8.52297 7.79443
#
# Compressibility (1/GPa) = 0.01965308
#
# Stress axis : x y z
#
# Youngs Moduli (GPa) = 93.24482 133.14903 78.23414
#
# Poissons Ratio (x) = 0.29613 0.04543
# Poissons Ratio (y) = 0.20738 0.22510
# Poissons Ratio (z) = 0.05414 0.38311
#
# Static dielectric constant tensor:
#      x y z
#    x 4.130760 0.000000 0.000000 
#    y 0.000000 3.993630 0.000000 
#    z 0.000000 0.000000 3.827420 
# 
# 
# High freq. dielectric constant tensor:
#      x y z
#    x 1.857000 0.000000 0.000000 
#    y 0.000000 1.861540 0.000000 
#    z 0.000000 0.000000 1.854010 
# 
# From -- ./inp_files/17778.got.cif
#   From: 2010.03.12/outbox.cif.g09.slc.cpg/sg56_9_cif.got.tgz:17778.got - 2010.04.16 15:33:40.
