data_PCOD8229953
_publ_section_title
;
Structure prediction by ZEFSAII (Michael W. Deem and Ramdas Pophale) SiO2 
 PCOD8229953
Probable space group: P B C M
;
_chemical_formula_sum "Si O2"
_cell_formula_units_Z 56
_cell_length_a 17.863442
_cell_length_b 21.903914
_cell_length_c 8.740497
_cell_angle_alpha 90.000000
_cell_angle_beta 90.000000
_cell_angle_gamma 90.000000
_cell_volume 3419.975524
_symmetry_space_group_name_H-M "P B C M"
_symmetry_group_IT_number 57
_symmetry_cell_setting 'orthorhombic'
loop_
_space_group_symop_operation_xyz
x,y,z
-x,-y,1/2+z
x,1/2-y,-z
-x,1/2+y,1/2-z
-x,-y,-z
x,y,1/2-z
-x,1/2+y,z
x,1/2-y,1/2+z
loop_
_atom_site_type_symbol
_atom_site_label
_atom_site_fract_x
_atom_site_fract_y
_atom_site_fract_z
Si Si1 0.399769 0.956016 0.428590
Si Si2 0.215973 0.101210 0.572479
Si Si3 0.900022 0.444165 0.424460
Si Si4 0.544746 0.589699 0.428493
Si Si5 0.246350 0.964202 0.929181
Si Si6 0.940329 0.931672 0.427306
Si Si7 0.653600 0.683742 0.569228
O O1 0.410038 0.943502 0.250000
O O2 0.458634 0.914671 0.520167
O O3 0.317322 0.936237 0.483087
O O4 0.412600 0.027001 0.469512
O O5 0.234783 0.100452 0.750000
O O6 0.127674 0.116589 0.541504
O O7 0.271061 0.151665 0.499179
O O8 0.233873 0.033306 0.510140
O O9 0.873818 0.438229 0.250000
O O10 0.828834 0.425570 0.528603
O O11 0.927025 0.512705 0.457807
O O12 0.976038 0.403495 0.454997
O O13 0.548845 0.604695 0.250000
O O14 0.582043 0.644115 0.522569
O O15 0.261080 0.960053 0.750000
O O16 0.933557 0.954489 0.250000
O O17 0.646029 0.750000 0.500000
O O18 0.656731 0.689930 0.750000
#
# Coordination Sequence:
#
# PCOD8229953 Si02
#       7
#     8   8   8   8   8   8   8
#     4  10  19  30  47  69  92 117 150 189 229 277
#     4   8  15  27  43  59  80 114 152 186 222 266
#     4   9  15  22  35  57  84 111 143 179 216 257
#     4  10  20  33  48  67  90 117 151 188 233 281
#     4  10  17  27  42  61  88 120 152 181 221 271
#     4   8  14  25  38  54  78 112 147 178 214 259
#     4  11  21  34  49  66  90 120 157 196 235 273
#
# _framework density 16.374385
#
# number of rings (size 3 to 8) (size 9 to 14) (size 15 to 20)
#    0.000    2.571    1.429    3.000    0.000    1.714 
#    0.000    0.714    0.000    0.000    0.000    0.000 
#    0.000    1.143    0.000    8.000    0.000    4.143 
#
# Total GULP energy -693891.301574 kJ/mol
# GULP energy per Si atom -12390.916100 kJ/mol
# Density = 1.633712 g / cm^3
# Si number density = 16.374385 Si / 1000 Ang^3
#
#
#
# Elastic Constant Matrix: (Units=GPa)
#
#
# Indices 1 2 3 4 5 6 
#
# 1 144.8038 34.1869 26.5643 0.0000 0.0000 0.0000
# 2 34.1869 47.3366 16.3688 0.0000 0.0000 0.0000
# 3 26.5643 16.3688 49.3354 0.0000 0.0000 0.0000
# 4 0.0000 0.0000 0.0000 14.0777 0.0000 0.0000
# 5 0.0000 0.0000 0.0000 0.0000 27.8458 0.0000
# 6 0.0000 0.0000 0.0000 0.0000 0.0000 10.9191
#
#
#
# Elastic Compliance Matrix: (Units=1/GPa)
#
#
# Indices 1 2 3 4 5 6 
#
# 1 0.008685 -0.005259 -0.002932 0.000000 0.000000 0.000000
# 2 -0.005259 0.027047 -0.006142 0.000000 0.000000 0.000000
# 3 -0.002932 -0.006142 0.023886 0.000000 0.000000 0.000000
# 4 0.000000 0.000000 0.000000 0.071034 0.000000 0.000000
# 5 0.000000 0.000000 0.000000 0.000000 0.035912 0.000000
# 6 0.000000 0.000000 0.000000 0.000000 0.000000 0.091583
#
#
# Mechanical properties :
#
#
# Convention : Reuss Voigt Hill
#
# Bulk Modulus (GPa) = 32.30733 43.96840 38.13786
# Shear Modulus (GPa) = 16.82760 21.52557 19.17659
#
# Velocity S-wave (km/s) = 3.20922 3.62966 3.42589
# Velocity P-wave (km/s) = 5.78838 6.66904 6.24426
#
# Compressibility (1/GPa) = 0.03095273
#
# Stress axis : x y z
#
# Youngs Moduli (GPa) = 115.13731 36.97233 41.86570
#
# Poissons Ratio (x) = 0.19443 0.12274
# Poissons Ratio (y) = 0.60549 0.25715
# Poissons Ratio (z) = 0.33755 0.22710
#
# Static dielectric constant tensor:
#      x y z
#    x 3.558190 0.000000 0.000000 
#    y 0.000000 2.578550 0.000000 
#    z 0.000000 0.000000 3.029190 
# 
# 
# High freq. dielectric constant tensor:
#      x y z
#    x 1.657020 0.000000 0.000000 
#    y 0.000000 1.544450 0.000000 
#    z 0.000000 0.000000 1.633130 
# 
# From -- ./inp_files/7055.got.cif
#   From: 2010.03.12/outbox.cif.g09.slc.cpg/sg57_4_cif.got.tgz:7055.got - 2010.04.16 15:48:40.
