data_PCOD8229676
_publ_section_title
;
Structure prediction by ZEFSAII (Michael W. Deem and Ramdas Pophale) SiO2 
 PCOD8229676
Probable space group: P C C N
;
_chemical_formula_sum "Si O2"
_cell_formula_units_Z 36
_cell_length_a 11.763286
_cell_length_b 6.363495
_cell_length_c 22.064554
_cell_angle_alpha 90.000000
_cell_angle_beta 90.000000
_cell_angle_gamma 90.000000
_cell_volume 1651.655685
_symmetry_space_group_name_H-M "P C C N"
_symmetry_group_IT_number 56
_symmetry_cell_setting 'orthorhombic'
loop_
_space_group_symop_operation_xyz
x,y,z
1/2-x,1/2-y,z
1/2+x,-y,1/2-z
-x,1/2+y,1/2-z
-x,-y,-z
1/2+x,1/2+y,-z
1/2-x,y,1/2+z
x,1/2-y,1/2+z
loop_
_atom_site_type_symbol
_atom_site_label
_atom_site_fract_x
_atom_site_fract_y
_atom_site_fract_z
Si Si1 0.172976 0.448247 0.155802
Si Si2 0.589205 0.122604 0.147839
Si Si3 0.608359 0.058002 0.538125
Si Si4 0.250000 0.250000 0.886153
Si Si5 0.250000 0.750000 0.255364
Si Si6 0.250000 0.750000 0.060193
O O1 0.250000 0.250000 0.135961
O O2 0.237848 0.542894 0.213960
O O3 0.164573 0.617924 0.101952
O O4 0.040967 0.403430 0.167754
O O5 0.596337 0.238082 0.082266
O O6 0.638352 0.261134 0.202448
O O7 0.672173 0.917016 0.150637
O O8 0.693092 0.085382 0.483424
O O9 0.500000 0.000000 0.500000
O O10 0.652172 0.862001 0.575729
#
# Coordination Sequence:
#
# PCOD8229676 Si02
#       6
#     8   8   8   4   4   4
#     4  11  28  45  73 101 143 188 237 308 363 434
#     4  12  26  48  72 107 142 191 244 298 367 436
#     4  12  25  42  72 106 146 183 236 296 359 452
#     4  12  24  44  72 104 142 192 230 298 364 440
#     4  11  27  48  66 108 135 183 258 288 364 425
#     4  11  23  46  62 110 137 175 240 278 366 431
#
# _framework density 21.796312
#
# number of rings (size 3 to 8) (size 9 to 14) (size 15 to 20)
#    0.000    0.444    4.444    2.667    9.333    3.556 
#    0.000    0.000    0.000    0.000    0.000    0.000 
#    0.000    0.000    0.000    0.000    0.000    0.000 
#
# Total GULP energy -446005.784051 kJ/mol
# GULP energy per Si atom -12389.049557 kJ/mol
# Density = 2.174670 g / cm^3
# Si number density = 21.796312 Si / 1000 Ang^3
#
#
#
# Elastic Constant Matrix: (Units=GPa)
#
#
# Indices 1 2 3 4 5 6 
#
# 1 126.3409 17.2565 18.5643 0.0000 0.0000 0.0000
# 2 17.2565 79.2265 16.2069 0.0000 0.0000 0.0000
# 3 18.5643 16.2069 103.4891 0.0000 0.0000 0.0000
# 4 0.0000 0.0000 0.0000 -80.9058 0.0000 0.0000
# 5 0.0000 0.0000 0.0000 0.0000 29.0151 0.0000
# 6 0.0000 0.0000 0.0000 0.0000 0.0000 38.9514
#
#
#
# Elastic Compliance Matrix: (Units=1/GPa)
#
#
# Indices 1 2 3 4 5 6 
#
# 1 0.008311 -0.001555 -0.001247 0.000000 0.000000 0.000000
# 2 -0.001555 0.013331 -0.001809 0.000000 0.000000 0.000000
# 3 -0.001247 -0.001809 0.010170 0.000000 0.000000 0.000000
# 4 0.000000 0.000000 0.000000 -0.012360 0.000000 0.000000
# 5 0.000000 0.000000 0.000000 0.000000 0.034465 0.000000
# 6 0.000000 0.000000 0.000000 0.000000 0.000000 0.025673
#
#
# Mechanical properties :
#
#
# Convention : Reuss Voigt Hill
#
# Bulk Modulus (GPa) = 44.26878 45.90132 45.08505
# Shear Modulus (GPa) = 51.89902 14.54741 33.22321
#
# Velocity S-wave (km/s) = 4.88494 2.58626 3.90841
# Velocity P-wave (km/s) = 7.22296 5.47935 6.41071
#
# Compressibility (1/GPa) = 0.02258928
#
# Stress axis : x y z
#
# Youngs Moduli (GPa) = 120.32589 75.01453 98.32986
#
# Poissons Ratio (x) = 0.11665 0.12265
# Poissons Ratio (y) = 0.18711 0.17785
# Poissons Ratio (z) = 0.15008 0.13568
#
# Static dielectric constant tensor:
#      x y z
#    x 3.712260 0.000000 0.000000 
#    y 0.000000 4.790340 0.000000 
#    z 0.000000 0.000000 4.070740 
# 
# 
# High freq. dielectric constant tensor:
#      x y z
#    x 1.865540 0.000000 0.000000 
#    y 0.000000 1.860870 0.000000 
#    z 0.000000 0.000000 1.870000 
# 
# From -- ./inp_files/19921.got.cif
#   From: 2010.03.12/outbox.cif.g09.slc.cpg/sg56_10_cif.got.tgz:19921.got - 2010.04.16 15:33:40.
