data_PCOD8229882
_publ_section_title
;
Structure prediction by ZEFSAII (Michael W. Deem and Ramdas Pophale) SiO2 
 PCOD8229882
Probable space group: P B C M
;
_chemical_formula_sum "Si O2"
_cell_formula_units_Z 32
_cell_length_a 9.761078
_cell_length_b 17.796862
_cell_length_c 9.403407
_cell_angle_alpha 90.000000
_cell_angle_beta 90.000000
_cell_angle_gamma 90.000000
_cell_volume 1633.527499
_symmetry_space_group_name_H-M "P B C M"
_symmetry_group_IT_number 57
_symmetry_cell_setting 'orthorhombic'
loop_
_space_group_symop_operation_xyz
x,y,z
-x,-y,1/2+z
x,1/2-y,-z
-x,1/2+y,1/2-z
-x,-y,-z
x,y,1/2-z
-x,1/2+y,z
x,1/2-y,1/2+z
loop_
_atom_site_type_symbol
_atom_site_label
_atom_site_fract_x
_atom_site_fract_y
_atom_site_fract_z
Si Si1 0.396155 0.082370 0.250000
Si Si2 0.933692 0.348929 0.250000
Si Si3 0.154080 0.184650 0.250000
Si Si4 0.986088 0.250000 0.500000
Si Si5 0.745701 0.842553 0.250000
Si Si6 0.656527 0.410449 0.250000
Si Si7 0.526192 0.661147 0.526590
O O1 0.236280 0.106892 0.250000
O O2 0.478134 0.114828 0.382626
O O3 0.406028 0.993047 0.250000
O O4 0.823714 0.416171 0.250000
O O5 0.898896 0.300889 0.392013
O O6 0.095722 0.372229 0.250000
O O7 0.071677 0.193154 0.398188
O O8 0.262877 0.252288 0.250000
O O9 0.663620 0.867085 0.390589
O O10 0.607781 0.363545 0.113183
O O11 0.523831 0.750000 0.500000
#
# Coordination Sequence:
#
# PCOD8229882 Si02
#       7
#     4   4   4   4   4   4   8
#     4  12  20  37  62  86 122 154 199 247 294 348
#     4  10  20  37  55  85 122 146 187 237 302 344
#     4  10  15  31  57  89 104 142 195 246 281 323
#     4   8  18  32  58  84 112 150 194 242 282 346
#     4   9  18  35  64  90 105 139 209 250 275 331
#     4  11  27  38  52  90 131 159 178 246 322 348
#     4  11  21  40  63  87 109 159 211 245 275 349
#
# _framework density 19.589507000000001
#
# number of rings (size 3 to 8) (size 9 to 14) (size 15 to 20)
#    0.000    2.000    2.500    4.500    3.500    0.000 
#    0.000    5.000    0.000    0.000    0.000    0.000 
#    0.000    0.000    0.000    0.000    0.000    0.000 
#
# Total GULP energy -396419.818156 kJ/mol
# GULP energy per Si atom -12388.119317 kJ/mol
# Density = 1.954492 g / cm^3
# Si number density = 19.589507 Si / 1000 Ang^3
#
#
#
# Elastic Constant Matrix: (Units=GPa)
#
#
# Indices 1 2 3 4 5 6 
#
# 1 100.1840 31.6425 32.9998 0.0000 0.0000 0.0000
# 2 31.6425 69.1957 36.6548 0.0000 0.0000 0.0000
# 3 32.9998 36.6548 155.3017 0.0000 0.0000 0.0000
# 4 0.0000 0.0000 0.0000 10.9156 0.0000 0.0000
# 5 0.0000 0.0000 0.0000 0.0000 -2.7613 0.0000
# 6 0.0000 0.0000 0.0000 0.0000 0.0000 17.7427
#
#
#
# Elastic Compliance Matrix: (Units=1/GPa)
#
#
# Indices 1 2 3 4 5 6 
#
# 1 0.011937 -0.004703 -0.001426 0.000000 0.000000 0.000000
# 2 -0.004703 0.018370 -0.003336 0.000000 0.000000 0.000000
# 3 -0.001426 -0.003336 0.007530 0.000000 0.000000 0.000000
# 4 0.000000 0.000000 0.000000 0.091612 0.000000 0.000000
# 5 0.000000 0.000000 0.000000 0.000000 -0.362149 0.000000
# 6 0.000000 0.000000 0.000000 0.000000 0.000000 0.056361
#
#
# Mechanical properties :
#
#
# Convention : Reuss Voigt Hill
#
# Bulk Modulus (GPa) = 52.89688 58.58618 55.74153
# Shear Modulus (GPa) = -33.08927 20.07169 -6.50879
#
# Velocity S-wave (km/s) = -4.11436 3.20443 -1.82477
# Velocity P-wave (km/s) = 2.11911 6.60780 4.90681
#
# Compressibility (1/GPa) = 0.01890471
#
# Stress axis : x y z
#
# Youngs Moduli (GPa) = 83.77374 54.43729 132.80847
#
# Poissons Ratio (x) = 0.25602 0.18944
# Poissons Ratio (y) = 0.39399 0.44310
# Poissons Ratio (z) = 0.11950 0.18162
#
# Static dielectric constant tensor:
#      x y z
#    x 3.308540 0.000000 0.000000 
#    y 0.000000 3.185590 0.000000 
#    z 0.000000 0.000000 3.902190 
# 
# 
# High freq. dielectric constant tensor:
#      x y z
#    x 1.744960 0.000000 0.000000 
#    y 0.000000 1.722600 0.000000 
#    z 0.000000 0.000000 1.792480 
# 
# From -- ./inp_files/2604.got.cif
#   From: 2010.03.12/outbox.cif.g09.slc.cpg/sg57_2_cif.got.tgz:2604.got - 2010.04.16 15:48:40.
