data_PCOD8229781
_publ_section_title
;
Structure prediction by ZEFSAII (Michael W. Deem and Ramdas Pophale) SiO2 
 PCOD8229781
Probable space group: P C C N
;
_chemical_formula_sum "Si O2"
_cell_formula_units_Z 60
_cell_length_a 11.023859
_cell_length_b 21.605462
_cell_length_c 10.826227
_cell_angle_alpha 90.000000
_cell_angle_beta 90.000000
_cell_angle_gamma 90.000000
_cell_volume 2578.542751
_symmetry_space_group_name_H-M "P C C N"
_symmetry_group_IT_number 56
_symmetry_cell_setting 'orthorhombic'
loop_
_space_group_symop_operation_xyz
x,y,z
1/2-x,1/2-y,z
1/2+x,-y,1/2-z
-x,1/2+y,1/2-z
-x,-y,-z
1/2+x,1/2+y,-z
1/2-x,y,1/2+z
x,1/2-y,1/2+z
loop_
_atom_site_type_symbol
_atom_site_label
_atom_site_fract_x
_atom_site_fract_y
_atom_site_fract_z
Si Si1 0.750000 0.750000 0.822876
Si Si2 0.467627 0.083108 0.835542
Si Si3 0.955123 0.843443 0.272289
Si Si4 0.148673 0.020046 0.721020
Si Si5 0.106284 0.140219 0.095357
Si Si6 0.388134 0.680237 0.040378
Si Si7 0.113129 0.823252 0.516664
Si Si8 0.251011 0.459079 0.473751
O O1 0.644038 0.787629 0.747345
O O2 0.812642 0.798715 0.913693
O O3 0.378872 0.108452 0.728781
O O4 0.563406 0.134919 0.872737
O O5 0.385071 0.068651 0.953676
O O6 0.528615 0.020731 0.785826
O O7 0.881261 0.907138 0.287270
O O8 0.051737 0.849405 0.161963
O O9 0.036947 0.831313 0.392435
O O10 0.236362 0.002920 0.603097
O O11 0.213748 0.002090 0.851484
O O12 0.151216 0.094747 0.987397
O O13 0.966406 0.157838 0.076487
O O14 0.393706 0.753227 0.061207
O O15 0.253925 0.656960 0.005796
#
# Coordination Sequence:
#
# PCOD8229781 Si02
#       8
#     4   8   8   8   8   8   8   8
#     4  12  22  44  80 108 150 182 248 326 386 448
#     4  12  27  48  72 104 150 198 246 299 378 443
#     4  12  24  45  73 110 141 197 245 306 389 438
#     4  12  27  47  75 107 149 191 249 308 370 457
#     4  12  25  45  73 113 144 191 244 317 381 446
#     4  11  27  44  70 107 147 191 243 304 371 458
#     4  11  26  46  70 101 150 195 244 300 370 460
#     4  12  24  50  72 110 145 187 254 312 375 442
#
# _framework density 23.268955999999999
#
# number of rings (size 3 to 8) (size 9 to 14) (size 15 to 20)
#    0.000    0.267    6.667    1.200    1.867    4.267 
#    0.000    0.000    0.000    0.000    0.000    0.000 
#    0.000    0.000    0.000    0.000    0.000    0.000 
#
# Total GULP energy -743908.166052 kJ/mol
# GULP energy per Si atom -12398.469434 kJ/mol
# Density = 2.321599 g / cm^3
# Si number density = 23.268956 Si / 1000 Ang^3
#
#
#
# Elastic Constant Matrix: (Units=GPa)
#
#
# Indices 1 2 3 4 5 6 
#
# 1 132.4908 23.6142 35.9116 0.0000 0.0000 0.0000
# 2 23.6142 62.0082 18.1569 0.0000 0.0000 0.0000
# 3 35.9116 18.1569 125.2354 0.0000 0.0000 0.0000
# 4 0.0000 0.0000 0.0000 10.9805 0.0000 0.0000
# 5 0.0000 0.0000 0.0000 0.0000 40.5700 0.0000
# 6 0.0000 0.0000 0.0000 0.0000 0.0000 33.5142
#
#
#
# Elastic Compliance Matrix: (Units=1/GPa)
#
#
# Indices 1 2 3 4 5 6 
#
# 1 0.008585 -0.002661 -0.002076 0.000000 0.000000 0.000000
# 2 -0.002661 0.017667 -0.001798 0.000000 0.000000 0.000000
# 3 -0.002076 -0.001798 0.008841 0.000000 0.000000 0.000000
# 4 0.000000 0.000000 0.000000 0.091070 0.000000 0.000000
# 5 0.000000 0.000000 0.000000 0.000000 0.024649 0.000000
# 6 0.000000 0.000000 0.000000 0.000000 0.000000 0.029838
#
#
# Mechanical properties :
#
#
# Convention : Reuss Voigt Hill
#
# Bulk Modulus (GPa) = 45.40988 52.78887 49.09938
# Shear Modulus (GPa) = 24.86805 33.14974 29.00889
#
# Velocity S-wave (km/s) = 3.27268 3.77853 3.53466
# Velocity P-wave (km/s) = 5.81706 6.46313 6.14858
#
# Compressibility (1/GPa) = 0.02202164
#
# Stress axis : x y z
#
# Youngs Moduli (GPa) = 116.48629 56.60280 113.11036
#
# Poissons Ratio (x) = 0.15064 0.23480
# Poissons Ratio (y) = 0.31002 0.20340
# Poissons Ratio (z) = 0.24181 0.10178
#
# Static dielectric constant tensor:
#      x y z
#    x 4.355990 0.000000 0.000000 
#    y 0.000000 4.073390 0.000000 
#    z 0.000000 0.000000 4.121480 
# 
# 
# High freq. dielectric constant tensor:
#      x y z
#    x 1.934860 0.000000 0.000000 
#    y 0.000000 1.908480 0.000000 
#    z 0.000000 0.000000 1.924270 
# 
# From -- ./inp_files/7313.got.cif
#   From: 2010.03.12/outbox.cif.g09.slc.cpg/sg56_4_cif.got.tgz:7313.got - 2010.04.16 15:33:40.
