data_PCOD8229395
_publ_section_title
;
Structure prediction by ZEFSAII (Michael W. Deem and Ramdas Pophale) SiO2 
 PCOD8229395
Probable space group: P C C N
;
_chemical_formula_sum "Si O2"
_cell_formula_units_Z 60
_cell_length_a 17.100597
_cell_length_b 18.207454
_cell_length_c 9.127226
_cell_angle_alpha 90.000000
_cell_angle_beta 90.000000
_cell_angle_gamma 90.000000
_cell_volume 2841.837875
_symmetry_space_group_name_H-M "P C C N"
_symmetry_group_IT_number 56
_symmetry_cell_setting 'orthorhombic'
loop_
_space_group_symop_operation_xyz
x,y,z
1/2-x,1/2-y,z
1/2+x,-y,1/2-z
-x,1/2+y,1/2-z
-x,-y,-z
1/2+x,1/2+y,-z
1/2-x,y,1/2+z
x,1/2-y,1/2+z
loop_
_atom_site_type_symbol
_atom_site_label
_atom_site_fract_x
_atom_site_fract_y
_atom_site_fract_z
Si Si1 0.408734 0.218033 0.802303
Si Si2 0.810076 0.904895 0.547556
Si Si3 0.000624 0.561532 0.621610
Si Si4 0.851651 0.311089 0.051415
Si Si5 0.159838 0.375915 0.282101
Si Si6 0.010793 0.787351 0.974363
Si Si7 0.575633 0.033113 0.082439
Si Si8 0.250000 0.750000 0.205035
O O1 0.357865 0.149263 0.848522
O O2 0.356549 0.290969 0.815410
O O3 0.440495 0.202186 0.640387
O O4 0.483120 0.227044 0.907475
O O5 0.807757 0.878125 0.381503
O O6 0.721767 0.908671 0.604112
O O7 0.848203 0.984660 0.554102
O O8 0.917129 0.574602 0.698894
O O9 0.032014 0.636118 0.550150
O O10 0.000000 0.500000 0.500000
O O11 0.060246 0.534834 0.744749
O O12 0.901079 0.385516 0.030469
O O13 0.792035 0.310471 0.189379
O O14 0.809349 0.295312 0.897333
O O15 0.910767 0.245177 0.094712
O O16 0.500000 0.000000 0.000000
#
# Coordination Sequence:
#
# PCOD8229395 Si02
#       8
#     8   8   8   8   8   8   8   4
#     4  11  22  41  69  99 136 177 227 278 335 404
#     4  12  26  43  66  99 140 182 224 278 352 410
#     4  11  25  46  67 101 135 177 235 284 346 413
#     4  11  23  45  67 102 132 175 239 276 357 404
#     4  11  26  44  65  99 138 179 228 276 344 421
#     4  11  22  41  72  99 131 177 230 290 329 408
#     4  12  25  46  71  96 139 182 231 293 346 418
#     4  10  24  44  70  96 136 180 222 302 338 416
#
# _framework density 21.113098000000001
#
# number of rings (size 3 to 8) (size 9 to 14) (size 15 to 20)
#    0.000    0.800    2.667    5.200    5.600    3.200 
#    4.800    0.000    0.000    0.000    0.000    0.000 
#    0.000    0.000    0.000    0.000    0.000    0.000 
#
# Total GULP energy -744253.511876 kJ/mol
# GULP energy per Si atom -12404.225198 kJ/mol
# Density = 2.106504 g / cm^3
# Si number density = 21.113098 Si / 1000 Ang^3
#
#
#
# Elastic Constant Matrix: (Units=GPa)
#
#
# Indices 1 2 3 4 5 6 
#
# 1 85.6476 39.9770 31.8075 0.0000 0.0000 0.0000
# 2 39.9770 78.1114 38.2433 0.0000 0.0000 0.0000
# 3 31.8075 38.2433 114.2207 0.0000 0.0000 0.0000
# 4 0.0000 0.0000 0.0000 34.1514 0.0000 0.0000
# 5 0.0000 0.0000 0.0000 0.0000 42.7801 0.0000
# 6 0.0000 0.0000 0.0000 0.0000 0.0000 32.1737
#
#
#
# Elastic Compliance Matrix: (Units=1/GPa)
#
#
# Indices 1 2 3 4 5 6 
#
# 1 0.015718 -0.007059 -0.002014 0.000000 0.000000 0.000000
# 2 -0.007059 0.018482 -0.004223 0.000000 0.000000 0.000000
# 3 -0.002014 -0.004223 0.010730 0.000000 0.000000 0.000000
# 4 0.000000 0.000000 0.000000 0.029281 0.000000 0.000000
# 5 0.000000 0.000000 0.000000 0.000000 0.023375 0.000000
# 6 0.000000 0.000000 0.000000 0.000000 0.000000 0.031081
#
#
# Mechanical properties :
#
#
# Convention : Reuss Voigt Hill
#
# Bulk Modulus (GPa) = 54.52518 55.33725 54.93121
# Shear Modulus (GPa) = 30.98445 33.01782 32.00113
#
# Velocity S-wave (km/s) = 3.83501 3.95885 3.89742
# Velocity P-wave (km/s) = 6.74471 6.86757 6.80642
#
# Compressibility (1/GPa) = 0.01834015
#
# Stress axis : x y z
#
# Youngs Moduli (GPa) = 63.62015 54.10633 93.20049
#
# Poissons Ratio (x) = 0.38191 0.18769
# Poissons Ratio (y) = 0.44907 0.39354
# Poissons Ratio (z) = 0.12812 0.22847
#
# Static dielectric constant tensor:
#      x y z
#    x 3.897440 0.000000 0.000000 
#    y 0.000000 3.742130 0.000000 
#    z 0.000000 0.000000 3.931090 
# 
# 
# High freq. dielectric constant tensor:
#      x y z
#    x 1.831730 0.000000 0.000000 
#    y 0.000000 1.822620 0.000000 
#    z 0.000000 0.000000 1.846570 
# 
# From -- ./inp_files/4133.got.cif
#   From: 2010.03.12/outbox.cif.g09.slc.cpg/sg56_3_cif.got.tgz:4133.got - 2010.04.16 15:33:40.
