data_PCOD8229602
_publ_section_title
;
Structure prediction by ZEFSAII (Michael W. Deem and Ramdas Pophale) SiO2 
 PCOD8229602
Probable space group: P C C N
;
_chemical_formula_sum "Si O2"
_cell_formula_units_Z 36
_cell_length_a 7.531748
_cell_length_b 15.091634
_cell_length_c 13.229201
_cell_angle_alpha 90.000000
_cell_angle_beta 90.000000
_cell_angle_gamma 90.000000
_cell_volume 1503.715443
_symmetry_space_group_name_H-M "P C C N"
_symmetry_group_IT_number 56
_symmetry_cell_setting 'orthorhombic'
loop_
_space_group_symop_operation_xyz
x,y,z
1/2-x,1/2-y,z
1/2+x,-y,1/2-z
-x,1/2+y,1/2-z
-x,-y,-z
1/2+x,1/2+y,-z
1/2-x,y,1/2+z
x,1/2-y,1/2+z
loop_
_atom_site_type_symbol
_atom_site_label
_atom_site_fract_x
_atom_site_fract_y
_atom_site_fract_z
Si Si1 0.895333 0.179707 0.426145
Si Si2 0.667672 0.451818 0.594484
Si Si3 0.847035 0.941079 0.943287
Si Si4 0.250000 0.250000 0.997439
Si Si5 0.863087 0.020485 0.283531
O O1 0.750000 0.250000 0.394625
O O2 0.835996 0.140968 0.535581
O O3 0.899100 0.113585 0.333723
O O4 0.092322 0.218278 0.426644
O O5 0.667919 0.530737 0.509471
O O6 0.515984 0.452921 0.679782
O O7 0.849663 0.463193 0.662234
O O8 0.841788 0.833401 0.941484
O O9 0.820394 0.976463 0.828535
O O10 0.000000 0.000000 0.000000
#
# Coordination Sequence:
#
# PCOD8229602 Si02
#       5
#     8   8   8   4   8
#     4  11  24  43  70  98 136 175 228 282 347 419
#     4  11  22  43  65  92 133 175 220 277 342 412
#     4  11  22  41  68  98 130 179 228 282 349 409
#     4  12  20  42  74  98 132 176 240 292 342 408
#     4  11  22  43  65  92 133 175 220 277 342 412
#
# _framework density 23.9407
#
# number of rings (size 3 to 8) (size 9 to 14) (size 15 to 20)
#    0.000    0.889    4.444    5.333    0.000    0.889 
#    0.000    1.111    0.000    0.000    0.000    0.000 
#    0.000    0.000    0.000    0.000    0.000    0.000 
#
# Total GULP energy -445991.299066 kJ/mol
# GULP energy per Si atom -12388.647196 kJ/mol
# Density = 2.388621 g / cm^3
# Si number density = 23.940700 Si / 1000 Ang^3
#
#
#
# Elastic Constant Matrix: (Units=GPa)
#
#
# Indices 1 2 3 4 5 6 
#
# 1 45.1783 15.3659 -17.5217 0.0000 0.0000 0.0000
# 2 15.3659 133.9057 18.1703 0.0000 0.0000 0.0000
# 3 -17.5217 18.1703 109.1689 0.0000 0.0000 0.0000
# 4 0.0000 0.0000 0.0000 19.2097 0.0000 0.0000
# 5 0.0000 0.0000 0.0000 0.0000 15.7158 0.0000
# 6 0.0000 0.0000 0.0000 0.0000 0.0000 37.5416
#
#
#
# Elastic Compliance Matrix: (Units=1/GPa)
#
#
# Indices 1 2 3 4 5 6 
#
# 1 0.025118 -0.003509 0.004615 0.000000 0.000000 0.000000
# 2 -0.003509 0.008131 -0.001916 0.000000 0.000000 0.000000
# 3 0.004615 -0.001916 0.010220 0.000000 0.000000 0.000000
# 4 0.000000 0.000000 0.000000 0.052057 0.000000 0.000000
# 5 0.000000 0.000000 0.000000 0.000000 0.063630 0.000000
# 6 0.000000 0.000000 0.000000 0.000000 0.000000 0.026637
#
#
# Mechanical properties :
#
#
# Convention : Reuss Voigt Hill
#
# Bulk Modulus (GPa) = 23.89536 35.58688 29.74112
# Shear Modulus (GPa) = 24.83096 32.64266 28.73681
#
# Velocity S-wave (km/s) = 3.22403 3.69654 3.46834
# Velocity P-wave (km/s) = 4.88486 5.75466 5.33751
#
# Compressibility (1/GPa) = 0.04184913
#
# Stress axis : x y z
#
# Youngs Moduli (GPa) = 39.81230 122.99207 97.84870
#
# Poissons Ratio (x) = 0.43153 -0.45161
# Poissons Ratio (y) = 0.13969 0.18752
# Poissons Ratio (z) = -0.18375 0.23570
#
# Static dielectric constant tensor:
#      x y z
#    x 4.251010 0.000000 0.000000 
#    y 0.000000 4.368930 0.000000 
#    z 0.000000 0.000000 4.316040 
# 
# 
# High freq. dielectric constant tensor:
#      x y z
#    x 1.989450 0.000000 0.000000 
#    y 0.000000 1.932450 0.000000 
#    z 0.000000 0.000000 1.944580 
# 
# From -- ./inp_files/10291.got.cif
#   From: 2010.03.12/outbox.cif.g09.slc.cpg/sg56_6_cif.got.tgz:10291.got - 2010.04.16 15:33:40.
