data_PCOD8229755
_publ_section_title
;
Structure prediction by ZEFSAII (Michael W. Deem and Ramdas Pophale) SiO2 
 PCOD8229755
Probable space group: P C C N
;
_chemical_formula_sum "Si O2"
_cell_formula_units_Z 48
_cell_length_a 8.492498
_cell_length_b 18.164963
_cell_length_c 14.287592
_cell_angle_alpha 90.000000
_cell_angle_beta 90.000000
_cell_angle_gamma 90.000000
_cell_volume 2204.088409
_symmetry_space_group_name_H-M "P C C N"
_symmetry_group_IT_number 56
_symmetry_cell_setting 'orthorhombic'
loop_
_space_group_symop_operation_xyz
x,y,z
1/2-x,1/2-y,z
1/2+x,-y,1/2-z
-x,1/2+y,1/2-z
-x,-y,-z
1/2+x,1/2+y,-z
1/2-x,y,1/2+z
x,1/2-y,1/2+z
loop_
_atom_site_type_symbol
_atom_site_label
_atom_site_fract_x
_atom_site_fract_y
_atom_site_fract_z
Si Si1 0.124842 0.185630 0.521358
Si Si2 0.084476 0.212929 0.724784
Si Si3 0.323155 0.472814 0.480034
Si Si4 0.362841 0.054959 0.297082
Si Si5 0.875866 0.194248 0.358416
Si Si6 0.211738 0.957553 0.149215
O O1 0.250000 0.250000 0.500022
O O2 0.028985 0.194509 0.618774
O O3 0.213663 0.107674 0.523067
O O4 0.002855 0.177094 0.436785
O O5 0.250000 0.250000 0.710375
O O6 0.118764 0.142847 0.790206
O O7 0.957209 0.267922 0.768676
O O8 0.500000 0.500000 0.500000
O O9 0.270106 0.471304 0.371562
O O10 0.217321 0.531007 0.537257
O O11 0.534065 0.026676 0.323207
O O12 0.318166 0.019736 0.198232
O O13 0.750000 0.250000 0.402678
O O14 0.782535 0.121998 0.323050
#
# Coordination Sequence:
#
# PCOD8229755 Si02
#       6
#     8   8   8   8   8   8
#     4  11  25  45  73 101 138 187 238 291 363 433
#     4  11  25  46  72 102 136 187 237 289 357 430
#     4  12  24  45  73 102 141 184 234 296 359 429
#     4  12  26  46  73 103 143 185 237 296 358 426
#     4  12  25  45  69 103 146 183 235 294 356 420
#     4  12  27  45  69 106 140 187 238 292 357 432
#
# _framework density 21.777711
#
# number of rings (size 3 to 8) (size 9 to 14) (size 15 to 20)
#    0.000    0.333    5.000    4.000    2.333    0.667 
#    3.000    0.000    0.000    0.000    0.000    0.000 
#    0.000    0.000    0.000    0.000    0.000    0.000 
#
# Total GULP energy -595155.067391 kJ/mol
# GULP energy per Si atom -12399.063904 kJ/mol
# Density = 2.172814 g / cm^3
# Si number density = 21.777711 Si / 1000 Ang^3
#
#
#
# Elastic Constant Matrix: (Units=GPa)
#
#
# Indices 1 2 3 4 5 6 
#
# 1 97.8047 18.8632 22.5007 0.0000 0.0000 0.0000
# 2 18.8632 105.9832 13.2787 0.0000 0.0000 0.0000
# 3 22.5007 13.2787 96.7950 0.0000 0.0000 0.0000
# 4 0.0000 0.0000 0.0000 33.9318 0.0000 0.0000
# 5 0.0000 0.0000 0.0000 0.0000 16.0302 0.0000
# 6 0.0000 0.0000 0.0000 0.0000 0.0000 39.3366
#
#
#
# Elastic Compliance Matrix: (Units=1/GPa)
#
#
# Indices 1 2 3 4 5 6 
#
# 1 0.011088 -0.001679 -0.002347 0.000000 0.000000 0.000000
# 2 -0.001679 0.009855 -0.000962 0.000000 0.000000 0.000000
# 3 -0.002347 -0.000962 0.011009 0.000000 0.000000 0.000000
# 4 0.000000 0.000000 0.000000 0.029471 0.000000 0.000000
# 5 0.000000 0.000000 0.000000 0.000000 0.062382 0.000000
# 6 0.000000 0.000000 0.000000 0.000000 0.000000 0.025422
#
#
# Mechanical properties :
#
#
# Convention : Reuss Voigt Hill
#
# Bulk Modulus (GPa) = 45.50518 45.54090 45.52304
# Shear Modulus (GPa) = 30.02496 34.25575 32.14035
#
# Velocity S-wave (km/s) = 3.71712 3.97037 3.84583
# Velocity P-wave (km/s) = 6.27401 6.47886 6.37726
#
# Compressibility (1/GPa) = 0.02197552
#
# Stress axis : x y z
#
# Youngs Moduli (GPa) = 90.18468 101.47294 90.83782
#
# Poissons Ratio (x) = 0.17042 0.21321
# Poissons Ratio (y) = 0.15146 0.08734
# Poissons Ratio (z) = 0.21168 0.09757
#
# Static dielectric constant tensor:
#      x y z
#    x 3.854220 0.000000 0.000000 
#    y 0.000000 4.131740 0.000000 
#    z 0.000000 0.000000 4.215360 
# 
# 
# High freq. dielectric constant tensor:
#      x y z
#    x 1.854840 0.000000 0.000000 
#    y 0.000000 1.869900 0.000000 
#    z 0.000000 0.000000 1.862290 
# 
# From -- ./inp_files/10626.got.cif
#   From: 2010.03.12/outbox.cif.g09.slc.cpg/sg56_6_cif.got.tgz:10626.got - 2010.04.16 15:33:40.
