data_PCOD8229185
_publ_section_title
;
Structure prediction by ZEFSAII (Michael W. Deem and Ramdas Pophale) SiO2 
 PCOD8229185
Probable space group: P C C N
;
_chemical_formula_sum "Si O2"
_cell_formula_units_Z 48
_cell_length_a 11.982488
_cell_length_b 13.162497
_cell_length_c 13.347639
_cell_angle_alpha 90.000000
_cell_angle_beta 90.000000
_cell_angle_gamma 90.000000
_cell_volume 2105.182447
_symmetry_space_group_name_H-M "P C C N"
_symmetry_group_IT_number 56
_symmetry_cell_setting 'orthorhombic'
loop_
_space_group_symop_operation_xyz
x,y,z
1/2-x,1/2-y,z
1/2+x,-y,1/2-z
-x,1/2+y,1/2-z
-x,-y,-z
1/2+x,1/2+y,-z
1/2-x,y,1/2+z
x,1/2-y,1/2+z
loop_
_atom_site_type_symbol
_atom_site_label
_atom_site_fract_x
_atom_site_fract_y
_atom_site_fract_z
Si Si1 0.864991 0.572341 0.767210
Si Si2 0.144598 0.190326 0.929613
Si Si3 0.008327 0.812363 0.421634
Si Si4 0.238088 0.634146 0.004539
Si Si5 0.172726 0.453128 0.607199
Si Si6 0.931377 0.104419 0.151466
O O1 0.904029 0.629832 0.666017
O O2 0.930830 0.608204 0.865442
O O3 0.733793 0.592325 0.793287
O O4 0.889620 0.451135 0.752376
O O5 0.250000 0.250000 0.886606
O O6 0.049109 0.260335 0.980886
O O7 0.198222 0.115542 0.011151
O O8 0.116106 0.876726 0.455369
O O9 0.037896 0.723741 0.339796
O O10 0.250000 0.750000 0.039965
O O11 0.332903 0.596465 0.928364
O O12 0.261514 0.560679 0.097798
O O13 0.040146 0.460919 0.618694
#
# Coordination Sequence:
#
# PCOD8229185 Si02
#       6
#     8   8   8   8   8   8
#     4  12  26  42  70 104 132 181 234 287 338 415
#     4  11  24  44  70  97 137 181 227 285 351 413
#     4  10  25  45  70 102 139 176 232 287 351 415
#     4  10  22  45  70  98 139 183 220 284 352 412
#     4  11  24  45  70 100 136 180 232 279 354 413
#     4  10  24  43  68  97 139 184 221 277 351 420
#
# _framework density 22.800872999999999
#
# number of rings (size 3 to 8) (size 9 to 14) (size 15 to 20)
#    0.000    1.333    3.333    0.500   11.667    2.000 
#    0.000    0.000    0.000    0.000    0.000    0.000 
#    0.000    0.000    0.000    0.000    0.000    0.000 
#
# Total GULP energy -594784.881455 kJ/mol
# GULP energy per Si atom -12391.351697 kJ/mol
# Density = 2.274898 g / cm^3
# Si number density = 22.800873 Si / 1000 Ang^3
#
#
#
# Elastic Constant Matrix: (Units=GPa)
#
#
# Indices 1 2 3 4 5 6 
#
# 1 159.5541 47.1060 44.2881 0.0000 0.0000 0.0000
# 2 47.1060 73.1923 25.5373 0.0000 0.0000 0.0000
# 3 44.2881 25.5373 82.1329 0.0000 0.0000 0.0000
# 4 0.0000 0.0000 0.0000 27.2045 0.0000 0.0000
# 5 0.0000 0.0000 0.0000 0.0000 20.3321 0.0000
# 6 0.0000 0.0000 0.0000 0.0000 0.0000 29.9100
#
#
#
# Elastic Compliance Matrix: (Units=1/GPa)
#
#
# Indices 1 2 3 4 5 6 
#
# 1 0.008429 -0.004306 -0.003206 0.000000 0.000000 0.000000
# 2 -0.004306 0.017525 -0.003127 0.000000 0.000000 0.000000
# 3 -0.003206 -0.003127 0.014876 0.000000 0.000000 0.000000
# 4 0.000000 0.000000 0.000000 0.036759 0.000000 0.000000
# 5 0.000000 0.000000 0.000000 0.000000 0.049183 0.000000
# 6 0.000000 0.000000 0.000000 0.000000 0.000000 0.033434
#
#
# Mechanical properties :
#
#
# Convention : Reuss Voigt Hill
#
# Bulk Modulus (GPa) = 51.14618 60.97134 56.05876
# Shear Modulus (GPa) = 26.59555 28.68585 27.64070
#
# Velocity S-wave (km/s) = 3.41900 3.55082 3.48554
# Velocity P-wave (km/s) = 6.16980 6.60378 6.39048
#
# Compressibility (1/GPa) = 0.01955180
#
# Stress axis : x y z
#
# Youngs Moduli (GPa) = 118.64252 57.06132 67.22018
#
# Poissons Ratio (x) = 0.24571 0.21551
# Poissons Ratio (y) = 0.51088 0.21020
# Poissons Ratio (z) = 0.38038 0.17844
#
# Static dielectric constant tensor:
#      x y z
#    x 4.230940 0.000000 0.000000 
#    y 0.000000 4.450760 0.000000 
#    z 0.000000 0.000000 3.770620 
# 
# 
# High freq. dielectric constant tensor:
#      x y z
#    x 1.913960 0.000000 0.000000 
#    y 0.000000 1.902390 0.000000 
#    z 0.000000 0.000000 1.874350 
# 
# From -- ./inp_files/11608.got.cif
#   From: 2010.03.12/outbox.cif.g09.slc.cpg/sg56_6_cif.got.tgz:11608.got - 2010.04.16 15:33:40.
