data_PCOD8229248
_publ_section_title
;
Structure prediction by ZEFSAII (Michael W. Deem and Ramdas Pophale) SiO2 
 PCOD8229248
Probable space group: P C C N
;
_chemical_formula_sum "Si O2"
_cell_formula_units_Z 40
_cell_length_a 10.590183
_cell_length_b 20.247127
_cell_length_c 8.984105
_cell_angle_alpha 90.000000
_cell_angle_beta 90.000000
_cell_angle_gamma 90.000000
_cell_volume 1926.378803
_symmetry_space_group_name_H-M "P C C N"
_symmetry_group_IT_number 56
_symmetry_cell_setting 'orthorhombic'
loop_
_space_group_symop_operation_xyz
x,y,z
1/2-x,1/2-y,z
1/2+x,-y,1/2-z
-x,1/2+y,1/2-z
-x,-y,-z
1/2+x,1/2+y,-z
1/2-x,y,1/2+z
x,1/2-y,1/2+z
loop_
_atom_site_type_symbol
_atom_site_label
_atom_site_fract_x
_atom_site_fract_y
_atom_site_fract_z
Si Si1 0.862478 0.319706 0.793476
Si Si2 0.605785 0.307690 0.631754
Si Si3 0.586527 0.924552 0.831199
Si Si4 0.472078 0.949088 0.315646
Si Si5 0.188986 0.453100 0.464681
O O1 0.722842 0.332499 0.730014
O O2 0.935645 0.263500 0.698009
O O3 0.937005 0.388039 0.787529
O O4 0.851252 0.296781 0.962993
O O5 0.491790 0.359192 0.636992
O O6 0.669687 0.945695 0.974375
O O7 0.676337 0.910110 0.687188
O O8 0.496782 0.987622 0.791003
O O9 0.592147 0.926946 0.410842
O O10 0.354127 0.970967 0.424594
#
# Coordination Sequence:
#
# PCOD8229248 Si02
#       5
#     8   8   8   8   8
#     4  11  25  41  68  93 132 171 224 271 335 394
#     4  11  26  42  68  97 132 177 223 278 333 408
#     4  10  23  41  68  98 133 171 224 273 339 389
#     4   9  23  38  67  91 138 170 221 274 333 386
#     4   9  22  40  62  98 134 169 218 280 322 404
#
# _framework density 20.764347999999998
#
# number of rings (size 3 to 8) (size 9 to 14) (size 15 to 20)
#    1.200    0.800    0.000    2.400   14.000    0.800 
#    0.000    1.000    0.000    0.000    0.000    0.000 
#    0.000    0.000    0.000    0.000    0.000    0.000 
#
# Total GULP energy -495632.110957 kJ/mol
# GULP energy per Si atom -12390.802774 kJ/mol
# Density = 2.071709 g / cm^3
# Si number density = 20.764348 Si / 1000 Ang^3
#
#
#
# Elastic Constant Matrix: (Units=GPa)
#
#
# Indices 1 2 3 4 5 6 
#
# 1 41.7186 39.4055 33.8355 0.0000 0.0000 0.0000
# 2 39.4055 101.3502 29.2816 0.0000 0.0000 0.0000
# 3 33.8355 29.2816 132.9071 0.0000 0.0000 0.0000
# 4 0.0000 0.0000 0.0000 32.1708 0.0000 0.0000
# 5 0.0000 0.0000 0.0000 0.0000 37.0725 0.0000
# 6 0.0000 0.0000 0.0000 0.0000 0.0000 37.4700
#
#
#
# Elastic Compliance Matrix: (Units=1/GPa)
#
#
# Indices 1 2 3 4 5 6 
#
# 1 0.044748 -0.015066 -0.008073 0.000000 0.000000 0.000000
# 2 -0.015066 0.015610 0.000396 0.000000 0.000000 0.000000
# 3 -0.008073 0.000396 0.009492 0.000000 0.000000 0.000000
# 4 0.000000 0.000000 0.000000 0.031084 0.000000 0.000000
# 5 0.000000 0.000000 0.000000 0.000000 0.026974 0.000000
# 6 0.000000 0.000000 0.000000 0.000000 0.000000 0.026688
#
#
# Mechanical properties :
#
#
# Convention : Reuss Voigt Hill
#
# Bulk Modulus (GPa) = 41.04196 53.44678 47.24437
# Shear Modulus (GPa) = 24.01512 32.90623 28.46067
#
# Velocity S-wave (km/s) = 3.40451 3.98521 3.70625
# Velocity P-wave (km/s) = 5.93824 6.85357 6.41226
#
# Compressibility (1/GPa) = 0.02436531
#
# Stress axis : x y z
#
# Youngs Moduli (GPa) = 22.34741 64.06161 105.35329
#
# Poissons Ratio (x) = 0.96515 0.85048
# Poissons Ratio (y) = 0.33668 -0.04176
# Poissons Ratio (z) = 0.18040 -0.02539
#
# Static dielectric constant tensor:
#      x y z
#    x 3.358130 0.000000 0.000000 
#    y 0.000000 3.546070 0.000000 
#    z 0.000000 0.000000 3.935740 
# 
# 
# High freq. dielectric constant tensor:
#      x y z
#    x 1.784510 0.000000 0.000000 
#    y 0.000000 1.792720 0.000000 
#    z 0.000000 0.000000 1.835650 
# 
# From -- ./inp_files/2690.got.cif
#   From: 2010.03.12/outbox.cif.g09.slc.cpg/sg56_2_cif.got.tgz:2690.got - 2010.04.16 15:33:40.
