data_PCOD8229547
_publ_section_title
;
Structure prediction by ZEFSAII (Michael W. Deem and Ramdas Pophale) SiO2 
 PCOD8229547
Probable space group: P C C N
;
_chemical_formula_sum "Si O2"
_cell_formula_units_Z 48
_cell_length_a 8.652891
_cell_length_b 9.976776
_cell_length_c 27.149965
_cell_angle_alpha 90.000000
_cell_angle_beta 90.000000
_cell_angle_gamma 90.000000
_cell_volume 2343.800964
_symmetry_space_group_name_H-M "P C C N"
_symmetry_group_IT_number 56
_symmetry_cell_setting 'orthorhombic'
loop_
_space_group_symop_operation_xyz
x,y,z
1/2-x,1/2-y,z
1/2+x,-y,1/2-z
-x,1/2+y,1/2-z
-x,-y,-z
1/2+x,1/2+y,-z
1/2-x,y,1/2+z
x,1/2-y,1/2+z
loop_
_atom_site_type_symbol
_atom_site_label
_atom_site_fract_x
_atom_site_fract_y
_atom_site_fract_z
Si Si1 0.057566 0.892869 0.716964
Si Si2 0.066635 0.750825 0.541862
Si Si3 0.932406 0.262751 0.068983
Si Si4 0.585600 0.088767 0.294013
Si Si5 0.552916 0.976590 0.602987
Si Si6 0.417713 0.463796 0.385481
O O1 0.232206 0.935754 0.706503
O O2 0.044192 0.734436 0.728364
O O3 0.952217 0.932230 0.670970
O O4 0.999231 0.971764 0.764540
O O5 0.250000 0.750000 0.546297
O O6 0.007210 0.782094 0.486771
O O7 0.002806 0.604600 0.555359
O O8 0.997694 0.858624 0.578937
O O9 0.750000 0.250000 0.066808
O O10 0.984338 0.389576 0.101321
O O11 0.999686 0.130053 0.094910
O O12 0.531671 0.084930 0.350061
O O13 0.735157 0.958892 0.608046
#
# Coordination Sequence:
#
# PCOD8229547 Si02
#       6
#     8   8   8   8   8   8
#     4  11  25  44  66  93 125 160 202 254 309 366
#     4  11  21  39  62  89 126 165 207 256 306 361
#     4   9  22  39  60  91 126 163 207 256 304 357
#     4  11  25  44  66  93 125 160 202 254 309 366
#     4  11  22  40  64  91 124 164 207 254 308 366
#     4  11  22  40  64  91 124 164 207 254 308 366
#
# _framework density 20.479552999999999
#
# number of rings (size 3 to 8) (size 9 to 14) (size 15 to 20)
#    0.000    1.333    1.667    3.500    2.333    2.000 
#    0.000    7.500    0.000    0.000    0.000    0.000 
#    0.000    0.000    0.000    0.000    0.000    0.000 
#
# Total GULP energy -595420.558549 kJ/mol
# GULP energy per Si atom -12404.594970 kJ/mol
# Density = 2.043294 g / cm^3
# Si number density = 20.479553 Si / 1000 Ang^3
#
#
#
# Elastic Constant Matrix: (Units=GPa)
#
#
# Indices 1 2 3 4 5 6 
#
# 1 74.3305 22.0257 11.9458 0.0000 0.0000 0.0000
# 2 22.0257 113.7513 11.5716 0.0000 0.0000 0.0000
# 3 11.9458 11.5716 63.0326 0.0000 0.0000 0.0000
# 4 0.0000 0.0000 0.0000 41.2910 0.0000 0.0000
# 5 0.0000 0.0000 0.0000 0.0000 18.4287 0.0000
# 6 0.0000 0.0000 0.0000 0.0000 0.0000 22.4295
#
#
#
# Elastic Compliance Matrix: (Units=1/GPa)
#
#
# Indices 1 2 3 4 5 6 
#
# 1 0.014589 -0.002592 -0.002289 0.000000 0.000000 0.000000
# 2 -0.002592 0.009419 -0.001238 0.000000 0.000000 0.000000
# 3 -0.002289 -0.001238 0.016526 0.000000 0.000000 0.000000
# 4 0.000000 0.000000 0.000000 0.024218 0.000000 0.000000
# 5 0.000000 0.000000 0.000000 0.000000 0.054263 0.000000
# 6 0.000000 0.000000 0.000000 0.000000 0.000000 0.044584
#
#
# Mechanical properties :
#
#
# Convention : Reuss Voigt Hill
#
# Bulk Modulus (GPa) = 35.34060 38.02230 36.68145
# Shear Modulus (GPa) = 26.98763 30.13459 28.56111
#
# Velocity S-wave (km/s) = 3.63407 3.84011 3.73851
# Velocity P-wave (km/s) = 5.90784 6.18613 6.04859
#
# Compressibility (1/GPa) = 0.02829607
#
# Stress axis : x y z
#
# Youngs Moduli (GPa) = 68.54290 106.16906 60.51113
#
# Poissons Ratio (x) = 0.27520 0.13852
# Poissons Ratio (y) = 0.17767 0.07491
# Poissons Ratio (z) = 0.15690 0.13143
#
# Static dielectric constant tensor:
#      x y z
#    x 3.563920 0.000000 0.000000 
#    y 0.000000 4.065990 0.000000 
#    z 0.000000 0.000000 3.830520 
# 
# 
# High freq. dielectric constant tensor:
#      x y z
#    x 1.797770 0.000000 0.000000 
#    y 0.000000 1.818410 0.000000 
#    z 0.000000 0.000000 1.807110 
# 
# From -- ./inp_files/23200.got.cif
#   From: 2010.03.12/outbox.cif.g09.slc.cpg/sg56_12_cif.got.tgz:23200.got - 2010.04.16 15:33:40.
