data_PCOD8229066
_publ_section_title
;
Structure prediction by ZEFSAII (Michael W. Deem and Ramdas Pophale) SiO2 
 PCOD8229066
Probable space group: P C C N
;
_chemical_formula_sum "Si O2"
_cell_formula_units_Z 44
_cell_length_a 23.707788
_cell_length_b 8.626404
_cell_length_c 10.422390
_cell_angle_alpha 90.000000
_cell_angle_beta 90.000000
_cell_angle_gamma 90.000000
_cell_volume 2131.513800
_symmetry_space_group_name_H-M "P C C N"
_symmetry_group_IT_number 56
_symmetry_cell_setting 'orthorhombic'
loop_
_space_group_symop_operation_xyz
x,y,z
1/2-x,1/2-y,z
1/2+x,-y,1/2-z
-x,1/2+y,1/2-z
-x,-y,-z
1/2+x,1/2+y,-z
1/2-x,y,1/2+z
x,1/2-y,1/2+z
loop_
_atom_site_type_symbol
_atom_site_label
_atom_site_fract_x
_atom_site_fract_y
_atom_site_fract_z
Si Si1 0.443356 0.149377 0.092177
Si Si2 0.148702 0.923265 0.000565
Si Si3 0.750000 0.250000 0.111055
Si Si4 0.333765 0.984311 0.782823
Si Si5 0.118466 0.288861 0.356115
Si Si6 0.071225 0.842561 0.450324
O O1 0.414203 0.204784 0.222037
O O2 0.509791 0.173864 0.111575
O O3 0.424680 0.253300 0.971378
O O4 0.428812 0.969414 0.064577
O O5 0.157195 0.013068 0.132771
O O6 0.201146 0.809937 0.980995
O O7 0.091445 0.821955 0.007005
O O8 0.147445 0.046852 0.884668
O O9 0.724664 0.108655 0.195574
O O10 0.386699 0.888312 0.836052
O O11 0.333468 0.154814 0.848485
#
# Coordination Sequence:
#
# PCOD8229066 Si02
#       6
#     8   8   4   8   8   8
#     4  10  22  41  61  97 135 171 209 262 312 382
#     4  11  23  41  67  93 120 170 210 267 319 382
#     4  10  24  44  66  92 118 158 218 270 330 372
#     4  10  22  44  62  94 125 164 215 266 315 390
#     4  11  23  41  64  95 133 167 211 260 323 378
#     4   9  23  38  65  93 132 170 214 255 314 381
#
# _framework density 20.642605
#
# number of rings (size 3 to 8) (size 9 to 14) (size 15 to 20)
#    0.000    1.818    1.818    0.545    7.636    4.364 
#    3.273    1.818    0.000    0.000    0.000    0.000 
#    0.000    0.000    0.000    0.000    0.000    0.000 
#
# Total GULP energy -545664.773885 kJ/mol
# GULP energy per Si atom -12401.472134 kJ/mol
# Density = 2.059562 g / cm^3
# Si number density = 20.642605 Si / 1000 Ang^3
#
#
#
# Elastic Constant Matrix: (Units=GPa)
#
#
# Indices 1 2 3 4 5 6 
#
# 1 99.7575 47.6901 30.6452 0.0000 0.0000 0.0000
# 2 47.6901 123.3648 27.2131 0.0000 0.0000 0.0000
# 3 30.6452 27.2131 113.0012 0.0000 0.0000 0.0000
# 4 0.0000 0.0000 0.0000 28.1680 0.0000 0.0000
# 5 0.0000 0.0000 0.0000 0.0000 18.6683 0.0000
# 6 0.0000 0.0000 0.0000 0.0000 0.0000 28.4327
#
#
#
# Elastic Compliance Matrix: (Units=1/GPa)
#
#
# Indices 1 2 3 4 5 6 
#
# 1 0.012897 -0.004451 -0.002426 0.000000 0.000000 0.000000
# 2 -0.004451 0.010097 -0.001225 0.000000 0.000000 0.000000
# 3 -0.002426 -0.001225 0.009802 0.000000 0.000000 0.000000
# 4 0.000000 0.000000 0.000000 0.035501 0.000000 0.000000
# 5 0.000000 0.000000 0.000000 0.000000 0.053567 0.000000
# 6 0.000000 0.000000 0.000000 0.000000 0.000000 0.035171
#
#
# Mechanical properties :
#
#
# Convention : Reuss Voigt Hill
#
# Bulk Modulus (GPa) = 60.26232 60.80227 60.53229
# Shear Modulus (GPa) = 27.96919 30.42548 29.19734
#
# Velocity S-wave (km/s) = 3.68492 3.84333 3.76496
# Velocity P-wave (km/s) = 6.88197 7.01524 6.94892
#
# Compressibility (1/GPa) = 0.01659412
#
# Stress axis : x y z
#
# Youngs Moduli (GPa) = 77.53623 99.04245 102.01772
#
# Poissons Ratio (x) = 0.44080 0.24748
# Poissons Ratio (y) = 0.34509 0.12492
# Poissons Ratio (z) = 0.18809 0.12128
#
# Static dielectric constant tensor:
#      x y z
#    x 3.686060 0.000000 0.000000 
#    y 0.000000 3.930750 0.000000 
#    z 0.000000 0.000000 3.541170 
# 
# 
# High freq. dielectric constant tensor:
#      x y z
#    x 1.798710 0.000000 0.000000 
#    y 0.000000 1.817580 0.000000 
#    z 0.000000 0.000000 1.803950 
# 
# From -- ./inp_files/6365.got.cif
#   From: 2010.03.12/outbox.cif.g09.slc.cpg/sg56_4_cif.got.tgz:6365.got - 2010.04.16 15:33:40.
