data_PCOD8229886
_publ_section_title
;
Structure prediction by ZEFSAII (Michael W. Deem and Ramdas Pophale) SiO2 
 PCOD8229886
Probable space group: P B C M
;
_chemical_formula_sum "Si O2"
_cell_formula_units_Z 40
_cell_length_a 26.428919
_cell_length_b 9.672974
_cell_length_c 8.613334
_cell_angle_alpha 90.000000
_cell_angle_beta 90.000000
_cell_angle_gamma 90.000000
_cell_volume 2201.966506
_symmetry_space_group_name_H-M "P B C M"
_symmetry_group_IT_number 57
_symmetry_cell_setting 'orthorhombic'
loop_
_space_group_symop_operation_xyz
x,y,z
-x,-y,1/2+z
x,1/2-y,-z
-x,1/2+y,1/2-z
-x,-y,-z
x,y,1/2-z
-x,1/2+y,z
x,1/2-y,1/2+z
loop_
_atom_site_type_symbol
_atom_site_label
_atom_site_fract_x
_atom_site_fract_y
_atom_site_fract_z
Si Si1 0.647075 0.903801 0.934319
Si Si2 0.958632 0.901005 0.570074
Si Si3 0.748109 0.904400 0.433067
Si Si4 0.456524 0.096095 0.934525
Si Si5 0.847527 0.900839 0.569564
O O1 0.643051 0.904941 0.750000
O O2 0.650381 0.750000 0.000000
O O3 0.698703 0.979881 0.991581
O O4 0.596605 0.971103 0.007583
O O5 0.963870 0.750000 0.500000
O O6 0.969179 0.884919 0.750000
O O7 0.902710 0.969261 0.540955
O O8 0.000000 0.000000 0.500000
O O9 0.752179 0.750000 0.500000
O O10 0.741613 0.903259 0.250000
O O11 0.800743 0.980453 0.483534
O O12 0.458179 0.100489 0.750000
O O13 0.463515 0.250000 0.000000
O O14 0.500000 0.000000 0.000000
O O15 0.852858 0.750000 0.500000
O O16 0.833870 0.891925 0.750000
#
# Coordination Sequence:
#
# PCOD8229886 Si02
#       5
#     8   8   8   8   8
#     4  10  17  27  42  63  91 123 156 195 239 286
#     4  10  20  33  50  71  98 129 164 202 244 289
#     4  10  16  23  37  59  87 119 151 189 235 285
#     4  11  21  35  52  74 101 132 167 205 246 291
#     4   9  16  26  40  61  88 119 152 191 235 283
#
# _framework density 18.165579000000001
#
# number of rings (size 3 to 8) (size 9 to 14) (size 15 to 20)
#    0.000    2.000    0.000   10.200    0.000    2.400 
#    0.000    0.000    0.000    0.000    0.000    1.400 
#    0.000    6.400    0.000    0.000    0.000    0.000 
#
# Total GULP energy -495580.488616 kJ/mol
# GULP energy per Si atom -12389.512215 kJ/mol
# Density = 1.812423 g / cm^3
# Si number density = 18.165579 Si / 1000 Ang^3
#
#
#
# Elastic Constant Matrix: (Units=GPa)
#
#
# Indices 1 2 3 4 5 6 
#
# 1 207.0272 42.4708 88.6684 0.0000 0.0000 0.0000
# 2 42.4708 30.5633 26.3384 0.0000 0.0000 0.0000
# 3 88.6684 26.3384 179.3332 0.0000 0.0000 0.0000
# 4 0.0000 0.0000 0.0000 17.7213 0.0000 0.0000
# 5 0.0000 0.0000 0.0000 0.0000 39.2383 0.0000
# 6 0.0000 0.0000 0.0000 0.0000 0.0000 19.3243
#
#
#
# Elastic Compliance Matrix: (Units=1/GPa)
#
#
# Indices 1 2 3 4 5 6 
#
# 1 0.007651 -0.008440 -0.002543 0.000000 0.000000 0.000000
# 2 -0.008440 0.046771 -0.002696 0.000000 0.000000 0.000000
# 3 -0.002543 -0.002696 0.007230 0.000000 0.000000 0.000000
# 4 0.000000 0.000000 0.000000 0.056429 0.000000 0.000000
# 5 0.000000 0.000000 0.000000 0.000000 0.025485 0.000000
# 6 0.000000 0.000000 0.000000 0.000000 0.000000 0.051748
#
#
# Mechanical properties :
#
#
# Convention : Reuss Voigt Hill
#
# Bulk Modulus (GPa) = 29.16098 81.31987 55.24042
# Shear Modulus (GPa) = 21.35801 32.55320 26.95560
#
# Velocity S-wave (km/s) = 3.43263 4.23783 3.85630
# Velocity P-wave (km/s) = 5.63900 8.29510 7.09249
#
# Compressibility (1/GPa) = 0.03429241
#
# Stress axis : x y z
#
# Youngs Moduli (GPa) = 130.70127 21.38089 138.31843
#
# Poissons Ratio (x) = 0.18046 0.35179
# Poissons Ratio (y) = 1.10313 0.37292
# Poissons Ratio (z) = 0.33242 0.05764
#
# Static dielectric constant tensor:
#      x y z
#    x 5.401910 0.000000 0.000000 
#    y 0.000000 2.620320 0.000000 
#    z 0.000000 0.000000 3.534990 
# 
# 
# High freq. dielectric constant tensor:
#      x y z
#    x 1.747270 0.000000 0.000000 
#    y 0.000000 1.605750 0.000000 
#    z 0.000000 0.000000 1.730180 
# 
# From -- ./inp_files/9648.got.cif
#   From: 2010.03.12/outbox.cif.g09.slc.cpg/sg57_5_cif.got.tgz:9648.got - 2010.04.16 15:48:40.
