data_PCOD8229534
_publ_section_title
;
Structure prediction by ZEFSAII (Michael W. Deem and Ramdas Pophale) SiO2 
 PCOD8229534
Probable space group: P C C N
;
_chemical_formula_sum "Si O2"
_cell_formula_units_Z 32
_cell_length_a 4.871406
_cell_length_b 16.200223
_cell_length_c 20.891055
_cell_angle_alpha 90.000000
_cell_angle_beta 90.000000
_cell_angle_gamma 90.000000
_cell_volume 1648.677427
_symmetry_space_group_name_H-M "P C C N"
_symmetry_group_IT_number 56
_symmetry_cell_setting 'orthorhombic'
loop_
_space_group_symop_operation_xyz
x,y,z
1/2-x,1/2-y,z
1/2+x,-y,1/2-z
-x,1/2+y,1/2-z
-x,-y,-z
1/2+x,1/2+y,-z
1/2-x,y,1/2+z
x,1/2-y,1/2+z
loop_
_atom_site_type_symbol
_atom_site_label
_atom_site_fract_x
_atom_site_fract_y
_atom_site_fract_z
Si Si1 0.821938 0.483937 0.079151
Si Si2 0.016754 0.803847 0.148539
Si Si3 0.395786 0.021730 0.289887
Si Si4 0.177552 0.585681 0.542507
O O1 0.719382 0.466506 0.151098
O O2 0.634650 0.553205 0.044521
O O3 0.129992 0.519575 0.080559
O O4 0.787778 0.404491 0.031176
O O5 0.750000 0.750000 0.134548
O O6 0.936053 0.883426 0.190022
O O7 0.250000 0.750000 0.185498
O O8 0.167908 0.828942 0.081610
O O9 0.681023 0.981604 0.268201
#
# Coordination Sequence:
#
# PCOD8229534 Si02
#       4
#     8   8   8   8
#     4   9  17  31  52  78 102 130 172 223 265 310
#     4  11  21  35  55  80 109 141 182 236 289 329
#     4  11  21  35  55  81 110 148 193 224 260 328
#     4   9  17  31  52  77 103 129 167 220 278 320
#
# _framework density 19.409496000000001
#
# number of rings (size 3 to 8) (size 9 to 14) (size 15 to 20)
#    0.000    2.000    0.000    7.500    0.000    0.000 
#    0.000    0.000    0.000    9.000    0.000    0.000 
#    0.000    0.000    0.000    0.000    0.000    0.000 
#
# Total GULP energy -396461.035933 kJ/mol
# GULP energy per Si atom -12389.407373 kJ/mol
# Density = 1.936532 g / cm^3
# Si number density = 19.409496 Si / 1000 Ang^3
#
#
#
# Elastic Constant Matrix: (Units=GPa)
#
#
# Indices 1 2 3 4 5 6 
#
# 1 102.0690 43.2223 19.2392 0.0000 0.0000 0.0000
# 2 43.2223 88.9457 49.3843 0.0000 0.0000 0.0000
# 3 19.2392 49.3843 99.0031 0.0000 0.0000 0.0000
# 4 0.0000 0.0000 0.0000 11.1603 0.0000 0.0000
# 5 0.0000 0.0000 0.0000 0.0000 31.0255 0.0000
# 6 0.0000 0.0000 0.0000 0.0000 0.0000 33.3435
#
#
#
# Elastic Compliance Matrix: (Units=1/GPa)
#
#
# Indices 1 2 3 4 5 6 
#
# 1 0.012384 -0.006475 0.000823 0.000000 0.000000 0.000000
# 2 -0.006475 0.018935 -0.008187 0.000000 0.000000 0.000000
# 3 0.000823 -0.008187 0.014024 0.000000 0.000000 0.000000
# 4 0.000000 0.000000 0.000000 0.089603 0.000000 0.000000
# 5 0.000000 0.000000 0.000000 0.000000 0.032232 0.000000
# 6 0.000000 0.000000 0.000000 0.000000 0.000000 0.029991
#
#
# Mechanical properties :
#
#
# Convention : Reuss Voigt Hill
#
# Bulk Modulus (GPa) = 56.60499 57.07880 56.84190
# Shear Modulus (GPa) = 21.66994 26.98397 24.32696
#
# Velocity S-wave (km/s) = 3.34497 3.73264 3.54411
# Velocity P-wave (km/s) = 6.64420 6.93169 6.78947
#
# Compressibility (1/GPa) = 0.01766629
#
# Stress axis : x y z
#
# Youngs Moduli (GPa) = 80.74921 52.81334 71.30470
#
# Poissons Ratio (x) = 0.34196 -0.05870
# Poissons Ratio (y) = 0.52285 0.58374
# Poissons Ratio (z) = -0.06647 0.43236
#
# Static dielectric constant tensor:
#      x y z
#    x 3.748650 0.000000 0.000000 
#    y 0.000000 3.373420 0.000000 
#    z 0.000000 0.000000 3.809600 
# 
# 
# High freq. dielectric constant tensor:
#      x y z
#    x 1.788920 0.000000 0.000000 
#    y 0.000000 1.702430 0.000000 
#    z 0.000000 0.000000 1.748670 
# 
# From -- ./inp_files/17324.got.cif
#   From: 2010.03.12/outbox.cif.g09.slc.cpg/sg56_9_cif.got.tgz:17324.got - 2010.04.16 15:33:40.
