data_PCOD8229698
_publ_section_title
;
Structure prediction by ZEFSAII (Michael W. Deem and Ramdas Pophale) SiO2 
 PCOD8229698
Probable space group: P C C N
;
_chemical_formula_sum "Si O2"
_cell_formula_units_Z 40
_cell_length_a 8.209571
_cell_length_b 7.844192
_cell_length_c 27.497816
_cell_angle_alpha 90.000000
_cell_angle_beta 90.000000
_cell_angle_gamma 90.000000
_cell_volume 1770.789263
_symmetry_space_group_name_H-M "P C C N"
_symmetry_group_IT_number 56
_symmetry_cell_setting 'orthorhombic'
loop_
_space_group_symop_operation_xyz
x,y,z
1/2-x,1/2-y,z
1/2+x,-y,1/2-z
-x,1/2+y,1/2-z
-x,-y,-z
1/2+x,1/2+y,-z
1/2-x,y,1/2+z
x,1/2-y,1/2+z
loop_
_atom_site_type_symbol
_atom_site_label
_atom_site_fract_x
_atom_site_fract_y
_atom_site_fract_z
Si Si1 0.808911 0.022237 0.581840
Si Si2 0.512213 0.182043 0.412247
Si Si3 0.008218 0.794026 0.339522
Si Si4 0.283056 0.977195 0.666545
Si Si5 0.250000 0.750000 0.505064
Si Si6 0.250000 0.750000 0.255313
O O1 0.623417 0.965415 0.592535
O O2 0.930086 0.865697 0.587733
O O3 0.855951 0.173360 0.619313
O O4 0.825538 0.099586 0.527908
O O5 0.610508 0.161700 0.462461
O O6 0.642339 0.172185 0.367814
O O7 0.090188 0.742911 0.288471
O O8 0.904638 0.969620 0.340435
O O9 0.890569 0.637530 0.349122
O O10 0.286469 0.915625 0.722291
#
# Coordination Sequence:
#
# PCOD8229698 Si02
#       6
#     8   8   8   8   4   4
#     4  11  24  42  66  96 132 174 220 272 326 386
#     4  11  24  42  66  96 132 174 220 272 326 386
#     4  11  24  42  65  93 129 172 216 267 325 387
#     4  11  24  42  65  93 129 172 216 267 325 387
#     4  12  22  40  64  94 132 172 222 272 324 390
#     4  12  22  40  64  94 128 164 214 266 316 388
#
# _framework density 22.588798000000001
#
# number of rings (size 3 to 8) (size 9 to 14) (size 15 to 20)
#    0.000    0.800    0.000    8.400    0.000    0.000 
#    0.000    8.000    0.000    0.000    0.000    0.000 
#    0.000    0.000    0.000    0.000    0.000    0.000 
#
# Total GULP energy -495739.210629 kJ/mol
# GULP energy per Si atom -12393.480266 kJ/mol
# Density = 2.253738 g / cm^3
# Si number density = 22.588798 Si / 1000 Ang^3
#
#
#
# Elastic Constant Matrix: (Units=GPa)
#
#
# Indices 1 2 3 4 5 6 
#
# 1 132.0259 60.5676 77.5447 0.0000 0.0000 0.0000
# 2 60.5676 79.5540 27.6604 0.0000 0.0000 0.0000
# 3 77.5447 27.6604 151.8713 0.0000 0.0000 0.0000
# 4 0.0000 0.0000 0.0000 33.5708 0.0000 0.0000
# 5 0.0000 0.0000 0.0000 0.0000 36.3497 0.0000
# 6 0.0000 0.0000 0.0000 0.0000 0.0000 51.4892
#
#
#
# Elastic Compliance Matrix: (Units=1/GPa)
#
#
# Indices 1 2 3 4 5 6 
#
# 1 0.015752 -0.009818 -0.006255 0.000000 0.000000 0.000000
# 2 -0.009818 0.019539 0.001454 0.000000 0.000000 0.000000
# 3 -0.006255 0.001454 0.009513 0.000000 0.000000 0.000000
# 4 0.000000 0.000000 0.000000 0.029788 0.000000 0.000000
# 5 0.000000 0.000000 0.000000 0.000000 0.027511 0.000000
# 6 0.000000 0.000000 0.000000 0.000000 0.000000 0.019422
#
#
# Mechanical properties :
#
#
# Convention : Reuss Voigt Hill
#
# Bulk Modulus (GPa) = 64.23531 77.22183 70.72857
# Shear Modulus (GPa) = 32.06155 37.46053 34.76104
#
# Velocity S-wave (km/s) = 3.77152 4.07672 3.92709
# Velocity P-wave (km/s) = 6.88944 7.51130 7.20708
#
# Compressibility (1/GPa) = 0.01556776
#
# Stress axis : x y z
#
# Youngs Moduli (GPa) = 63.48426 51.17934 105.11611
#
# Poissons Ratio (x) = 0.50247 0.65747
# Poissons Ratio (y) = 0.62328 -0.15287
# Poissons Ratio (z) = 0.39708 -0.07443
#
# Static dielectric constant tensor:
#      x y z
#    x 4.374410 0.000000 0.000000 
#    y 0.000000 4.194980 0.000000 
#    z 0.000000 0.000000 3.932020 
# 
# 
# High freq. dielectric constant tensor:
#      x y z
#    x 1.916130 0.000000 0.000000 
#    y 0.000000 1.906940 0.000000 
#    z 0.000000 0.000000 1.883490 
# 
# From -- ./inp_files/20354.got.cif
#   From: 2010.03.12/outbox.cif.g09.slc.cpg/sg56_11_cif.got.tgz:20354.got - 2010.04.16 15:33:40.
