data_PCOD8229190
_publ_section_title
;
Structure prediction by ZEFSAII (Michael W. Deem and Ramdas Pophale) SiO2 
 PCOD8229190
Probable space group: P C C N
;
_chemical_formula_sum "Si O2"
_cell_formula_units_Z 48
_cell_length_a 14.972580
_cell_length_b 9.261978
_cell_length_c 16.571609
_cell_angle_alpha 90.000000
_cell_angle_beta 90.000000
_cell_angle_gamma 90.000000
_cell_volume 2298.079587
_symmetry_space_group_name_H-M "P C C N"
_symmetry_group_IT_number 56
_symmetry_cell_setting 'orthorhombic'
loop_
_space_group_symop_operation_xyz
x,y,z
1/2-x,1/2-y,z
1/2+x,-y,1/2-z
-x,1/2+y,1/2-z
-x,-y,-z
1/2+x,1/2+y,-z
1/2-x,y,1/2+z
x,1/2-y,1/2+z
loop_
_atom_site_type_symbol
_atom_site_label
_atom_site_fract_x
_atom_site_fract_y
_atom_site_fract_z
Si Si1 0.065265 0.069676 0.063096
Si Si2 0.573272 0.106942 0.276008
Si Si3 0.073604 0.172160 0.313119
Si Si4 0.432392 0.367778 0.495976
Si Si5 0.750000 0.750000 0.279456
Si Si6 0.235575 0.473112 0.080190
Si Si7 0.250000 0.750000 0.166184
O O1 0.167696 0.037780 0.038055
O O2 0.049830 0.001732 0.150682
O O3 0.045599 0.242302 0.061617
O O4 0.000000 0.000000 0.000000
O O5 0.504769 0.238618 0.269134
O O6 0.672816 0.174640 0.280495
O O7 0.564356 0.001440 0.198873
O O8 0.066754 0.204141 0.407930
O O9 0.166347 0.227496 0.278203
O O10 0.500000 0.500000 0.500000
O O11 0.332849 0.421411 0.513083
O O12 0.733606 0.613868 0.336236
O O13 0.206630 0.633620 0.105874
#
# Coordination Sequence:
#
# PCOD8229190 Si02
#       7
#     8   8   8   8   4   8   4
#     4  11  22  45  67  97 128 181 223 277 337 399
#     4  11  25  44  69  97 138 174 227 281 341 406
#     4  12  27  41  68 105 134 180 227 282 345 410
#     4  12  26  42  70 101 138 176 234 279 339 410
#     4  12  24  44  70  96 130 184 222 278 346 404
#     4  11  23  45  71  91 134 182 224 275 341 409
#     4  10  22  46  68  96 128 184 226 264 346 402
#
# _framework density 20.887004000000001
#
# number of rings (size 3 to 8) (size 9 to 14) (size 15 to 20)
#    0.000    0.667    6.667    1.000   11.667    0.000 
#    0.000    0.833    0.000    0.000    0.000    0.000 
#    0.000    0.000    0.000    0.000    0.000    0.000 
#
# Total GULP energy -595182.917980 kJ/mol
# GULP energy per Si atom -12399.644125 kJ/mol
# Density = 2.083946 g / cm^3
# Si number density = 20.887004 Si / 1000 Ang^3
#
#
#
# Elastic Constant Matrix: (Units=GPa)
#
#
# Indices 1 2 3 4 5 6 
#
# 1 120.4291 44.8927 27.5716 0.0000 0.0000 0.0000
# 2 44.8927 143.6686 19.6739 0.0000 0.0000 0.0000
# 3 27.5716 19.6739 60.5334 0.0000 0.0000 0.0000
# 4 0.0000 0.0000 0.0000 39.4086 0.0000 0.0000
# 5 0.0000 0.0000 0.0000 0.0000 25.5661 0.0000
# 6 0.0000 0.0000 0.0000 0.0000 0.0000 41.5059
#
#
#
# Elastic Compliance Matrix: (Units=1/GPa)
#
#
# Indices 1 2 3 4 5 6 
#
# 1 0.010156 -0.002658 -0.003762 0.000000 0.000000 0.000000
# 2 -0.002658 0.007980 -0.001383 0.000000 0.000000 0.000000
# 3 -0.003762 -0.001383 0.018683 0.000000 0.000000 0.000000
# 4 0.000000 0.000000 0.000000 0.025375 0.000000 0.000000
# 5 0.000000 0.000000 0.000000 0.000000 0.039114 0.000000
# 6 0.000000 0.000000 0.000000 0.000000 0.000000 0.024093
#
#
# Mechanical properties :
#
#
# Convention : Reuss Voigt Hill
#
# Bulk Modulus (GPa) = 47.14095 56.54527 51.84311
# Shear Modulus (GPa) = 33.76591 36.79567 35.28079
#
# Velocity S-wave (km/s) = 4.02506 4.20176 4.11436
# Velocity P-wave (km/s) = 6.64981 7.11832 6.88805
#
# Compressibility (1/GPa) = 0.02121298
#
# Stress axis : x y z
#
# Youngs Moduli (GPa) = 98.46576 125.30561 53.52551
#
# Poissons Ratio (x) = 0.33310 0.20135
# Poissons Ratio (y) = 0.26175 0.07402
# Poissons Ratio (z) = 0.37041 0.17329
#
# Static dielectric constant tensor:
#      x y z
#    x 3.394380 0.000000 0.000000 
#    y 0.000000 6.036960 0.000000 
#    z 0.000000 0.000000 3.586830 
# 
# 
# High freq. dielectric constant tensor:
#      x y z
#    x 1.825290 0.000000 0.000000 
#    y 0.000000 1.840370 0.000000 
#    z 0.000000 0.000000 1.798980 
# 
# From -- ./inp_files/14883.got.cif
#   From: 2010.03.12/outbox.cif.g09.slc.cpg/sg56_8_cif.got.tgz:14883.got - 2010.04.16 15:33:40.
