data_PCOD8229645
_publ_section_title
;
Structure prediction by ZEFSAII (Michael W. Deem and Ramdas Pophale) SiO2 
 PCOD8229645
Probable space group: P C C N
;
_chemical_formula_sum "Si O2"
_cell_formula_units_Z 32
_cell_length_a 15.216197
_cell_length_b 7.836815
_cell_length_c 11.385219
_cell_angle_alpha 90.000000
_cell_angle_beta 90.000000
_cell_angle_gamma 90.000000
_cell_volume 1357.647755
_symmetry_space_group_name_H-M "P C C N"
_symmetry_group_IT_number 56
_symmetry_cell_setting 'orthorhombic'
loop_
_space_group_symop_operation_xyz
x,y,z
1/2-x,1/2-y,z
1/2+x,-y,1/2-z
-x,1/2+y,1/2-z
-x,-y,-z
1/2+x,1/2+y,-z
1/2-x,y,1/2+z
x,1/2-y,1/2+z
loop_
_atom_site_type_symbol
_atom_site_label
_atom_site_fract_x
_atom_site_fract_y
_atom_site_fract_z
Si Si1 0.846074 0.201128 0.935000
Si Si2 0.923244 0.067092 0.253272
Si Si3 0.160266 0.358388 0.445986
Si Si4 0.491760 0.210815 0.079036
O O1 0.750000 0.250000 0.975728
O O2 0.869461 0.269169 0.804211
O O3 0.911151 0.295508 0.025015
O O4 0.845866 0.995955 0.947738
O O5 0.003700 0.133293 0.172753
O O6 0.855186 0.947517 0.180540
O O7 0.967745 0.965655 0.359379
O O8 0.250000 0.250000 0.445989
O O9 0.078262 0.236477 0.474673
#
# Coordination Sequence:
#
# PCOD8229645 Si02
#       4
#     8   8   8   8
#     4  11  24  42  65  97 133 174 224 280 337 401
#     4  11  23  41  71 100 134 183 227 279 343 403
#     4  11  25  45  67  98 136 178 227 281 340 406
#     4  11  23  44  67  97 137 177 224 280 338 404
#
# _framework density 23.570177999999999
#
# number of rings (size 3 to 8) (size 9 to 14) (size 15 to 20)
#    0.000    1.000    0.000    8.250    0.000    9.000 
#    0.000    5.000    0.000    0.000    0.000    0.000 
#    0.000    0.000    0.000    0.000    0.000    0.000 
#
# Total GULP energy -396651.230353 kJ/mol
# GULP energy per Si atom -12395.350949 kJ/mol
# Density = 2.351653 g / cm^3
# Si number density = 23.570178 Si / 1000 Ang^3
#
#
#
# Elastic Constant Matrix: (Units=GPa)
#
#
# Indices 1 2 3 4 5 6 
#
# 1 155.6823 40.6134 33.9474 0.0000 0.0000 0.0000
# 2 40.6134 107.3203 39.6664 0.0000 0.0000 0.0000
# 3 33.9474 39.6664 85.4660 0.0000 0.0000 0.0000
# 4 0.0000 0.0000 0.0000 60.3148 0.0000 0.0000
# 5 0.0000 0.0000 0.0000 0.0000 14.7302 0.0000
# 6 0.0000 0.0000 0.0000 0.0000 0.0000 40.3988
#
#
#
# Elastic Compliance Matrix: (Units=1/GPa)
#
#
# Indices 1 2 3 4 5 6 
#
# 1 0.007394 -0.002067 -0.001977 0.000000 0.000000 0.000000
# 2 -0.002067 0.011825 -0.004667 0.000000 0.000000 0.000000
# 3 -0.001977 -0.004667 0.014652 0.000000 0.000000 0.000000
# 4 0.000000 0.000000 0.000000 0.016580 0.000000 0.000000
# 5 0.000000 0.000000 0.000000 0.000000 0.067888 0.000000
# 6 0.000000 0.000000 0.000000 0.000000 0.000000 0.024753
#
#
# Mechanical properties :
#
#
# Convention : Reuss Voigt Hill
#
# Bulk Modulus (GPa) = 60.79944 64.10256 62.45100
# Shear Modulus (GPa) = 30.12082 38.70486 34.41284
#
# Velocity S-wave (km/s) = 3.57868 4.05669 3.82516
# Velocity P-wave (km/s) = 6.55187 7.01412 6.78693
#
# Compressibility (1/GPa) = 0.01644752
#
# Stress axis : x y z
#
# Youngs Moduli (GPa) = 135.24853 84.56504 68.24940
#
# Poissons Ratio (x) = 0.17481 0.13496
# Poissons Ratio (y) = 0.27958 0.31853
# Poissons Ratio (z) = 0.26744 0.39468
#
# Static dielectric constant tensor:
#      x y z
#    x 4.261810 0.000000 0.000000 
#    y 0.000000 4.475760 0.000000 
#    z 0.000000 0.000000 4.437730 
# 
# 
# High freq. dielectric constant tensor:
#      x y z
#    x 1.931390 0.000000 0.000000 
#    y 0.000000 1.942890 0.000000 
#    z 0.000000 0.000000 1.935130 
# 
# From -- ./inp_files/5947.got.cif
#   From: 2010.03.12/outbox.cif.g09.slc.cpg/sg56_3_cif.got.tgz:5947.got - 2010.04.16 15:33:40.
