data_PCOD8229496
_publ_section_title
;
Structure prediction by ZEFSAII (Michael W. Deem and Ramdas Pophale) SiO2 
 PCOD8229496
Probable space group: P C C N
;
_chemical_formula_sum "Si O2"
_cell_formula_units_Z 48
_cell_length_a 8.439499
_cell_length_b 15.432162
_cell_length_c 17.594420
_cell_angle_alpha 90.000000
_cell_angle_beta 90.000000
_cell_angle_gamma 90.000000
_cell_volume 2291.492260
_symmetry_space_group_name_H-M "P C C N"
_symmetry_group_IT_number 56
_symmetry_cell_setting 'orthorhombic'
loop_
_space_group_symop_operation_xyz
x,y,z
1/2-x,1/2-y,z
1/2+x,-y,1/2-z
-x,1/2+y,1/2-z
-x,-y,-z
1/2+x,1/2+y,-z
1/2-x,y,1/2+z
x,1/2-y,1/2+z
loop_
_atom_site_type_symbol
_atom_site_label
_atom_site_fract_x
_atom_site_fract_y
_atom_site_fract_z
Si Si1 0.279234 0.344946 0.108309
Si Si2 0.575403 0.090080 0.525880
Si Si3 0.225433 0.655152 0.105784
Si Si4 0.639311 0.990544 0.797405
Si Si5 0.563265 0.595046 0.523853
Si Si6 0.209624 0.506892 0.857385
O O1 0.250000 0.250000 0.143763
O O2 0.451722 0.350836 0.071186
O O3 0.259047 0.416498 0.173586
O O4 0.147403 0.359181 0.044936
O O5 0.624335 0.135222 0.447317
O O6 0.500000 0.000000 0.500000
O O7 0.726289 0.077842 0.582273
O O8 0.250000 0.750000 0.143802
O O9 0.196770 0.582970 0.170012
O O10 0.075339 0.658361 0.049926
O O11 0.656456 0.992962 0.706506
O O12 0.459188 0.965858 0.819793
O O13 0.500000 0.500000 0.500000
O O14 0.683784 0.581654 0.594850
#
# Coordination Sequence:
#
# PCOD8229496 Si02
#       6
#     8   8   8   8   8   8
#     4  12  23  38  63  95 130 164 210 264 315 373
#     4  12  20  38  67  94 121 161 217 257 310 368
#     4  11  22  39  64  91 125 166 211 257 311 376
#     4  11  23  42  61  89 132 164 210 254 319 388
#     4  11  18  42  65  88 122 168 213 264 309 366
#     4  11  22  39  71  87 124 176 204 257 326 369
#
# _framework density 20.947047000000001
#
# number of rings (size 3 to 8) (size 9 to 14) (size 15 to 20)
#    0.000    0.667    8.333    2.000    0.000    0.000 
#    0.000    6.667    0.000    0.000    0.000    0.000 
#    0.000    0.000    0.000    0.000    0.000    0.000 
#
# Total GULP energy -595091.689142 kJ/mol
# GULP energy per Si atom -12397.743524 kJ/mol
# Density = 2.089937 g / cm^3
# Si number density = 20.947047 Si / 1000 Ang^3
#
#
#
# Elastic Constant Matrix: (Units=GPa)
#
#
# Indices 1 2 3 4 5 6 
#
# 1 69.8910 27.6888 4.1196 0.0000 0.0000 0.0000
# 2 27.6888 128.7553 21.6331 0.0000 0.0000 0.0000
# 3 4.1196 21.6331 82.7773 0.0000 0.0000 0.0000
# 4 0.0000 0.0000 0.0000 8.6158 0.0000 0.0000
# 5 0.0000 0.0000 0.0000 0.0000 43.2836 0.0000
# 6 0.0000 0.0000 0.0000 0.0000 0.0000 24.5223
#
#
#
# Elastic Compliance Matrix: (Units=1/GPa)
#
#
# Indices 1 2 3 4 5 6 
#
# 1 0.015641 -0.003381 0.000105 0.000000 0.000000 0.000000
# 2 -0.003381 0.008854 -0.002146 0.000000 0.000000 0.000000
# 3 0.000105 -0.002146 0.012636 0.000000 0.000000 0.000000
# 4 0.000000 0.000000 0.000000 0.116066 0.000000 0.000000
# 5 0.000000 0.000000 0.000000 0.000000 0.023103 0.000000
# 6 0.000000 0.000000 0.000000 0.000000 0.000000 0.040779
#
#
# Mechanical properties :
#
#
# Convention : Reuss Voigt Hill
#
# Bulk Modulus (GPa) = 38.03985 43.14518 40.59252
# Shear Modulus (GPa) = 21.12496 30.48314 25.80405
#
# Velocity S-wave (km/s) = 3.17912 3.81891 3.51361
# Velocity P-wave (km/s) = 5.62807 6.33146 5.99010
#
# Compressibility (1/GPa) = 0.02628822
#
# Stress axis : x y z
#
# Youngs Moduli (GPa) = 63.93294 112.93879 79.13813
#
# Poissons Ratio (x) = 0.38189 -0.00833
# Poissons Ratio (y) = 0.21618 0.16981
# Poissons Ratio (z) = -0.00673 0.24234
#
# Static dielectric constant tensor:
#      x y z
#    x 4.100550 0.000000 0.000000 
#    y 0.000000 3.317630 0.000000 
#    z 0.000000 0.000000 3.915630 
# 
# 
# High freq. dielectric constant tensor:
#      x y z
#    x 1.834990 0.000000 0.000000 
#    y 0.000000 1.792160 0.000000 
#    z 0.000000 0.000000 1.815880 
# 
# From -- ./inp_files/14781.got.cif
#   From: 2010.03.12/outbox.cif.g09.slc.cpg/sg56_8_cif.got.tgz:14781.got - 2010.04.16 15:33:40.
