data_PCOD8229069
_publ_section_title
;
Structure prediction by ZEFSAII (Michael W. Deem and Ramdas Pophale) SiO2 
 PCOD8229069
Probable space group: P C C N
;
_chemical_formula_sum "Si O2"
_cell_formula_units_Z 64
_cell_length_a 24.448560
_cell_length_b 5.045596
_cell_length_c 26.358353
_cell_angle_alpha 90.000000
_cell_angle_beta 90.000000
_cell_angle_gamma 90.000000
_cell_volume 3251.502021
_symmetry_space_group_name_H-M "P C C N"
_symmetry_group_IT_number 56
_symmetry_cell_setting 'orthorhombic'
loop_
_space_group_symop_operation_xyz
x,y,z
1/2-x,1/2-y,z
1/2+x,-y,1/2-z
-x,1/2+y,1/2-z
-x,-y,-z
1/2+x,1/2+y,-z
1/2-x,y,1/2+z
x,1/2-y,1/2+z
loop_
_atom_site_type_symbol
_atom_site_label
_atom_site_fract_x
_atom_site_fract_y
_atom_site_fract_z
Si Si1 0.288087 0.494808 0.102449
Si Si2 0.884443 0.120986 0.081683
Si Si3 0.962460 0.248848 0.493810
Si Si4 0.461340 0.174142 0.754091
Si Si5 0.450940 0.935483 0.112148
Si Si6 0.926119 0.902648 0.634663
Si Si7 0.599255 0.557232 0.844804
Si Si8 0.213308 0.003077 0.988202
O O1 0.250000 0.750000 0.108477
O O2 0.337382 0.505237 0.143289
O O3 0.250000 0.250000 0.116637
O O4 0.312510 0.462205 0.044901
O O5 0.882120 0.363465 0.122339
O O6 0.827281 0.027309 0.059040
O O7 0.913590 0.869599 0.106144
O O8 0.915443 0.249021 0.034622
O O9 0.933857 0.217629 0.439258
O O10 0.000000 0.500000 0.500000
O O11 0.000000 0.000000 0.500000
O O12 0.491700 0.454691 0.751250
O O13 0.427044 0.147233 0.805607
O O14 0.414072 0.166085 0.711242
O O15 0.514937 0.004506 0.115504
O O16 0.434542 0.718523 0.154124
O O17 0.419802 0.214914 0.115810
O O18 0.250000 0.750000 0.991293
O O19 0.250000 0.250000 0.973278
#
# Coordination Sequence:
#
# PCOD8229069 Si02
#       8
#     8   8   8   8   8   8   8   8
#     4  10  22  41  65  90 118 151 202 260 313 361
#     4  12  23  39  59  85 123 164 198 247 306 352
#     4  12  22  33  51  82 123 161 189 228 292 368
#     4  12  23  39  61  88 123 165 207 245 296 363
#     4  12  22  36  57  87 125 161 200 235 298 371
#     4  12  23  38  58  86 126 165 201 245 291 358
#     4  12  23  39  63  88 120 160 202 257 308 362
#     4  10  22  41  64  88 115 155 208 255 300 366
#
# _framework density 19.683209000000002
#
# number of rings (size 3 to 8) (size 9 to 14) (size 15 to 20)
#    0.000    0.500    5.000    4.500    0.000    3.000 
#    0.000    0.000    0.000    4.500    0.000    0.000 
#    0.000    0.000    0.000    0.000    0.000    0.000 
#
# Total GULP energy -793514.155892 kJ/mol
# GULP energy per Si atom -12398.658686 kJ/mol
# Density = 1.963841 g / cm^3
# Si number density = 19.683209 Si / 1000 Ang^3
#
#
#
# Elastic Constant Matrix: (Units=GPa)
#
#
# Indices 1 2 3 4 5 6 
#
# 1 80.6769 31.6407 52.4876 0.0000 0.0000 0.0000
# 2 31.6407 128.8361 20.8779 0.0000 0.0000 0.0000
# 3 52.4876 20.8779 107.3585 0.0000 0.0000 0.0000
# 4 0.0000 0.0000 0.0000 28.8028 0.0000 0.0000
# 5 0.0000 0.0000 0.0000 0.0000 30.1263 0.0000
# 6 0.0000 0.0000 0.0000 0.0000 0.0000 27.8256
#
#
#
# Elastic Compliance Matrix: (Units=1/GPa)
#
#
# Indices 1 2 3 4 5 6 
#
# 1 0.019480 -0.003346 -0.008873 0.000000 0.000000 0.000000
# 2 -0.003346 0.008589 -0.000034 0.000000 0.000000 0.000000
# 3 -0.008873 -0.000034 0.013659 0.000000 0.000000 0.000000
# 4 0.000000 0.000000 0.000000 0.034719 0.000000 0.000000
# 5 0.000000 0.000000 0.000000 0.000000 0.033194 0.000000
# 6 0.000000 0.000000 0.000000 0.000000 0.000000 0.035938
#
#
# Mechanical properties :
#
#
# Convention : Reuss Voigt Hill
#
# Bulk Modulus (GPa) = 58.06765 58.54263 58.30514
# Shear Modulus (GPa) = 28.43701 31.47530 29.95615
#
# Velocity S-wave (km/s) = 3.80509 4.00321 3.90540
# Velocity P-wave (km/s) = 6.99072 7.15364 7.07265
#
# Compressibility (1/GPa) = 0.01722129
#
# Stress axis : x y z
#
# Youngs Moduli (GPa) = 51.33401 116.42574 73.20990
#
# Poissons Ratio (x) = 0.38959 0.64960
# Poissons Ratio (y) = 0.17178 0.00251
# Poissons Ratio (z) = 0.45549 0.00400
#
# Static dielectric constant tensor:
#      x y z
#    x 3.401140 0.000000 0.000000 
#    y 0.000000 3.822750 0.000000 
#    z 0.000000 0.000000 3.715190 
# 
# 
# High freq. dielectric constant tensor:
#      x y z
#    x 1.738280 0.000000 0.000000 
#    y 0.000000 1.797240 0.000000 
#    z 0.000000 0.000000 1.764360 
# 
# From -- ./inp_files/22607.got.cif
#   From: 2010.03.12/outbox.cif.g09.slc.cpg/sg56_12_cif.got.tgz:22607.got - 2010.04.16 15:33:40.
