data_PCOD8229100
_publ_section_title
;
Structure prediction by ZEFSAII (Michael W. Deem and Ramdas Pophale) SiO2 
 PCOD8229100
Probable space group: P C C N
;
_chemical_formula_sum "Si O2"
_cell_formula_units_Z 36
_cell_length_a 20.433518
_cell_length_b 6.449163
_cell_length_c 13.504375
_cell_angle_alpha 90.000000
_cell_angle_beta 90.000000
_cell_angle_gamma 90.000000
_cell_volume 1779.594225
_symmetry_space_group_name_H-M "P C C N"
_symmetry_group_IT_number 56
_symmetry_cell_setting 'orthorhombic'
loop_
_space_group_symop_operation_xyz
x,y,z
1/2-x,1/2-y,z
1/2+x,-y,1/2-z
-x,1/2+y,1/2-z
-x,-y,-z
1/2+x,1/2+y,-z
1/2-x,y,1/2+z
x,1/2-y,1/2+z
loop_
_atom_site_type_symbol
_atom_site_label
_atom_site_fract_x
_atom_site_fract_y
_atom_site_fract_z
Si Si1 0.576788 0.961828 0.601129
Si Si2 0.637048 0.980370 0.813767
Si Si3 0.040075 0.808473 0.537266
Si Si4 0.814773 0.864537 0.951331
Si Si5 0.250000 0.750000 0.138901
O O1 0.506929 0.848476 0.596258
O O2 0.632116 0.844474 0.538074
O O3 0.595786 0.960877 0.715123
O O4 0.570044 0.194368 0.558889
O O5 0.597619 0.116148 0.892509
O O6 0.704585 0.104321 0.792610
O O7 0.654678 0.752148 0.855447
O O8 0.000000 0.000000 0.500000
O O9 0.750000 0.750000 0.990062
O O10 0.796615 0.102532 0.927856
#
# Coordination Sequence:
#
# PCOD8229100 Si02
#       5
#     8   8   8   8   4
#     4  11  25  41  68  94 126 174 212 262 329 379
#     4  11  24  42  67  95 129 171 218 267 321 392
#     4  11  24  43  62  96 132 167 216 269 317 385
#     4  10  22  42  64  94 131 164 216 268 312 385
#     4  10  22  44  64  92 138 166 214 270 316 384
#
# _framework density 20.229330999999998
#
# number of rings (size 3 to 8) (size 9 to 14) (size 15 to 20)
#    0.000    1.333    4.444    0.000    3.111    5.333 
#    0.000    0.000    0.000    0.000    0.000    0.000 
#    0.000    0.000    0.000    0.000    0.000    0.000 
#
# Total GULP energy -446429.526846 kJ/mol
# GULP energy per Si atom -12400.820190 kJ/mol
# Density = 2.018329 g / cm^3
# Si number density = 20.229331 Si / 1000 Ang^3
#
#
#
# Elastic Constant Matrix: (Units=GPa)
#
#
# Indices 1 2 3 4 5 6 
#
# 1 84.9948 36.2031 26.7980 0.0000 0.0000 0.0000
# 2 36.2031 116.8292 46.7102 0.0000 0.0000 0.0000
# 3 26.7980 46.7102 77.0951 0.0000 0.0000 0.0000
# 4 0.0000 0.0000 0.0000 24.1668 0.0000 0.0000
# 5 0.0000 0.0000 0.0000 0.0000 31.9789 0.0000
# 6 0.0000 0.0000 0.0000 0.0000 0.0000 47.9999
#
#
#
# Elastic Compliance Matrix: (Units=1/GPa)
#
#
# Indices 1 2 3 4 5 6 
#
# 1 0.014050 -0.003169 -0.002964 0.000000 0.000000 0.000000
# 2 -0.003169 0.012010 -0.006175 0.000000 0.000000 0.000000
# 3 -0.002964 -0.006175 0.017743 0.000000 0.000000 0.000000
# 4 0.000000 0.000000 0.000000 0.041379 0.000000 0.000000
# 5 0.000000 0.000000 0.000000 0.000000 0.031271 0.000000
# 6 0.000000 0.000000 0.000000 0.000000 0.000000 0.020833
#
#
# Mechanical properties :
#
#
# Convention : Reuss Voigt Hill
#
# Bulk Modulus (GPa) = 52.11866 55.37130 53.74498
# Shear Modulus (GPa) = 29.70935 32.10965 30.90950
#
# Velocity S-wave (km/s) = 3.83642 3.98839 3.91315
# Velocity P-wave (km/s) = 6.74122 6.97430 6.85875
#
# Compressibility (1/GPa) = 0.01918698
#
# Stress axis : x y z
#
# Youngs Moduli (GPa) = 71.17660 83.26066 56.36110
#
# Poissons Ratio (x) = 0.26383 0.16704
# Poissons Ratio (y) = 0.22554 0.34805
# Poissons Ratio (z) = 0.21095 0.51417
#
# Static dielectric constant tensor:
#      x y z
#    x 3.805300 0.000000 0.000000 
#    y 0.000000 4.090300 0.000000 
#    z 0.000000 0.000000 3.334040 
# 
# 
# High freq. dielectric constant tensor:
#      x y z
#    x 1.818440 0.000000 0.000000 
#    y 0.000000 1.804840 0.000000 
#    z 0.000000 0.000000 1.757230 
# 
# From -- ./inp_files/5534.got.cif
#   From: 2010.03.12/outbox.cif.g09.slc.cpg/sg56_3_cif.got.tgz:5534.got - 2010.04.16 15:33:40.
