data_PCOD8229408
_publ_section_title
;
Structure prediction by ZEFSAII (Michael W. Deem and Ramdas Pophale) SiO2 
 PCOD8229408
Probable space group: P C C N
;
_chemical_formula_sum "Si O2"
_cell_formula_units_Z 40
_cell_length_a 14.283701
_cell_length_b 5.021846
_cell_length_c 23.892290
_cell_angle_alpha 90.000000
_cell_angle_beta 90.000000
_cell_angle_gamma 90.000000
_cell_volume 1713.807024
_symmetry_space_group_name_H-M "P C C N"
_symmetry_group_IT_number 56
_symmetry_cell_setting 'orthorhombic'
loop_
_space_group_symop_operation_xyz
x,y,z
1/2-x,1/2-y,z
1/2+x,-y,1/2-z
-x,1/2+y,1/2-z
-x,-y,-z
1/2+x,1/2+y,-z
1/2-x,y,1/2+z
x,1/2-y,1/2+z
loop_
_atom_site_type_symbol
_atom_site_label
_atom_site_fract_x
_atom_site_fract_y
_atom_site_fract_z
Si Si1 0.646229 0.865365 0.552094
Si Si2 0.691436 0.494000 0.814804
Si Si3 0.952161 0.369936 0.099227
Si Si4 0.044009 0.946359 0.270766
Si Si5 0.646626 0.868769 0.427464
O O1 0.750000 0.750000 0.565196
O O2 0.577753 0.616569 0.560884
O O3 0.631429 0.986935 0.489524
O O4 0.614365 0.111046 0.590834
O O5 0.750000 0.250000 0.791932
O O6 0.626208 0.588514 0.764337
O O7 0.642043 0.420332 0.875139
O O8 0.750000 0.750000 0.831425
O O9 0.937447 0.446008 0.163847
O O10 0.061567 0.332992 0.085636
O O11 0.040023 0.650113 0.243986
O O12 0.750000 0.750000 0.431545
#
# Coordination Sequence:
#
# PCOD8229408 Si02
#       5
#     8   8   8   8   8
#     4  11  26  46  71 103 142 183 235 285 351 416
#     4  11  25  43  70 102 135 182 236 288 349 414
#     4  12  25  45  74 102 141 185 233 286 353 414
#     4  12  25  45  70  98 142 179 231 287 350 411
#     4  10  24  45  71 104 141 183 232 293 342 418
#
# _framework density 23.339852
#
# number of rings (size 3 to 8) (size 9 to 14) (size 15 to 20)
#    0.000    0.800    2.000    4.200    2.800    7.200 
#    0.000    0.000    0.000    0.000    0.000    0.000 
#    0.000    0.000    0.000    0.000    0.000    0.000 
#
# Total GULP energy -495527.552293 kJ/mol
# GULP energy per Si atom -12388.188807 kJ/mol
# Density = 2.328673 g / cm^3
# Si number density = 23.339852 Si / 1000 Ang^3
#
#
#
# Elastic Constant Matrix: (Units=GPa)
#
#
# Indices 1 2 3 4 5 6 
#
# 1 97.9792 17.5768 58.9791 0.0000 0.0000 0.0000
# 2 17.5768 97.4327 18.1095 0.0000 0.0000 0.0000
# 3 58.9791 18.1095 146.3604 0.0000 0.0000 0.0000
# 4 0.0000 0.0000 0.0000 33.7989 0.0000 0.0000
# 5 0.0000 0.0000 0.0000 0.0000 41.6935 0.0000
# 6 0.0000 0.0000 0.0000 0.0000 0.0000 24.0564
#
#
#
# Elastic Compliance Matrix: (Units=1/GPa)
#
#
# Indices 1 2 3 4 5 6 
#
# 1 0.013679 -0.001477 -0.005330 0.000000 0.000000 0.000000
# 2 -0.001477 0.010665 -0.000724 0.000000 0.000000 0.000000
# 3 -0.005330 -0.000724 0.009070 0.000000 0.000000 0.000000
# 4 0.000000 0.000000 0.000000 0.029587 0.000000 0.000000
# 5 0.000000 0.000000 0.000000 0.000000 0.023985 0.000000
# 6 0.000000 0.000000 0.000000 0.000000 0.000000 0.041569
#
#
# Mechanical properties :
#
#
# Convention : Reuss Voigt Hill
#
# Bulk Modulus (GPa) = 54.49121 59.01146 56.75134
# Shear Modulus (GPa) = 33.39266 36.38356 34.88811
#
# Velocity S-wave (km/s) = 3.78658 3.95252 3.87044
# Velocity P-wave (km/s) = 6.52036 6.79473 6.65896
#
# Compressibility (1/GPa) = 0.01835158
#
# Stress axis : x y z
#
# Youngs Moduli (GPa) = 73.10232 93.76816 110.25637
#
# Poissons Ratio (x) = 0.13851 0.58763
# Poissons Ratio (y) = 0.10798 0.07986
# Poissons Ratio (z) = 0.38961 0.06792
#
# Static dielectric constant tensor:
#      x y z
#    x 4.377010 0.000000 0.000000 
#    y 0.000000 4.054370 0.000000 
#    z 0.000000 0.000000 4.536100 
# 
# 
# High freq. dielectric constant tensor:
#      x y z
#    x 1.930600 0.000000 0.000000 
#    y 0.000000 1.909420 0.000000 
#    z 0.000000 0.000000 1.947950 
# 
# From -- ./inp_files/21070.got.cif
#   From: 2010.03.12/outbox.cif.g09.slc.cpg/sg56_11_cif.got.tgz:21070.got - 2010.04.16 15:33:40.
