data_PCOD8229151
_publ_section_title
;
Structure prediction by ZEFSAII (Michael W. Deem and Ramdas Pophale) SiO2 
 PCOD8229151
Probable space group: P C C N
;
_chemical_formula_sum "Si O2"
_cell_formula_units_Z 52
_cell_length_a 8.095420
_cell_length_b 15.326759
_cell_length_c 19.876374
_cell_angle_alpha 90.000000
_cell_angle_beta 90.000000
_cell_angle_gamma 90.000000
_cell_volume 2466.191939
_symmetry_space_group_name_H-M "P C C N"
_symmetry_group_IT_number 56
_symmetry_cell_setting 'orthorhombic'
loop_
_space_group_symop_operation_xyz
x,y,z
1/2-x,1/2-y,z
1/2+x,-y,1/2-z
-x,1/2+y,1/2-z
-x,-y,-z
1/2+x,1/2+y,-z
1/2-x,y,1/2+z
x,1/2-y,1/2+z
loop_
_atom_site_type_symbol
_atom_site_label
_atom_site_fract_x
_atom_site_fract_y
_atom_site_fract_z
Si Si1 0.952556 0.074347 0.947807
Si Si2 0.750000 0.750000 0.249489
Si Si3 0.438453 0.771214 0.844268
Si Si4 0.129495 0.430108 0.308007
Si Si5 0.434749 0.929073 0.051036
Si Si6 0.556414 0.250771 0.004840
Si Si7 0.944325 0.031716 0.673217
O O1 0.758485 0.079640 0.952133
O O2 0.010807 0.062493 0.871872
O O3 0.030486 0.166832 0.969793
O O4 0.000000 0.000000 0.000000
O O5 0.581412 0.763479 0.293418
O O6 0.717466 0.664373 0.203457
O O7 0.250000 0.750000 0.818185
O O8 0.477008 0.730811 0.916522
O O9 0.453957 0.873716 0.860262
O O10 0.256168 0.507527 0.317627
O O11 0.026316 0.461715 0.245133
O O12 0.477162 0.956480 0.126948
O O13 0.518765 0.837319 0.028398
O O14 0.500000 0.000000 0.000000
O O15 0.750000 0.250000 0.990972
#
# Coordination Sequence:
#
# PCOD8229151 Si02
#       7
#     8   4   8   8   8   8   8
#     4  11  25  43  68  98 135 178 230 290 349 415
#     4  10  26  46  64 102 142 182 238 276 342 434
#     4  10  22  43  70  98 135 182 229 282 347 413
#     4  11  26  45  65 100 135 181 234 285 353 413
#     4  11  21  42  67  99 135 178 230 285 345 418
#     4   9  21  40  66  96 134 178 228 280 349 414
#     4  11  24  42  67  94 136 178 224 283 345 422
#
# _framework density 21.085139000000002
#
# number of rings (size 3 to 8) (size 9 to 14) (size 15 to 20)
#    0.000    1.538    1.538    1.846    8.615    2.462 
#    2.769    0.769    0.000    0.000    0.000    0.000 
#    0.000    0.000    0.000    0.000    0.000    0.000 
#
# Total GULP energy -644426.530224 kJ/mol
# GULP energy per Si atom -12392.817889 kJ/mol
# Density = 2.103715 g / cm^3
# Si number density = 21.085139 Si / 1000 Ang^3
#
#
#
# Elastic Constant Matrix: (Units=GPa)
#
#
# Indices 1 2 3 4 5 6 
#
# 1 85.5665 29.2698 36.5038 0.0000 0.0000 0.0000
# 2 29.2698 124.0028 62.1141 0.0000 0.0000 0.0000
# 3 36.5038 62.1141 136.9722 0.0000 0.0000 0.0000
# 4 0.0000 0.0000 0.0000 -3.0814 0.0000 0.0000
# 5 0.0000 0.0000 0.0000 0.0000 33.4404 0.0000
# 6 0.0000 0.0000 0.0000 0.0000 0.0000 31.8408
#
#
#
# Elastic Compliance Matrix: (Units=1/GPa)
#
#
# Indices 1 2 3 4 5 6 
#
# 1 0.013486 -0.001789 -0.002783 0.000000 0.000000 0.000000
# 2 -0.001789 0.010672 -0.004363 0.000000 0.000000 0.000000
# 3 -0.002783 -0.004363 0.010021 0.000000 0.000000 0.000000
# 4 0.000000 0.000000 0.000000 -0.324523 0.000000 0.000000
# 5 0.000000 0.000000 0.000000 0.000000 0.029904 0.000000
# 6 0.000000 0.000000 0.000000 0.000000 0.000000 0.031406
#
#
# Mechanical properties :
#
#
# Convention : Reuss Voigt Hill
#
# Bulk Modulus (GPa) = 61.31453 66.92410 64.11932
# Shear Modulus (GPa) = -24.30395 27.01688 1.35647
#
# Velocity S-wave (km/s) = -3.39876 3.58344 0.80295
# Velocity P-wave (km/s) = 3.70682 6.99502 5.59780
#
# Compressibility (1/GPa) = 0.01630935
#
# Stress axis : x y z
#
# Youngs Moduli (GPa) = 74.15083 93.70312 99.79330
#
# Poissons Ratio (x) = 0.16767 0.27769
# Poissons Ratio (y) = 0.13269 0.43536
# Poissons Ratio (z) = 0.20633 0.40879
#
# Static dielectric constant tensor:
#      x y z
#    x 3.865910 0.000000 0.000000 
#    y 0.000000 10.431570 0.000000 
#    z 0.000000 0.000000 4.678130 
# 
# 
# High freq. dielectric constant tensor:
#      x y z
#    x 1.822910 0.000000 0.000000 
#    y 0.000000 1.841620 0.000000 
#    z 0.000000 0.000000 1.834550 
# 
# From -- ./inp_files/18165.got.cif
#   From: 2010.03.12/outbox.cif.g09.slc.cpg/sg56_10_cif.got.tgz:18165.got - 2010.04.16 15:33:40.
