data_PCOD8229182
_publ_section_title
;
Structure prediction by ZEFSAII (Michael W. Deem and Ramdas Pophale) SiO2 
 PCOD8229182
Probable space group: P C C N
;
_chemical_formula_sum "Si O2"
_cell_formula_units_Z 40
_cell_length_a 8.929803
_cell_length_b 11.512527
_cell_length_c 17.385831
_cell_angle_alpha 90.000000
_cell_angle_beta 90.000000
_cell_angle_gamma 90.000000
_cell_volume 1787.343369
_symmetry_space_group_name_H-M "P C C N"
_symmetry_group_IT_number 56
_symmetry_cell_setting 'orthorhombic'
loop_
_space_group_symop_operation_xyz
x,y,z
1/2-x,1/2-y,z
1/2+x,-y,1/2-z
-x,1/2+y,1/2-z
-x,-y,-z
1/2+x,1/2+y,-z
1/2-x,y,1/2+z
x,1/2-y,1/2+z
loop_
_atom_site_type_symbol
_atom_site_label
_atom_site_fract_x
_atom_site_fract_y
_atom_site_fract_z
Si Si1 0.998257 0.542989 0.086289
Si Si2 0.142618 0.855217 0.319077
Si Si3 0.077956 0.784746 0.039968
Si Si4 0.908883 0.704574 0.383023
Si Si5 0.820764 0.463139 0.344241
O O1 0.982286 0.682729 0.082685
O O2 0.153633 0.512803 0.127491
O O3 0.861477 0.473807 0.128843
O O4 0.000000 0.500000 0.000000
O O5 0.250000 0.750000 0.348799
O O6 0.186382 0.889231 0.233432
O O7 0.977004 0.800852 0.325739
O O8 0.250000 0.750000 0.026851
O O9 0.075631 0.895993 0.094753
O O10 0.008028 0.816807 0.958439
O O11 0.750000 0.750000 0.412276
O O12 0.900684 0.586869 0.333012
#
# Coordination Sequence:
#
# PCOD8229182 Si02
#       5
#     8   8   8   8   8
#     4  11  22  46  73 102 142 193 244 305 364 449
#     4  12  27  45  73 106 144 200 241 302 377 440
#     4  10  22  44  72 103 137 191 247 299 370 447
#     4  12  24  45  68 104 147 189 247 308 361 441
#     4  11  26  44  74 104 149 188 249 301 377 437
#
# _framework density 22.379583
#
# number of rings (size 3 to 8) (size 9 to 14) (size 15 to 20)
#    0.000    0.800    4.000    3.000    8.400    0.000 
#    3.600    1.000    0.000    0.000    0.000    0.000 
#    0.000    0.000    0.000    0.000    0.000    0.000 
#
# Total GULP energy -495784.192433 kJ/mol
# GULP energy per Si atom -12394.604811 kJ/mol
# Density = 2.232865 g / cm^3
# Si number density = 22.379583 Si / 1000 Ang^3
#
#
#
# Elastic Constant Matrix: (Units=GPa)
#
#
# Indices 1 2 3 4 5 6 
#
# 1 75.0939 30.5811 48.9323 0.0000 0.0000 0.0000
# 2 30.5811 117.0197 29.5220 0.0000 0.0000 0.0000
# 3 48.9323 29.5220 120.5655 0.0000 0.0000 0.0000
# 4 0.0000 0.0000 0.0000 31.3810 0.0000 0.0000
# 5 0.0000 0.0000 0.0000 0.0000 29.5896 0.0000
# 6 0.0000 0.0000 0.0000 0.0000 0.0000 47.4191
#
#
#
# Elastic Compliance Matrix: (Units=1/GPa)
#
#
# Indices 1 2 3 4 5 6 
#
# 1 0.019200 -0.003253 -0.006996 0.000000 0.000000 0.000000
# 2 -0.003253 0.009659 -0.001045 0.000000 0.000000 0.000000
# 3 -0.006996 -0.001045 0.011390 0.000000 0.000000 0.000000
# 4 0.000000 0.000000 0.000000 0.031866 0.000000 0.000000
# 5 0.000000 0.000000 0.000000 0.000000 0.033796 0.000000
# 6 0.000000 0.000000 0.000000 0.000000 0.000000 0.021089
#
#
# Mechanical properties :
#
#
# Convention : Reuss Voigt Hill
#
# Bulk Modulus (GPa) = 56.62090 58.97220 57.79655
# Shear Modulus (GPa) = 32.15976 35.25418 33.70697
#
# Velocity S-wave (km/s) = 3.79491 3.97329 3.88512
# Velocity P-wave (km/s) = 6.67510 6.88894 6.78286
#
# Compressibility (1/GPa) = 0.01766132
#
# Stress axis : x y z
#
# Youngs Moduli (GPa) = 52.08354 103.52782 87.80004
#
# Poissons Ratio (x) = 0.33674 0.61425
# Poissons Ratio (y) = 0.16941 0.09176
# Poissons Ratio (z) = 0.36438 0.10820
#
# Static dielectric constant tensor:
#      x y z
#    x 4.102760 0.000000 0.000000 
#    y 0.000000 4.836090 0.000000 
#    z 0.000000 0.000000 3.847210 
# 
# 
# High freq. dielectric constant tensor:
#      x y z
#    x 1.866080 0.000000 0.000000 
#    y 0.000000 1.906750 0.000000 
#    z 0.000000 0.000000 1.872830 
# 
# From -- ./inp_files/14410.got.cif
#   From: 2010.03.12/outbox.cif.g09.slc.cpg/sg56_8_cif.got.tgz:14410.got - 2010.04.16 15:33:40.
