data_PCOD8229444
_publ_section_title
;
Structure prediction by ZEFSAII (Michael W. Deem and Ramdas Pophale) SiO2 
 PCOD8229444
Probable space group: P C C N
;
_chemical_formula_sum "Si O2"
_cell_formula_units_Z 48
_cell_length_a 8.814966
_cell_length_b 17.633348
_cell_length_c 13.919345
_cell_angle_alpha 90.000000
_cell_angle_beta 90.000000
_cell_angle_gamma 90.000000
_cell_volume 2163.586283
_symmetry_space_group_name_H-M "P C C N"
_symmetry_group_IT_number 56
_symmetry_cell_setting 'orthorhombic'
loop_
_space_group_symop_operation_xyz
x,y,z
1/2-x,1/2-y,z
1/2+x,-y,1/2-z
-x,1/2+y,1/2-z
-x,-y,-z
1/2+x,1/2+y,-z
1/2-x,y,1/2+z
x,1/2-y,1/2+z
loop_
_atom_site_type_symbol
_atom_site_label
_atom_site_fract_x
_atom_site_fract_y
_atom_site_fract_z
Si Si1 0.432430 0.563237 0.930660
Si Si2 0.426946 0.252393 0.349236
Si Si3 0.897358 0.484591 0.092943
Si Si4 0.073365 0.737587 0.456171
Si Si5 0.929736 0.854271 0.313398
Si Si6 0.107774 0.100902 0.244400
O O1 0.254010 0.555136 0.942779
O O2 0.476925 0.649654 0.955800
O O3 0.491768 0.551722 0.821149
O O4 0.500000 0.500000 0.000000
O O5 0.250000 0.250000 0.380987
O O6 0.540064 0.266297 0.436747
O O7 0.465323 0.173945 0.294670
O O8 0.464457 0.318807 0.273376
O O9 0.858677 0.559374 0.154171
O O10 0.972115 0.427442 0.166981
O O11 0.000000 0.500000 0.000000
O O12 0.250000 0.750000 0.429636
O O13 0.964523 0.786464 0.387568
O O14 0.756029 0.881841 0.319485
#
# Coordination Sequence:
#
# PCOD8229444 Si02
#       6
#     8   8   8   8   8   8
#     4  12  28  44  70 108 141 191 246 302 371 440
#     4  10  25  42  73 102 136 185 237 295 364 436
#     4  12  26  47  73 104 149 188 239 305 371 440
#     4  12  26  46  72 103 146 189 244 305 369 436
#     4  11  24  49  70 106 142 190 241 302 362 444
#     4  11  25  46  73 105 142 189 239 296 370 439
#
# _framework density 22.185386999999999
#
# number of rings (size 3 to 8) (size 9 to 14) (size 15 to 20)
#    0.000    0.667    3.333    3.000    9.333    2.000 
#    0.000    0.000    0.000    0.000    0.000    0.000 
#    0.000    0.000    0.000    0.000    0.000    0.000 
#
# Total GULP energy -595194.515613 kJ/mol
# GULP energy per Si atom -12399.885742 kJ/mol
# Density = 2.213489 g / cm^3
# Si number density = 22.185387 Si / 1000 Ang^3
#
#
#
# Elastic Constant Matrix: (Units=GPa)
#
#
# Indices 1 2 3 4 5 6 
#
# 1 119.6837 41.0398 60.2808 0.0000 0.0000 0.0000
# 2 41.0398 111.3122 32.5590 0.0000 0.0000 0.0000
# 3 60.2808 32.5590 109.3785 0.0000 0.0000 0.0000
# 4 0.0000 0.0000 0.0000 40.1635 0.0000 0.0000
# 5 0.0000 0.0000 0.0000 0.0000 39.2179 0.0000
# 6 0.0000 0.0000 0.0000 0.0000 0.0000 40.2263
#
#
#
# Elastic Compliance Matrix: (Units=1/GPa)
#
#
# Indices 1 2 3 4 5 6 
#
# 1 0.012313 -0.002799 -0.005953 0.000000 0.000000 0.000000
# 2 -0.002799 0.010477 -0.001576 0.000000 0.000000 0.000000
# 3 -0.005953 -0.001576 0.012893 0.000000 0.000000 0.000000
# 4 0.000000 0.000000 0.000000 0.024898 0.000000 0.000000
# 5 0.000000 0.000000 0.000000 0.000000 0.025499 0.000000
# 6 0.000000 0.000000 0.000000 0.000000 0.000000 0.024859
#
#
# Mechanical properties :
#
#
# Convention : Reuss Voigt Hill
#
# Bulk Modulus (GPa) = 66.54774 67.57039 67.05906
# Shear Modulus (GPa) = 36.60229 37.68787 37.14508
#
# Velocity S-wave (km/s) = 4.06623 4.12608 4.09626
# Velocity P-wave (km/s) = 7.21851 7.29539 7.25705
#
# Compressibility (1/GPa) = 0.01502681
#
# Stress axis : x y z
#
# Youngs Moduli (GPa) = 81.21267 95.45084 77.56359
#
# Poissons Ratio (x) = 0.26712 0.46174
# Poissons Ratio (y) = 0.22728 0.12226
# Poissons Ratio (z) = 0.48347 0.15046
#
# Static dielectric constant tensor:
#      x y z
#    x 3.621370 0.000000 0.000000 
#    y 0.000000 4.169990 0.000000 
#    z 0.000000 0.000000 3.831620 
# 
# 
# High freq. dielectric constant tensor:
#      x y z
#    x 1.867240 0.000000 0.000000 
#    y 0.000000 1.891950 0.000000 
#    z 0.000000 0.000000 1.877590 
# 
# From -- ./inp_files/10656.got.cif
#   From: 2010.03.12/outbox.cif.g09.slc.cpg/sg56_6_cif.got.tgz:10656.got - 2010.04.16 15:33:40.
