data_PCOD8229825
_publ_section_title
;
Structure prediction by ZEFSAII (Michael W. Deem and Ramdas Pophale) SiO2 
 PCOD8229825
Probable space group: P C C N
;
_chemical_formula_sum "Si O2"
_cell_formula_units_Z 24
_cell_length_a 4.850627
_cell_length_b 15.487139
_cell_length_c 13.935846
_cell_angle_alpha 90.000000
_cell_angle_beta 90.000000
_cell_angle_gamma 90.000000
_cell_volume 1046.893286
_symmetry_space_group_name_H-M "P C C N"
_symmetry_group_IT_number 56
_symmetry_cell_setting 'orthorhombic'
loop_
_space_group_symop_operation_xyz
x,y,z
1/2-x,1/2-y,z
1/2+x,-y,1/2-z
-x,1/2+y,1/2-z
-x,-y,-z
1/2+x,1/2+y,-z
1/2-x,y,1/2+z
x,1/2-y,1/2+z
loop_
_atom_site_type_symbol
_atom_site_label
_atom_site_fract_x
_atom_site_fract_y
_atom_site_fract_z
Si Si1 0.572555 0.946835 0.769203
Si Si2 0.984630 0.806933 0.121619
Si Si3 0.752816 0.938744 0.976581
O O1 0.424184 0.875467 0.702176
O O2 0.713634 0.910821 0.865693
O O3 0.320678 0.011618 0.793930
O O4 0.750000 0.750000 0.172560
O O5 0.250000 0.750000 0.088575
O O6 0.817219 0.850135 0.032669
O O7 0.500000 0.000000 0.000000
O O8 0.000000 0.000000 0.000000
#
# Coordination Sequence:
#
# PCOD8229825 Si02
#       3
#     8   8   8
#     4  12  23  44  74 104 138 194 249 292 356 445
#     4  12  26  44  70 108 153 180 235 315 370 417
#     4  12  23  44  74 104 138 195 250 291 355 448
#
# _framework density 22.924970999999999
#
# number of rings (size 3 to 8) (size 9 to 14) (size 15 to 20)
#    0.000    0.000    6.667    4.000    0.000    1.333 
#    0.000    3.333    0.000    0.000    0.000    0.000 
#    0.000    0.000    0.000    0.000    0.000    0.000 
#
# Total GULP energy -297353.202112 kJ/mol
# GULP energy per Si atom -12389.716755 kJ/mol
# Density = 2.287279 g / cm^3
# Si number density = 22.924971 Si / 1000 Ang^3
#
#
#
# Elastic Constant Matrix: (Units=GPa)
#
#
# Indices 1 2 3 4 5 6 
#
# 1 173.3239 61.8873 32.5619 0.0000 0.0000 0.0000
# 2 61.8873 107.9014 53.5082 0.0000 0.0000 0.0000
# 3 32.5619 53.5082 128.2409 0.0000 0.0000 0.0000
# 4 0.0000 0.0000 0.0000 21.6685 0.0000 0.0000
# 5 0.0000 0.0000 0.0000 0.0000 35.0864 0.0000
# 6 0.0000 0.0000 0.0000 0.0000 0.0000 61.9207
#
#
#
# Elastic Compliance Matrix: (Units=1/GPa)
#
#
# Indices 1 2 3 4 5 6 
#
# 1 0.007257 -0.004096 -0.000134 0.000000 0.000000 0.000000
# 2 -0.004096 0.013998 -0.004800 0.000000 0.000000 0.000000
# 3 -0.000134 -0.004800 0.009835 0.000000 0.000000 0.000000
# 4 0.000000 0.000000 0.000000 0.046150 0.000000 0.000000
# 5 0.000000 0.000000 0.000000 0.000000 0.028501 0.000000
# 6 0.000000 0.000000 0.000000 0.000000 0.000000 0.016150
#
#
# Mechanical properties :
#
#
# Convention : Reuss Voigt Hill
#
# Bulk Modulus (GPa) = 76.75050 78.37567 77.56308
# Shear Modulus (GPa) = 34.65159 41.16905 37.91032
#
# Velocity S-wave (km/s) = 3.89205 4.24231 4.07094
# Velocity P-wave (km/s) = 7.33137 7.63271 7.48356
#
# Compressibility (1/GPa) = 0.01302923
#
# Stress axis : x y z
#
# Youngs Moduli (GPa) = 137.79372 71.44081 101.68084
#
# Poissons Ratio (x) = 0.29263 0.01358
# Poissons Ratio (y) = 0.56443 0.48811
# Poissons Ratio (z) = 0.01841 0.34294
#
# Static dielectric constant tensor:
#      x y z
#    x 4.183770 0.000000 0.000000 
#    y 0.000000 3.584140 0.000000 
#    z 0.000000 0.000000 4.366550 
# 
# 
# High freq. dielectric constant tensor:
#      x y z
#    x 1.930740 0.000000 0.000000 
#    y 0.000000 1.899810 0.000000 
#    z 0.000000 0.000000 1.902470 
# 
# From -- ./inp_files/9271.got.cif
#   From: 2010.03.12/outbox.cif.g09.slc.cpg/sg56_5_cif.got.tgz:9271.got - 2010.04.16 15:33:40.
