data_PCOD8229819
_publ_section_title
;
Structure prediction by ZEFSAII (Michael W. Deem and Ramdas Pophale) SiO2 
 PCOD8229819
Probable space group: P C C N
;
_chemical_formula_sum "Si O2"
_cell_formula_units_Z 32
_cell_length_a 4.812007
_cell_length_b 12.774948
_cell_length_c 21.921028
_cell_angle_alpha 90.000000
_cell_angle_beta 90.000000
_cell_angle_gamma 90.000000
_cell_volume 1347.554406
_symmetry_space_group_name_H-M "P C C N"
_symmetry_group_IT_number 56
_symmetry_cell_setting 'orthorhombic'
loop_
_space_group_symop_operation_xyz
x,y,z
1/2-x,1/2-y,z
1/2+x,-y,1/2-z
-x,1/2+y,1/2-z
-x,-y,-z
1/2+x,1/2+y,-z
1/2-x,y,1/2+z
x,1/2-y,1/2+z
loop_
_atom_site_type_symbol
_atom_site_label
_atom_site_fract_x
_atom_site_fract_y
_atom_site_fract_z
Si Si1 0.876375 0.862515 0.615146
Si Si2 0.502440 0.183029 0.638658
Si Si3 0.111611 0.986352 0.067661
Si Si4 0.482443 0.569465 0.744799
O O1 0.750000 0.750000 0.593973
O O2 0.621642 0.941560 0.612712
O O3 0.988840 0.858704 0.684281
O O4 0.117958 0.909685 0.570596
O O5 0.750000 0.250000 0.606182
O O6 0.645151 0.133995 0.698961
O O7 0.250000 0.250000 0.664004
O O8 0.348925 0.103707 0.591986
O O9 0.000000 0.000000 0.000000
O O10 0.277573 0.473388 0.731162
#
# Coordination Sequence:
#
# PCOD8229819 Si02
#       4
#     8   8   8   8
#     4  12  25  46  74 105 140 187 237 297 365 430
#     4  12  25  43  71 102 139 184 233 287 358 428
#     4  12  27  48  70 101 144 190 243 299 350 422
#     4  12  22  43  72 102 145 183 224 295 369 431
#
# _framework density 23.746725000000001
#
# number of rings (size 3 to 8) (size 9 to 14) (size 15 to 20)
#    0.000    0.000    5.000    5.250    0.000    5.000 
#    0.000    0.000    0.000    0.000    0.000    0.000 
#    0.000    0.000    0.000    0.000    0.000    0.000 
#
# Total GULP energy -396705.689627 kJ/mol
# GULP energy per Si atom -12397.052801 kJ/mol
# Density = 2.369268 g / cm^3
# Si number density = 23.746725 Si / 1000 Ang^3
#
#
#
# Elastic Constant Matrix: (Units=GPa)
#
#
# Indices 1 2 3 4 5 6 
#
# 1 136.0417 57.3424 15.3799 0.0000 0.0000 0.0000
# 2 57.3424 123.1108 56.1159 0.0000 0.0000 0.0000
# 3 15.3799 56.1159 90.9902 0.0000 0.0000 0.0000
# 4 0.0000 0.0000 0.0000 15.4200 0.0000 0.0000
# 5 0.0000 0.0000 0.0000 0.0000 35.1580 0.0000
# 6 0.0000 0.0000 0.0000 0.0000 0.0000 51.5780
#
#
#
# Elastic Compliance Matrix: (Units=1/GPa)
#
#
# Indices 1 2 3 4 5 6 
#
# 1 0.009297 -0.005027 0.001529 0.000000 0.000000 0.000000
# 2 -0.005027 0.014018 -0.007795 0.000000 0.000000 0.000000
# 3 0.001529 -0.007795 0.015539 0.000000 0.000000 0.000000
# 4 0.000000 0.000000 0.000000 0.064851 0.000000 0.000000
# 5 0.000000 0.000000 0.000000 0.000000 0.028443 0.000000
# 6 0.000000 0.000000 0.000000 0.000000 0.000000 0.019388
#
#
# Mechanical properties :
#
#
# Convention : Reuss Voigt Hill
#
# Bulk Modulus (GPa) = 61.47518 67.53546 64.50532
# Shear Modulus (GPa) = 27.84818 35.18480 31.51649
#
# Velocity S-wave (km/s) = 3.42821 3.85342 3.64702
# Velocity P-wave (km/s) = 6.45091 6.94983 6.70501
#
# Compressibility (1/GPa) = 0.01626673
#
# Stress axis : x y z
#
# Youngs Moduli (GPa) = 107.56354 71.33929 64.35308
#
# Poissons Ratio (x) = 0.35864 -0.09839
# Poissons Ratio (y) = 0.54074 0.50165
# Poissons Ratio (z) = -0.16446 0.55611
#
# Static dielectric constant tensor:
#      x y z
#    x 4.377400 0.000000 0.000000 
#    y 0.000000 4.532050 0.000000 
#    z 0.000000 0.000000 3.904950 
# 
# 
# High freq. dielectric constant tensor:
#      x y z
#    x 1.954430 0.000000 0.000000 
#    y 0.000000 1.946260 0.000000 
#    z 0.000000 0.000000 1.927610 
# 
# From -- ./inp_files/17266.got.cif
#   From: 2010.03.12/outbox.cif.g09.slc.cpg/sg56_9_cif.got.tgz:17266.got - 2010.04.16 15:33:40.
