data_PCOD8229792
_publ_section_title
;
Structure prediction by ZEFSAII (Michael W. Deem and Ramdas Pophale) SiO2 
 PCOD8229792
Probable space group: P C C N
;
_chemical_formula_sum "Si O2"
_cell_formula_units_Z 32
_cell_length_a 5.175742
_cell_length_b 22.060945
_cell_length_c 10.038581
_cell_angle_alpha 90.000000
_cell_angle_beta 90.000000
_cell_angle_gamma 90.000000
_cell_volume 1146.222842
_symmetry_space_group_name_H-M "P C C N"
_symmetry_group_IT_number 56
_symmetry_cell_setting 'orthorhombic'
loop_
_space_group_symop_operation_xyz
x,y,z
1/2-x,1/2-y,z
1/2+x,-y,1/2-z
-x,1/2+y,1/2-z
-x,-y,-z
1/2+x,1/2+y,-z
1/2-x,y,1/2+z
x,1/2-y,1/2+z
loop_
_atom_site_type_symbol
_atom_site_label
_atom_site_fract_x
_atom_site_fract_y
_atom_site_fract_z
Si Si1 0.405767 0.345685 0.736541
Si Si2 0.250000 0.750000 0.633574
Si Si3 0.535069 0.924572 0.149176
Si Si4 0.250000 0.250000 0.043510
Si Si5 0.718042 0.443894 0.603370
O O1 0.665816 0.308096 0.776484
O O2 0.217947 0.307198 0.641004
O O3 0.476173 0.409339 0.668556
O O4 0.225072 0.365803 0.862670
O O5 0.498730 0.736638 0.544449
O O6 0.466263 0.929171 0.306634
O O7 0.686571 0.983986 0.100335
O O8 0.281583 0.918965 0.051306
#
# Coordination Sequence:
#
# PCOD8229792 Si02
#       5
#     8   4   8   4   8
#     4  12  28  51  79 118 167 221 289 352 432 516
#     4  12  30  52  82 118 168 226 290 352 426 502
#     4  11  26  50  79 127 165 225 279 356 433 525
#     4  12  30  52  78 118 168 226 286 354 424 504
#     4  11  26  47  80 119 170 217 280 348 437 514
#
# _framework density 27.917781000000002
#
# number of rings (size 3 to 8) (size 9 to 14) (size 15 to 20)
#    0.000    0.500    2.500    3.000   14.000    3.000 
#    0.000    0.000    0.000    0.000    0.000    0.000 
#    0.000    0.000    0.000    0.000    0.000    0.000 
#
# Total GULP energy -396497.511468 kJ/mol
# GULP energy per Si atom -12390.547233 kJ/mol
# Density = 2.785424 g / cm^3
# Si number density = 27.917781 Si / 1000 Ang^3
#
#
#
# Elastic Constant Matrix: (Units=GPa)
#
#
# Indices 1 2 3 4 5 6 
#
# 1 120.9615 39.6602 51.4236 0.0000 0.0000 0.0000
# 2 39.6602 114.0668 52.5711 0.0000 0.0000 0.0000
# 3 51.4236 52.5711 130.7397 0.0000 0.0000 0.0000
# 4 0.0000 0.0000 0.0000 29.1279 0.0000 0.0000
# 5 0.0000 0.0000 0.0000 0.0000 50.7639 0.0000
# 6 0.0000 0.0000 0.0000 0.0000 0.0000 50.1392
#
#
#
# Elastic Compliance Matrix: (Units=1/GPa)
#
#
# Indices 1 2 3 4 5 6 
#
# 1 0.010324 -0.002109 -0.003213 0.000000 0.000000 0.000000
# 2 -0.002109 0.011192 -0.003671 0.000000 0.000000 0.000000
# 3 -0.003213 -0.003671 0.010389 0.000000 0.000000 0.000000
# 4 0.000000 0.000000 0.000000 0.034331 0.000000 0.000000
# 5 0.000000 0.000000 0.000000 0.000000 0.019699 0.000000
# 6 0.000000 0.000000 0.000000 0.000000 0.000000 0.019944
#
#
# Mechanical properties :
#
#
# Convention : Reuss Voigt Hill
#
# Bulk Modulus (GPa) = 71.84126 72.56421 72.20274
# Shear Modulus (GPa) = 38.90907 40.81376 39.86141
#
# Velocity S-wave (km/s) = 3.73728 3.82766 3.78274
# Velocity P-wave (km/s) = 6.66424 6.75153 6.70803
#
# Compressibility (1/GPa) = 0.01391958
#
# Stress axis : x y z
#
# Youngs Moduli (GPa) = 96.85754 89.35064 96.26002
#
# Poissons Ratio (x) = 0.18844 0.30927
# Poissons Ratio (y) = 0.20427 0.35335
# Poissons Ratio (z) = 0.31119 0.32799
#
# Static dielectric constant tensor:
#      x y z
#    x 3.947420 0.000000 0.000000 
#    y 0.000000 5.120580 0.000000 
#    z 0.000000 0.000000 5.520440 
# 
# 
# High freq. dielectric constant tensor:
#      x y z
#    x 2.112300 0.000000 0.000000 
#    y 0.000000 2.148210 0.000000 
#    z 0.000000 0.000000 2.133320 
# 
# From -- ./inp_files/5462.got.cif
#   From: 2010.03.12/outbox.cif.g09.slc.cpg/sg56_3_cif.got.tgz:5462.got - 2010.04.16 15:33:40.
