data_PCOD8229307
_publ_section_title
;
Structure prediction by ZEFSAII (Michael W. Deem and Ramdas Pophale) SiO2 
 PCOD8229307
Probable space group: P C C N
;
_chemical_formula_sum "Si O2"
_cell_formula_units_Z 36
_cell_length_a 7.988864
_cell_length_b 12.522424
_cell_length_c 16.641236
_cell_angle_alpha 90.000000
_cell_angle_beta 90.000000
_cell_angle_gamma 90.000000
_cell_volume 1664.788289
_symmetry_space_group_name_H-M "P C C N"
_symmetry_group_IT_number 56
_symmetry_cell_setting 'orthorhombic'
loop_
_space_group_symop_operation_xyz
x,y,z
1/2-x,1/2-y,z
1/2+x,-y,1/2-z
-x,1/2+y,1/2-z
-x,-y,-z
1/2+x,1/2+y,-z
1/2-x,y,1/2+z
x,1/2-y,1/2+z
loop_
_atom_site_type_symbol
_atom_site_label
_atom_site_fract_x
_atom_site_fract_y
_atom_site_fract_z
Si Si1 0.430270 0.796681 0.824425
Si Si2 0.551212 0.757489 0.154492
Si Si3 0.116926 0.089264 0.965679
Si Si4 0.061568 0.483450 0.908819
Si Si5 0.250000 0.250000 0.083703
O O1 0.250000 0.750000 0.853531
O O2 0.443529 0.784535 0.728971
O O3 0.581891 0.731851 0.864816
O O4 0.470738 0.917578 0.850190
O O5 0.750000 0.750000 0.172623
O O6 0.508664 0.680351 0.078984
O O7 0.485290 0.875699 0.130948
O O8 0.237867 0.028387 0.904455
O O9 0.246969 0.143660 0.028901
O O10 0.000000 0.000000 0.000000
O O11 0.000000 0.500000 0.000000
#
# Coordination Sequence:
#
# PCOD8229307 Si02
#       5
#     8   8   8   8   4
#     4  12  26  43  69 106 139 183 236 288 363 428
#     4  10  23  45  65  97 142 182 233 289 359 427
#     4  11  22  42  72  99 135 190 237 289 364 418
#     4  11  22  42  70  96 137 183 233 292 346 422
#     4  12  22  46  72  98 146 180 234 306 344 430
#
# _framework density 21.624372000000001
#
# number of rings (size 3 to 8) (size 9 to 14) (size 15 to 20)
#    0.000    0.889    6.667    1.333    0.000    7.111 
#    0.000    1.111    0.000    0.000    0.000    0.000 
#    0.000    0.000    0.000    0.000    0.000    0.000 
#
# Total GULP energy -446154.374127 kJ/mol
# GULP energy per Si atom -12393.177059 kJ/mol
# Density = 2.157515 g / cm^3
# Si number density = 21.624372 Si / 1000 Ang^3
#
#
#
# Elastic Constant Matrix: (Units=GPa)
#
#
# Indices 1 2 3 4 5 6 
#
# 1 92.3164 32.4311 32.9871 0.0000 0.0000 0.0000
# 2 32.4311 157.9361 72.4385 0.0000 0.0000 0.0000
# 3 32.9871 72.4385 126.8751 0.0000 0.0000 0.0000
# 4 0.0000 0.0000 0.0000 45.8207 0.0000 0.0000
# 5 0.0000 0.0000 0.0000 0.0000 32.3613 0.0000
# 6 0.0000 0.0000 0.0000 0.0000 0.0000 37.2413
#
#
#
# Elastic Compliance Matrix: (Units=1/GPa)
#
#
# Indices 1 2 3 4 5 6 
#
# 1 0.012172 -0.001420 -0.002354 0.000000 0.000000 0.000000
# 2 -0.001420 0.008744 -0.004623 0.000000 0.000000 0.000000
# 3 -0.002354 -0.004623 0.011133 0.000000 0.000000 0.000000
# 4 0.000000 0.000000 0.000000 0.021824 0.000000 0.000000
# 5 0.000000 0.000000 0.000000 0.000000 0.030901 0.000000
# 6 0.000000 0.000000 0.000000 0.000000 0.000000 0.026852
#
#
# Mechanical properties :
#
#
# Convention : Reuss Voigt Hill
#
# Bulk Modulus (GPa) = 65.55049 72.53788 69.04419
# Shear Modulus (GPa) = 37.45175 39.03607 38.24391
#
# Velocity S-wave (km/s) = 4.16615 4.25336 4.20998
# Velocity P-wave (km/s) = 7.31584 7.59860 7.45856
#
# Compressibility (1/GPa) = 0.01525542
#
# Stress axis : x y z
#
# Youngs Moduli (GPa) = 82.15396 114.37004 89.82084
#
# Poissons Ratio (x) = 0.16238 0.21145
# Poissons Ratio (y) = 0.11664 0.41524
# Poissons Ratio (z) = 0.19340 0.52873
#
# Static dielectric constant tensor:
#      x y z
#    x 3.794130 0.000000 0.000000 
#    y 0.000000 4.028570 0.000000 
#    z 0.000000 0.000000 3.882700 
# 
# 
# High freq. dielectric constant tensor:
#      x y z
#    x 1.839660 0.000000 0.000000 
#    y 0.000000 1.860360 0.000000 
#    z 0.000000 0.000000 1.844730 
# 
# From -- ./inp_files/10320.got.cif
#   From: 2010.03.12/outbox.cif.g09.slc.cpg/sg56_6_cif.got.tgz:10320.got - 2010.04.16 15:33:40.
