data_PCOD8229827
_publ_section_title
;
Structure prediction by ZEFSAII (Michael W. Deem and Ramdas Pophale) SiO2 
 PCOD8229827
Probable space group: P C C N
;
_chemical_formula_sum "Si O2"
_cell_formula_units_Z 48
_cell_length_a 12.469348
_cell_length_b 15.228737
_cell_length_c 10.393382
_cell_angle_alpha 90.000000
_cell_angle_beta 90.000000
_cell_angle_gamma 90.000000
_cell_volume 1973.624473
_symmetry_space_group_name_H-M "P C C N"
_symmetry_group_IT_number 56
_symmetry_cell_setting 'orthorhombic'
loop_
_space_group_symop_operation_xyz
x,y,z
1/2-x,1/2-y,z
1/2+x,-y,1/2-z
-x,1/2+y,1/2-z
-x,-y,-z
1/2+x,1/2+y,-z
1/2-x,y,1/2+z
x,1/2-y,1/2+z
loop_
_atom_site_type_symbol
_atom_site_label
_atom_site_fract_x
_atom_site_fract_y
_atom_site_fract_z
Si Si1 0.013281 0.282053 0.745197
Si Si2 0.374373 0.259573 0.496468
Si Si3 0.149626 0.872663 0.219774
Si Si4 0.107989 0.455786 0.047673
Si Si5 0.470740 0.522867 0.786813
Si Si6 0.711039 0.070704 0.547296
O O1 0.063644 0.297365 0.603152
O O2 0.910375 0.218364 0.746767
O O3 0.992328 0.383167 0.783014
O O4 0.093099 0.237336 0.849846
O O5 0.250000 0.250000 0.515945
O O6 0.412702 0.355080 0.531421
O O7 0.239908 0.877790 0.330657
O O8 0.206357 0.866716 0.079194
O O9 0.075503 0.960551 0.211898
O O10 0.119780 0.475904 0.199055
O O11 0.215020 0.485911 0.975815
O O12 0.000000 0.500000 0.000000
O O13 0.410565 0.537347 0.923270
#
# Coordination Sequence:
#
# PCOD8229827 Si02
#       6
#     8   8   8   8   8   8
#     4  12  27  49  71 109 152 193 245 320 373 443
#     4  12  27  44  77 110 148 194 255 309 382 450
#     4  12  27  49  75 107 152 192 249 314 370 448
#     4  12  23  49  75 103 154 200 241 311 382 443
#     4  12  26  49  76 107 149 196 250 307 378 445
#     4  12  26  46  78 109 142 203 250 298 376 456
#
# _framework density 24.320737999999999
#
# number of rings (size 3 to 8) (size 9 to 14) (size 15 to 20)
#    0.000    0.000    6.667    2.000    4.667    2.000 
#    3.000    0.000    0.000    0.000    0.000    0.000 
#    0.000    0.000    0.000    0.000    0.000    0.000 
#
# Total GULP energy -594959.745697 kJ/mol
# GULP energy per Si atom -12394.994702 kJ/mol
# Density = 2.426538 g / cm^3
# Si number density = 24.320738 Si / 1000 Ang^3
#
#
#
# Elastic Constant Matrix: (Units=GPa)
#
#
# Indices 1 2 3 4 5 6 
#
# 1 102.4841 27.0427 36.4717 0.0000 0.0000 0.0000
# 2 27.0427 95.7715 5.9650 0.0000 0.0000 0.0000
# 3 36.4717 5.9650 145.3180 0.0000 0.0000 0.0000
# 4 0.0000 0.0000 0.0000 23.5628 0.0000 0.0000
# 5 0.0000 0.0000 0.0000 0.0000 47.5501 0.0000
# 6 0.0000 0.0000 0.0000 0.0000 0.0000 29.7200
#
#
#
# Elastic Compliance Matrix: (Units=1/GPa)
#
#
# Indices 1 2 3 4 5 6 
#
# 1 0.011561 -0.003092 -0.002775 0.000000 0.000000 0.000000
# 2 -0.003092 0.011295 0.000312 0.000000 0.000000 0.000000
# 3 -0.002775 0.000312 0.007565 0.000000 0.000000 0.000000
# 4 0.000000 0.000000 0.000000 0.042440 0.000000 0.000000
# 5 0.000000 0.000000 0.000000 0.000000 0.021030 0.000000
# 6 0.000000 0.000000 0.000000 0.000000 0.000000 0.033647
#
#
# Mechanical properties :
#
#
# Convention : Reuss Voigt Hill
#
# Bulk Modulus (GPa) = 51.77850 53.61471 52.69661
# Shear Modulus (GPa) = 34.46280 38.43952 36.45116
#
# Velocity S-wave (km/s) = 3.76841 3.97989 3.87559
# Velocity P-wave (km/s) = 6.34591 6.57359 6.46076
#
# Compressibility (1/GPa) = 0.01931303
#
# Stress axis : x y z
#
# Youngs Moduli (GPa) = 86.49909 88.53451 132.18755
#
# Poissons Ratio (x) = 0.27371 0.36677
# Poissons Ratio (y) = 0.26742 -0.04128
# Poissons Ratio (z) = 0.24000 -0.02765
#
# Static dielectric constant tensor:
#      x y z
#    x 4.353740 0.000000 0.000000 
#    y 0.000000 4.395760 0.000000 
#    z 0.000000 0.000000 5.110910 
# 
# 
# High freq. dielectric constant tensor:
#      x y z
#    x 1.964910 0.000000 0.000000 
#    y 0.000000 1.960410 0.000000 
#    z 0.000000 0.000000 1.990320 
# 
# From -- ./inp_files/7145.got.cif
#   From: 2010.03.12/outbox.cif.g09.slc.cpg/sg56_4_cif.got.tgz:7145.got - 2010.04.16 15:33:40.
