data_PCOD8229516
_publ_section_title
;
Structure prediction by ZEFSAII (Michael W. Deem and Ramdas Pophale) SiO2 
 PCOD8229516
Probable space group: P C C N
;
_chemical_formula_sum "Si O2"
_cell_formula_units_Z 64
_cell_length_a 14.573743
_cell_length_b 9.407234
_cell_length_c 23.352075
_cell_angle_alpha 90.000000
_cell_angle_beta 90.000000
_cell_angle_gamma 90.000000
_cell_volume 3201.537038
_symmetry_space_group_name_H-M "P C C N"
_symmetry_group_IT_number 56
_symmetry_cell_setting 'orthorhombic'
loop_
_space_group_symop_operation_xyz
x,y,z
1/2-x,1/2-y,z
1/2+x,-y,1/2-z
-x,1/2+y,1/2-z
-x,-y,-z
1/2+x,1/2+y,-z
1/2-x,y,1/2+z
x,1/2-y,1/2+z
loop_
_atom_site_type_symbol
_atom_site_label
_atom_site_fract_x
_atom_site_fract_y
_atom_site_fract_z
Si Si1 0.984474 0.215460 0.057369
Si Si2 0.846661 0.325119 0.454279
Si Si3 0.044168 0.745448 0.155971
Si Si4 0.750901 0.905603 0.597828
Si Si5 0.858695 0.255098 0.228356
Si Si6 0.066159 0.967069 0.363053
Si Si7 0.922226 0.484866 0.652180
Si Si8 0.680131 0.638351 0.971115
O O1 0.983012 0.361856 0.092452
O O2 0.983094 0.086169 0.102485
O O3 0.079990 0.209668 0.023002
O O4 0.900554 0.195680 0.013804
O O5 0.750000 0.250000 0.461475
O O6 0.906475 0.256214 0.404657
O O7 0.828111 0.489690 0.437642
O O8 0.119810 0.770897 0.204754
O O9 0.002223 0.588224 0.159045
O O10 0.964255 0.861579 0.165686
O O11 0.750000 0.750000 0.626446
O O12 0.852126 0.967209 0.600007
O O13 0.719529 0.896657 0.532820
O O14 0.682597 0.006272 0.631917
O O15 0.750000 0.250000 0.219528
O O16 0.896697 0.389136 0.193298
O O17 0.914038 0.114752 0.207813
O O18 0.750000 0.750000 0.940089
#
# Coordination Sequence:
#
# PCOD8229516 Si02
#       8
#     8   8   8   8   8   8   8   8
#     4  11  24  42  64  98 130 176 216 269 333 386
#     4  12  25  41  64  95 137 178 216 267 329 407
#     4  12  25  43  65  94 133 174 218 266 341 396
#     4  11  20  37  65 100 125 162 214 277 317 374
#     4  11  24  44  67  94 126 169 221 282 334 390
#     4  11  25  41  69  98 128 165 231 278 323 394
#     4  11  21  41  70  88 128 168 219 270 324 393
#     4  11  24  40  64  95 137 174 216 264 327 394
#
# _framework density 19.990399
#
# number of rings (size 3 to 8) (size 9 to 14) (size 15 to 20)
#    0.000    0.750    5.000    3.000    3.500    0.500 
#    0.000    0.000    0.000    0.750    0.000    0.000 
#    0.000    0.000    0.000    0.000    0.000    0.000 
#
# Total GULP energy -793716.648407 kJ/mol
# GULP energy per Si atom -12401.822631 kJ/mol
# Density = 1.994490 g / cm^3
# Si number density = 19.990399 Si / 1000 Ang^3
#
#
#
# Elastic Constant Matrix: (Units=GPa)
#
#
# Indices 1 2 3 4 5 6 
#
# 1 116.8896 50.6280 23.4598 0.0000 0.0000 0.0000
# 2 50.6280 137.1394 33.4291 0.0000 0.0000 0.0000
# 3 23.4598 33.4291 80.8553 0.0000 0.0000 0.0000
# 4 0.0000 0.0000 0.0000 15.1830 0.0000 0.0000
# 5 0.0000 0.0000 0.0000 0.0000 20.6119 0.0000
# 6 0.0000 0.0000 0.0000 0.0000 0.0000 38.3515
#
#
#
# Elastic Compliance Matrix: (Units=1/GPa)
#
#
# Indices 1 2 3 4 5 6 
#
# 1 0.010363 -0.003439 -0.001585 0.000000 0.000000 0.000000
# 2 -0.003439 0.009251 -0.002827 0.000000 0.000000 0.000000
# 3 -0.001585 -0.002827 0.013996 0.000000 0.000000 0.000000
# 4 0.000000 0.000000 0.000000 0.065863 0.000000 0.000000
# 5 0.000000 0.000000 0.000000 0.000000 0.048516 0.000000
# 6 0.000000 0.000000 0.000000 0.000000 0.000000 0.026075
#
#
# Mechanical properties :
#
#
# Convention : Reuss Voigt Hill
#
# Bulk Modulus (GPa) = 55.84070 61.10202 58.47136
# Shear Modulus (GPa) = 25.54486 29.98711 27.76599
#
# Velocity S-wave (km/s) = 3.57859 3.87728 3.73093
# Velocity P-wave (km/s) = 6.71338 7.11874 6.91903
#
# Compressibility (1/GPa) = 0.01790809
#
# Stress axis : x y z
#
# Youngs Moduli (GPa) = 96.49881 108.10115 71.44771
#
# Poissons Ratio (x) = 0.37180 0.11323
# Poissons Ratio (y) = 0.33189 0.20196
# Poissons Ratio (z) = 0.15293 0.30557
#
# Static dielectric constant tensor:
#      x y z
#    x 3.706100 0.000000 0.000000 
#    y 0.000000 4.099840 0.000000 
#    z 0.000000 0.000000 3.434460 
# 
# 
# High freq. dielectric constant tensor:
#      x y z
#    x 1.789010 0.000000 0.000000 
#    y 0.000000 1.796670 0.000000 
#    z 0.000000 0.000000 1.765100 
# 
# From -- ./inp_files/21172.got.cif
#   From: 2010.03.12/outbox.cif.g09.slc.cpg/sg56_11_cif.got.tgz:21172.got - 2010.04.16 15:33:40.
