data_PCOD8229977
_publ_section_title
;
Structure prediction by ZEFSAII (Michael W. Deem and Ramdas Pophale) SiO2 
 PCOD8229977
Probable space group: P B C M
;
_chemical_formula_sum "Si O2"
_cell_formula_units_Z 48
_cell_length_a 11.991258
_cell_length_b 26.208918
_cell_length_c 8.421182
_cell_angle_alpha 90.000000
_cell_angle_beta 90.000000
_cell_angle_gamma 90.000000
_cell_volume 2646.591375
_symmetry_space_group_name_H-M "P B C M"
_symmetry_group_IT_number 57
_symmetry_cell_setting 'orthorhombic'
loop_
_space_group_symop_operation_xyz
x,y,z
-x,-y,1/2+z
x,1/2-y,-z
-x,1/2+y,1/2-z
-x,-y,-z
x,y,1/2-z
-x,1/2+y,z
x,1/2-y,1/2+z
loop_
_atom_site_type_symbol
_atom_site_label
_atom_site_fract_x
_atom_site_fract_y
_atom_site_fract_z
Si Si1 0.505540 0.123654 0.933199
Si Si2 0.040797 0.554014 0.935188
Si Si3 0.322063 0.306333 0.565300
Si Si4 0.714627 0.068488 0.561453
Si Si5 0.640768 0.540195 0.066000
Si Si6 0.177674 0.391488 0.434554
O O1 0.496431 0.140050 0.750000
O O2 0.635779 0.116832 0.986789
O O3 0.440741 0.165548 0.036781
O O4 0.450145 0.068098 0.956635
O O5 0.056603 0.545734 0.750000
O O6 0.159950 0.571962 0.009837
O O7 0.953268 0.599651 0.970707
O O8 0.000000 0.500000 0.000000
O O9 0.331798 0.250000 0.500000
O O10 0.296238 0.305383 0.750000
O O11 0.218927 0.334581 0.478319
O O12 0.720525 0.065612 0.750000
O O13 0.655461 0.016879 0.500229
O O14 0.605412 0.542905 0.250000
O O15 0.758665 0.568539 0.045464
O O16 0.204395 0.401837 0.250000
#
# Coordination Sequence:
#
# PCOD8229977 Si02
#       6
#     8   8   8   8   8   8
#     4  10  19  32  49  72 102 133 169 209 254 304
#     4  10  19  32  49  72 105 144 181 212 247 293
#     4  11  22  38  59  79 100 125 161 213 266 315
#     4   9  18  30  46  69 103 143 175 206 246 293
#     4  10  17  28  46  68 101 139 174 210 247 291
#     4  10  19  31  50  77 105 135 173 214 253 299
#
# _framework density 18.136536
#
# number of rings (size 3 to 8) (size 9 to 14) (size 15 to 20)
#    0.000    2.000    1.667    5.500    0.000    0.667 
#    0.000    4.167    0.000    1.000    0.000    0.000 
#    0.000    0.000    0.000    0.000    0.000    0.000 
#
# Total GULP energy -594866.913170 kJ/mol
# GULP energy per Si atom -12393.060691 kJ/mol
# Density = 1.809526 g / cm^3
# Si number density = 18.136536 Si / 1000 Ang^3
#
#
#
# Elastic Constant Matrix: (Units=GPa)
#
#
# Indices 1 2 3 4 5 6 
#
# 1 122.3750 59.6960 15.2219 0.0000 0.0000 0.0000
# 2 59.6960 94.6647 10.9093 0.0000 0.0000 0.0000
# 3 15.2219 10.9093 44.2142 0.0000 0.0000 0.0000
# 4 0.0000 0.0000 0.0000 25.4563 0.0000 0.0000
# 5 0.0000 0.0000 0.0000 0.0000 19.7330 0.0000
# 6 0.0000 0.0000 0.0000 0.0000 0.0000 -10.8297
#
#
#
# Elastic Compliance Matrix: (Units=1/GPa)
#
#
# Indices 1 2 3 4 5 6 
#
# 1 0.012032 -0.007318 -0.002337 0.000000 0.000000 0.000000
# 2 -0.007318 0.015324 -0.001261 0.000000 0.000000 0.000000
# 3 -0.002337 -0.001261 0.023733 0.000000 0.000000 0.000000
# 4 0.000000 0.000000 0.000000 0.039283 0.000000 0.000000
# 5 0.000000 0.000000 0.000000 0.000000 0.050677 0.000000
# 6 0.000000 0.000000 0.000000 0.000000 0.000000 -0.092339
#
#
# Mechanical properties :
#
#
# Convention : Reuss Voigt Hill
#
# Bulk Modulus (GPa) = 34.18091 48.10094 41.14093
# Shear Modulus (GPa) = 62.27040 18.56703 40.41872
#
# Velocity S-wave (km/s) = 5.86590 3.20306 4.72590
# Velocity P-wave (km/s) = 8.04771 6.34497 7.24653
#
# Compressibility (1/GPa) = 0.02925609
#
# Stress axis : x y z
#
# Youngs Moduli (GPa) = 83.11031 65.25749 42.13556
#
# Poissons Ratio (x) = 0.47757 0.09846
# Poissons Ratio (y) = 0.60822 0.05315
# Poissons Ratio (z) = 0.19420 0.08232
#
# Static dielectric constant tensor:
#      x y z
#    x 3.832100 0.000000 0.000000 
#    y 0.000000 3.151420 0.000000 
#    z 0.000000 0.000000 3.245600 
# 
# 
# High freq. dielectric constant tensor:
#      x y z
#    x 1.708080 0.000000 0.000000 
#    y 0.000000 1.667080 0.000000 
#    z 0.000000 0.000000 1.696890 
# 
# From -- ./inp_files/3293.got.cif
#   From: 2010.03.12/outbox.cif.g09.slc.cpg/sg57_2_cif.got.tgz:3293.got - 2010.04.16 15:48:40.
