data_PCOD8229601
_publ_section_title
;
Structure prediction by ZEFSAII (Michael W. Deem and Ramdas Pophale) SiO2 
 PCOD8229601
Probable space group: P C C N
;
_chemical_formula_sum "Si O2"
_cell_formula_units_Z 32
_cell_length_a 13.826588
_cell_length_b 7.413800
_cell_length_c 13.294846
_cell_angle_alpha 90.000000
_cell_angle_beta 90.000000
_cell_angle_gamma 90.000000
_cell_volume 1362.822199
_symmetry_space_group_name_H-M "P C C N"
_symmetry_group_IT_number 56
_symmetry_cell_setting 'orthorhombic'
loop_
_space_group_symop_operation_xyz
x,y,z
1/2-x,1/2-y,z
1/2+x,-y,1/2-z
-x,1/2+y,1/2-z
-x,-y,-z
1/2+x,1/2+y,-z
1/2-x,y,1/2+z
x,1/2-y,1/2+z
loop_
_atom_site_type_symbol
_atom_site_label
_atom_site_fract_x
_atom_site_fract_y
_atom_site_fract_z
Si Si1 0.088927 0.107743 0.040347
Si Si2 0.438193 0.424538 0.674099
Si Si3 0.767928 0.454181 0.306415
Si Si4 0.388582 0.306111 0.345518
O O1 0.143504 0.229309 0.954536
O O2 0.038686 0.238949 0.119491
O O3 0.159119 0.970192 0.099783
O O4 0.000000 0.000000 0.000000
O O5 0.332200 0.489554 0.642504
O O6 0.521240 0.560753 0.643991
O O7 0.430563 0.373585 0.791693
O O8 0.750000 0.250000 0.266423
O O9 0.801365 0.587467 0.213833
#
# Coordination Sequence:
#
# PCOD8229601 Si02
#       4
#     8   8   8   8
#     4  11  23  41  65  94 128 171 220 274 329 393
#     4  11  23  42  65  94 132 168 214 276 326 389
#     4  11  25  44  65  96 136 173 217 276 329 391
#     4  11  22  41  68  96 127 176 221 266 338 403
#
# _framework density 23.480687
#
# number of rings (size 3 to 8) (size 9 to 14) (size 15 to 20)
#    0.000    1.000    0.000    9.750    0.000    4.000 
#    0.000    2.500    0.000    0.000    0.000    0.000 
#    0.000    0.000    0.000    0.000    0.000    0.000 
#
# Total GULP energy -396486.054314 kJ/mol
# GULP energy per Si atom -12390.189197 kJ/mol
# Density = 2.342724 g / cm^3
# Si number density = 23.480687 Si / 1000 Ang^3
#
#
#
# Elastic Constant Matrix: (Units=GPa)
#
#
# Indices 1 2 3 4 5 6 
#
# 1 89.2847 35.9240 -2.5382 0.0000 0.0000 0.0000
# 2 35.9240 95.6995 15.2421 0.0000 0.0000 0.0000
# 3 -2.5382 15.2421 71.2030 0.0000 0.0000 0.0000
# 4 0.0000 0.0000 0.0000 35.5877 0.0000 0.0000
# 5 0.0000 0.0000 0.0000 0.0000 20.0941 0.0000
# 6 0.0000 0.0000 0.0000 0.0000 0.0000 44.5904
#
#
#
# Elastic Compliance Matrix: (Units=1/GPa)
#
#
# Indices 1 2 3 4 5 6 
#
# 1 0.013368 -0.005274 0.001605 0.000000 0.000000 0.000000
# 2 -0.005274 0.012899 -0.002949 0.000000 0.000000 0.000000
# 3 0.001605 -0.002949 0.014733 0.000000 0.000000 0.000000
# 4 0.000000 0.000000 0.000000 0.028100 0.000000 0.000000
# 5 0.000000 0.000000 0.000000 0.000000 0.049766 0.000000
# 6 0.000000 0.000000 0.000000 0.000000 0.000000 0.022426
#
#
# Mechanical properties :
#
#
# Convention : Reuss Voigt Hill
#
# Bulk Modulus (GPa) = 36.01727 39.27144 37.64436
# Shear Modulus (GPa) = 30.52860 33.89172 32.21016
#
# Velocity S-wave (km/s) = 3.60968 3.80332 3.70776
# Velocity P-wave (km/s) = 5.72237 6.00402 5.86488
#
# Compressibility (1/GPa) = 0.02776446
#
# Stress axis : x y z
#
# Youngs Moduli (GPa) = 74.80736 77.52688 67.87530
#
# Poissons Ratio (x) = 0.40885 -0.10897
# Poissons Ratio (y) = 0.39451 0.20018
# Poissons Ratio (z) = -0.12010 0.22864
#
# Static dielectric constant tensor:
#      x y z
#    x 4.305940 0.000000 0.000000 
#    y 0.000000 4.569760 0.000000 
#    z 0.000000 0.000000 4.551930 
# 
# 
# High freq. dielectric constant tensor:
#      x y z
#    x 1.934630 0.000000 0.000000 
#    y 0.000000 1.938820 0.000000 
#    z 0.000000 0.000000 1.927660 
# 
# From -- ./inp_files/11273.got.cif
#   From: 2010.03.12/outbox.cif.g09.slc.cpg/sg56_6_cif.got.tgz:11273.got - 2010.04.16 15:33:40.
