data_PCOD8229121
_publ_section_title
;
Structure prediction by ZEFSAII (Michael W. Deem and Ramdas Pophale) SiO2 
 PCOD8229121
Probable space group: P C C N
;
_chemical_formula_sum "Si O2"
_cell_formula_units_Z 48
_cell_length_a 8.888662
_cell_length_b 20.868114
_cell_length_c 10.601756
_cell_angle_alpha 90.000000
_cell_angle_beta 90.000000
_cell_angle_gamma 90.000000
_cell_volume 1966.515606
_symmetry_space_group_name_H-M "P C C N"
_symmetry_group_IT_number 56
_symmetry_cell_setting 'orthorhombic'
loop_
_space_group_symop_operation_xyz
x,y,z
1/2-x,1/2-y,z
1/2+x,-y,1/2-z
-x,1/2+y,1/2-z
-x,-y,-z
1/2+x,1/2+y,-z
1/2-x,y,1/2+z
x,1/2-y,1/2+z
loop_
_atom_site_type_symbol
_atom_site_label
_atom_site_fract_x
_atom_site_fract_y
_atom_site_fract_z
Si Si1 0.864465 0.866757 0.257042
Si Si2 0.708419 0.448917 0.349184
Si Si3 0.925575 0.560427 0.303820
Si Si4 0.486869 0.162137 0.496601
Si Si5 0.644745 0.382270 0.613898
Si Si6 0.750000 0.750000 0.377489
Si Si7 0.250000 0.750000 0.949226
O O1 0.700681 0.896608 0.235264
O O2 0.958808 0.877000 0.130175
O O3 0.854788 0.791152 0.285444
O O4 0.966342 0.898254 0.368792
O O5 0.826050 0.506435 0.375438
O O6 0.538745 0.469535 0.301864
O O7 0.699526 0.407792 0.477436
O O8 0.763416 0.409722 0.229782
O O9 0.018653 0.606638 0.399395
O O10 0.339810 0.201737 0.533244
O O11 0.625524 0.210302 0.471961
O O12 0.664167 0.305106 0.628972
#
# Coordination Sequence:
#
# PCOD8229121 Si02
#       7
#     8   8   8   8   8   4   4
#     4  11  25  44  74 111 154 203 254 317 392 467
#     4  12  29  51  78 113 152 206 259 321 392 465
#     4  11  28  49  79 111 154 204 266 321 386 465
#     4  11  24  46  74 112 153 201 251 328 387 464
#     4  12  28  49  77 115 153 206 255 324 394 463
#     4  10  22  42  68 110 148 204 250 318 388 472
#     4  12  24  48  74 114 154 194 258 314 394 468
#
# _framework density 24.408653999999999
#
# number of rings (size 3 to 8) (size 9 to 14) (size 15 to 20)
#    0.000    0.667    3.333    2.500    7.000    7.333 
#    0.000    0.000    0.000    0.000    0.000    0.000 
#    0.000    0.000    0.000    0.000    0.000    0.000 
#
# Total GULP energy -594694.814175 kJ/mol
# GULP energy per Si atom -12389.475295 kJ/mol
# Density = 2.435310 g / cm^3
# Si number density = 24.408654 Si / 1000 Ang^3
#
#
#
# Elastic Constant Matrix: (Units=GPa)
#
#
# Indices 1 2 3 4 5 6 
#
# 1 117.2452 38.6394 47.1766 0.0000 0.0000 0.0000
# 2 38.6394 122.5957 43.0481 0.0000 0.0000 0.0000
# 3 47.1766 43.0481 126.7165 0.0000 0.0000 0.0000
# 4 0.0000 0.0000 0.0000 24.7354 0.0000 0.0000
# 5 0.0000 0.0000 0.0000 0.0000 29.2269 0.0000
# 6 0.0000 0.0000 0.0000 0.0000 0.0000 49.4982
#
#
#
# Elastic Compliance Matrix: (Units=1/GPa)
#
#
# Indices 1 2 3 4 5 6 
#
# 1 0.010532 -0.002206 -0.003172 0.000000 0.000000 0.000000
# 2 -0.002206 0.009724 -0.002482 0.000000 0.000000 0.000000
# 3 -0.003172 -0.002482 0.009916 0.000000 0.000000 0.000000
# 4 0.000000 0.000000 0.000000 0.040428 0.000000 0.000000
# 5 0.000000 0.000000 0.000000 0.000000 0.034215 0.000000
# 6 0.000000 0.000000 0.000000 0.000000 0.000000 0.020203
#
#
# Mechanical properties :
#
#
# Convention : Reuss Voigt Hill
#
# Bulk Modulus (GPa) = 69.19334 69.36506 69.27920
# Shear Modulus (GPa) = 34.35144 36.53833 35.44488
#
# Velocity S-wave (km/s) = 3.75553 3.87323 3.81483
# Velocity P-wave (km/s) = 6.87130 6.96294 6.91727
#
# Compressibility (1/GPa) = 0.01445226
#
# Stress axis : x y z
#
# Youngs Moduli (GPa) = 94.94552 102.84180 100.84989
#
# Poissons Ratio (x) = 0.22685 0.31988
# Poissons Ratio (y) = 0.20943 0.25032
# Poissons Ratio (z) = 0.30115 0.25526
#
# Static dielectric constant tensor:
#      x y z
#    x 4.896620 0.000000 0.000000 
#    y 0.000000 4.566430 0.000000 
#    z 0.000000 0.000000 4.139900 
# 
# 
# High freq. dielectric constant tensor:
#      x y z
#    x 2.004050 0.000000 0.000000 
#    y 0.000000 1.976570 0.000000 
#    z 0.000000 0.000000 1.943710 
# 
# From -- ./inp_files/6442.got.cif
#   From: 2010.03.12/outbox.cif.g09.slc.cpg/sg56_4_cif.got.tgz:6442.got - 2010.04.16 15:33:40.
