data_PCOD8229015
_publ_section_title
;
Structure prediction by ZEFSAII (Michael W. Deem and Ramdas Pophale) SiO2 
 PCOD8229015
Probable space group: P C C N
;
_chemical_formula_sum "Si O2"
_cell_formula_units_Z 48
_cell_length_a 28.097567
_cell_length_b 4.900530
_cell_length_c 15.888415
_cell_angle_alpha 90.000000
_cell_angle_beta 90.000000
_cell_angle_gamma 90.000000
_cell_volume 2187.723050
_symmetry_space_group_name_H-M "P C C N"
_symmetry_group_IT_number 56
_symmetry_cell_setting 'orthorhombic'
loop_
_space_group_symop_operation_xyz
x,y,z
1/2-x,1/2-y,z
1/2+x,-y,1/2-z
-x,1/2+y,1/2-z
-x,-y,-z
1/2+x,1/2+y,-z
1/2-x,y,1/2+z
x,1/2-y,1/2+z
loop_
_atom_site_type_symbol
_atom_site_label
_atom_site_fract_x
_atom_site_fract_y
_atom_site_fract_z
Si Si1 0.032837 0.926636 0.842620
Si Si2 0.802806 0.797384 0.198120
Si Si3 0.625132 0.933091 0.557860
Si Si4 0.125202 0.568197 0.051883
Si Si5 0.530844 0.082613 0.847111
Si Si6 0.802682 0.287399 0.310818
O O1 0.052327 0.958314 0.746886
O O2 0.013809 0.622321 0.863750
O O3 0.072401 0.042895 0.905022
O O4 0.986666 0.109890 0.854203
O O5 0.750000 0.750000 0.161021
O O6 0.840881 0.783549 0.124353
O O7 0.813297 0.594498 0.277508
O O8 0.805577 0.107466 0.227588
O O9 0.631440 0.745222 0.475228
O O10 0.636794 0.240027 0.528543
O O11 0.071038 0.569416 0.082723
O O12 0.159251 0.672799 0.124791
O O13 0.750000 0.250000 0.351556
#
# Coordination Sequence:
#
# PCOD8229015 Si02
#       6
#     8   8   8   8   8   8
#     4  10  22  40  61  84 115 160 209 251 294 356
#     4  10  22  42  66  89 119 163 210 252 297 361
#     4  12  25  38  60  93 126 158 194 250 314 364
#     4  12  25  38  60  93 126 158 194 250 314 364
#     4  10  22  40  61  84 115 160 209 251 294 356
#     4  10  22  42  66  89 119 163 210 252 297 361
#
# _framework density 21.940619999999999
#
# number of rings (size 3 to 8) (size 9 to 14) (size 15 to 20)
#    0.000    1.333    0.000    5.000    0.000    9.333 
#    0.000    0.000    0.000    0.000    0.000    0.000 
#    0.000    0.000    0.000    0.000    0.000    0.000 
#
# Total GULP energy -594941.776551 kJ/mol
# GULP energy per Si atom -12394.620345 kJ/mol
# Density = 2.189068 g / cm^3
# Si number density = 21.940620 Si / 1000 Ang^3
#
#
#
# Elastic Constant Matrix: (Units=GPa)
#
#
# Indices 1 2 3 4 5 6 
#
# 1 92.8283 14.9078 42.8865 0.0000 0.0000 0.0000
# 2 14.9078 91.0982 12.6940 0.0000 0.0000 0.0000
# 3 42.8865 12.6940 58.5587 0.0000 0.0000 0.0000
# 4 0.0000 0.0000 0.0000 28.0714 0.0000 0.0000
# 5 0.0000 0.0000 0.0000 0.0000 -24.8369 0.0000
# 6 0.0000 0.0000 0.0000 0.0000 0.0000 26.2026
#
#
#
# Elastic Compliance Matrix: (Units=1/GPa)
#
#
# Indices 1 2 3 4 5 6 
#
# 1 0.016376 -0.001040 -0.011768 0.000000 0.000000 0.000000
# 2 -0.001040 0.011385 -0.001706 0.000000 0.000000 0.000000
# 3 -0.011768 -0.001706 0.026065 0.000000 0.000000 0.000000
# 4 0.000000 0.000000 0.000000 0.035623 0.000000 0.000000
# 5 0.000000 0.000000 0.000000 0.000000 -0.040263 0.000000
# 6 0.000000 0.000000 0.000000 0.000000 0.000000 0.038164
#
#
# Mechanical properties :
#
#
# Convention : Reuss Voigt Hill
#
# Bulk Modulus (GPa) = 40.32591 42.60687 41.46639
# Shear Modulus (GPa) = 40.11337 17.35388 28.73363
#
# Velocity S-wave (km/s) = 4.28047 2.81543 3.62278
# Velocity P-wave (km/s) = 6.54594 5.47998 6.03654
#
# Compressibility (1/GPa) = 0.02479795
#
# Stress axis : x y z
#
# Youngs Moduli (GPa) = 61.06332 87.83383 38.36519
#
# Poissons Ratio (x) = 0.09136 0.45148
# Poissons Ratio (y) = 0.06351 0.06546
# Poissons Ratio (z) = 0.71860 0.14987
#
# Static dielectric constant tensor:
#      x y z
#    x 3.947510 0.000000 0.000000 
#    y 0.000000 4.220290 0.000000 
#    z 0.000000 0.000000 3.952850 
# 
# 
# High freq. dielectric constant tensor:
#      x y z
#    x 1.857990 0.000000 0.000000 
#    y 0.000000 1.883710 0.000000 
#    z 0.000000 0.000000 1.854740 
# 
# From -- ./inp_files/13358.got.cif
#   From: 2010.03.12/outbox.cif.g09.slc.cpg/sg56_7_cif.got.tgz:13358.got - 2010.04.16 15:33:40.
