data_PCOD8229518
_publ_section_title
;
Structure prediction by ZEFSAII (Michael W. Deem and Ramdas Pophale) SiO2 
 PCOD8229518
Probable space group: P C C N
;
_chemical_formula_sum "Si O2"
_cell_formula_units_Z 44
_cell_length_a 15.265646
_cell_length_b 5.164229
_cell_length_c 25.068120
_cell_angle_alpha 90.000000
_cell_angle_beta 90.000000
_cell_angle_gamma 90.000000
_cell_volume 1976.252554
_symmetry_space_group_name_H-M "P C C N"
_symmetry_group_IT_number 56
_symmetry_cell_setting 'orthorhombic'
loop_
_space_group_symop_operation_xyz
x,y,z
1/2-x,1/2-y,z
1/2+x,-y,1/2-z
-x,1/2+y,1/2-z
-x,-y,-z
1/2+x,1/2+y,-z
1/2-x,y,1/2+z
x,1/2-y,1/2+z
loop_
_atom_site_type_symbol
_atom_site_label
_atom_site_fract_x
_atom_site_fract_y
_atom_site_fract_z
Si Si1 0.020812 0.237304 0.645464
Si Si2 0.250000 0.250000 0.431588
Si Si3 0.824955 0.564860 0.914840
Si Si4 0.094331 0.255326 0.351465
Si Si5 0.250000 0.750000 0.179866
Si Si6 0.155056 0.351959 0.734143
Si Si7 0.750000 0.250000 0.999073
O O1 0.087181 0.235366 0.594613
O O2 0.071660 0.254538 0.701333
O O3 0.948054 0.460919 0.640819
O O4 0.980247 0.954848 0.643443
O O5 0.165424 0.193735 0.396136
O O6 0.224737 0.505013 0.465005
O O7 0.750000 0.750000 0.938608
O O8 0.796151 0.462306 0.857158
O O9 0.831438 0.335740 0.959521
O O10 0.141536 0.220331 0.295025
O O11 0.330094 0.654290 0.218509
O O12 0.250000 0.250000 0.715233
#
# Coordination Sequence:
#
# PCOD8229518 Si02
#       7
#     8   4   8   8   4   8   4
#     4  12  25  45  69 112 143 182 234 300 355 414
#     4  12  26  54  68 100 138 204 246 284 374 434
#     4  11  22  44  76 111 137 180 235 311 380 422
#     4  12  29  45  70  97 155 194 237 285 346 444
#     4  11  20  37  74 104 148 183 228 291 342 444
#     4  12  24  41  69 108 145 193 232 278 346 433
#     4  11  26  45  84 100 132 189 250 307 364 454
#
# _framework density 22.26436
#
# number of rings (size 3 to 8) (size 9 to 14) (size 15 to 20)
#    0.000    0.364    5.455    3.273    5.091    0.727 
#    0.000    5.455    0.000    0.000    0.000    0.000 
#    0.000    0.000    0.000    0.000    0.000    0.000 
#
# Total GULP energy -545173.404391 kJ/mol
# GULP energy per Si atom -12390.304645 kJ/mol
# Density = 2.221368 g / cm^3
# Si number density = 22.264360 Si / 1000 Ang^3
#
#
#
# Elastic Constant Matrix: (Units=GPa)
#
#
# Indices 1 2 3 4 5 6 
#
# 1 89.1420 22.3214 46.0332 0.0000 0.0000 0.0000
# 2 22.3214 97.1596 53.4091 0.0000 0.0000 0.0000
# 3 46.0332 53.4091 131.5848 0.0000 0.0000 0.0000
# 4 0.0000 0.0000 0.0000 9.4780 0.0000 0.0000
# 5 0.0000 0.0000 0.0000 0.0000 19.2563 0.0000
# 6 0.0000 0.0000 0.0000 0.0000 0.0000 49.1294
#
#
#
# Elastic Compliance Matrix: (Units=1/GPa)
#
#
# Indices 1 2 3 4 5 6 
#
# 1 0.013724 -0.000661 -0.004533 0.000000 0.000000 0.000000
# 2 -0.000661 0.013280 -0.005159 0.000000 0.000000 0.000000
# 3 -0.004533 -0.005159 0.011279 0.000000 0.000000 0.000000
# 4 0.000000 0.000000 0.000000 0.105508 0.000000 0.000000
# 5 0.000000 0.000000 0.000000 0.000000 0.051931 0.000000
# 6 0.000000 0.000000 0.000000 0.000000 0.000000 0.020354
#
#
# Mechanical properties :
#
#
# Convention : Reuss Voigt Hill
#
# Bulk Modulus (GPa) = 56.89018 62.37932 59.63475
# Shear Modulus (GPa) = 20.60643 28.64759 24.62701
#
# Velocity S-wave (km/s) = 3.04556 3.59095 3.32944
# Velocity P-wave (km/s) = 6.16237 6.72842 6.45161
#
# Compressibility (1/GPa) = 0.01757773
#
# Stress axis : x y z
#
# Youngs Moduli (GPa) = 72.86266 75.30020 88.65700
#
# Poissons Ratio (x) = 0.04979 0.40187
# Poissons Ratio (y) = 0.04818 0.45738
# Poissons Ratio (z) = 0.33028 0.38847
#
# Static dielectric constant tensor:
#      x y z
#    x 4.115170 0.000000 0.000000 
#    y 0.000000 4.389350 0.000000 
#    z 0.000000 0.000000 4.055760 
# 
# 
# High freq. dielectric constant tensor:
#      x y z
#    x 1.863750 0.000000 0.000000 
#    y 0.000000 1.896790 0.000000 
#    z 0.000000 0.000000 1.876720 
# 
# From -- ./inp_files/22411.got.cif
#   From: 2010.03.12/outbox.cif.g09.slc.cpg/sg56_12_cif.got.tgz:22411.got - 2010.04.16 15:33:40.
