data_PCOD8229363
_publ_section_title
;
Structure prediction by ZEFSAII (Michael W. Deem and Ramdas Pophale) SiO2 
 PCOD8229363
Probable space group: P C C N
;
_chemical_formula_sum "Si O2"
_cell_formula_units_Z 48
_cell_length_a 31.325861
_cell_length_b 7.509516
_cell_length_c 9.007500
_cell_angle_alpha 90.000000
_cell_angle_beta 90.000000
_cell_angle_gamma 90.000000
_cell_volume 2118.942805
_symmetry_space_group_name_H-M "P C C N"
_symmetry_group_IT_number 56
_symmetry_cell_setting 'orthorhombic'
loop_
_space_group_symop_operation_xyz
x,y,z
1/2-x,1/2-y,z
1/2+x,-y,1/2-z
-x,1/2+y,1/2-z
-x,-y,-z
1/2+x,1/2+y,-z
1/2-x,y,1/2+z
x,1/2-y,1/2+z
loop_
_atom_site_type_symbol
_atom_site_label
_atom_site_fract_x
_atom_site_fract_y
_atom_site_fract_z
Si Si1 0.395699 0.661121 0.220197
Si Si2 0.661009 0.304940 0.051167
Si Si3 0.543710 0.627073 0.660956
Si Si4 0.750000 0.750000 0.450512
Si Si5 0.550539 0.988339 0.827849
Si Si6 0.750000 0.250000 0.401709
Si Si7 0.784472 0.541922 0.715812
O O1 0.366338 0.651568 0.368133
O O2 0.366563 0.610348 0.079972
O O3 0.431590 0.511365 0.233351
O O4 0.414398 0.860781 0.204762
O O5 0.707044 0.233306 0.999204
O O6 0.670033 0.450699 0.182853
O O7 0.554291 0.830140 0.706972
O O8 0.494094 0.590404 0.686489
O O9 0.556568 0.597902 0.490034
O O10 0.765419 0.589704 0.554140
O O11 0.710762 0.701018 0.336564
O O12 0.751445 0.418418 0.292158
#
# Coordination Sequence:
#
# PCOD8229363 Si02
#       7
#     8   8   8   4   8   4   8
#     4  12  26  48  68 115 151 187 248 308 366 433
#     4  12  26  44  73 101 145 189 247 310 355 440
#     4  11  25  46  77 110 148 194 240 295 373 448
#     4  10  24  42  68 104 138 174 248 308 354 440
#     4  11  25  46  77 112 145 197 240 294 372 448
#     4  12  24  44  78  98 130 204 256 286 370 430
#     4  11  23  44  69 101 136 186 244 293 369 424
#
# _framework density 22.652808
#
# number of rings (size 3 to 8) (size 9 to 14) (size 15 to 20)
#    0.000    0.667    6.667    0.500    2.333    0.667 
#    3.000    0.000    0.000    0.000    0.000    0.000 
#    0.000    0.000    0.000    0.000    0.000    0.000 
#
# Total GULP energy -594961.652575 kJ/mol
# GULP energy per Si atom -12395.034429 kJ/mol
# Density = 2.260125 g / cm^3
# Si number density = 22.652808 Si / 1000 Ang^3
#
#
#
# Elastic Constant Matrix: (Units=GPa)
#
#
# Indices 1 2 3 4 5 6 
#
# 1 102.2982 32.5062 45.0987 0.0000 0.0000 0.0000
# 2 32.5062 106.4703 33.5137 0.0000 0.0000 0.0000
# 3 45.0987 33.5137 123.4461 0.0000 0.0000 0.0000
# 4 0.0000 0.0000 0.0000 40.5741 0.0000 0.0000
# 5 0.0000 0.0000 0.0000 0.0000 44.9344 0.0000
# 6 0.0000 0.0000 0.0000 0.0000 0.0000 29.6999
#
#
#
# Elastic Compliance Matrix: (Units=1/GPa)
#
#
# Indices 1 2 3 4 5 6 
#
# 1 0.012254 -0.002550 -0.003784 0.000000 0.000000 0.000000
# 2 -0.002550 0.010801 -0.002001 0.000000 0.000000 0.000000
# 3 -0.003784 -0.002001 0.010026 0.000000 0.000000 0.000000
# 4 0.000000 0.000000 0.000000 0.024646 0.000000 0.000000
# 5 0.000000 0.000000 0.000000 0.000000 0.022255 0.000000
# 6 0.000000 0.000000 0.000000 0.000000 0.000000 0.033670
#
#
# Mechanical properties :
#
#
# Convention : Reuss Voigt Hill
#
# Bulk Modulus (GPa) = 60.93532 61.60576 61.27054
# Shear Modulus (GPa) = 36.82090 37.78144 37.30117
#
# Velocity S-wave (km/s) = 4.03605 4.08836 4.06229
# Velocity P-wave (km/s) = 6.97694 7.03853 7.00780
#
# Compressibility (1/GPa) = 0.01641084
#
# Stress axis : x y z
#
# Youngs Moduli (GPa) = 81.60570 92.58786 99.73650
#
# Poissons Ratio (x) = 0.23610 0.37745
# Poissons Ratio (y) = 0.20810 0.19953
# Poissons Ratio (z) = 0.30884 0.18523
#
# Static dielectric constant tensor:
#      x y z
#    x 4.087540 0.000000 0.000000 
#    y 0.000000 4.194250 0.000000 
#    z 0.000000 0.000000 4.391760 
# 
# 
# High freq. dielectric constant tensor:
#      x y z
#    x 1.880540 0.000000 0.000000 
#    y 0.000000 1.888780 0.000000 
#    z 0.000000 0.000000 1.920140 
# 
# From -- ./inp_files/5147.got.cif
#   From: 2010.03.12/outbox.cif.g09.slc.cpg/sg56_3_cif.got.tgz:5147.got - 2010.04.16 15:33:40.
