data_PCOD8229396
_publ_section_title
;
Structure prediction by ZEFSAII (Michael W. Deem and Ramdas Pophale) SiO2 
 PCOD8229396
Probable space group: P C C N
;
_chemical_formula_sum "Si O2"
_cell_formula_units_Z 40
_cell_length_a 8.458685
_cell_length_b 19.782633
_cell_length_c 10.148001
_cell_angle_alpha 90.000000
_cell_angle_beta 90.000000
_cell_angle_gamma 90.000000
_cell_volume 1698.116367
_symmetry_space_group_name_H-M "P C C N"
_symmetry_group_IT_number 56
_symmetry_cell_setting 'orthorhombic'
loop_
_space_group_symop_operation_xyz
x,y,z
1/2-x,1/2-y,z
1/2+x,-y,1/2-z
-x,1/2+y,1/2-z
-x,-y,-z
1/2+x,1/2+y,-z
1/2-x,y,1/2+z
x,1/2-y,1/2+z
loop_
_atom_site_type_symbol
_atom_site_label
_atom_site_fract_x
_atom_site_fract_y
_atom_site_fract_z
Si Si1 0.410169 0.319479 0.724479
Si Si2 0.309471 0.917597 0.787386
Si Si3 0.888698 0.203840 0.139818
Si Si4 0.315752 0.500341 0.027365
Si Si5 0.687173 0.846494 0.499812
O O1 0.513309 0.387942 0.716639
O O2 0.516861 0.252567 0.739789
O O3 0.289595 0.326028 0.847521
O O4 0.307867 0.305749 0.592710
O O5 0.185226 0.856290 0.773934
O O6 0.278786 0.969455 0.670128
O O7 0.284862 0.956731 0.923632
O O8 0.750000 0.250000 0.071428
O O9 0.002406 0.169407 0.031132
O O10 0.500000 0.500000 0.000000
O O11 0.261269 0.423306 0.024661
#
# Coordination Sequence:
#
# PCOD8229396 Si02
#       5
#     8   8   8   8   8
#     4  11  26  44  69 103 141 188 234 292 353 417
#     4  11  24  47  72 104 136 190 233 289 357 425
#     4  10  24  44  71  98 139 185 239 290 354 425
#     4  12  24  45  73 104 145 178 237 294 351 429
#     4  12  25  46  69 105 143 179 236 296 354 422
#
# _framework density 23.555510000000002
#
# number of rings (size 3 to 8) (size 9 to 14) (size 15 to 20)
#    0.000    0.800    4.000    1.800    0.000   11.200 
#    0.000    0.000    0.000    0.000    0.000    0.000 
#    0.000    0.000    0.000    0.000    0.000    0.000 
#
# Total GULP energy -496086.574705 kJ/mol
# GULP energy per Si atom -12402.164368 kJ/mol
# Density = 2.350190 g / cm^3
# Si number density = 23.555510 Si / 1000 Ang^3
#
#
#
# Elastic Constant Matrix: (Units=GPa)
#
#
# Indices 1 2 3 4 5 6 
#
# 1 88.0021 38.7148 48.7064 0.0000 0.0000 0.0000
# 2 38.7148 133.0051 24.3396 0.0000 0.0000 0.0000
# 3 48.7064 24.3396 128.4923 0.0000 0.0000 0.0000
# 4 0.0000 0.0000 0.0000 8.5381 0.0000 0.0000
# 5 0.0000 0.0000 0.0000 0.0000 35.1374 0.0000
# 6 0.0000 0.0000 0.0000 0.0000 0.0000 39.4088
#
#
#
# Elastic Compliance Matrix: (Units=1/GPa)
#
#
# Indices 1 2 3 4 5 6 
#
# 1 0.015932 -0.003659 -0.005346 0.000000 0.000000 0.000000
# 2 -0.003659 0.008629 -0.000247 0.000000 0.000000 0.000000
# 3 -0.005346 -0.000247 0.009856 0.000000 0.000000 0.000000
# 4 0.000000 0.000000 0.000000 0.117122 0.000000 0.000000
# 5 0.000000 0.000000 0.000000 0.000000 0.028460 0.000000
# 6 0.000000 0.000000 0.000000 0.000000 0.000000 0.025375
#
#
# Mechanical properties :
#
#
# Convention : Reuss Voigt Hill
#
# Bulk Modulus (GPa) = 62.84784 63.66901 63.25843
# Shear Modulus (GPa) = 21.81668 32.46611 27.14140
#
# Velocity S-wave (km/s) = 3.04663 3.71655 3.39814
# Velocity P-wave (km/s) = 6.25416 6.74574 6.50460
#
# Compressibility (1/GPa) = 0.01591145
#
# Stress axis : x y z
#
# Youngs Moduli (GPa) = 62.76671 115.88977 101.46166
#
# Poissons Ratio (x) = 0.42406 0.54242
# Poissons Ratio (y) = 0.22967 0.02511
# Poissons Ratio (z) = 0.33556 0.02868
#
# Static dielectric constant tensor:
#      x y z
#    x 4.381390 0.000000 0.000000 
#    y 0.000000 4.704560 0.000000 
#    z 0.000000 0.000000 3.951160 
# 
# 
# High freq. dielectric constant tensor:
#      x y z
#    x 1.932250 0.000000 0.000000 
#    y 0.000000 1.963280 0.000000 
#    z 0.000000 0.000000 1.913970 
# 
# From -- ./inp_files/2065.got.cif
#   From: 2010.03.12/outbox.cif.g09.slc.cpg/sg56_2_cif.got.tgz:2065.got - 2010.04.16 15:33:40.
