data_PCOD8229482
_publ_section_title
;
Structure prediction by ZEFSAII (Michael W. Deem and Ramdas Pophale) SiO2 
 PCOD8229482
Probable space group: P C C N
;
_chemical_formula_sum "Si O2"
_cell_formula_units_Z 28
_cell_length_a 15.732041
_cell_length_b 7.292329
_cell_length_c 9.500757
_cell_angle_alpha 90.000000
_cell_angle_beta 90.000000
_cell_angle_gamma 90.000000
_cell_volume 1089.957424
_symmetry_space_group_name_H-M "P C C N"
_symmetry_group_IT_number 56
_symmetry_cell_setting 'orthorhombic'
loop_
_space_group_symop_operation_xyz
x,y,z
1/2-x,1/2-y,z
1/2+x,-y,1/2-z
-x,1/2+y,1/2-z
-x,-y,-z
1/2+x,1/2+y,-z
1/2-x,y,1/2+z
x,1/2-y,1/2+z
loop_
_atom_site_type_symbol
_atom_site_label
_atom_site_fract_x
_atom_site_fract_y
_atom_site_fract_z
Si Si1 0.913812 0.242931 0.791675
Si Si2 0.750000 0.250000 0.103753
Si Si3 0.852935 0.949656 0.981572
Si Si4 0.092687 0.351868 0.209854
O O1 0.831776 0.200168 0.696504
O O2 0.905224 0.445912 0.858153
O O3 0.998252 0.232622 0.696099
O O4 0.920623 0.095433 0.917452
O O5 0.732777 0.430158 0.006552
O O6 0.841432 0.781386 0.872249
O O7 0.883290 0.862359 0.126757
#
# Coordination Sequence:
#
# PCOD8229482 Si02
#       4
#     8   4   8   8
#     4  11  23  47  74 116 151 208 251 325 376 459
#     4  10  26  46  74 104 164 194 250 320 398 434
#     4  11  25  50  75 116 153 203 251 327 378 463
#     4  11  25  44  84 111 152 204 271 305 388 461
#
# _framework density 25.689077000000001
#
# number of rings (size 3 to 8) (size 9 to 14) (size 15 to 20)
#    0.000    1.143    2.857    1.714    4.000    5.714 
#    0.000   24.286    0.000    1.714    0.000    0.000 
#    0.000    0.000    0.000    0.000    0.000    0.000 
#
# Total GULP energy -347096.350342 kJ/mol
# GULP energy per Si atom -12396.298227 kJ/mol
# Density = 2.563061 g / cm^3
# Si number density = 25.689077 Si / 1000 Ang^3
#
#
#
# Elastic Constant Matrix: (Units=GPa)
#
#
# Indices 1 2 3 4 5 6 
#
# 1 125.1535 50.0785 39.6078 0.0000 0.0000 0.0000
# 2 50.0785 241.6714 92.1428 0.0000 0.0000 0.0000
# 3 39.6078 92.1428 133.0584 0.0000 0.0000 0.0000
# 4 0.0000 0.0000 0.0000 54.8165 0.0000 0.0000
# 5 0.0000 0.0000 0.0000 0.0000 5.8530 0.0000
# 6 0.0000 0.0000 0.0000 0.0000 0.0000 48.4132
#
#
#
# Elastic Compliance Matrix: (Units=1/GPa)
#
#
# Indices 1 2 3 4 5 6 
#
# 1 0.009051 -0.001153 -0.001896 0.000000 0.000000 0.000000
# 2 -0.001153 0.005769 -0.003652 0.000000 0.000000 0.000000
# 3 -0.001896 -0.003652 0.010609 0.000000 0.000000 0.000000
# 4 0.000000 0.000000 0.000000 0.018243 0.000000 0.000000
# 5 0.000000 0.000000 0.000000 0.000000 0.170853 0.000000
# 6 0.000000 0.000000 0.000000 0.000000 0.000000 0.020656
#
#
# Mechanical properties :
#
#
# Convention : Reuss Voigt Hill
#
# Bulk Modulus (GPa) = 83.13998 95.94905 89.54452
# Shear Modulus (GPa) = 19.79482 43.02016 31.40749
#
# Velocity S-wave (km/s) = 2.77890 4.09669 3.50036
# Velocity P-wave (km/s) = 6.53686 7.73358 7.16027
#
# Compressibility (1/GPa) = 0.01202791
#
# Stress axis : x y z
#
# Youngs Moduli (GPa) = 110.47900 173.33712 94.26033
#
# Poissons Ratio (x) = 0.19980 0.17873
# Poissons Ratio (y) = 0.12735 0.34424
# Poissons Ratio (z) = 0.20948 0.63302
#
# Static dielectric constant tensor:
#      x y z
#    x 4.516920 0.000000 0.000000 
#    y 0.000000 5.009650 0.000000 
#    z 0.000000 0.000000 4.521780 
# 
# 
# High freq. dielectric constant tensor:
#      x y z
#    x 2.018280 0.000000 0.000000 
#    y 0.000000 2.045110 0.000000 
#    z 0.000000 0.000000 2.019950 
# 
# From -- ./inp_files/3835.got.cif
#   From: 2010.03.12/outbox.cif.g09.slc.cpg/sg56_2_cif.got.tgz:3835.got - 2010.04.16 15:33:40.
