data_PCOD8229243
_publ_section_title
;
Structure prediction by ZEFSAII (Michael W. Deem and Ramdas Pophale) SiO2 
 PCOD8229243
Probable space group: P C C N
;
_chemical_formula_sum "Si O2"
_cell_formula_units_Z 28
_cell_length_a 8.884630
_cell_length_b 12.163724
_cell_length_c 13.063619
_cell_angle_alpha 90.000000
_cell_angle_beta 90.000000
_cell_angle_gamma 90.000000
_cell_volume 1411.787750
_symmetry_space_group_name_H-M "P C C N"
_symmetry_group_IT_number 56
_symmetry_cell_setting 'orthorhombic'
loop_
_space_group_symop_operation_xyz
x,y,z
1/2-x,1/2-y,z
1/2+x,-y,1/2-z
-x,1/2+y,1/2-z
-x,-y,-z
1/2+x,1/2+y,-z
1/2-x,y,1/2+z
x,1/2-y,1/2+z
loop_
_atom_site_type_symbol
_atom_site_label
_atom_site_fract_x
_atom_site_fract_y
_atom_site_fract_z
Si Si1 0.198065 0.865475 0.789339
Si Si2 0.391193 0.431859 0.271407
Si Si3 0.250000 0.250000 0.914499
Si Si4 0.538004 0.613326 0.944942
O O1 0.250000 0.750000 0.740972
O O2 0.072608 0.921905 0.714970
O O3 0.120959 0.840997 0.900179
O O4 0.340951 0.945252 0.800902
O O5 0.307152 0.347803 0.344342
O O6 0.350379 0.408682 0.151891
O O7 0.387140 0.296682 0.981786
O O8 0.500000 0.500000 0.000000
#
# Coordination Sequence:
#
# PCOD8229243 Si02
#       4
#     8   8   4   8
#     4  10  24  44  67 100 137 175 226 280 341 407
#     4  10  24  41  69  94 139 176 227 275 349 389
#     4  12  20  44  68 100 134 188 220 294 330 414
#     4  10  23  41  66  98 139 171 232 274 340 410
#
# _framework density 19.833009000000001
#
# number of rings (size 3 to 8) (size 9 to 14) (size 15 to 20)
#    1.714    0.000    2.857    0.857    8.000    0.000 
#    5.143    2.857    0.000    0.000    0.000    0.000 
#    0.000    0.000    0.000    0.000    0.000    0.000 
#
# Total GULP energy -346917.920921 kJ/mol
# GULP energy per Si atom -12389.925747 kJ/mol
# Density = 1.978787 g / cm^3
# Si number density = 19.833009 Si / 1000 Ang^3
#
#
#
# Elastic Constant Matrix: (Units=GPa)
#
#
# Indices 1 2 3 4 5 6 
#
# 1 112.8744 72.1147 29.7863 0.0000 0.0000 0.0000
# 2 72.1147 165.1134 38.7121 0.0000 0.0000 0.0000
# 3 29.7863 38.7121 100.1739 0.0000 0.0000 0.0000
# 4 0.0000 0.0000 0.0000 22.2593 0.0000 0.0000
# 5 0.0000 0.0000 0.0000 0.0000 11.7013 0.0000
# 6 0.0000 0.0000 0.0000 0.0000 0.0000 45.3366
#
#
#
# Elastic Compliance Matrix: (Units=1/GPa)
#
#
# Indices 1 2 3 4 5 6 
#
# 1 0.012570 -0.005073 -0.001777 0.000000 0.000000 0.000000
# 2 -0.005073 0.008708 -0.001856 0.000000 0.000000 0.000000
# 3 -0.001777 -0.001856 0.011228 0.000000 0.000000 0.000000
# 4 0.000000 0.000000 0.000000 0.044925 0.000000 0.000000
# 5 0.000000 0.000000 0.000000 0.000000 0.085460 0.000000
# 6 0.000000 0.000000 0.000000 0.000000 0.000000 0.022057
#
#
# Mechanical properties :
#
#
# Convention : Reuss Voigt Hill
#
# Bulk Modulus (GPa) = 66.25973 73.26533 69.76253
# Shear Modulus (GPa) = 24.10889 31.69602 27.90246
#
# Velocity S-wave (km/s) = 3.49032 4.00202 3.75490
# Velocity P-wave (km/s) = 7.05156 7.64043 7.35189
#
# Compressibility (1/GPa) = 0.01509212
#
# Stress axis : x y z
#
# Youngs Moduli (GPa) = 79.55702 114.84352 89.05947
#
# Poissons Ratio (x) = 0.58263 0.15826
# Poissons Ratio (y) = 0.40361 0.16534
# Poissons Ratio (z) = 0.14137 0.21321
#
# Static dielectric constant tensor:
#      x y z
#    x 3.543680 0.000000 0.000000 
#    y 0.000000 3.270510 0.000000 
#    z 0.000000 0.000000 3.567760 
# 
# 
# High freq. dielectric constant tensor:
#      x y z
#    x 1.766500 0.000000 0.000000 
#    y 0.000000 1.777200 0.000000 
#    z 0.000000 0.000000 1.761090 
# 
# From -- ./inp_files/9986.got.cif
#   From: 2010.03.12/outbox.cif.g09.slc.cpg/sg56_5_cif.got.tgz:9986.got - 2010.04.16 15:33:40.
