data_PCOD8229014
_publ_section_title
;
Structure prediction by ZEFSAII (Michael W. Deem and Ramdas Pophale) SiO2 
 PCOD8229014
Probable space group: P C C N
;
_chemical_formula_sum "Si O2"
_cell_formula_units_Z 56
_cell_length_a 20.925189
_cell_length_b 12.085888
_cell_length_c 9.776861
_cell_angle_alpha 90.000000
_cell_angle_beta 90.000000
_cell_angle_gamma 90.000000
_cell_volume 2472.563167
_symmetry_space_group_name_H-M "P C C N"
_symmetry_group_IT_number 56
_symmetry_cell_setting 'orthorhombic'
loop_
_space_group_symop_operation_xyz
x,y,z
1/2-x,1/2-y,z
1/2+x,-y,1/2-z
-x,1/2+y,1/2-z
-x,-y,-z
1/2+x,1/2+y,-z
1/2-x,y,1/2+z
x,1/2-y,1/2+z
loop_
_atom_site_type_symbol
_atom_site_label
_atom_site_fract_x
_atom_site_fract_y
_atom_site_fract_z
Si Si1 0.836209 0.679479 0.919624
Si Si2 0.687659 0.309773 0.562404
Si Si3 0.527777 0.622450 0.482467
Si Si4 0.360222 0.133867 0.376944
Si Si5 0.732583 0.991359 0.476221
Si Si6 0.636195 0.357823 0.842354
Si Si7 0.503427 0.823343 0.676165
O O1 0.845327 0.702514 0.758935
O O2 0.767314 0.622391 0.935483
O O3 0.895241 0.607315 0.979494
O O4 0.838601 0.797800 0.990689
O O5 0.750000 0.250000 0.622991
O O6 0.708924 0.428019 0.505941
O O7 0.637618 0.319695 0.684931
O O8 0.656827 0.242332 0.439276
O O9 0.500000 0.500000 0.500000
O O10 0.506880 0.699354 0.611115
O O11 0.505401 0.681487 0.341604
O O12 0.435944 0.105656 0.380225
O O13 0.314761 0.025275 0.391152
O O14 0.684340 0.038406 0.359677
O O15 0.561705 0.384878 0.871602
#
# Coordination Sequence:
#
# PCOD8229014 Si02
#       7
#     8   8   8   8   8   8   8
#     4  10  23  42  67  91 130 167 222 272 328 396
#     4  10  22  40  60  91 128 167 208 265 330 391
#     4  10  23  47  70 101 135 184 219 281 343 398
#     4  10  23  44  62  93 129 168 219 277 326 390
#     4  11  23  38  65  97 127 172 219 265 335 398
#     4  11  23  40  65  93 132 166 216 276 329 401
#     4  10  23  45  67  99 134 174 228 277 335 404
#
# _framework density 22.648561999999998
#
# number of rings (size 3 to 8) (size 9 to 14) (size 15 to 20)
#    0.000    1.714    0.000    3.429    4.000    5.143 
#   18.000    0.000    0.000    0.000    0.000    0.000 
#    0.000    0.000    0.000    0.000    0.000    0.000 
#
# Total GULP energy -694029.130425 kJ/mol
# GULP energy per Si atom -12393.377329 kJ/mol
# Density = 2.259701 g / cm^3
# Si number density = 22.648562 Si / 1000 Ang^3
#
#
#
# Elastic Constant Matrix: (Units=GPa)
#
#
# Indices 1 2 3 4 5 6 
#
# 1 181.2049 27.1281 36.8247 0.0000 0.0000 0.0000
# 2 27.1281 30.5829 21.7239 0.0000 0.0000 0.0000
# 3 36.8247 21.7239 109.1360 0.0000 0.0000 0.0000
# 4 0.0000 0.0000 0.0000 21.3452 0.0000 0.0000
# 5 0.0000 0.0000 0.0000 0.0000 28.4643 0.0000
# 6 0.0000 0.0000 0.0000 0.0000 0.0000 33.6453
#
#
#
# Elastic Compliance Matrix: (Units=1/GPa)
#
#
# Indices 1 2 3 4 5 6 
#
# 1 0.006500 -0.004901 -0.001218 0.000000 0.000000 0.000000
# 2 -0.004901 0.041777 -0.006662 0.000000 0.000000 0.000000
# 3 -0.001218 -0.006662 0.010900 0.000000 0.000000 0.000000
# 4 0.000000 0.000000 0.000000 0.046849 0.000000 0.000000
# 5 0.000000 0.000000 0.000000 0.000000 0.035132 0.000000
# 6 0.000000 0.000000 0.000000 0.000000 0.000000 0.029722
#
#
# Mechanical properties :
#
#
# Convention : Reuss Voigt Hill
#
# Bulk Modulus (GPa) = 29.74789 54.69748 42.22269
# Shear Modulus (GPa) = 24.07942 32.37409 28.22676
#
# Velocity S-wave (km/s) = 3.26418 3.78486 3.53412
# Velocity P-wave (km/s) = 5.23159 6.58051 5.94444
#
# Compressibility (1/GPa) = 0.03361583
#
# Stress axis : x y z
#
# Youngs Moduli (GPa) = 153.85269 23.93639 91.74379
#
# Poissons Ratio (x) = 0.11730 0.11171
# Poissons Ratio (y) = 0.75396 0.61124
# Poissons Ratio (z) = 0.18734 0.15947
#
# Static dielectric constant tensor:
#      x y z
#    x 4.575420 0.000000 0.000000 
#    y 0.000000 3.774150 0.000000 
#    z 0.000000 0.000000 3.973900 
# 
# 
# High freq. dielectric constant tensor:
#      x y z
#    x 1.923960 0.000000 0.000000 
#    y 0.000000 1.865910 0.000000 
#    z 0.000000 0.000000 1.888820 
# 
# From -- ./inp_files/4484.got.cif
#   From: 2010.03.12/outbox.cif.g09.slc.cpg/sg56_3_cif.got.tgz:4484.got - 2010.04.16 15:33:40.
