data_PCOD8229215
_publ_section_title
;
Structure prediction by ZEFSAII (Michael W. Deem and Ramdas Pophale) SiO2 
 PCOD8229215
Probable space group: P C C N
;
_chemical_formula_sum "Si O2"
_cell_formula_units_Z 44
_cell_length_a 9.977336
_cell_length_b 7.607409
_cell_length_c 27.776884
_cell_angle_alpha 90.000000
_cell_angle_beta 90.000000
_cell_angle_gamma 90.000000
_cell_volume 2108.312041
_symmetry_space_group_name_H-M "P C C N"
_symmetry_group_IT_number 56
_symmetry_cell_setting 'orthorhombic'
loop_
_space_group_symop_operation_xyz
x,y,z
1/2-x,1/2-y,z
1/2+x,-y,1/2-z
-x,1/2+y,1/2-z
-x,-y,-z
1/2+x,1/2+y,-z
1/2-x,y,1/2+z
x,1/2-y,1/2+z
loop_
_atom_site_type_symbol
_atom_site_label
_atom_site_fract_x
_atom_site_fract_y
_atom_site_fract_z
Si Si1 0.768830 0.455135 0.856256
Si Si2 0.848156 0.408490 0.547137
Si Si3 0.656413 0.599287 0.952528
Si Si4 0.132372 0.886590 0.233008
Si Si5 0.750000 0.750000 0.105162
Si Si6 0.956903 0.881087 0.682540
O O1 0.750000 0.250000 0.866991
O O2 0.730512 0.561939 0.902806
O O3 0.674737 0.514148 0.811341
O O4 0.921998 0.488554 0.841648
O O5 0.750000 0.250000 0.562826
O O6 0.838899 0.436370 0.489500
O O7 0.808705 0.589731 0.573591
O O8 0.001474 0.350394 0.558432
O O9 0.750000 0.750000 0.976251
O O10 0.250000 0.750000 0.242261
O O11 0.999268 0.783763 0.216015
O O12 0.120076 0.987068 0.282714
O O13 0.632356 0.819097 0.138591
#
# Coordination Sequence:
#
# PCOD8229215 Si02
#       6
#     8   8   8   8   4   8
#     4   9  20  41  63  93 128 179 228 275 344 413
#     4  11  26  47  71 105 143 181 234 292 353 417
#     4  11  24  45  71 102 138 184 235 290 346 422
#     4   9  21  41  61  91 131 175 230 281 346 403
#     4  12  26  44  68 106 142 182 230 296 354 414
#     4  10  23  39  67  93 134 178 223 289 338 420
#
# _framework density 20.869775000000001
#
# number of rings (size 3 to 8) (size 9 to 14) (size 15 to 20)
#    0.000    2.182    0.909    2.727    7.636    4.364 
#    0.000    0.000    0.000    0.000    0.000    0.000 
#    0.000    0.000    0.000    0.000    0.000    0.000 
#
# Total GULP energy -545365.492191 kJ/mol
# GULP energy per Si atom -12394.670277 kJ/mol
# Density = 2.082227 g / cm^3
# Si number density = 20.869775 Si / 1000 Ang^3
#
#
#
# Elastic Constant Matrix: (Units=GPa)
#
#
# Indices 1 2 3 4 5 6 
#
# 1 114.0800 46.0030 45.9083 0.0000 0.0000 0.0000
# 2 46.0030 68.0405 41.5063 0.0000 0.0000 0.0000
# 3 45.9083 41.5063 126.1359 0.0000 0.0000 0.0000
# 4 0.0000 0.0000 0.0000 37.5578 0.0000 0.0000
# 5 0.0000 0.0000 0.0000 0.0000 30.0573 0.0000
# 6 0.0000 0.0000 0.0000 0.0000 0.0000 24.3676
#
#
#
# Elastic Compliance Matrix: (Units=1/GPa)
#
#
# Indices 1 2 3 4 5 6 
#
# 1 0.012528 -0.007118 -0.002218 0.000000 0.000000 0.000000
# 2 -0.007118 0.022432 -0.004791 0.000000 0.000000 0.000000
# 3 -0.002218 -0.004791 0.010312 0.000000 0.000000 0.000000
# 4 0.000000 0.000000 0.000000 0.026626 0.000000 0.000000
# 5 0.000000 0.000000 0.000000 0.000000 0.033270 0.000000
# 6 0.000000 0.000000 0.000000 0.000000 0.000000 0.041038
#
#
# Mechanical properties :
#
#
# Convention : Reuss Voigt Hill
#
# Bulk Modulus (GPa) = 58.75648 63.89905 61.32777
# Shear Modulus (GPa) = 27.75749 30.05248 28.90499
#
# Velocity S-wave (km/s) = 3.65092 3.79885 3.72562
# Velocity P-wave (km/s) = 6.78139 7.06584 6.92508
#
# Compressibility (1/GPa) = 0.01701940
#
# Stress axis : x y z
#
# Youngs Moduli (GPa) = 79.81809 44.57891 96.97821
#
# Poissons Ratio (x) = 0.31731 0.21506
# Poissons Ratio (y) = 0.56813 0.46461
# Poissons Ratio (z) = 0.17701 0.21357
#
# Static dielectric constant tensor:
#      x y z
#    x 4.019380 0.000000 0.000000 
#    y 0.000000 3.662120 0.000000 
#    z 0.000000 0.000000 3.941670 
# 
# 
# High freq. dielectric constant tensor:
#      x y z
#    x 1.829100 0.000000 0.000000 
#    y 0.000000 1.797600 0.000000 
#    z 0.000000 0.000000 1.831180 
# 
# From -- ./inp_files/23153.got.cif
#   From: 2010.03.12/outbox.cif.g09.slc.cpg/sg56_12_cif.got.tgz:23153.got - 2010.04.16 15:33:40.
