data_PCOD8229134
_publ_section_title
;
Structure prediction by ZEFSAII (Michael W. Deem and Ramdas Pophale) SiO2 
 PCOD8229134
Probable space group: P C C N
;
_chemical_formula_sum "Si O2"
_cell_formula_units_Z 48
_cell_length_a 17.402786
_cell_length_b 9.363302
_cell_length_c 13.911466
_cell_angle_alpha 90.000000
_cell_angle_beta 90.000000
_cell_angle_gamma 90.000000
_cell_volume 2266.839176
_symmetry_space_group_name_H-M "P C C N"
_symmetry_group_IT_number 56
_symmetry_cell_setting 'orthorhombic'
loop_
_space_group_symop_operation_xyz
x,y,z
1/2-x,1/2-y,z
1/2+x,-y,1/2-z
-x,1/2+y,1/2-z
-x,-y,-z
1/2+x,1/2+y,-z
1/2-x,y,1/2+z
x,1/2-y,1/2+z
loop_
_atom_site_type_symbol
_atom_site_label
_atom_site_fract_x
_atom_site_fract_y
_atom_site_fract_z
Si Si1 0.125850 0.006426 0.967339
Si Si2 0.717147 0.905979 0.720122
Si Si3 0.002628 0.282404 0.534094
Si Si4 0.962686 0.279386 0.830347
Si Si5 0.058308 0.095319 0.704931
Si Si6 0.690098 0.124745 0.341294
O O1 0.059277 0.898974 0.930074
O O2 0.183845 0.033573 0.879787
O O3 0.175553 0.946961 0.055715
O O4 0.084124 0.148507 0.005956
O O5 0.750000 0.750000 0.700362
O O6 0.650584 0.898382 0.801488
O O7 0.782523 0.010002 0.761999
O O8 0.016495 0.165312 0.614843
O O9 0.965052 0.199388 0.444621
O O10 0.968890 0.433046 0.781301
O O11 0.886488 0.195473 0.797563
O O12 0.034969 0.182043 0.800422
O O13 0.750000 0.250000 0.358004
#
# Coordination Sequence:
#
# PCOD8229134 Si02
#       6
#     8   8   8   8   8   8
#     4  10  23  45  67 101 136 179 224 282 344 405
#     4  12  26  44  69 103 138 181 227 285 348 403
#     4  10  22  42  72  97 135 175 227 285 336 403
#     4  11  25  44  69 100 133 179 233 277 340 413
#     4  12  24  43  71 101 132 180 228 284 337 410
#     4  11  25  47  66  96 141 184 225 278 345 411
#
# _framework density 21.174859000000001
#
# number of rings (size 3 to 8) (size 9 to 14) (size 15 to 20)
#    0.000    1.000    3.333    2.500    7.000    2.667 
#    3.000    0.000    0.000    0.000    0.000    0.000 
#    0.000    0.000    0.000    0.000    0.000    0.000 
#
# Total GULP energy -595374.384085 kJ/mol
# GULP energy per Si atom -12403.633002 kJ/mol
# Density = 2.112666 g / cm^3
# Si number density = 21.174859 Si / 1000 Ang^3
#
#
#
# Elastic Constant Matrix: (Units=GPa)
#
#
# Indices 1 2 3 4 5 6 
#
# 1 69.9951 49.6185 34.0757 0.0000 0.0000 0.0000
# 2 49.6185 144.4698 60.3181 0.0000 0.0000 0.0000
# 3 34.0757 60.3181 108.8890 0.0000 0.0000 0.0000
# 4 0.0000 0.0000 0.0000 26.1399 0.0000 0.0000
# 5 0.0000 0.0000 0.0000 0.0000 38.6194 0.0000
# 6 0.0000 0.0000 0.0000 0.0000 0.0000 37.8048
#
#
#
# Elastic Compliance Matrix: (Units=1/GPa)
#
#
# Indices 1 2 3 4 5 6 
#
# 1 0.019677 -0.005447 -0.003140 0.000000 0.000000 0.000000
# 2 -0.005447 0.010512 -0.004119 0.000000 0.000000 0.000000
# 3 -0.003140 -0.004119 0.012448 0.000000 0.000000 0.000000
# 4 0.000000 0.000000 0.000000 0.038256 0.000000 0.000000
# 5 0.000000 0.000000 0.000000 0.000000 0.025894 0.000000
# 6 0.000000 0.000000 0.000000 0.000000 0.000000 0.026452
#
#
# Mechanical properties :
#
#
# Convention : Reuss Voigt Hill
#
# Bulk Modulus (GPa) = 58.05481 67.93094 62.99287
# Shear Modulus (GPa) = 30.41524 32.46892 31.44208
#
# Velocity S-wave (km/s) = 3.79408 3.92008 3.85759
# Velocity P-wave (km/s) = 6.83153 7.25534 7.04662
#
# Compressibility (1/GPa) = 0.01722510
#
# Stress axis : x y z
#
# Youngs Moduli (GPa) = 50.82137 95.12787 80.33505
#
# Poissons Ratio (x) = 0.51815 0.25228
# Poissons Ratio (y) = 0.27682 0.33087
# Poissons Ratio (z) = 0.15960 0.39179
#
# Static dielectric constant tensor:
#      x y z
#    x 3.962600 0.000000 0.000000 
#    y 0.000000 3.838350 0.000000 
#    z 0.000000 0.000000 3.749980 
# 
# 
# High freq. dielectric constant tensor:
#      x y z
#    x 1.832910 0.000000 0.000000 
#    y 0.000000 1.838970 0.000000 
#    z 0.000000 0.000000 1.833890 
# 
# From -- ./inp_files/10701.got.cif
#   From: 2010.03.12/outbox.cif.g09.slc.cpg/sg56_6_cif.got.tgz:10701.got - 2010.04.16 15:33:40.
