data_PCOD8229198
_publ_section_title
;
Structure prediction by ZEFSAII (Michael W. Deem and Ramdas Pophale) SiO2 
 PCOD8229198
Probable space group: P C C N
;
_chemical_formula_sum "Si O2"
_cell_formula_units_Z 48
_cell_length_a 15.379492
_cell_length_b 11.952991
_cell_length_c 11.038508
_cell_angle_alpha 90.000000
_cell_angle_beta 90.000000
_cell_angle_gamma 90.000000
_cell_volume 2029.219185
_symmetry_space_group_name_H-M "P C C N"
_symmetry_group_IT_number 56
_symmetry_cell_setting 'orthorhombic'
loop_
_space_group_symop_operation_xyz
x,y,z
1/2-x,1/2-y,z
1/2+x,-y,1/2-z
-x,1/2+y,1/2-z
-x,-y,-z
1/2+x,1/2+y,-z
1/2-x,y,1/2+z
x,1/2-y,1/2+z
loop_
_atom_site_type_symbol
_atom_site_label
_atom_site_fract_x
_atom_site_fract_y
_atom_site_fract_z
Si Si1 0.872640 0.013320 0.711536
Si Si2 0.750000 0.750000 0.788252
Si Si3 0.091609 0.287232 0.881070
Si Si4 0.750000 0.250000 0.935750
Si Si5 0.143004 0.108650 0.056233
Si Si6 0.698962 0.425007 0.117966
Si Si7 0.409553 0.750608 0.242495
O O1 0.768175 0.037632 0.720377
O O2 0.921437 0.131045 0.688301
O O3 0.888863 0.921074 0.605108
O O4 0.908020 0.960156 0.839042
O O5 0.665157 0.768598 0.705077
O O6 0.766851 0.854518 0.878679
O O7 0.092001 0.220998 0.009736
O O8 0.998825 0.281012 0.819170
O O9 0.757023 0.359627 0.019231
O O10 0.663789 0.264644 0.858179
O O11 0.155858 0.034037 0.938663
O O12 0.620892 0.347656 0.166534
#
# Coordination Sequence:
#
# PCOD8229198 Si02
#       7
#     8   4   8   4   8   8   8
#     4  11  23  45  68 100 141 185 233 284 350 420
#     4  10  22  48  66 104 138 180 234 284 350 416
#     4  11  27  43  72 106 142 182 236 297 349 418
#     4  12  22  44  70 104 138 188 230 294 346 424
#     4  11  22  42  75  97 135 186 233 279 360 409
#     4  12  22  44  75  98 144 184 232 292 346 409
#     4  12  25  45  67 111 141 187 237 283 354 422
#
# _framework density 23.654419000000001
#
# number of rings (size 3 to 8) (size 9 to 14) (size 15 to 20)
#    0.000    0.667    5.000    3.500    2.333    3.333 
#    0.000    0.833    0.000    0.000    0.000    0.000 
#    0.000    0.000    0.000    0.000    0.000    0.000 
#
# Total GULP energy -594855.471385 kJ/mol
# GULP energy per Si atom -12392.822321 kJ/mol
# Density = 2.360058 g / cm^3
# Si number density = 23.654419 Si / 1000 Ang^3
#
#
#
# Elastic Constant Matrix: (Units=GPa)
#
#
# Indices 1 2 3 4 5 6 
#
# 1 94.5152 19.8204 7.6507 0.0000 0.0000 0.0000
# 2 19.8204 130.6882 25.4996 0.0000 0.0000 0.0000
# 3 7.6507 25.4996 74.6977 0.0000 0.0000 0.0000
# 4 0.0000 0.0000 0.0000 40.0867 0.0000 0.0000
# 5 0.0000 0.0000 0.0000 0.0000 92.2613 0.0000
# 6 0.0000 0.0000 0.0000 0.0000 0.0000 23.8172
#
#
#
# Elastic Compliance Matrix: (Units=1/GPa)
#
#
# Indices 1 2 3 4 5 6 
#
# 1 0.010952 -0.001545 -0.000594 0.000000 0.000000 0.000000
# 2 -0.001545 0.008416 -0.002715 0.000000 0.000000 0.000000
# 3 -0.000594 -0.002715 0.014375 0.000000 0.000000 0.000000
# 4 0.000000 0.000000 0.000000 0.024946 0.000000 0.000000
# 5 0.000000 0.000000 0.000000 0.000000 0.010839 0.000000
# 6 0.000000 0.000000 0.000000 0.000000 0.000000 0.041986
#
#
# Mechanical properties :
#
#
# Convention : Reuss Voigt Hill
#
# Bulk Modulus (GPa) = 41.60607 45.09361 43.34984
# Shear Modulus (GPa) = 38.68951 47.69508 43.19229
#
# Velocity S-wave (km/s) = 4.04866 4.49523 4.27777
# Velocity P-wave (km/s) = 6.28354 6.78584 6.53951
#
# Compressibility (1/GPa) = 0.02403495
#
# Stress axis : x y z
#
# Youngs Moduli (GPa) = 91.30388 118.82393 69.56591
#
# Poissons Ratio (x) = 0.18360 0.04134
# Poissons Ratio (y) = 0.14107 0.18885
# Poissons Ratio (z) = 0.05426 0.32257
#
# Static dielectric constant tensor:
#      x y z
#    x 4.293580 0.000000 0.000000 
#    y 0.000000 4.368090 0.000000 
#    z 0.000000 0.000000 4.332550 
# 
# 
# High freq. dielectric constant tensor:
#      x y z
#    x 1.907750 0.000000 0.000000 
#    y 0.000000 1.961740 0.000000 
#    z 0.000000 0.000000 1.928020 
# 
# From -- ./inp_files/8319.got.cif
#   From: 2010.03.12/outbox.cif.g09.slc.cpg/sg56_5_cif.got.tgz:8319.got - 2010.04.16 15:33:40.
