data_PCOD8229249
_publ_section_title
;
Structure prediction by ZEFSAII (Michael W. Deem and Ramdas Pophale) SiO2 
 PCOD8229249
Probable space group: P C C N
;
_chemical_formula_sum "Si O2"
_cell_formula_units_Z 28
_cell_length_a 9.884659
_cell_length_b 10.570529
_cell_length_c 13.509021
_cell_angle_alpha 90.000000
_cell_angle_beta 90.000000
_cell_angle_gamma 90.000000
_cell_volume 1411.504576
_symmetry_space_group_name_H-M "P C C N"
_symmetry_group_IT_number 56
_symmetry_cell_setting 'orthorhombic'
loop_
_space_group_symop_operation_xyz
x,y,z
1/2-x,1/2-y,z
1/2+x,-y,1/2-z
-x,1/2+y,1/2-z
-x,-y,-z
1/2+x,1/2+y,-z
1/2-x,y,1/2+z
x,1/2-y,1/2+z
loop_
_atom_site_type_symbol
_atom_site_label
_atom_site_fract_x
_atom_site_fract_y
_atom_site_fract_z
Si Si1 0.750000 0.250000 0.099877
Si Si2 0.867319 0.445965 0.451456
Si Si3 0.730146 0.897590 0.801154
Si Si4 0.923117 0.098271 0.740243
O O1 0.623417 0.212702 0.169376
O O2 0.713261 0.367650 0.032112
O O3 0.772869 0.562195 0.413045
O O4 0.909019 0.359689 0.355916
O O5 0.000000 0.500000 0.500000
O O6 0.750000 0.750000 0.783033
O O7 0.576202 0.939071 0.783796
O O8 0.826551 0.974670 0.724024
#
# Coordination Sequence:
#
# PCOD8229249 Si02
#       4
#     4   8   8   8
#     4  12  22  42  68  98 142 174 238 268 346 416
#     4  10  23  41  68  99 135 177 220 291 332 400
#     4  10  23  42  69  98 136 176 232 276 351 399
#     4  10  24  41  70  99 134 185 220 289 344 395
#
# _framework density 19.836988000000002
#
# number of rings (size 3 to 8) (size 9 to 14) (size 15 to 20)
#    1.714    0.000    0.000    4.286    4.000    1.143 
#    0.000    8.571    0.000    0.000    0.000    0.000 
#    0.000    0.000    0.000    0.000    0.000    0.000 
#
# Total GULP energy -347010.364505 kJ/mol
# GULP energy per Si atom -12393.227304 kJ/mol
# Density = 1.979184 g / cm^3
# Si number density = 19.836988 Si / 1000 Ang^3
#
#
#
# Elastic Constant Matrix: (Units=GPa)
#
#
# Indices 1 2 3 4 5 6 
#
# 1 170.2426 40.8971 41.3608 0.0000 0.0000 0.0000
# 2 40.8971 82.6422 22.6886 0.0000 0.0000 0.0000
# 3 41.3608 22.6886 111.3795 0.0000 0.0000 0.0000
# 4 0.0000 0.0000 0.0000 42.6042 0.0000 0.0000
# 5 0.0000 0.0000 0.0000 0.0000 44.8602 0.0000
# 6 0.0000 0.0000 0.0000 0.0000 0.0000 29.7890
#
#
#
# Elastic Compliance Matrix: (Units=1/GPa)
#
#
# Indices 1 2 3 4 5 6 
#
# 1 0.007074 -0.002944 -0.002027 0.000000 0.000000 0.000000
# 2 -0.002944 0.014042 -0.001767 0.000000 0.000000 0.000000
# 3 -0.002027 -0.001767 0.010091 0.000000 0.000000 0.000000
# 4 0.000000 0.000000 0.000000 0.023472 0.000000 0.000000
# 5 0.000000 0.000000 0.000000 0.000000 0.022291 0.000000
# 6 0.000000 0.000000 0.000000 0.000000 0.000000 0.033569
#
#
# Mechanical properties :
#
#
# Convention : Reuss Voigt Hill
#
# Bulk Modulus (GPa) = 56.40019 63.79527 60.09773
# Shear Modulus (GPa) = 38.48316 40.73853 39.61084
#
# Velocity S-wave (km/s) = 4.40929 4.53665 4.47342
# Velocity P-wave (km/s) = 7.37672 7.72471 7.55272
#
# Compressibility (1/GPa) = 0.01773044
#
# Stress axis : x y z
#
# Youngs Moduli (GPa) = 141.36865 71.21260 99.09742
#
# Poissons Ratio (x) = 0.20965 0.20088
# Poissons Ratio (y) = 0.41620 0.17513
# Poissons Ratio (z) = 0.28657 0.12585
#
# Static dielectric constant tensor:
#      x y z
#    x 3.498260 0.000000 0.000000 
#    y 0.000000 3.160260 0.000000 
#    z 0.000000 0.000000 3.675360 
# 
# 
# High freq. dielectric constant tensor:
#      x y z
#    x 1.783930 0.000000 0.000000 
#    y 0.000000 1.756880 0.000000 
#    z 0.000000 0.000000 1.772220 
# 
# From -- ./inp_files/10009.got.cif
#   From: 2010.03.12/outbox.cif.g09.slc.cpg/sg56_6_cif.got.tgz:10009.got - 2010.04.16 15:33:40.
