data_PCOD8229382
_publ_section_title
;
Structure prediction by ZEFSAII (Michael W. Deem and Ramdas Pophale) SiO2 
 PCOD8229382
Probable space group: P C C N
;
_chemical_formula_sum "Si O2"
_cell_formula_units_Z 40
_cell_length_a 21.496214
_cell_length_b 8.699170
_cell_length_c 8.949069
_cell_angle_alpha 90.000000
_cell_angle_beta 90.000000
_cell_angle_gamma 90.000000
_cell_volume 1673.468922
_symmetry_space_group_name_H-M "P C C N"
_symmetry_group_IT_number 56
_symmetry_cell_setting 'orthorhombic'
loop_
_space_group_symop_operation_xyz
x,y,z
1/2-x,1/2-y,z
1/2+x,-y,1/2-z
-x,1/2+y,1/2-z
-x,-y,-z
1/2+x,1/2+y,-z
1/2-x,y,1/2+z
x,1/2-y,1/2+z
loop_
_atom_site_type_symbol
_atom_site_label
_atom_site_fract_x
_atom_site_fract_y
_atom_site_fract_z
Si Si1 0.215887 0.589908 0.619756
Si Si2 0.211419 0.103741 0.400662
Si Si3 0.427000 0.319638 0.492306
Si Si4 0.488842 0.515549 0.740527
Si Si5 0.580275 0.457236 0.975094
O O1 0.250000 0.750000 0.605487
O O2 0.254519 0.451368 0.549057
O O3 0.149362 0.607148 0.539418
O O4 0.209886 0.541298 0.790494
O O5 0.250000 0.250000 0.337016
O O6 0.140619 0.140168 0.433327
O O7 0.442318 0.407657 0.646351
O O8 0.478101 0.362060 0.367581
O O9 0.425516 0.140922 0.525722
O O10 0.539052 0.408592 0.830508
O O11 0.447741 0.605442 0.867651
#
# Coordination Sequence:
#
# PCOD8229382 Si02
#       5
#     8   8   8   8   8
#     4  12  28  50  72 114 156 196 250 322 392 443
#     4  12  26  48  81 109 143 209 262 309 372 467
#     4  11  23  47  74 109 146 194 266 304 370 455
#     4  10  24  43  71 115 144 193 248 318 367 435
#     4  11  23  47  74 105 153 199 246 311 378 457
#
# _framework density 23.902446000000001
#
# number of rings (size 3 to 8) (size 9 to 14) (size 15 to 20)
#    0.000    0.800    4.000    2.400    2.800    0.000 
#   21.600    0.000    0.000    0.000    0.000    0.000 
#    0.000    0.000    0.000    0.000    0.000    0.000 
#
# Total GULP energy -495990.188211 kJ/mol
# GULP energy per Si atom -12399.754705 kJ/mol
# Density = 2.384804 g / cm^3
# Si number density = 23.902446 Si / 1000 Ang^3
#
#
#
# Elastic Constant Matrix: (Units=GPa)
#
#
# Indices 1 2 3 4 5 6 
#
# 1 156.9136 75.3528 37.2247 0.0000 0.0000 0.0000
# 2 75.3528 80.5141 33.7422 0.0000 0.0000 0.0000
# 3 37.2247 33.7422 119.8904 0.0000 0.0000 0.0000
# 4 0.0000 0.0000 0.0000 24.0529 0.0000 0.0000
# 5 0.0000 0.0000 0.0000 0.0000 19.2931 0.0000
# 6 0.0000 0.0000 0.0000 0.0000 0.0000 43.3834
#
#
#
# Elastic Compliance Matrix: (Units=1/GPa)
#
#
# Indices 1 2 3 4 5 6 
#
# 1 0.011616 -0.010611 -0.000620 0.000000 0.000000 0.000000
# 2 -0.010611 0.023775 -0.003396 0.000000 0.000000 0.000000
# 3 -0.000620 -0.003396 0.009489 0.000000 0.000000 0.000000
# 4 0.000000 0.000000 0.000000 0.041575 0.000000 0.000000
# 5 0.000000 0.000000 0.000000 0.000000 0.051832 0.000000
# 6 0.000000 0.000000 0.000000 0.000000 0.000000 0.023050
#
#
# Mechanical properties :
#
#
# Convention : Reuss Voigt Hill
#
# Bulk Modulus (GPa) = 64.00382 72.21748 68.11065
# Shear Modulus (GPa) = 25.53614 31.41244 28.47429
#
# Velocity S-wave (km/s) = 3.27211 3.62911 3.45522
# Velocity P-wave (km/s) = 6.41177 6.91662 6.66897
#
# Compressibility (1/GPa) = 0.01562407
#
# Stress axis : x y z
#
# Youngs Moduli (GPa) = 86.08989 42.06164 105.38062
#
# Poissons Ratio (x) = 0.44633 0.06535
# Poissons Ratio (y) = 0.91352 0.35792
# Poissons Ratio (z) = 0.05339 0.14286
#
# Static dielectric constant tensor:
#      x y z
#    x 4.772910 0.000000 0.000000 
#    y 0.000000 4.662270 0.000000 
#    z 0.000000 0.000000 4.671650 
# 
# 
# High freq. dielectric constant tensor:
#      x y z
#    x 1.963910 0.000000 0.000000 
#    y 0.000000 1.936190 0.000000 
#    z 0.000000 0.000000 1.966880 
# 
# From -- ./inp_files/4682.got.cif
#   From: 2010.03.12/outbox.cif.g09.slc.cpg/sg56_3_cif.got.tgz:4682.got - 2010.04.16 15:33:40.
