data_PCOD8229464
_publ_section_title
;
Structure prediction by ZEFSAII (Michael W. Deem and Ramdas Pophale) SiO2 
 PCOD8229464
Probable space group: P C C N
;
_chemical_formula_sum "Si O2"
_cell_formula_units_Z 48
_cell_length_a 17.047769
_cell_length_b 5.565845
_cell_length_c 22.654798
_cell_angle_alpha 90.000000
_cell_angle_beta 90.000000
_cell_angle_gamma 90.000000
_cell_volume 2149.605942
_symmetry_space_group_name_H-M "P C C N"
_symmetry_group_IT_number 56
_symmetry_cell_setting 'orthorhombic'
loop_
_space_group_symop_operation_xyz
x,y,z
1/2-x,1/2-y,z
1/2+x,-y,1/2-z
-x,1/2+y,1/2-z
-x,-y,-z
1/2+x,1/2+y,-z
1/2-x,y,1/2+z
x,1/2-y,1/2+z
loop_
_atom_site_type_symbol
_atom_site_label
_atom_site_fract_x
_atom_site_fract_y
_atom_site_fract_z
Si Si1 0.564215 0.684731 0.189604
Si Si2 0.598514 0.318213 0.752599
Si Si3 0.033594 0.291994 0.038889
Si Si4 0.750000 0.250000 0.823726
Si Si5 0.103167 0.007896 0.932353
Si Si6 0.689675 0.946780 0.926821
Si Si7 0.250000 0.750000 0.473483
O O1 0.470536 0.679717 0.198754
O O2 0.599302 0.436889 0.217502
O O3 0.590656 0.694573 0.121037
O O4 0.595086 0.939527 0.213703
O O5 0.680597 0.351425 0.784648
O O6 0.100106 0.371236 0.085376
O O7 0.962568 0.196151 0.079088
O O8 0.000000 0.500000 0.000000
O O9 0.079929 0.108193 0.996402
O O10 0.780130 0.462759 0.864649
O O11 0.193832 0.915921 0.932505
O O12 0.750000 0.750000 0.949796
O O13 0.687314 0.124765 0.982913
#
# Coordination Sequence:
#
# PCOD8229464 Si02
#       7
#     8   8   8   4   8   8   4
#     4  10  25  46  73  96 139 184 237 291 358 411
#     4  10  25  48  68 103 133 178 241 305 344 421
#     4  11  24  40  67 103 143 178 232 275 348 446
#     4  11  28  41  74 100 134 177 236 295 362 414
#     4  11  25  40  69  99 134 189 226 286 346 435
#     4  11  24  41  65 100 142 183 212 294 351 420
#     4  11  22  43  58 102 140 173 234 267 348 422
#
# _framework density 22.329673
#
# number of rings (size 3 to 8) (size 9 to 14) (size 15 to 20)
#    0.000    1.333    3.333    0.000    9.333    2.000 
#    0.000    1.667    0.000    0.000    0.000    0.000 
#    0.000    0.000    0.000    0.000    0.000    0.000 
#
# Total GULP energy -594858.483270 kJ/mol
# GULP energy per Si atom -12392.885068 kJ/mol
# Density = 2.227885 g / cm^3
# Si number density = 22.329673 Si / 1000 Ang^3
#
#
#
# Elastic Constant Matrix: (Units=GPa)
#
#
# Indices 1 2 3 4 5 6 
#
# 1 158.9044 34.8209 41.3670 0.0000 0.0000 0.0000
# 2 34.8209 106.2414 16.8711 0.0000 0.0000 0.0000
# 3 41.3670 16.8711 82.2166 0.0000 0.0000 0.0000
# 4 0.0000 0.0000 0.0000 -204.2414 0.0000 0.0000
# 5 0.0000 0.0000 0.0000 0.0000 9.4041 0.0000
# 6 0.0000 0.0000 0.0000 0.0000 0.0000 37.7531
#
#
#
# Elastic Compliance Matrix: (Units=1/GPa)
#
#
# Indices 1 2 3 4 5 6 
#
# 1 0.007614 -0.001951 -0.003430 0.000000 0.000000 0.000000
# 2 -0.001951 0.010229 -0.001118 0.000000 0.000000 0.000000
# 3 -0.003430 -0.001118 0.014118 0.000000 0.000000 0.000000
# 4 0.000000 0.000000 0.000000 -0.004896 0.000000 0.000000
# 5 0.000000 0.000000 0.000000 0.000000 0.106336 0.000000
# 6 0.000000 0.000000 0.000000 0.000000 0.000000 0.026488
#
#
# Mechanical properties :
#
#
# Convention : Reuss Voigt Hill
#
# Bulk Modulus (GPa) = 52.73202 59.27561 56.00381
# Shear Modulus (GPa) = 27.90053 -14.46329 6.71862
#
# Velocity S-wave (km/s) = 3.53864 -2.54779 1.73648
# Velocity P-wave (km/s) = 6.35314 4.23655 5.39957
#
# Compressibility (1/GPa) = 0.01896381
#
# Stress axis : x y z
#
# Youngs Moduli (GPa) = 131.34440 97.75808 70.82968
#
# Poissons Ratio (x) = 0.19069 0.24298
# Poissons Ratio (y) = 0.25620 0.07916
# Poissons Ratio (z) = 0.45057 0.10926
#
# Static dielectric constant tensor:
#      x y z
#    x 4.114890 0.000000 0.000000 
#    y 0.000000 4.291260 0.000000 
#    z 0.000000 0.000000 3.938190 
# 
# 
# High freq. dielectric constant tensor:
#      x y z
#    x 1.892770 0.000000 0.000000 
#    y 0.000000 1.887930 0.000000 
#    z 0.000000 0.000000 1.862070 
# 
# From -- ./inp_files/21250.got.cif
#   From: 2010.03.12/outbox.cif.g09.slc.cpg/sg56_11_cif.got.tgz:21250.got - 2010.04.16 15:33:40.
