data_PCOD8229788
_publ_section_title
;
Structure prediction by ZEFSAII (Michael W. Deem and Ramdas Pophale) SiO2 
 PCOD8229788
Probable space group: P C C N
;
_chemical_formula_sum "Si O2"
_cell_formula_units_Z 48
_cell_length_a 9.116333
_cell_length_b 8.265385
_cell_length_c 26.802855
_cell_angle_alpha 90.000000
_cell_angle_beta 90.000000
_cell_angle_gamma 90.000000
_cell_volume 2019.595179
_symmetry_space_group_name_H-M "P C C N"
_symmetry_group_IT_number 56
_symmetry_cell_setting 'orthorhombic'
loop_
_space_group_symop_operation_xyz
x,y,z
1/2-x,1/2-y,z
1/2+x,-y,1/2-z
-x,1/2+y,1/2-z
-x,-y,-z
1/2+x,1/2+y,-z
1/2-x,y,1/2+z
x,1/2-y,1/2+z
loop_
_atom_site_type_symbol
_atom_site_label
_atom_site_fract_x
_atom_site_fract_y
_atom_site_fract_z
Si Si1 0.157915 0.404890 0.346585
Si Si2 0.020443 0.902773 0.247627
Si Si3 0.805294 0.466235 0.925502
Si Si4 0.250000 0.750000 0.309578
Si Si5 0.507180 0.175506 0.438527
Si Si6 0.250000 0.250000 0.510346
Si Si7 0.733528 0.937033 0.815530
O O1 0.250000 0.250000 0.365847
O O2 0.240290 0.580407 0.340794
O O3 0.088218 0.340123 0.295206
O O4 0.037092 0.426880 0.389394
O O5 0.106549 0.754156 0.274137
O O6 0.921422 0.985658 0.290421
O O7 0.136731 0.024253 0.223216
O O8 0.955738 0.364126 0.928573
O O9 0.663625 0.397493 0.955795
O O10 0.840933 0.633517 0.952651
O O11 0.758983 0.469124 0.867471
O O12 0.374992 0.160402 0.477988
O O13 0.750000 0.750000 0.827848
#
# Coordination Sequence:
#
# PCOD8229788 Si02
#       7
#     8   8   8   4   8   4   8
#     4  12  27  48  72 111 155 196 256 313 375 458
#     4  12  27  44  68 106 151 198 255 301 367 455
#     4  11  26  47  76 109 147 192 253 314 379 461
#     4  12  30  44  72 112 154 206 250 310 384 442
#     4  11  26  47  75 109 146 192 245 315 389 444
#     4  12  24  52  78 106 144 194 252 320 390 456
#     4  12  26  46  71 107 152 201 251 306 374 451
#
# _framework density 23.767139
#
# number of rings (size 3 to 8) (size 9 to 14) (size 15 to 20)
#    0.000    0.333    5.000    2.500    7.000    0.000 
#    0.000    1.667    0.000    0.000    0.000    0.000 
#    0.000    0.000    0.000    0.000    0.000    0.000 
#
# Total GULP energy -594858.627636 kJ/mol
# GULP energy per Si atom -12392.888076 kJ/mol
# Density = 2.371304 g / cm^3
# Si number density = 23.767139 Si / 1000 Ang^3
#
#
#
# Elastic Constant Matrix: (Units=GPa)
#
#
# Indices 1 2 3 4 5 6 
#
# 1 103.1527 11.9876 35.8285 0.0000 0.0000 0.0000
# 2 11.9876 112.2463 28.9800 0.0000 0.0000 0.0000
# 3 35.8285 28.9800 108.3643 0.0000 0.0000 0.0000
# 4 0.0000 0.0000 0.0000 33.1269 0.0000 0.0000
# 5 0.0000 0.0000 0.0000 0.0000 19.2175 0.0000
# 6 0.0000 0.0000 0.0000 0.0000 0.0000 37.0936
#
#
#
# Elastic Compliance Matrix: (Units=1/GPa)
#
#
# Indices 1 2 3 4 5 6 
#
# 1 0.010959 -0.000252 -0.003556 0.000000 0.000000 0.000000
# 2 -0.000252 0.009576 -0.002477 0.000000 0.000000 0.000000
# 3 -0.003556 -0.002477 0.011066 0.000000 0.000000 0.000000
# 4 0.000000 0.000000 0.000000 0.030187 0.000000 0.000000
# 5 0.000000 0.000000 0.000000 0.000000 0.052036 0.000000
# 6 0.000000 0.000000 0.000000 0.000000 0.000000 0.026959
#
#
# Mechanical properties :
#
#
# Convention : Reuss Voigt Hill
#
# Bulk Modulus (GPa) = 52.54975 53.03952 52.79463
# Shear Modulus (GPa) = 31.30937 34.35206 32.83071
#
# Velocity S-wave (km/s) = 3.63345 3.80591 3.72068
# Velocity P-wave (km/s) = 6.30562 6.45586 6.38118
#
# Compressibility (1/GPa) = 0.01902959
#
# Stress axis : x y z
#
# Youngs Moduli (GPa) = 91.25134 104.43269 90.36426
#
# Poissons Ratio (x) = 0.02635 0.32132
# Poissons Ratio (y) = 0.02302 0.22387
# Poissons Ratio (z) = 0.32447 0.25872
#
# Static dielectric constant tensor:
#      x y z
#    x 4.429970 0.000000 0.000000 
#    y 0.000000 4.089580 0.000000 
#    z 0.000000 0.000000 4.096760 
# 
# 
# High freq. dielectric constant tensor:
#      x y z
#    x 1.954360 0.000000 0.000000 
#    y 0.000000 1.937370 0.000000 
#    z 0.000000 0.000000 1.932150 
# 
# From -- ./inp_files/23291.got.cif
#   From: 2010.03.12/outbox.cif.g09.slc.cpg/sg56_12_cif.got.tgz:23291.got - 2010.04.16 15:33:40.
