data_PCOD8229379
_publ_section_title
;
Structure prediction by ZEFSAII (Michael W. Deem and Ramdas Pophale) SiO2 
 PCOD8229379
Probable space group: P C C N
;
_chemical_formula_sum "Si O2"
_cell_formula_units_Z 48
_cell_length_a 9.169115
_cell_length_b 9.106357
_cell_length_c 27.647763
_cell_angle_alpha 90.000000
_cell_angle_beta 90.000000
_cell_angle_gamma 90.000000
_cell_volume 2308.511752
_symmetry_space_group_name_H-M "P C C N"
_symmetry_group_IT_number 56
_symmetry_cell_setting 'orthorhombic'
loop_
_space_group_symop_operation_xyz
x,y,z
1/2-x,1/2-y,z
1/2+x,-y,1/2-z
-x,1/2+y,1/2-z
-x,-y,-z
1/2+x,1/2+y,-z
1/2-x,y,1/2+z
x,1/2-y,1/2+z
loop_
_atom_site_type_symbol
_atom_site_label
_atom_site_fract_x
_atom_site_fract_y
_atom_site_fract_z
Si Si1 0.221031 0.088514 0.115566
Si Si2 0.672833 0.905166 0.708800
Si Si3 0.991676 0.573713 0.948607
Si Si4 0.459740 0.588581 0.952229
Si Si5 0.730949 0.922449 0.102969
Si Si6 0.678691 0.093363 0.290804
O O1 0.250000 0.250000 0.137825
O O2 0.326648 0.071991 0.069652
O O3 0.063875 0.058457 0.093175
O O4 0.235587 0.977944 0.159764
O O5 0.750000 0.750000 0.716699
O O6 0.711867 0.965219 0.655767
O O7 0.497225 0.899435 0.714773
O O8 0.748721 0.012463 0.746016
O O9 0.053551 0.736783 0.958252
O O10 0.066429 0.477243 0.905748
O O11 0.000000 0.500000 0.000000
O O12 0.306633 0.519782 0.937898
O O13 0.500000 0.500000 0.000000
O O14 0.750000 0.750000 0.092575
O O15 0.750000 0.250000 0.290784
#
# Coordination Sequence:
#
# PCOD8229379 Si02
#       6
#     8   8   8   8   8   8
#     4  10  24  43  65  95 135 173 223 276 340 404
#     4  11  26  47  69 102 140 178 226 282 345 413
#     4  11  24  40  66 100 133 181 227 280 343 405
#     4  11  22  42  66  94 134 175 224 282 339 407
#     4  11  24  42  66  95 136 175 225 279 336 403
#     4  12  26  44  74 102 134 180 227 281 347 412
#
# _framework density 20.792617
#
# number of rings (size 3 to 8) (size 9 to 14) (size 15 to 20)
#    0.000    1.000    1.667    4.000    7.000    4.000 
#    0.000    0.000    0.000    0.000    0.000    0.000 
#    0.000    0.000    0.000    0.000    0.000    0.000 
#
# Total GULP energy -594990.149843 kJ/mol
# GULP energy per Si atom -12395.628122 kJ/mol
# Density = 2.074529 g / cm^3
# Si number density = 20.792617 Si / 1000 Ang^3
#
#
#
# Elastic Constant Matrix: (Units=GPa)
#
#
# Indices 1 2 3 4 5 6 
#
# 1 95.3520 32.0951 43.8839 0.0000 0.0000 0.0000
# 2 32.0951 121.0579 89.9714 0.0000 0.0000 0.0000
# 3 43.8839 89.9714 136.8716 0.0000 0.0000 0.0000
# 4 0.0000 0.0000 0.0000 23.9197 0.0000 0.0000
# 5 0.0000 0.0000 0.0000 0.0000 -8.1104 0.0000
# 6 0.0000 0.0000 0.0000 0.0000 0.0000 39.2654
#
#
#
# Elastic Compliance Matrix: (Units=1/GPa)
#
#
# Indices 1 2 3 4 5 6 
#
# 1 0.012329 -0.000647 -0.003528 0.000000 0.000000 0.000000
# 2 -0.000647 0.016185 -0.010432 0.000000 0.000000 0.000000
# 3 -0.003528 -0.010432 0.015294 0.000000 0.000000 0.000000
# 4 0.000000 0.000000 0.000000 0.041807 0.000000 0.000000
# 5 0.000000 0.000000 0.000000 0.000000 -0.123298 0.000000
# 6 0.000000 0.000000 0.000000 0.000000 0.000000 0.025468
#
#
# Mechanical properties :
#
#
# Convention : Reuss Voigt Hill
#
# Bulk Modulus (GPa) = 68.51332 76.13136 72.32234
# Shear Modulus (GPa) = 228.71523 23.50369 126.10946
#
# Velocity S-wave (km/s) = 10.49939 3.36577 7.79633
# Velocity P-wave (km/s) = 13.41660 7.19713 10.76577
#
# Compressibility (1/GPa) = 0.01459570
#
# Stress axis : x y z
#
# Youngs Moduli (GPa) = 81.11147 61.78617 65.38393
#
# Poissons Ratio (x) = 0.03996 0.23065
# Poissons Ratio (y) = 0.05246 0.68206
# Poissons Ratio (z) = 0.28613 0.64453
#
# Static dielectric constant tensor:
#      x y z
#    x 3.480640 0.000000 0.000000 
#    y 0.000000 3.772070 0.000000 
#    z 0.000000 0.000000 4.101020 
# 
# 
# High freq. dielectric constant tensor:
#      x y z
#    x 1.829370 0.000000 0.000000 
#    y 0.000000 1.825670 0.000000 
#    z 0.000000 0.000000 1.826400 
# 
# From -- ./inp_files/23187.got.cif
#   From: 2010.03.12/outbox.cif.g09.slc.cpg/sg56_12_cif.got.tgz:23187.got - 2010.04.16 15:33:40.
