data_PCOD8229420
_publ_section_title
;
Structure prediction by ZEFSAII (Michael W. Deem and Ramdas Pophale) SiO2 
 PCOD8229420
Probable space group: P C C N
;
_chemical_formula_sum "Si O2"
_cell_formula_units_Z 60
_cell_length_a 23.075814
_cell_length_b 12.915003
_cell_length_c 8.682742
_cell_angle_alpha 90.000000
_cell_angle_beta 90.000000
_cell_angle_gamma 90.000000
_cell_volume 2587.667299
_symmetry_space_group_name_H-M "P C C N"
_symmetry_group_IT_number 56
_symmetry_cell_setting 'orthorhombic'
loop_
_space_group_symop_operation_xyz
x,y,z
1/2-x,1/2-y,z
1/2+x,-y,1/2-z
-x,1/2+y,1/2-z
-x,-y,-z
1/2+x,1/2+y,-z
1/2-x,y,1/2+z
x,1/2-y,1/2+z
loop_
_atom_site_type_symbol
_atom_site_label
_atom_site_fract_x
_atom_site_fract_y
_atom_site_fract_z
Si Si1 0.181826 0.596243 0.107780
Si Si2 0.586766 0.464895 0.175341
Si Si3 0.300798 0.568048 0.267035
Si Si4 0.111241 0.697150 0.600664
Si Si5 0.004850 0.806492 0.738075
Si Si6 0.681084 0.649909 0.867156
Si Si7 0.750000 0.750000 0.111181
Si Si8 0.434715 0.313205 0.972680
O O1 0.141418 0.519899 0.210434
O O2 0.239632 0.614518 0.208866
O O3 0.146705 0.699009 0.058733
O O4 0.201619 0.542272 0.948645
O O5 0.533473 0.420601 0.280801
O O6 0.567291 0.573888 0.106478
O O7 0.603766 0.377561 0.047720
O O8 0.351216 0.648668 0.236392
O O9 0.322323 0.469533 0.170632
O O10 0.050038 0.718834 0.683985
O O11 0.944590 0.782051 0.647273
O O12 0.990839 0.801526 0.918853
O O13 0.696735 0.714042 0.715403
O O14 0.729054 0.656902 0.001993
O O15 0.622717 0.702214 0.928840
#
# Coordination Sequence:
#
# PCOD8229420 Si02
#       8
#     8   8   8   8   8   8   4   8
#     4  11  25  41  69 110 148 187 234 287 352 435
#     4  11  24  47  73 100 146 194 237 297 361 428
#     4  12  24  42  70 107 146 185 235 284 353 429
#     4  11  23  45  70 102 146 190 233 289 356 423
#     4  11  25  44  72 101 137 184 243 296 358 419
#     4  11  24  45  72 103 139 188 237 289 353 425
#     4  10  24  46  72 100 146 184 232 300 348 410
#     4  12  25  48  73 104 141 189 241 298 362 424
#
# _framework density 23.186906
#
# number of rings (size 3 to 8) (size 9 to 14) (size 15 to 20)
#    0.000    0.800    2.667    4.800    3.733    1.067 
#    4.800    0.667    0.000    0.000    0.000    0.000 
#    0.000    0.000    0.000    0.000    0.000    0.000 
#
# Total GULP energy -743563.789445 kJ/mol
# GULP energy per Si atom -12392.729824 kJ/mol
# Density = 2.313413 g / cm^3
# Si number density = 23.186906 Si / 1000 Ang^3
#
#
#
# Elastic Constant Matrix: (Units=GPa)
#
#
# Indices 1 2 3 4 5 6 
#
# 1 112.0402 30.3811 73.1359 0.0000 0.0000 0.0000
# 2 30.3811 51.5372 47.7070 0.0000 0.0000 0.0000
# 3 73.1359 47.7070 150.5555 0.0000 0.0000 0.0000
# 4 0.0000 0.0000 0.0000 26.2409 0.0000 0.0000
# 5 0.0000 0.0000 0.0000 0.0000 49.8756 0.0000
# 6 0.0000 0.0000 0.0000 0.0000 0.0000 29.0548
#
#
#
# Elastic Compliance Matrix: (Units=1/GPa)
#
#
# Indices 1 2 3 4 5 6 
#
# 1 0.013318 -0.002635 -0.005634 0.000000 0.000000 0.000000
# 2 -0.002635 0.027979 -0.007586 0.000000 0.000000 0.000000
# 3 -0.005634 -0.007586 0.011783 0.000000 0.000000 0.000000
# 4 0.000000 0.000000 0.000000 0.038108 0.000000 0.000000
# 5 0.000000 0.000000 0.000000 0.000000 0.020050 0.000000
# 6 0.000000 0.000000 0.000000 0.000000 0.000000 0.034418
#
#
# Mechanical properties :
#
#
# Convention : Reuss Voigt Hill
#
# Bulk Modulus (GPa) = 46.79687 68.50900 57.65293
# Shear Modulus (GPa) = 27.10187 31.89485 29.49836
#
# Velocity S-wave (km/s) = 3.42254 3.71287 3.57066
# Velocity P-wave (km/s) = 5.98704 6.92756 6.47440
#
# Compressibility (1/GPa) = 0.02136895
#
# Stress axis : x y z
#
# Youngs Moduli (GPa) = 75.08680 35.74142 84.86923
#
# Poissons Ratio (x) = 0.09418 0.47819
# Poissons Ratio (y) = 0.19787 0.64379
# Poissons Ratio (z) = 0.42307 0.27112
#
# Static dielectric constant tensor:
#      x y z
#    x 4.364040 0.000000 0.000000 
#    y 0.000000 3.947470 0.000000 
#    z 0.000000 0.000000 4.364190 
# 
# 
# High freq. dielectric constant tensor:
#      x y z
#    x 1.932550 0.000000 0.000000 
#    y 0.000000 1.892900 0.000000 
#    z 0.000000 0.000000 1.933200 
# 
# From -- ./inp_files/4795.got.cif
#   From: 2010.03.12/outbox.cif.g09.slc.cpg/sg56_3_cif.got.tgz:4795.got - 2010.04.16 15:33:40.
