data_PCOD8229830
_publ_section_title
;
Structure prediction by ZEFSAII (Michael W. Deem and Ramdas Pophale) SiO2 
 PCOD8229830
Probable space group: P C C N
;
_chemical_formula_sum "Si O2"
_cell_formula_units_Z 32
_cell_length_a 4.867449
_cell_length_b 32.270623
_cell_length_c 8.409582
_cell_angle_alpha 90.000000
_cell_angle_beta 90.000000
_cell_angle_gamma 90.000000
_cell_volume 1320.940236
_symmetry_space_group_name_H-M "P C C N"
_symmetry_group_IT_number 56
_symmetry_cell_setting 'orthorhombic'
loop_
_space_group_symop_operation_xyz
x,y,z
1/2-x,1/2-y,z
1/2+x,-y,1/2-z
-x,1/2+y,1/2-z
-x,-y,-z
1/2+x,1/2+y,-z
1/2-x,y,1/2+z
x,1/2-y,1/2+z
loop_
_atom_site_type_symbol
_atom_site_label
_atom_site_fract_x
_atom_site_fract_y
_atom_site_fract_z
Si Si1 0.599924 0.673848 0.726281
Si Si2 0.915444 0.579186 0.217487
Si Si3 0.568902 0.453458 0.953302
Si Si4 0.626901 0.204869 0.095992
O O1 0.624051 0.626803 0.666311
O O2 0.482158 0.701312 0.582340
O O3 0.382277 0.674023 0.871923
O O4 0.886681 0.693908 0.779117
O O5 0.004047 0.576665 0.399888
O O6 0.119707 0.554213 0.100681
O O7 0.619677 0.557905 0.197352
O O8 0.500000 0.500000 0.000000
O O9 0.750000 0.250000 0.128949
#
# Coordination Sequence:
#
# PCOD8229830 Si02
#       4
#     8   8   8   8
#     4  12  25  46  70 100 134 177 226 280 341 411
#     4  12  24  43  68  98 135 180 228 280 338 405
#     4  12  24  42  66 100 139 182 229 282 339 402
#     4  12  26  45  69  98 132 171 219 278 341 408
#
# _framework density 24.225169000000001
#
# number of rings (size 3 to 8) (size 9 to 14) (size 15 to 20)
#    0.000    0.000    0.000   11.250    0.000    2.000 
#    0.000    1.250    0.000    0.000    0.000    0.000 
#    0.000    0.000    0.000    0.000    0.000    0.000 
#
# Total GULP energy -396988.477784 kJ/mol
# GULP energy per Si atom -12405.889931 kJ/mol
# Density = 2.417003 g / cm^3
# Si number density = 24.225169 Si / 1000 Ang^3
#
#
#
# Elastic Constant Matrix: (Units=GPa)
#
#
# Indices 1 2 3 4 5 6 
#
# 1 115.8708 58.3897 6.5004 0.0000 0.0000 0.0000
# 2 58.3897 138.4452 23.5115 0.0000 0.0000 0.0000
# 3 6.5004 23.5115 70.1819 0.0000 0.0000 0.0000
# 4 0.0000 0.0000 0.0000 37.0542 0.0000 0.0000
# 5 0.0000 0.0000 0.0000 0.0000 35.7435 0.0000
# 6 0.0000 0.0000 0.0000 0.0000 0.0000 43.6006
#
#
#
# Elastic Compliance Matrix: (Units=1/GPa)
#
#
# Indices 1 2 3 4 5 6 
#
# 1 0.010981 -0.004727 0.000567 0.000000 0.000000 0.000000
# 2 -0.004727 0.009694 -0.002810 0.000000 0.000000 0.000000
# 3 0.000567 -0.002810 0.015137 0.000000 0.000000 0.000000
# 4 0.000000 0.000000 0.000000 0.026987 0.000000 0.000000
# 5 0.000000 0.000000 0.000000 0.000000 0.027977 0.000000
# 6 0.000000 0.000000 0.000000 0.000000 0.000000 0.022935
#
#
# Mechanical properties :
#
#
# Convention : Reuss Voigt Hill
#
# Bulk Modulus (GPa) = 45.72193 55.70013 50.71103
# Shear Modulus (GPa) = 37.05250 39.01943 38.03596
#
# Velocity S-wave (km/s) = 3.91513 4.01770 3.96675
# Velocity P-wave (km/s) = 6.27315 6.67572 6.47756
#
# Compressibility (1/GPa) = 0.02187134
#
# Stress axis : x y z
#
# Youngs Moduli (GPa) = 91.06851 103.15628 66.06118
#
# Poissons Ratio (x) = 0.48766 -0.03743
# Poissons Ratio (y) = 0.43052 0.18561
# Poissons Ratio (z) = -0.05161 0.28984
#
# Static dielectric constant tensor:
#      x y z
#    x 4.664470 0.000000 0.000000 
#    y 0.000000 4.299270 0.000000 
#    z 0.000000 0.000000 4.343820 
# 
# 
# High freq. dielectric constant tensor:
#      x y z
#    x 1.982110 0.000000 0.000000 
#    y 0.000000 1.969280 0.000000 
#    z 0.000000 0.000000 1.967950 
# 
# From -- ./inp_files/1595.got.cif
#   From: 2010.03.12/outbox.cif.g09.slc.cpg/sg56_1_cif.got.tgz:1595.got - 2010.04.16 15:33:40.
