data_PCOD8229936
_publ_section_title
;
Structure prediction by ZEFSAII (Michael W. Deem and Ramdas Pophale) SiO2 
 PCOD8229936
Probable space group: P B C M
;
_chemical_formula_sum "Si O2"
_cell_formula_units_Z 56
_cell_length_a 13.856213
_cell_length_b 28.439920
_cell_length_c 8.848439
_cell_angle_alpha 90.000000
_cell_angle_beta 90.000000
_cell_angle_gamma 90.000000
_cell_volume 3486.900722
_symmetry_space_group_name_H-M "P B C M"
_symmetry_group_IT_number 57
_symmetry_cell_setting 'orthorhombic'
loop_
_space_group_symop_operation_xyz
x,y,z
-x,-y,1/2+z
x,1/2-y,-z
-x,1/2+y,1/2-z
-x,-y,-z
x,y,1/2-z
-x,1/2+y,z
x,1/2-y,1/2+z
loop_
_atom_site_type_symbol
_atom_site_label
_atom_site_fract_x
_atom_site_fract_y
_atom_site_fract_z
Si Si1 0.598751 0.514419 0.074738
Si Si2 0.209744 0.533171 0.928295
Si Si3 0.229596 0.296771 0.573982
Si Si4 0.887141 0.551341 0.927376
Si Si5 0.931246 0.107901 0.571509
Si Si6 0.282571 0.397691 0.923570
Si Si7 0.021236 0.297805 0.430322
O O1 0.585902 0.504840 0.250000
O O2 0.684385 0.480696 0.008311
O O3 0.623755 0.569551 0.042187
O O4 0.500000 0.500000 0.000000
O O5 0.211947 0.527200 0.750000
O O6 0.173668 0.585930 0.974956
O O7 0.128940 0.497813 0.989416
O O8 0.277258 0.250000 0.500000
O O9 0.210867 0.287002 0.750000
O O10 0.301017 0.341751 0.550864
O O11 0.127723 0.307512 0.494642
O O12 0.889802 0.542318 0.750000
O O13 0.985415 0.573764 0.991381
O O14 0.801931 0.587621 0.964570
O O15 0.941615 0.108924 0.750000
O O16 0.948412 0.160975 0.513169
O O17 0.250346 0.406811 0.750000
O O18 0.978377 0.250000 0.500000
O O19 0.027221 0.294446 0.250000
#
# Coordination Sequence:
#
# PCOD8229936 Si02
#       7
#     8   8   8   8   8   8   8
#     4   9  18  32  49  66  86 111 144 182 224 271
#     4   9  18  32  45  61  86 117 146 175 217 270
#     4  10  18  28  43  63  89 120 152 182 213 253
#     4  10  17  26  41  64  90 116 147 182 210 243
#     4   9  17  28  43  61  87 119 150 180 212 249
#     4   9  18  31  45  63  89 123 151 175 217 270
#     4  10  18  29  42  61  88 120 154 185 214 248
#
# _framework density 16.060106999999999
#
# number of rings (size 3 to 8) (size 9 to 14) (size 15 to 20)
#    0.000    2.571    1.429    3.429    0.000    2.857 
#    0.000    2.143    0.000    0.000    0.000    1.000 
#    0.000    6.857    0.000    0.000    0.000    0.000 
#
# Total GULP energy -693783.842291 kJ/mol
# GULP energy per Si atom -12388.997184 kJ/mol
# Density = 1.602355 g / cm^3
# Si number density = 16.060107 Si / 1000 Ang^3
#
#
#
# Elastic Constant Matrix: (Units=GPa)
#
#
# Indices 1 2 3 4 5 6 
#
# 1 82.9869 67.5671 22.4301 0.0000 0.0000 0.0000
# 2 67.5671 142.7065 29.8209 0.0000 0.0000 0.0000
# 3 22.4301 29.8209 40.7939 0.0000 0.0000 0.0000
# 4 0.0000 0.0000 0.0000 20.8231 0.0000 0.0000
# 5 0.0000 0.0000 0.0000 0.0000 17.2962 0.0000
# 6 0.0000 0.0000 0.0000 0.0000 0.0000 19.4313
#
#
#
# Elastic Compliance Matrix: (Units=1/GPa)
#
#
# Indices 1 2 3 4 5 6 
#
# 1 0.020409 -0.008638 -0.004908 0.000000 0.000000 0.000000
# 2 -0.008638 0.011926 -0.003969 0.000000 0.000000 0.000000
# 3 -0.004908 -0.003969 0.030113 0.000000 0.000000 0.000000
# 4 0.000000 0.000000 0.000000 0.048024 0.000000 0.000000
# 5 0.000000 0.000000 0.000000 0.000000 0.057816 0.000000
# 6 0.000000 0.000000 0.000000 0.000000 0.000000 0.051463
#
#
# Mechanical properties :
#
#
# Convention : Reuss Voigt Hill
#
# Bulk Modulus (GPa) = 36.46921 56.23594 46.35258
# Shear Modulus (GPa) = 18.94507 21.28806 20.11657
#
# Velocity S-wave (km/s) = 3.43831 3.64472 3.54302
# Velocity P-wave (km/s) = 6.20644 7.26663 6.75736
#
# Compressibility (1/GPa) = 0.02742039
#
# Stress axis : x y z
#
# Youngs Moduli (GPa) = 48.99749 83.84737 33.20790
#
# Poissons Ratio (x) = 0.72424 0.16297
# Poissons Ratio (y) = 0.42322 0.13180
# Poissons Ratio (z) = 0.24046 0.33280
#
# Static dielectric constant tensor:
#      x y z
#    x 2.851950 0.000000 0.000000 
#    y 0.000000 3.485480 0.000000 
#    z 0.000000 0.000000 2.968320 
# 
# 
# High freq. dielectric constant tensor:
#      x y z
#    x 1.567700 0.000000 0.000000 
#    y 0.000000 1.625550 0.000000 
#    z 0.000000 0.000000 1.613530 
# 
# From -- ./inp_files/5882.got.cif
#   From: 2010.03.12/outbox.cif.g09.slc.cpg/sg57_3_cif.got.tgz:5882.got - 2010.04.16 15:48:40.
