data_PCOD8229957
_publ_section_title
;
Structure prediction by ZEFSAII (Michael W. Deem and Ramdas Pophale) SiO2 
 PCOD8229957
Probable space group: P B C M
;
_chemical_formula_sum "Si O2"
_cell_formula_units_Z 56
_cell_length_a 14.565978
_cell_length_b 26.533137
_cell_length_c 9.019576
_cell_angle_alpha 90.000000
_cell_angle_beta 90.000000
_cell_angle_gamma 90.000000
_cell_volume 3485.895562
_symmetry_space_group_name_H-M "P B C M"
_symmetry_group_IT_number 57
_symmetry_cell_setting 'orthorhombic'
loop_
_space_group_symop_operation_xyz
x,y,z
-x,-y,1/2+z
x,1/2-y,-z
-x,1/2+y,1/2-z
-x,-y,-z
x,y,1/2-z
-x,1/2+y,z
x,1/2-y,1/2+z
loop_
_atom_site_type_symbol
_atom_site_label
_atom_site_fract_x
_atom_site_fract_y
_atom_site_fract_z
Si Si1 0.929326 0.569567 0.921973
Si Si2 0.375233 0.197280 0.079577
Si Si3 0.488642 0.613150 0.424201
Si Si4 0.888907 0.453810 0.577133
Si Si5 0.766850 0.613148 0.077113
Si Si6 0.689020 0.436192 0.576609
Si Si7 0.624069 0.957125 0.074299
O O1 0.928668 0.584128 0.750000
O O2 0.888762 0.513828 0.949713
O O3 0.870033 0.610950 0.012782
O O4 0.032737 0.573143 0.982046
O O5 0.391757 0.209029 0.250000
O O6 0.461996 0.164204 0.018587
O O7 0.279323 0.167981 0.053504
O O8 0.371117 0.250000 0.000000
O O9 0.508231 0.607251 0.250000
O O10 0.378464 0.611568 0.458503
O O11 0.532011 0.564516 0.502052
O O12 0.905466 0.441760 0.750000
O O13 0.792436 0.431040 0.513575
O O14 0.765731 0.598522 0.250000
O O15 0.711784 0.573079 0.981587
O O16 0.703361 0.443427 0.750000
O O17 0.637383 0.485868 0.517862
O O18 0.617213 0.952255 0.250000
#
# Coordination Sequence:
#
# PCOD8229957 Si02
#       7
#     8   8   8   8   8   8   8
#     4  10  18  29  44  66  92 121 157 192 227 263
#     4   9  19  33  49  69  90 114 147 186 233 281
#     4   9  18  31  45  64  89 119 152 186 226 271
#     4   9  17  29  43  62  91 127 160 188 220 260
#     4  10  19  31  47  67  91 121 154 188 228 278
#     4   9  16  28  44  62  90 124 157 189 218 261
#     4  10  17  27  42  64  91 121 154 186 220 263
#
# _framework density 16.064738999999999
#
# number of rings (size 3 to 8) (size 9 to 14) (size 15 to 20)
#    0.000    2.571    1.429    2.571    0.000    3.429 
#    0.000    1.429    0.000    0.000    0.000    1.000 
#    0.000    2.286    0.000    0.000    0.000    0.000 
#
# Total GULP energy -693999.256838 kJ/mol
# GULP energy per Si atom -12392.843872 kJ/mol
# Density = 1.602817 g / cm^3
# Si number density = 16.064739 Si / 1000 Ang^3
#
#
#
# Elastic Constant Matrix: (Units=GPa)
#
#
# Indices 1 2 3 4 5 6 
#
# 1 125.8531 39.4505 25.2858 0.0000 0.0000 0.0000
# 2 39.4505 60.5421 16.6412 0.0000 0.0000 0.0000
# 3 25.2858 16.6412 33.6914 0.0000 0.0000 0.0000
# 4 0.0000 0.0000 0.0000 19.8986 0.0000 0.0000
# 5 0.0000 0.0000 0.0000 0.0000 23.4650 0.0000
# 6 0.0000 0.0000 0.0000 0.0000 0.0000 14.3951
#
#
#
# Elastic Compliance Matrix: (Units=1/GPa)
#
#
# Indices 1 2 3 4 5 6 
#
# 1 0.010755 -0.005542 -0.005334 0.000000 0.000000 0.000000
# 2 -0.005542 0.021968 -0.006691 0.000000 0.000000 0.000000
# 3 -0.005334 -0.006691 0.036990 0.000000 0.000000 0.000000
# 4 0.000000 0.000000 0.000000 0.050255 0.000000 0.000000
# 5 0.000000 0.000000 0.000000 0.000000 0.042617 0.000000
# 6 0.000000 0.000000 0.000000 0.000000 0.000000 0.069468
#
#
# Mechanical properties :
#
#
# Convention : Reuss Voigt Hill
#
# Bulk Modulus (GPa) = 28.92073 42.53795 35.72934
# Shear Modulus (GPa) = 17.93965 20.79902 19.36933
#
# Velocity S-wave (km/s) = 3.34535 3.60210 3.47609
# Velocity P-wave (km/s) = 5.74138 6.62093 6.19678
#
# Compressibility (1/GPa) = 0.03457727
#
# Stress axis : x y z
#
# Youngs Moduli (GPa) = 92.98320 45.52112 27.03459
#
# Poissons Ratio (x) = 0.25227 0.14421
# Poissons Ratio (y) = 0.51529 0.18090
# Poissons Ratio (z) = 0.49599 0.30460
#
# Static dielectric constant tensor:
#      x y z
#    x 3.302390 0.000000 0.000000 
#    y 0.000000 2.731200 0.000000 
#    z 0.000000 0.000000 2.974040 
# 
# 
# High freq. dielectric constant tensor:
#      x y z
#    x 1.626720 0.000000 0.000000 
#    y 0.000000 1.567460 0.000000 
#    z 0.000000 0.000000 1.613520 
# 
# From -- ./inp_files/5919.got.cif
#   From: 2010.03.12/outbox.cif.g09.slc.cpg/sg57_3_cif.got.tgz:5919.got - 2010.04.16 15:48:40.
