data_PCOD8229144
_publ_section_title
;
Structure prediction by ZEFSAII (Michael W. Deem and Ramdas Pophale) SiO2 
 PCOD8229144
Probable space group: P C C N
;
_chemical_formula_sum "Si O2"
_cell_formula_units_Z 32
_cell_length_a 9.536482
_cell_length_b 8.433454
_cell_length_c 13.765965
_cell_angle_alpha 90.000000
_cell_angle_beta 90.000000
_cell_angle_gamma 90.000000
_cell_volume 1107.134374
_symmetry_space_group_name_H-M "P C C N"
_symmetry_group_IT_number 56
_symmetry_cell_setting 'orthorhombic'
loop_
_space_group_symop_operation_xyz
x,y,z
1/2-x,1/2-y,z
1/2+x,-y,1/2-z
-x,1/2+y,1/2-z
-x,-y,-z
1/2+x,1/2+y,-z
1/2-x,y,1/2+z
x,1/2-y,1/2+z
loop_
_atom_site_type_symbol
_atom_site_label
_atom_site_fract_x
_atom_site_fract_y
_atom_site_fract_z
Si Si1 0.525929 0.063090 0.169936
Si Si2 0.803338 0.576619 0.021963
Si Si3 0.290042 0.573277 0.157057
Si Si4 0.431829 0.573389 0.858724
O O1 0.676445 0.048514 0.228568
O O2 0.508738 0.247674 0.143497
O O3 0.548150 0.952207 0.074983
O O4 0.404760 0.983874 0.242685
O O5 0.750000 0.750000 0.045746
O O6 0.697303 0.446753 0.068415
O O7 0.818430 0.546516 0.903583
O O8 0.250000 0.750000 0.130625
O O9 0.439193 0.534119 0.103010
#
# Coordination Sequence:
#
# PCOD8229144 Si02
#       4
#     8   8   8   8
#     4  10  23  43  72  94 139 176 229 284 342 408
#     4  12  24  42  65  99 140 179 228 286 340 410
#     4  10  23  43  67  97 135 178 223 280 347 408
#     4  10  22  43  66  99 128 179 225 279 343 411
#
# _framework density 28.903447
#
# number of rings (size 3 to 8) (size 9 to 14) (size 15 to 20)
#    1.500    0.000    0.000    6.000    0.000    1.000 
#    4.500    2.500    0.000    0.000    0.000    0.000 
#    0.000    0.000    0.000    0.000    0.000    0.000 
#
# Total GULP energy -396679.220114 kJ/mol
# GULP energy per Si atom -12396.225629 kJ/mol
# Density = 2.883766 g / cm^3
# Si number density = 28.903447 Si / 1000 Ang^3
#
#
#
# Elastic Constant Matrix: (Units=GPa)
#
#
# Indices 1 2 3 4 5 6 
#
# 1 107.6522 27.2239 42.4323 0.0000 0.0000 0.0000
# 2 27.2239 148.9183 27.1533 0.0000 0.0000 0.0000
# 3 42.4323 27.1533 125.1651 0.0000 0.0000 0.0000
# 4 0.0000 0.0000 0.0000 37.3247 0.0000 0.0000
# 5 0.0000 0.0000 0.0000 0.0000 38.2349 0.0000
# 6 0.0000 0.0000 0.0000 0.0000 0.0000 53.8785
#
#
#
# Elastic Compliance Matrix: (Units=1/GPa)
#
#
# Indices 1 2 3 4 5 6 
#
# 1 0.010989 -0.001384 -0.003425 0.000000 0.000000 0.000000
# 2 -0.001384 0.007166 -0.001085 0.000000 0.000000 0.000000
# 3 -0.003425 -0.001085 0.009386 0.000000 0.000000 0.000000
# 4 0.000000 0.000000 0.000000 0.026792 0.000000 0.000000
# 5 0.000000 0.000000 0.000000 0.000000 0.026154 0.000000
# 6 0.000000 0.000000 0.000000 0.000000 0.000000 0.018560
#
#
# Mechanical properties :
#
#
# Convention : Reuss Voigt Hill
#
# Bulk Modulus (GPa) = 63.48513 63.92830 63.70671
# Shear Modulus (GPa) = 43.07074 44.88270 43.97672
#
# Velocity S-wave (km/s) = 3.86445 3.94490 3.90488
# Velocity P-wave (km/s) = 6.47489 6.55099 6.51305
#
# Compressibility (1/GPa) = 0.01575172
#
# Stress axis : x y z
#
# Youngs Moduli (GPa) = 90.99722 139.54653 106.54101
#
# Poissons Ratio (x) = 0.19319 0.36492
# Poissons Ratio (y) = 0.12598 0.11563
# Poissons Ratio (z) = 0.31168 0.15145
#
# Static dielectric constant tensor:
#      x y z
#    x 6.166810 0.000000 0.000000 
#    y 0.000000 4.581960 0.000000 
#    z 0.000000 0.000000 6.132930 
# 
# 
# High freq. dielectric constant tensor:
#      x y z
#    x 2.243220 0.000000 0.000000 
#    y 0.000000 2.143290 0.000000 
#    z 0.000000 0.000000 2.217950 
# 
# From -- ./inp_files/10057.got.cif
#   From: 2010.03.12/outbox.cif.g09.slc.cpg/sg56_6_cif.got.tgz:10057.got - 2010.04.16 15:33:40.
