data_PCOD8229813
_publ_section_title
;
Structure prediction by ZEFSAII (Michael W. Deem and Ramdas Pophale) SiO2 
 PCOD8229813
Probable space group: P C C N
;
_chemical_formula_sum "Si O2"
_cell_formula_units_Z 32
_cell_length_a 19.689651
_cell_length_b 4.953211
_cell_length_c 14.158157
_cell_angle_alpha 90.000000
_cell_angle_beta 90.000000
_cell_angle_gamma 90.000000
_cell_volume 1380.802520
_symmetry_space_group_name_H-M "P C C N"
_symmetry_group_IT_number 56
_symmetry_cell_setting 'orthorhombic'
loop_
_space_group_symop_operation_xyz
x,y,z
1/2-x,1/2-y,z
1/2+x,-y,1/2-z
-x,1/2+y,1/2-z
-x,-y,-z
1/2+x,1/2+y,-z
1/2-x,y,1/2+z
x,1/2-y,1/2+z
loop_
_atom_site_type_symbol
_atom_site_label
_atom_site_fract_x
_atom_site_fract_y
_atom_site_fract_z
Si Si1 0.626185 0.572026 0.655585
Si Si2 0.320002 0.913007 0.448120
Si Si3 0.021360 0.539293 0.106247
Si Si4 0.884867 0.536037 0.362165
O O1 0.626823 0.312854 0.585786
O O2 0.545350 0.618836 0.666802
O O3 0.653753 0.510035 0.761426
O O4 0.670622 0.823565 0.617864
O O5 0.250000 0.750000 0.435032
O O6 0.328909 0.031598 0.553867
O O7 0.065509 0.290163 0.141991
O O8 0.069903 0.786376 0.114978
O O9 0.000000 0.500000 0.000000
#
# Coordination Sequence:
#
# PCOD8229813 Si02
#       4
#     8   8   8   8
#     4  12  25  43  70 102 138 179 230 284 352 416
#     4  12  26  46  67  96 135 184 235 284 336 409
#     4  12  21  41  71 102 142 179 218 288 362 419
#     4  12  24  43  69 102 138 181 227 287 353 418
#
# _framework density 23.174928000000001
#
# number of rings (size 3 to 8) (size 9 to 14) (size 15 to 20)
#    0.000    0.000    5.000    6.000    0.000    1.000 
#    0.000    5.000    0.000    0.000    0.000    0.000 
#    0.000    0.000    0.000    0.000    0.000    0.000 
#
# Total GULP energy -396547.368773 kJ/mol
# GULP energy per Si atom -12392.105274 kJ/mol
# Density = 2.312218 g / cm^3
# Si number density = 23.174928 Si / 1000 Ang^3
#
#
#
# Elastic Constant Matrix: (Units=GPa)
#
#
# Indices 1 2 3 4 5 6 
#
# 1 68.6843 23.0243 45.0484 0.0000 0.0000 0.0000
# 2 23.0243 143.0814 61.9191 0.0000 0.0000 0.0000
# 3 45.0484 61.9191 176.2356 0.0000 0.0000 0.0000
# 4 0.0000 0.0000 0.0000 32.0169 0.0000 0.0000
# 5 0.0000 0.0000 0.0000 0.0000 19.3875 0.0000
# 6 0.0000 0.0000 0.0000 0.0000 0.0000 46.3561
#
#
#
# Elastic Compliance Matrix: (Units=1/GPa)
#
#
# Indices 1 2 3 4 5 6 
#
# 1 0.017624 -0.001045 -0.004138 0.000000 0.000000 0.000000
# 2 -0.001045 0.008304 -0.002650 0.000000 0.000000 0.000000
# 3 -0.004138 -0.002650 0.007663 0.000000 0.000000 0.000000
# 4 0.000000 0.000000 0.000000 0.031233 0.000000 0.000000
# 5 0.000000 0.000000 0.000000 0.000000 0.051580 0.000000
# 6 0.000000 0.000000 0.000000 0.000000 0.000000 0.021572
#
#
# Mechanical properties :
#
#
# Convention : Reuss Voigt Hill
#
# Bulk Modulus (GPa) = 55.79085 71.99832 63.89459
# Shear Modulus (GPa) = 31.32489 36.75274 34.03881
#
# Velocity S-wave (km/s) = 3.68050 3.98664 3.83662
# Velocity P-wave (km/s) = 6.49519 7.23366 6.87435
#
# Compressibility (1/GPa) = 0.01792409
#
# Stress axis : x y z
#
# Youngs Moduli (GPa) = 56.74240 120.42058 130.49652
#
# Poissons Ratio (x) = 0.12589 0.53993
# Poissons Ratio (y) = 0.05932 0.34587
# Poissons Ratio (z) = 0.23477 0.31916
#
# Static dielectric constant tensor:
#      x y z
#    x 4.027860 0.000000 0.000000 
#    y 0.000000 2.576330 0.000000 
#    z 0.000000 0.000000 3.864180 
# 
# 
# High freq. dielectric constant tensor:
#      x y z
#    x 1.902830 0.000000 0.000000 
#    y 0.000000 1.934780 0.000000 
#    z 0.000000 0.000000 1.931740 
# 
# From -- ./inp_files/9454.got.cif
#   From: 2010.03.12/outbox.cif.g09.slc.cpg/sg56_5_cif.got.tgz:9454.got - 2010.04.16 15:33:40.
