data_PCOD8229228
_publ_section_title
;
Structure prediction by ZEFSAII (Michael W. Deem and Ramdas Pophale) SiO2 
 PCOD8229228
Probable space group: P C C N
;
_chemical_formula_sum "Si O2"
_cell_formula_units_Z 28
_cell_length_a 9.125526
_cell_length_b 7.550702
_cell_length_c 20.052819
_cell_angle_alpha 90.000000
_cell_angle_beta 90.000000
_cell_angle_gamma 90.000000
_cell_volume 1381.721995
_symmetry_space_group_name_H-M "P C C N"
_symmetry_group_IT_number 56
_symmetry_cell_setting 'orthorhombic'
loop_
_space_group_symop_operation_xyz
x,y,z
1/2-x,1/2-y,z
1/2+x,-y,1/2-z
-x,1/2+y,1/2-z
-x,-y,-z
1/2+x,1/2+y,-z
1/2-x,y,1/2+z
x,1/2-y,1/2+z
loop_
_atom_site_type_symbol
_atom_site_label
_atom_site_fract_x
_atom_site_fract_y
_atom_site_fract_z
Si Si1 0.429104 0.455859 0.929943
Si Si2 0.620794 0.931230 0.112282
Si Si3 0.250000 0.250000 0.767650
Si Si4 0.410908 0.259275 0.639882
O O1 0.455966 0.251693 0.909736
O O2 0.254126 0.488784 0.936153
O O3 0.501694 0.577710 0.872722
O O4 0.500000 0.500000 0.000000
O O5 0.697737 0.911943 0.185296
O O6 0.498149 0.079042 0.108001
O O7 0.388139 0.296388 0.719303
O O8 0.250000 0.250000 0.604960
#
# Coordination Sequence:
#
# PCOD8229228 Si02
#       4
#     8   8   4   8
#     4  10  23  43  65  92 130 170 219 265 322 384
#     4  10  23  43  63  98 126 174 217 272 320 390
#     4   8  22  36  66  90 130 158 214 264 320 394
#     4  10  23  40  64  97 125 168 213 266 328 381
#
# _framework density 20.264568000000001
#
# number of rings (size 3 to 8) (size 9 to 14) (size 15 to 20)
#    0.857    1.714    0.000    0.857   12.000    2.286 
#    5.143    0.000    0.000    0.000    0.000    0.000 
#    0.000    0.000    0.000    0.000    0.000    0.000 
#
# Total GULP energy -346932.591849 kJ/mol
# GULP energy per Si atom -12390.449709 kJ/mol
# Density = 2.021844 g / cm^3
# Si number density = 20.264568 Si / 1000 Ang^3
#
#
#
# Elastic Constant Matrix: (Units=GPa)
#
#
# Indices 1 2 3 4 5 6 
#
# 1 144.7352 100.1424 47.6675 0.0000 0.0000 0.0000
# 2 100.1424 141.7066 50.0122 0.0000 0.0000 0.0000
# 3 47.6675 50.0122 110.0748 0.0000 0.0000 0.0000
# 4 0.0000 0.0000 0.0000 18.2987 0.0000 0.0000
# 5 0.0000 0.0000 0.0000 0.0000 37.8103 0.0000
# 6 0.0000 0.0000 0.0000 0.0000 0.0000 42.0188
#
#
#
# Elastic Compliance Matrix: (Units=1/GPa)
#
#
# Indices 1 2 3 4 5 6 
#
# 1 0.013827 -0.009121 -0.001844 0.000000 0.000000 0.000000
# 2 -0.009121 0.014421 -0.002602 0.000000 0.000000 0.000000
# 3 -0.001844 -0.002602 0.011066 0.000000 0.000000 0.000000
# 4 0.000000 0.000000 0.000000 0.054649 0.000000 0.000000
# 5 0.000000 0.000000 0.000000 0.000000 0.026448 0.000000
# 6 0.000000 0.000000 0.000000 0.000000 0.000000 0.023799
#
#
# Mechanical properties :
#
#
# Convention : Reuss Voigt Hill
#
# Bulk Modulus (GPa) = 82.10392 88.01787 85.06090
# Shear Modulus (GPa) = 28.50592 32.87186 30.68889
#
# Velocity S-wave (km/s) = 3.75465 4.03194 3.89577
# Velocity P-wave (km/s) = 7.70717 8.07490 7.89318
#
# Compressibility (1/GPa) = 0.01217969
#
# Stress axis : x y z
#
# Youngs Moduli (GPa) = 72.32228 69.34455 90.37056
#
# Poissons Ratio (x) = 0.63247 0.16662
# Poissons Ratio (y) = 0.65963 0.23518
# Poissons Ratio (z) = 0.13335 0.18046
#
# Static dielectric constant tensor:
#      x y z
#    x 3.769410 0.000000 0.000000 
#    y 0.000000 3.522470 0.000000 
#    z 0.000000 0.000000 3.563590 
# 
# 
# High freq. dielectric constant tensor:
#      x y z
#    x 1.795900 0.000000 0.000000 
#    y 0.000000 1.782630 0.000000 
#    z 0.000000 0.000000 1.783620 
# 
# From -- ./inp_files/20266.got.cif
#   From: 2010.03.12/outbox.cif.g09.slc.cpg/sg56_11_cif.got.tgz:20266.got - 2010.04.16 15:33:40.
