data_PCOD8229767
_publ_section_title
;
Structure prediction by ZEFSAII (Michael W. Deem and Ramdas Pophale) SiO2 
 PCOD8229767
Probable space group: P C C N
;
_chemical_formula_sum "Si O2"
_cell_formula_units_Z 40
_cell_length_a 8.518115
_cell_length_b 12.422930
_cell_length_c 16.841150
_cell_angle_alpha 90.000000
_cell_angle_beta 90.000000
_cell_angle_gamma 90.000000
_cell_volume 1782.129590
_symmetry_space_group_name_H-M "P C C N"
_symmetry_group_IT_number 56
_symmetry_cell_setting 'orthorhombic'
loop_
_space_group_symop_operation_xyz
x,y,z
1/2-x,1/2-y,z
1/2+x,-y,1/2-z
-x,1/2+y,1/2-z
-x,-y,-z
1/2+x,1/2+y,-z
1/2-x,y,1/2+z
x,1/2-y,1/2+z
loop_
_atom_site_type_symbol
_atom_site_label
_atom_site_fract_x
_atom_site_fract_y
_atom_site_fract_z
Si Si1 0.612266 0.384173 0.682675
Si Si2 0.555704 0.334578 0.121207
Si Si3 0.938345 0.449153 0.919089
Si Si4 0.104724 0.551638 0.641983
Si Si5 0.431411 0.224198 0.450310
O O1 0.765246 0.376112 0.626825
O O2 0.523668 0.269304 0.676647
O O3 0.499666 0.479888 0.654297
O O4 0.660518 0.403203 0.773447
O O5 0.444146 0.428437 0.152030
O O6 0.518997 0.300937 0.031756
O O7 0.749887 0.446085 0.918874
O O8 0.994709 0.327642 0.908194
O O9 0.000000 0.500000 0.000000
O O10 0.959878 0.621941 0.607302
O O11 0.250000 0.250000 0.465700
#
# Coordination Sequence:
#
# PCOD8229767 Si02
#       5
#     8   8   8   8   8
#     4  11  26  45  73 105 145 191 234 307 363 429
#     4  11  25  48  69 102 145 186 242 291 363 428
#     4  12  24  45  74 106 142 192 244 295 367 431
#     4  12  27  44  75 107 147 186 243 304 360 431
#     4  12  26  46  73 105 141 196 244 295 354 435
#
# _framework density 22.445055
#
# number of rings (size 3 to 8) (size 9 to 14) (size 15 to 20)
#    0.000    0.400    2.000    6.000   11.200    0.000 
#    0.000    0.000    0.000    0.000    0.000    0.000 
#    0.000    0.000    0.000    0.000    0.000    0.000 
#
# Total GULP energy -496237.416793 kJ/mol
# GULP energy per Si atom -12405.935420 kJ/mol
# Density = 2.239397 g / cm^3
# Si number density = 22.445055 Si / 1000 Ang^3
#
#
#
# Elastic Constant Matrix: (Units=GPa)
#
#
# Indices 1 2 3 4 5 6 
#
# 1 120.9636 55.8108 42.8272 0.0000 0.0000 0.0000
# 2 55.8108 177.7968 50.9568 0.0000 0.0000 0.0000
# 3 42.8272 50.9568 104.4392 0.0000 0.0000 0.0000
# 4 0.0000 0.0000 0.0000 29.0464 0.0000 0.0000
# 5 0.0000 0.0000 0.0000 0.0000 23.5498 0.0000
# 6 0.0000 0.0000 0.0000 0.0000 0.0000 39.7999
#
#
#
# Elastic Compliance Matrix: (Units=1/GPa)
#
#
# Indices 1 2 3 4 5 6 
#
# 1 0.010479 -0.002392 -0.003130 0.000000 0.000000 0.000000
# 2 -0.002392 0.007085 -0.002476 0.000000 0.000000 0.000000
# 3 -0.003130 -0.002476 0.012066 0.000000 0.000000 0.000000
# 4 0.000000 0.000000 0.000000 0.034428 0.000000 0.000000
# 5 0.000000 0.000000 0.000000 0.000000 0.042463 0.000000
# 6 0.000000 0.000000 0.000000 0.000000 0.000000 0.025126
#
#
# Mechanical properties :
#
#
# Convention : Reuss Voigt Hill
#
# Bulk Modulus (GPa) = 73.34451 78.04323 75.69387
# Shear Modulus (GPa) = 32.85428 35.38621 34.12025
#
# Velocity S-wave (km/s) = 3.83007 3.97491 3.90316
# Velocity P-wave (km/s) = 7.23239 7.47749 7.35596
#
# Compressibility (1/GPa) = 0.01363429
#
# Stress axis : x y z
#
# Youngs Moduli (GPa) = 95.43040 141.14491 82.87526
#
# Poissons Ratio (x) = 0.33767 0.25938
# Poissons Ratio (y) = 0.22830 0.20518
# Poissons Ratio (z) = 0.29868 0.34944
#
# Static dielectric constant tensor:
#      x y z
#    x 4.090350 0.000000 0.000000 
#    y 0.000000 4.572380 0.000000 
#    z 0.000000 0.000000 3.869720 
# 
# 
# High freq. dielectric constant tensor:
#      x y z
#    x 1.882720 0.000000 0.000000 
#    y 0.000000 1.911470 0.000000 
#    z 0.000000 0.000000 1.881020 
# 
# From -- ./inp_files/14456.got.cif
#   From: 2010.03.12/outbox.cif.g09.slc.cpg/sg56_8_cif.got.tgz:14456.got - 2010.04.16 15:33:40.
