data_PCOD8229490
_publ_section_title
;
Structure prediction by ZEFSAII (Michael W. Deem and Ramdas Pophale) SiO2 
 PCOD8229490
Probable space group: P C C N
;
_chemical_formula_sum "Si O2"
_cell_formula_units_Z 20
_cell_length_a 16.273640
_cell_length_b 4.633572
_cell_length_c 7.922564
_cell_angle_alpha 90.000000
_cell_angle_beta 90.000000
_cell_angle_gamma 90.000000
_cell_volume 597.401593
_symmetry_space_group_name_H-M "P C C N"
_symmetry_group_IT_number 56
_symmetry_cell_setting 'orthorhombic'
loop_
_space_group_symop_operation_xyz
x,y,z
1/2-x,1/2-y,z
1/2+x,-y,1/2-z
-x,1/2+y,1/2-z
-x,-y,-z
1/2+x,1/2+y,-z
1/2-x,y,1/2+z
x,1/2-y,1/2+z
loop_
_atom_site_type_symbol
_atom_site_label
_atom_site_fract_x
_atom_site_fract_y
_atom_site_fract_z
Si Si1 0.051612 0.022952 0.186886
Si Si2 0.250000 0.250000 0.104302
Si Si3 0.646141 0.063863 0.635061
O O1 0.130397 0.883148 0.289130
O O2 0.967863 0.851094 0.251423
O O3 0.066748 0.007075 0.985130
O O4 0.167532 0.345197 0.206555
O O5 0.274574 0.525331 0.986708
#
# Coordination Sequence:
#
# PCOD8229490 Si02
#       3
#     8   4   8
#     4  12  27  49  80 115 153 200 254 316 380 452
#     4  10  26  52  80 112 154 204 256 314 380 452
#     4  11  26  49  78 114 154 201 256 314 380 453
#
# _framework density 33.478318999999999
#
# number of rings (size 3 to 8) (size 9 to 14) (size 15 to 20)
#    0.000    0.800    0.000    4.800    0.000   17.600 
#    0.000    0.000    0.000    0.000    0.000    0.000 
#    0.000    0.000    0.000    0.000    0.000    0.000 
#
# Total GULP energy -247868.769554 kJ/mol
# GULP energy per Si atom -12393.438478 kJ/mol
# Density = 3.340212 g / cm^3
# Si number density = 33.478319 Si / 1000 Ang^3
#
#
#
# Elastic Constant Matrix: (Units=GPa)
#
#
# Indices 1 2 3 4 5 6 
#
# 1 197.1879 33.0739 50.7847 0.0000 0.0000 0.0000
# 2 33.0739 100.6717 51.8899 0.0000 0.0000 0.0000
# 3 50.7847 51.8899 212.4042 0.0000 0.0000 0.0000
# 4 0.0000 0.0000 0.0000 55.2445 0.0000 0.0000
# 5 0.0000 0.0000 0.0000 0.0000 52.1116 0.0000
# 6 0.0000 0.0000 0.0000 0.0000 0.0000 52.2452
#
#
#
# Elastic Compliance Matrix: (Units=1/GPa)
#
#
# Indices 1 2 3 4 5 6 
#
# 1 0.005550 -0.001303 -0.001008 0.000000 0.000000 0.000000
# 2 -0.001303 0.011670 -0.002539 0.000000 0.000000 0.000000
# 3 -0.001008 -0.002539 0.005569 0.000000 0.000000 0.000000
# 4 0.000000 0.000000 0.000000 0.018101 0.000000 0.000000
# 5 0.000000 0.000000 0.000000 0.000000 0.019190 0.000000
# 6 0.000000 0.000000 0.000000 0.000000 0.000000 0.019141
#
#
# Mechanical properties :
#
#
# Convention : Reuss Voigt Hill
#
# Bulk Modulus (GPa) = 76.41216 86.86232 81.63724
# Shear Modulus (GPa) = 53.59865 56.88795 55.24330
#
# Velocity S-wave (km/s) = 4.00559 4.12667 4.06658
# Velocity P-wave (km/s) = 6.65334 6.97911 6.81817
#
# Compressibility (1/GPa) = 0.01308692
#
# Stress axis : x y z
#
# Youngs Moduli (GPa) = 180.19145 85.68685 179.54948
#
# Poissons Ratio (x) = 0.11169 0.18107
# Poissons Ratio (y) = 0.23487 0.45595
# Poissons Ratio (z) = 0.18172 0.21759
#
# Static dielectric constant tensor:
#      x y z
#    x 7.425000 0.000000 0.000000 
#    y 0.000000 5.714990 0.000000 
#    z 0.000000 0.000000 6.704160 
# 
# 
# High freq. dielectric constant tensor:
#      x y z
#    x 2.489990 0.000000 0.000000 
#    y 0.000000 2.385130 0.000000 
#    z 0.000000 0.000000 2.438390 
# 
# From -- ./inp_files/1448.got.cif
#   From: 2010.03.12/outbox.cif.g09.slc.cpg/sg56_1_cif.got.tgz:1448.got - 2010.04.16 15:33:40.
