data_PCOD8229378
_publ_section_title
;
Structure prediction by ZEFSAII (Michael W. Deem and Ramdas Pophale) SiO2 
 PCOD8229378
Probable space group: P C C N
;
_chemical_formula_sum "Si O2"
_cell_formula_units_Z 48
_cell_length_a 6.316236
_cell_length_b 14.806040
_cell_length_c 24.545425
_cell_angle_alpha 90.000000
_cell_angle_beta 90.000000
_cell_angle_gamma 90.000000
_cell_volume 2295.449925
_symmetry_space_group_name_H-M "P C C N"
_symmetry_group_IT_number 56
_symmetry_cell_setting 'orthorhombic'
loop_
_space_group_symop_operation_xyz
x,y,z
1/2-x,1/2-y,z
1/2+x,-y,1/2-z
-x,1/2+y,1/2-z
-x,-y,-z
1/2+x,1/2+y,-z
1/2-x,y,1/2+z
x,1/2-y,1/2+z
loop_
_atom_site_type_symbol
_atom_site_label
_atom_site_fract_x
_atom_site_fract_y
_atom_site_fract_z
Si Si1 0.433819 0.398196 0.512971
Si Si2 0.750000 0.250000 0.471840
Si Si3 0.933766 0.612065 0.281145
Si Si4 0.630871 0.837702 0.580625
Si Si5 0.250000 0.750000 0.819636
Si Si6 0.942988 0.607965 0.863452
Si Si7 0.243063 0.462313 0.322987
O O1 0.500000 0.500000 0.500000
O O2 0.616578 0.322040 0.507231
O O3 0.237745 0.373335 0.474778
O O4 0.356518 0.396520 0.575213
O O5 0.608661 0.187798 0.432721
O O6 0.757012 0.629913 0.326336
O O7 0.827183 0.607407 0.222055
O O8 0.093739 0.695888 0.279798
O O9 0.063457 0.521816 0.294428
O O10 0.750000 0.750000 0.603436
O O11 0.629777 0.912623 0.627182
O O12 0.380712 0.814703 0.859304
O O13 0.053574 0.514893 0.845864
#
# Coordination Sequence:
#
# PCOD8229378 Si02
#       7
#     8   4   8   8   4   8   8
#     4  11  23  42  70  99 134 176 221 270 336 400
#     4  10  25  44  65 100 140 172 220 278 332 406
#     4  11  24  43  68  97 131 170 223 277 329 390
#     4  10  24  43  65 100 133 174 221 269 333 403
#     4  10  25  42  67  96 128 180 212 274 342 390
#     4  11  23  43  67  98 132 169 225 272 331 397
#     4  11  23  43  66  96 132 173 225 272 331 396
#
# _framework density 20.910934999999998
#
# number of rings (size 3 to 8) (size 9 to 14) (size 15 to 20)
#    0.000    1.333    3.333    1.000    2.333    8.667 
#    0.000    1.667    0.000    0.000    0.000    0.000 
#    0.000    0.000    0.000    0.000    0.000    0.000 
#
# Total GULP energy -595354.581225 kJ/mol
# GULP energy per Si atom -12403.220442 kJ/mol
# Density = 2.086334 g / cm^3
# Si number density = 20.910935 Si / 1000 Ang^3
#
#
#
# Elastic Constant Matrix: (Units=GPa)
#
#
# Indices 1 2 3 4 5 6 
#
# 1 116.1343 40.5440 57.6506 0.0000 0.0000 0.0000
# 2 40.5440 107.3618 48.8007 0.0000 0.0000 0.0000
# 3 57.6506 48.8007 157.4333 0.0000 0.0000 0.0000
# 4 0.0000 0.0000 0.0000 21.5207 0.0000 0.0000
# 5 0.0000 0.0000 0.0000 0.0000 14.1092 0.0000
# 6 0.0000 0.0000 0.0000 0.0000 0.0000 28.5785
#
#
#
# Elastic Compliance Matrix: (Units=1/GPa)
#
#
# Indices 1 2 3 4 5 6 
#
# 1 0.011180 -0.002748 -0.003242 0.000000 0.000000 0.000000
# 2 -0.002748 0.011517 -0.002564 0.000000 0.000000 0.000000
# 3 -0.003242 -0.002564 0.008334 0.000000 0.000000 0.000000
# 4 0.000000 0.000000 0.000000 0.046467 0.000000 0.000000
# 5 0.000000 0.000000 0.000000 0.000000 0.070876 0.000000
# 6 0.000000 0.000000 0.000000 0.000000 0.000000 0.034991
#
#
# Mechanical properties :
#
#
# Convention : Reuss Voigt Hill
#
# Bulk Modulus (GPa) = 71.82418 74.99110 73.40764
# Shear Modulus (GPa) = 24.37673 28.43728 26.40700
#
# Velocity S-wave (km/s) = 3.41800 3.69172 3.55749
# Velocity P-wave (km/s) = 7.07101 7.35606 7.21494
#
# Compressibility (1/GPa) = 0.01392289
#
# Stress axis : x y z
#
# Youngs Moduli (GPa) = 89.44942 86.82449 119.99349
#
# Poissons Ratio (x) = 0.23861 0.38901
# Poissons Ratio (y) = 0.24583 0.30764
# Poissons Ratio (z) = 0.28999 0.22260
#
# Static dielectric constant tensor:
#      x y z
#    x 3.843500 0.000000 0.000000 
#    y 0.000000 4.037320 0.000000 
#    z 0.000000 0.000000 3.644890 
# 
# 
# High freq. dielectric constant tensor:
#      x y z
#    x 1.824310 0.000000 0.000000 
#    y 0.000000 1.831850 0.000000 
#    z 0.000000 0.000000 1.817410 
# 
# From -- ./inp_files/21713.got.cif
#   From: 2010.03.12/outbox.cif.g09.slc.cpg/sg56_11_cif.got.tgz:21713.got - 2010.04.16 15:33:40.
