data_PCOD8229079
_publ_section_title
;
Structure prediction by ZEFSAII (Michael W. Deem and Ramdas Pophale) SiO2 
 PCOD8229079
Probable space group: P C C N
;
_chemical_formula_sum "Si O2"
_cell_formula_units_Z 32
_cell_length_a 9.129170
_cell_length_b 7.925914
_cell_length_c 17.884937
_cell_angle_alpha 90.000000
_cell_angle_beta 90.000000
_cell_angle_gamma 90.000000
_cell_volume 1294.100678
_symmetry_space_group_name_H-M "P C C N"
_symmetry_group_IT_number 56
_symmetry_cell_setting 'orthorhombic'
loop_
_space_group_symop_operation_xyz
x,y,z
1/2-x,1/2-y,z
1/2+x,-y,1/2-z
-x,1/2+y,1/2-z
-x,-y,-z
1/2+x,1/2+y,-z
1/2-x,y,1/2+z
x,1/2-y,1/2+z
loop_
_atom_site_type_symbol
_atom_site_label
_atom_site_fract_x
_atom_site_fract_y
_atom_site_fract_z
Si Si1 0.594144 0.959236 0.107182
Si Si2 0.909957 0.759393 0.466410
Si Si3 0.085506 0.569600 0.361019
Si Si4 0.577322 0.745210 0.241490
O O1 0.542613 0.906607 0.189301
O O2 0.475895 0.072023 0.067726
O O3 0.746136 0.062710 0.114720
O O4 0.604684 0.785722 0.056624
O O5 0.750000 0.750000 0.430808
O O6 0.998971 0.591486 0.440110
O O7 0.036142 0.415316 0.309240
O O8 0.032497 0.737726 0.312861
O O9 0.750000 0.750000 0.263868
#
# Coordination Sequence:
#
# PCOD8229079 Si02
#       4
#     8   8   8   8
#     4  10  24  44  67  98 137 178 223 279 339 400
#     4  11  23  42  66  96 134 176 223 270 330 402
#     4  11  22  41  69  97 134 177 225 282 340 402
#     4  10  22  41  66  99 134 172 225 286 343 401
#
# _framework density 24.727599000000001
#
# number of rings (size 3 to 8) (size 9 to 14) (size 15 to 20)
#    0.000    1.500    0.000    5.250    0.000    8.000 
#    0.000    8.750    0.000    0.000    0.000    0.000 
#    0.000    0.000    0.000    0.000    0.000    0.000 
#
# Total GULP energy -396454.100929 kJ/mol
# GULP energy per Si atom -12389.190654 kJ/mol
# Density = 2.467132 g / cm^3
# Si number density = 24.727599 Si / 1000 Ang^3
#
#
#
# Elastic Constant Matrix: (Units=GPa)
#
#
# Indices 1 2 3 4 5 6 
#
# 1 138.2185 23.3103 62.6436 0.0000 0.0000 0.0000
# 2 23.3103 44.4717 28.1709 0.0000 0.0000 0.0000
# 3 62.6436 28.1709 133.8788 0.0000 0.0000 0.0000
# 4 0.0000 0.0000 0.0000 50.1301 0.0000 0.0000
# 5 0.0000 0.0000 0.0000 0.0000 34.2537 0.0000
# 6 0.0000 0.0000 0.0000 0.0000 0.0000 41.5732
#
#
#
# Elastic Compliance Matrix: (Units=1/GPa)
#
#
# Indices 1 2 3 4 5 6 
#
# 1 0.009412 -0.002473 -0.003884 0.000000 0.000000 0.000000
# 2 -0.002473 0.026594 -0.004439 0.000000 0.000000 0.000000
# 3 -0.003884 -0.004439 0.010221 0.000000 0.000000 0.000000
# 4 0.000000 0.000000 0.000000 0.019948 0.000000 0.000000
# 5 0.000000 0.000000 0.000000 0.000000 0.029194 0.000000
# 6 0.000000 0.000000 0.000000 0.000000 0.000000 0.024054
#
#
# Mechanical properties :
#
#
# Convention : Reuss Voigt Hill
#
# Bulk Modulus (GPa) = 40.59132 60.53539 50.56335
# Shear Modulus (GPa) = 33.50610 38.68769 36.09690
#
# Velocity S-wave (km/s) = 3.68504 3.95974 3.82485
# Velocity P-wave (km/s) = 5.87852 6.74092 6.32444
#
# Compressibility (1/GPa) = 0.02463581
#
# Stress axis : x y z
#
# Youngs Moduli (GPa) = 106.24508 37.60192 97.84125
#
# Poissons Ratio (x) = 0.09300 0.37998
# Poissons Ratio (y) = 0.26279 0.43429
# Poissons Ratio (z) = 0.41262 0.16690
#
# Static dielectric constant tensor:
#      x y z
#    x 4.228890 0.000000 0.000000 
#    y 0.000000 4.642350 0.000000 
#    z 0.000000 0.000000 4.978330 
# 
# 
# High freq. dielectric constant tensor:
#      x y z
#    x 1.967170 0.000000 0.000000 
#    y 0.000000 1.995790 0.000000 
#    z 0.000000 0.000000 2.010370 
# 
# From -- ./inp_files/17798.got.cif
#   From: 2010.03.12/outbox.cif.g09.slc.cpg/sg56_9_cif.got.tgz:17798.got - 2010.04.16 15:33:40.
