data_PCOD8229093
_publ_section_title
;
Structure prediction by ZEFSAII (Michael W. Deem and Ramdas Pophale) SiO2 
 PCOD8229093
Probable space group: P C C N
;
_chemical_formula_sum "Si O2"
_cell_formula_units_Z 36
_cell_length_a 6.516452
_cell_length_b 27.204412
_cell_length_c 9.808681
_cell_angle_alpha 90.000000
_cell_angle_beta 90.000000
_cell_angle_gamma 90.000000
_cell_volume 1738.846136
_symmetry_space_group_name_H-M "P C C N"
_symmetry_group_IT_number 56
_symmetry_cell_setting 'orthorhombic'
loop_
_space_group_symop_operation_xyz
x,y,z
1/2-x,1/2-y,z
1/2+x,-y,1/2-z
-x,1/2+y,1/2-z
-x,-y,-z
1/2+x,1/2+y,-z
1/2-x,y,1/2+z
x,1/2-y,1/2+z
loop_
_atom_site_type_symbol
_atom_site_label
_atom_site_fract_x
_atom_site_fract_y
_atom_site_fract_z
Si Si1 0.458832 0.560290 0.638560
Si Si2 0.372049 0.297492 0.675134
Si Si3 0.197417 0.512037 0.412421
Si Si4 0.057342 0.330787 0.894159
Si Si5 0.750000 0.250000 0.301678
O O1 0.338893 0.548063 0.500196
O O2 0.688329 0.538904 0.623720
O O3 0.349871 0.538242 0.770581
O O4 0.459709 0.618711 0.657331
O O5 0.250000 0.250000 0.621622
O O6 0.258354 0.320261 0.804821
O O7 0.371743 0.336306 0.550992
O O8 0.606204 0.284312 0.709639
O O9 0.000000 0.500000 0.500000
O O10 0.893615 0.286125 0.890301
#
# Coordination Sequence:
#
# PCOD8229093 Si02
#       5
#     8   8   8   8   4
#     4  11  26  43  70  97 129 179 215 281 332 398
#     4  10  22  42  62  90 130 167 212 267 320 383
#     4  11  24  46  66  95 138 168 223 275 334 391
#     4  11  25  40  66  97 129 169 219 265 332 389
#     4  10  22  42  66  92 130 168 216 272 318 390
#
# _framework density 20.703384
#
# number of rings (size 3 to 8) (size 9 to 14) (size 15 to 20)
#    0.000    1.333    2.222    2.667    6.222    3.556 
#    0.000    0.000    0.000    0.000    0.000    0.000 
#    0.000    0.000    0.000    0.000    0.000    0.000 
#
# Total GULP energy -446511.448829 kJ/mol
# GULP energy per Si atom -12403.095801 kJ/mol
# Density = 2.065626 g / cm^3
# Si number density = 20.703384 Si / 1000 Ang^3
#
#
#
# Elastic Constant Matrix: (Units=GPa)
#
#
# Indices 1 2 3 4 5 6 
#
# 1 119.7059 36.9548 54.2611 0.0000 0.0000 0.0000
# 2 36.9548 108.5622 35.5390 0.0000 0.0000 0.0000
# 3 54.2611 35.5390 133.9562 0.0000 0.0000 0.0000
# 4 0.0000 0.0000 0.0000 19.4360 0.0000 0.0000
# 5 0.0000 0.0000 0.0000 0.0000 32.2018 0.0000
# 6 0.0000 0.0000 0.0000 0.0000 0.0000 21.8556
#
#
#
# Elastic Compliance Matrix: (Units=1/GPa)
#
#
# Indices 1 2 3 4 5 6 
#
# 1 0.010800 -0.002458 -0.003723 0.000000 0.000000 0.000000
# 2 -0.002458 0.010647 -0.001829 0.000000 0.000000 0.000000
# 3 -0.003723 -0.001829 0.009458 0.000000 0.000000 0.000000
# 4 0.000000 0.000000 0.000000 0.051451 0.000000 0.000000
# 5 0.000000 0.000000 0.000000 0.000000 0.031054 0.000000
# 6 0.000000 0.000000 0.000000 0.000000 0.000000 0.045755
#
#
# Mechanical properties :
#
#
# Convention : Reuss Voigt Hill
#
# Bulk Modulus (GPa) = 67.17671 68.41490 67.79581
# Shear Modulus (GPa) = 27.75532 30.39665 29.07599
#
# Velocity S-wave (km/s) = 3.66542 3.83586 3.75161
# Velocity P-wave (km/s) = 7.10150 7.26192 7.18216
#
# Compressibility (1/GPa) = 0.01488611
#
# Stress axis : x y z
#
# Youngs Moduli (GPa) = 92.59294 93.92607 105.72711
#
# Poissons Ratio (x) = 0.23084 0.39359
# Poissons Ratio (y) = 0.22756 0.19338
# Poissons Ratio (z) = 0.34469 0.17180
#
# Static dielectric constant tensor:
#      x y z
#    x 3.967570 0.000000 0.000000 
#    y 0.000000 3.670250 0.000000 
#    z 0.000000 0.000000 3.809870 
# 
# 
# High freq. dielectric constant tensor:
#      x y z
#    x 1.820650 0.000000 0.000000 
#    y 0.000000 1.797800 0.000000 
#    z 0.000000 0.000000 1.825630 
# 
# From -- ./inp_files/5543.got.cif
#   From: 2010.03.12/outbox.cif.g09.slc.cpg/sg56_3_cif.got.tgz:5543.got - 2010.04.16 15:33:40.
