data_PCOD8229211
_publ_section_title
;
Structure prediction by ZEFSAII (Michael W. Deem and Ramdas Pophale) SiO2 
 PCOD8229211
Probable space group: P C C N
;
_chemical_formula_sum "Si O2"
_cell_formula_units_Z 64
_cell_length_a 21.818065
_cell_length_b 26.212375
_cell_length_c 5.145185
_cell_angle_alpha 90.000000
_cell_angle_beta 90.000000
_cell_angle_gamma 90.000000
_cell_volume 2942.548289
_symmetry_space_group_name_H-M "P C C N"
_symmetry_group_IT_number 56
_symmetry_cell_setting 'orthorhombic'
loop_
_space_group_symop_operation_xyz
x,y,z
1/2-x,1/2-y,z
1/2+x,-y,1/2-z
-x,1/2+y,1/2-z
-x,-y,-z
1/2+x,1/2+y,-z
1/2-x,y,1/2+z
x,1/2-y,1/2+z
loop_
_atom_site_type_symbol
_atom_site_label
_atom_site_fract_x
_atom_site_fract_y
_atom_site_fract_z
Si Si1 0.009565 0.730750 0.191096
Si Si2 0.123230 0.223900 0.788337
Si Si3 0.285476 0.356816 0.788347
Si Si4 0.214173 0.929235 0.001812
Si Si5 0.593272 0.533924 0.636563
Si Si6 0.512817 0.112555 0.834558
Si Si7 0.921209 0.421518 0.319813
Si Si8 0.670172 0.537083 0.122163
O O1 0.048024 0.747492 0.446144
O O2 0.991245 0.671404 0.184167
O O3 0.950017 0.768392 0.216025
O O4 0.153209 0.250723 0.540091
O O5 0.144494 0.164709 0.783252
O O6 0.248796 0.336494 0.541514
O O7 0.286988 0.417984 0.775465
O O8 0.237689 0.909992 0.720937
O O9 0.211894 0.990554 0.977967
O O10 0.147298 0.908816 0.081049
O O11 0.541415 0.575436 0.571571
O O12 0.567624 0.480930 0.753598
O O13 0.626961 0.520330 0.364674
O O14 0.634470 0.557915 0.866565
O O15 0.534189 0.094335 0.552377
O O16 0.565275 0.110230 0.056784
#
# Coordination Sequence:
#
# PCOD8229211 Si02
#       8
#     8   8   8   8   8   8   8   8
#     4  10  23  40  62  89 116 159 212 252 318 387
#     4  10  23  39  59  75 110 143 209 270 322 381
#     4  12  25  39  58  82 114 159 218 286 324 346
#     4  11  21  39  62  85 126 168 197 244 297 353
#     4  11  23  37  62  88 126 168 203 254 320 374
#     4  12  23  39  66  88 131 161 200 265 321 365
#     4  11  23  40  59 100 125 158 208 248 305 391
#     4  11  23  37  59  87 121 163 225 251 306 372
#
# _framework density 21.749855
#
# number of rings (size 3 to 8) (size 9 to 14) (size 15 to 20)
#    0.000    1.000    0.000    8.250    7.000    1.500 
#    0.000    0.000    0.000    0.000    0.000    0.000 
#    0.000   35.000    0.000    0.000    0.000    0.000 
#
# Total GULP energy -793188.792908 kJ/mol
# GULP energy per Si atom -12393.574889 kJ/mol
# Density = 2.170035 g / cm^3
# Si number density = 21.749855 Si / 1000 Ang^3
#
#
#
# Elastic Constant Matrix: (Units=GPa)
#
#
# Indices 1 2 3 4 5 6 
#
# 1 48.4297 12.3581 22.8490 0.0000 0.0000 0.0000
# 2 12.3581 60.6310 24.3264 0.0000 0.0000 0.0000
# 3 22.8490 24.3264 182.3858 0.0000 0.0000 0.0000
# 4 0.0000 0.0000 0.0000 2.9762 0.0000 0.0000
# 5 0.0000 0.0000 0.0000 0.0000 32.7023 0.0000
# 6 0.0000 0.0000 0.0000 0.0000 0.0000 22.3715
#
#
#
# Elastic Compliance Matrix: (Units=1/GPa)
#
#
# Indices 1 2 3 4 5 6 
#
# 1 0.022698 -0.003683 -0.002352 0.000000 0.000000 0.000000
# 2 -0.003683 0.018023 -0.001943 0.000000 0.000000 0.000000
# 3 -0.002352 -0.001943 0.006037 0.000000 0.000000 0.000000
# 4 0.000000 0.000000 0.000000 0.335996 0.000000 0.000000
# 5 0.000000 0.000000 0.000000 0.000000 0.030579 0.000000
# 6 0.000000 0.000000 0.000000 0.000000 0.000000 0.044700
#
#
# Mechanical properties :
#
#
# Convention : Reuss Voigt Hill
#
# Bulk Modulus (GPa) = 32.46452 45.61259 39.03856
# Shear Modulus (GPa) = 10.32513 27.07086 18.69800
#
# Velocity S-wave (km/s) = 2.18118 3.53178 2.93522
# Velocity P-wave (km/s) = 4.61542 6.13582 5.42910
#
# Compressibility (1/GPa) = 0.03080286
#
# Stress axis : x y z
#
# Youngs Moduli (GPa) = 44.05661 55.48404 165.65381
#
# Poissons Ratio (x) = 0.20432 0.38968
# Poissons Ratio (y) = 0.16224 0.32179
# Poissons Ratio (z) = 0.10364 0.10778
#
# Static dielectric constant tensor:
#      x y z
#    x 3.656430 0.000000 0.000000 
#    y 0.000000 3.616830 0.000000 
#    z 0.000000 0.000000 4.934880 
# 
# 
# High freq. dielectric constant tensor:
#      x y z
#    x 1.817600 0.000000 0.000000 
#    y 0.000000 1.821800 0.000000 
#    z 0.000000 0.000000 1.899190 
# 
# From -- ./inp_files/966.got.cif
#   From: 2010.03.12/outbox.cif.g09.slc.cpg/sg56_1_cif.got.tgz:966.got - 2010.04.16 15:33:40.
