data_PCOD8229186
_publ_section_title
;
Structure prediction by ZEFSAII (Michael W. Deem and Ramdas Pophale) SiO2 
 PCOD8229186
Probable space group: P C C N
;
_chemical_formula_sum "Si O2"
_cell_formula_units_Z 40
_cell_length_a 7.642149
_cell_length_b 24.433864
_cell_length_c 9.184599
_cell_angle_alpha 90.000000
_cell_angle_beta 90.000000
_cell_angle_gamma 90.000000
_cell_volume 1715.014724
_symmetry_space_group_name_H-M "P C C N"
_symmetry_group_IT_number 56
_symmetry_cell_setting 'orthorhombic'
loop_
_space_group_symop_operation_xyz
x,y,z
1/2-x,1/2-y,z
1/2+x,-y,1/2-z
-x,1/2+y,1/2-z
-x,-y,-z
1/2+x,1/2+y,-z
1/2-x,y,1/2+z
x,1/2-y,1/2+z
loop_
_atom_site_type_symbol
_atom_site_label
_atom_site_fract_x
_atom_site_fract_y
_atom_site_fract_z
Si Si1 0.437127 0.224783 0.971111
Si Si2 0.218076 0.515364 0.023133
Si Si3 0.948766 0.533802 0.709586
Si Si4 0.118452 0.706818 0.309094
Si Si5 0.102919 0.623571 0.872797
O O1 0.250000 0.250000 0.001772
O O2 0.455140 0.208434 0.801753
O O3 0.566252 0.272574 0.029419
O O4 0.476229 0.169015 0.058900
O O5 0.060286 0.490568 0.122789
O O6 0.386016 0.509059 0.127395
O O7 0.270834 0.478812 0.880332
O O8 0.170720 0.577611 0.985217
O O9 0.989266 0.598089 0.738985
O O10 0.250000 0.750000 0.236659
O O11 0.213623 0.648360 0.315039
#
# Coordination Sequence:
#
# PCOD8229186 Si02
#       5
#     8   8   8   8   8
#     4  11  24  45  69 106 138 173 237 302 345 414
#     4  11  24  46  71 104 144 185 235 292 345 427
#     4  11  24  45  69 103 144 181 239 289 346 419
#     4  10  22  45  72  96 138 182 231 285 353 437
#     4  11  23  45  74  99 138 197 230 281 364 423
#
# _framework density 23.323414
#
# number of rings (size 3 to 8) (size 9 to 14) (size 15 to 20)
#    0.000    1.200    2.000    4.200    0.000    1.600 
#   18.000    0.000    0.000    0.000    0.000    0.000 
#    0.000    0.000    0.000    0.000    0.000    0.000 
#
# Total GULP energy -495588.328717 kJ/mol
# GULP energy per Si atom -12389.708218 kJ/mol
# Density = 2.327033 g / cm^3
# Si number density = 23.323414 Si / 1000 Ang^3
#
#
#
# Elastic Constant Matrix: (Units=GPa)
#
#
# Indices 1 2 3 4 5 6 
#
# 1 102.9040 71.9966 48.0045 0.0000 0.0000 0.0000
# 2 71.9966 142.9169 60.7689 0.0000 0.0000 0.0000
# 3 48.0045 60.7689 132.8040 0.0000 0.0000 0.0000
# 4 0.0000 0.0000 0.0000 12.9250 0.0000 0.0000
# 5 0.0000 0.0000 0.0000 0.0000 45.9351 0.0000
# 6 0.0000 0.0000 0.0000 0.0000 0.0000 47.6319
#
#
#
# Elastic Compliance Matrix: (Units=1/GPa)
#
#
# Indices 1 2 3 4 5 6 
#
# 1 0.015672 -0.006812 -0.002548 0.000000 0.000000 0.000000
# 2 -0.006812 0.011648 -0.002868 0.000000 0.000000 0.000000
# 3 -0.002548 -0.002868 0.009763 0.000000 0.000000 0.000000
# 4 0.000000 0.000000 0.000000 0.077369 0.000000 0.000000
# 5 0.000000 0.000000 0.000000 0.000000 0.021770 0.000000
# 6 0.000000 0.000000 0.000000 0.000000 0.000000 0.020994
#
#
# Mechanical properties :
#
#
# Convention : Reuss Voigt Hill
#
# Bulk Modulus (GPa) = 79.18672 82.24054 80.71363
# Shear Modulus (GPa) = 26.89891 34.48873 30.69382
#
# Velocity S-wave (km/s) = 3.39971 3.84958 3.63162
# Velocity P-wave (km/s) = 7.03108 7.42270 7.22954
#
# Compressibility (1/GPa) = 0.01262838
#
# Stress axis : x y z
#
# Youngs Moduli (GPa) = 63.80698 85.85236 102.42574
#
# Poissons Ratio (x) = 0.58480 0.26099
# Poissons Ratio (y) = 0.43463 0.29372
# Poissons Ratio (z) = 0.16259 0.24620
#
# Static dielectric constant tensor:
#      x y z
#    x 4.562190 0.000000 0.000000 
#    y 0.000000 4.033780 0.000000 
#    z 0.000000 0.000000 4.442010 
# 
# 
# High freq. dielectric constant tensor:
#      x y z
#    x 1.931370 0.000000 0.000000 
#    y 0.000000 1.907510 0.000000 
#    z 0.000000 0.000000 1.940060 
# 
# From -- ./inp_files/2047.got.cif
#   From: 2010.03.12/outbox.cif.g09.slc.cpg/sg56_2_cif.got.tgz:2047.got - 2010.04.16 15:33:40.
