data_PCOD8229355
_publ_section_title
;
Structure prediction by ZEFSAII (Michael W. Deem and Ramdas Pophale) SiO2 
 PCOD8229355
Probable space group: P C C N
;
_chemical_formula_sum "Si O2"
_cell_formula_units_Z 60
_cell_length_a 25.375922
_cell_length_b 12.498955
_cell_length_c 9.364555
_cell_angle_alpha 90.000000
_cell_angle_beta 90.000000
_cell_angle_gamma 90.000000
_cell_volume 2970.179388
_symmetry_space_group_name_H-M "P C C N"
_symmetry_group_IT_number 56
_symmetry_cell_setting 'orthorhombic'
loop_
_space_group_symop_operation_xyz
x,y,z
1/2-x,1/2-y,z
1/2+x,-y,1/2-z
-x,1/2+y,1/2-z
-x,-y,-z
1/2+x,1/2+y,-z
1/2-x,y,1/2+z
x,1/2-y,1/2+z
loop_
_atom_site_type_symbol
_atom_site_label
_atom_site_fract_x
_atom_site_fract_y
_atom_site_fract_z
Si Si1 0.250000 0.250000 0.322466
Si Si2 0.820454 0.791897 0.428326
Si Si3 0.412198 0.633140 0.065215
Si Si4 0.580657 0.558063 0.401479
Si Si5 0.036418 0.364533 0.830888
Si Si6 0.615137 0.587703 0.908338
Si Si7 0.029541 0.127859 0.874404
Si Si8 0.581018 0.152022 0.759383
O O1 0.287313 0.181246 0.215487
O O2 0.213277 0.179441 0.429042
O O3 0.872564 0.859934 0.431086
O O4 0.834246 0.663382 0.434870
O O5 0.398516 0.662915 0.901830
O O6 0.372329 0.538695 0.121979
O O7 0.471690 0.585941 0.082113
O O8 0.405489 0.737749 0.162313
O O9 0.549430 0.544035 0.551647
O O10 0.538213 0.608347 0.293172
O O11 0.606524 0.446325 0.348107
O O12 0.082935 0.356695 0.717496
O O13 0.033042 0.252708 0.914971
O O14 0.980684 0.382851 0.753501
O O15 0.578269 0.571272 0.047658
#
# Coordination Sequence:
#
# PCOD8229355 Si02
#       8
#     4   8   8   8   8   8   8   8
#     4  10  24  42  60  92 126 126 182 244 330 370
#     4  11  22  40  65  92 113 149 177 248 306 374
#     4  11  25  37  52  77 123 166 202 245 272 315
#     4  12  22  36  59  84 115 155 206 233 290 353
#     4  11  21  32  53  85 119 158 201 244 272 335
#     4  12  20  37  59  82 112 157 203 230 294 349
#     4  11  19  35  52  81 120 161 201 243 274 329
#     4  11  25  38  50  79 122 167 203 243 273 312
#
# _framework density 20.200800999999998
#
# number of rings (size 3 to 8) (size 9 to 14) (size 15 to 20)
#    0.000    0.800    5.333    3.200    7.467    0.000 
#    0.000    0.000    0.000    0.000    0.000    5.600 
#    0.000    0.000    0.000    0.000    0.000    0.000 
#
# Total GULP energy -743702.744316 kJ/mol
# GULP energy per Si atom -12395.045739 kJ/mol
# Density = 2.015482 g / cm^3
# Si number density = 20.200801 Si / 1000 Ang^3
#
#
#
# Elastic Constant Matrix: (Units=GPa)
#
#
# Indices 1 2 3 4 5 6 
#
# 1 44.4772 27.8112 20.4211 0.0000 0.0000 0.0000
# 2 27.8112 105.2824 11.5245 0.0000 0.0000 0.0000
# 3 20.4211 11.5245 89.9092 0.0000 0.0000 0.0000
# 4 0.0000 0.0000 0.0000 25.5414 0.0000 0.0000
# 5 0.0000 0.0000 0.0000 0.0000 21.1601 0.0000
# 6 0.0000 0.0000 0.0000 0.0000 0.0000 8.1810
#
#
#
# Elastic Compliance Matrix: (Units=1/GPa)
#
#
# Indices 1 2 3 4 5 6 
#
# 1 0.029652 -0.007197 -0.005812 0.000000 0.000000 0.000000
# 2 -0.007197 0.011380 0.000176 0.000000 0.000000 0.000000
# 3 -0.005812 0.000176 0.012420 0.000000 0.000000 0.000000
# 4 0.000000 0.000000 0.000000 0.039152 0.000000 0.000000
# 5 0.000000 0.000000 0.000000 0.000000 0.047259 0.000000
# 6 0.000000 0.000000 0.000000 0.000000 0.000000 0.122234
#
#
# Mechanical properties :
#
#
# Convention : Reuss Voigt Hill
#
# Bulk Modulus (GPa) = 35.98960 39.90917 37.94938
# Shear Modulus (GPa) = 16.83358 22.97064 19.90211
#
# Velocity S-wave (km/s) = 2.88985 3.37577 3.14222
# Velocity P-wave (km/s) = 5.38420 5.91554 5.65611
#
# Compressibility (1/GPa) = 0.02778580
#
# Stress axis : x y z
#
# Youngs Moduli (GPa) = 33.72447 87.87308 80.51554
#
# Poissons Ratio (x) = 0.63239 0.46799
# Poissons Ratio (y) = 0.24270 -0.01416
# Poissons Ratio (z) = 0.19602 -0.01545
#
# Static dielectric constant tensor:
#      x y z
#    x 3.337240 0.000000 0.000000 
#    y 0.000000 3.754490 0.000000 
#    z 0.000000 0.000000 3.809240 
# 
# 
# High freq. dielectric constant tensor:
#      x y z
#    x 1.729970 0.000000 0.000000 
#    y 0.000000 1.785220 0.000000 
#    z 0.000000 0.000000 1.811850 
# 
# From -- ./inp_files/4977.got.cif
#   From: 2010.03.12/outbox.cif.g09.slc.cpg/sg56_3_cif.got.tgz:4977.got - 2010.04.16 15:33:40.
