data_PCOD8229342
_publ_section_title
;
Structure prediction by ZEFSAII (Michael W. Deem and Ramdas Pophale) SiO2 
 PCOD8229342
Probable space group: P C C N
;
_chemical_formula_sum "Si O2"
_cell_formula_units_Z 60
_cell_length_a 8.338833
_cell_length_b 27.402826
_cell_length_c 12.142355
_cell_angle_alpha 90.000000
_cell_angle_beta 90.000000
_cell_angle_gamma 90.000000
_cell_volume 2774.620275
_symmetry_space_group_name_H-M "P C C N"
_symmetry_group_IT_number 56
_symmetry_cell_setting 'orthorhombic'
loop_
_space_group_symop_operation_xyz
x,y,z
1/2-x,1/2-y,z
1/2+x,-y,1/2-z
-x,1/2+y,1/2-z
-x,-y,-z
1/2+x,1/2+y,-z
1/2-x,y,1/2+z
x,1/2-y,1/2+z
loop_
_atom_site_type_symbol
_atom_site_label
_atom_site_fract_x
_atom_site_fract_y
_atom_site_fract_z
Si Si1 0.963311 0.001873 0.371277
Si Si2 0.477641 0.825570 0.992533
Si Si3 0.811046 0.555202 0.267172
Si Si4 0.726009 0.867523 0.605453
Si Si5 0.250000 0.750000 0.107805
Si Si6 0.984658 0.557298 0.479720
Si Si7 0.269737 0.595419 0.609123
Si Si8 0.068157 0.667980 0.732780
O O1 0.850573 0.047498 0.343231
O O2 0.133348 0.009414 0.309584
O O3 0.863634 0.955368 0.323571
O O4 0.000000 0.000000 0.500000
O O5 0.476489 0.827704 0.860615
O O6 0.662542 0.830673 0.033860
O O7 0.383170 0.776951 0.031527
O O8 0.398778 0.872118 0.047787
O O9 0.816093 0.607318 0.207349
O O10 0.954046 0.563335 0.351932
O O11 0.662309 0.915481 0.540852
O O12 0.587319 0.833823 0.655028
O O13 0.336751 0.714596 0.191914
O O14 0.000000 0.500000 0.500000
O O15 0.147719 0.583265 0.511389
O O16 0.179362 0.620667 0.711760
#
# Coordination Sequence:
#
# PCOD8229342 Si02
#       8
#     8   8   8   8   4   8   8   8
#     4  12  27  41  62  94 137 187 244 289 330 399
#     4  11  23  45  73  97 138 170 221 285 349 424
#     4  12  25  39  63  90 134 187 232 284 335 386
#     4  11  24  42  62 104 133 178 226 279 334 408
#     4  10  24  48  74 110 124 168 222 274 356 448
#     4  11  22  40  57  87 135 179 231 275 324 386
#     4  10  24  40  62  95 132 178 233 276 335 404
#     4  10  24  45  72  98 138 169 216 280 351 415
#
# _framework density 21.624580999999999
#
# number of rings (size 3 to 8) (size 9 to 14) (size 15 to 20)
#    0.000    1.067    2.667    2.800    7.467    0.533 
#    0.000    5.333    0.000    0.000    0.000    0.000 
#    0.000    0.000    0.000    0.000    0.000    0.000 
#
# Total GULP energy -743700.727664 kJ/mol
# GULP energy per Si atom -12395.012128 kJ/mol
# Density = 2.157536 g / cm^3
# Si number density = 21.624581 Si / 1000 Ang^3
#
#
#
# Elastic Constant Matrix: (Units=GPa)
#
#
# Indices 1 2 3 4 5 6 
#
# 1 103.2289 30.4618 44.8636 0.0000 0.0000 0.0000
# 2 30.4618 76.9351 27.3979 0.0000 0.0000 0.0000
# 3 44.8636 27.3979 135.9088 0.0000 0.0000 0.0000
# 4 0.0000 0.0000 0.0000 19.3313 0.0000 0.0000
# 5 0.0000 0.0000 0.0000 0.0000 37.2676 0.0000
# 6 0.0000 0.0000 0.0000 0.0000 0.0000 37.7162
#
#
#
# Elastic Compliance Matrix: (Units=1/GPa)
#
#
# Indices 1 2 3 4 5 6 
#
# 1 0.012196 -0.003658 -0.003288 0.000000 0.000000 0.000000
# 2 -0.003658 0.015100 -0.001837 0.000000 0.000000 0.000000
# 3 -0.003288 -0.001837 0.008814 0.000000 0.000000 0.000000
# 4 0.000000 0.000000 0.000000 0.051730 0.000000 0.000000
# 5 0.000000 0.000000 0.000000 0.000000 0.026833 0.000000
# 6 0.000000 0.000000 0.000000 0.000000 0.000000 0.026514
#
#
# Mechanical properties :
#
#
# Convention : Reuss Voigt Hill
#
# Bulk Modulus (GPa) = 53.92581 57.94660 55.93620
# Shear Modulus (GPa) = 30.31534 33.08632 31.70083
#
# Velocity S-wave (km/s) = 3.74825 3.91581 3.83294
# Velocity P-wave (km/s) = 6.61240 6.87747 6.74624
#
# Compressibility (1/GPa) = 0.01854400
#
# Stress axis : x y z
#
# Youngs Moduli (GPa) = 81.99582 66.22394 113.46036
#
# Poissons Ratio (x) = 0.24223 0.37311
# Poissons Ratio (y) = 0.29992 0.20839
# Poissons Ratio (z) = 0.26964 0.12163
#
# Static dielectric constant tensor:
#      x y z
#    x 4.166190 0.000000 0.000000 
#    y 0.000000 3.859880 0.000000 
#    z 0.000000 0.000000 3.662220 
# 
# 
# High freq. dielectric constant tensor:
#      x y z
#    x 1.863510 0.000000 0.000000 
#    y 0.000000 1.833760 0.000000 
#    z 0.000000 0.000000 1.859120 
# 
# From -- ./inp_files/6533.got.cif
#   From: 2010.03.12/outbox.cif.g09.slc.cpg/sg56_4_cif.got.tgz:6533.got - 2010.04.16 15:33:40.
