data_PCOD8229277
_publ_section_title
;
Structure prediction by ZEFSAII (Michael W. Deem and Ramdas Pophale) SiO2 
 PCOD8229277
Probable space group: P C C N
;
_chemical_formula_sum "Si O2"
_cell_formula_units_Z 48
_cell_length_a 28.308183
_cell_length_b 5.434012
_cell_length_c 13.187831
_cell_angle_alpha 90.000000
_cell_angle_beta 90.000000
_cell_angle_gamma 90.000000
_cell_volume 2028.644560
_symmetry_space_group_name_H-M "P C C N"
_symmetry_group_IT_number 56
_symmetry_cell_setting 'orthorhombic'
loop_
_space_group_symop_operation_xyz
x,y,z
1/2-x,1/2-y,z
1/2+x,-y,1/2-z
-x,1/2+y,1/2-z
-x,-y,-z
1/2+x,1/2+y,-z
1/2-x,y,1/2+z
x,1/2-y,1/2+z
loop_
_atom_site_type_symbol
_atom_site_label
_atom_site_fract_x
_atom_site_fract_y
_atom_site_fract_z
Si Si1 0.278256 0.501633 0.863518
Si Si2 0.140828 0.196143 0.737263
Si Si3 0.089142 0.864542 0.594250
Si Si4 0.161569 0.003191 0.052034
Si Si5 0.585634 0.712142 0.577003
Si Si6 0.997276 0.366912 0.313509
O O1 0.250000 0.250000 0.843244
O O2 0.324402 0.498612 0.792172
O O3 0.250000 0.750000 0.836079
O O4 0.291876 0.509967 0.982930
O O5 0.171569 0.354326 0.657317
O O6 0.116097 0.367351 0.823403
O O7 0.096044 0.063027 0.684078
O O8 0.142756 0.768597 0.577466
O O9 0.052845 0.653763 0.628808
O O10 0.069984 0.975042 0.488056
O O11 0.118311 0.126142 0.994110
O O12 0.539577 0.870213 0.605392
O O13 0.996244 0.622220 0.254301
#
# Coordination Sequence:
#
# PCOD8229277 Si02
#       6
#     8   8   8   8   8   8
#     4  11  28  49  74 108 141 180 232 297 360 428
#     4  10  23  47  70 104 139 189 230 290 358 424
#     4  11  24  42  73 101 140 195 231 292 347 419
#     4  10  25  44  75  98 144 183 237 287 359 423
#     4  10  23  43  68 102 144 188 235 289 346 411
#     4  12  26  43  69 106 146 188 243 287 340 415
#
# _framework density 23.661118999999999
#
# number of rings (size 3 to 8) (size 9 to 14) (size 15 to 20)
#    0.000    1.333    1.667    1.500   14.000    2.667 
#    0.000    0.000    0.000    0.000    0.000    0.000 
#    0.000    0.000    0.000    0.000    0.000    0.000 
#
# Total GULP energy -595107.646300 kJ/mol
# GULP energy per Si atom -12398.075965 kJ/mol
# Density = 2.360727 g / cm^3
# Si number density = 23.661119 Si / 1000 Ang^3
#
#
#
# Elastic Constant Matrix: (Units=GPa)
#
#
# Indices 1 2 3 4 5 6 
#
# 1 68.5233 3.9490 24.4367 0.0000 0.0000 0.0000
# 2 3.9490 79.1552 19.9379 0.0000 0.0000 0.0000
# 3 24.4367 19.9379 126.0095 0.0000 0.0000 0.0000
# 4 0.0000 0.0000 0.0000 22.6993 0.0000 0.0000
# 5 0.0000 0.0000 0.0000 0.0000 35.4388 0.0000
# 6 0.0000 0.0000 0.0000 0.0000 0.0000 35.1420
#
#
#
# Elastic Compliance Matrix: (Units=1/GPa)
#
#
# Indices 1 2 3 4 5 6 
#
# 1 0.015678 -0.000017 -0.003038 0.000000 0.000000 0.000000
# 2 -0.000017 0.013158 -0.002079 0.000000 0.000000 0.000000
# 3 -0.003038 -0.002079 0.008854 0.000000 0.000000 0.000000
# 4 0.000000 0.000000 0.000000 0.044054 0.000000 0.000000
# 5 0.000000 0.000000 0.000000 0.000000 0.028218 0.000000
# 6 0.000000 0.000000 0.000000 0.000000 0.000000 0.028456
#
#
# Mechanical properties :
#
#
# Convention : Reuss Voigt Hill
#
# Bulk Modulus (GPa) = 36.46575 41.14834 38.80704
# Shear Modulus (GPa) = 31.68068 33.68032 32.68050
#
# Velocity S-wave (km/s) = 3.66311 3.77695 3.72047
# Velocity P-wave (km/s) = 5.77376 6.03729 5.90700
#
# Compressibility (1/GPa) = 0.02742299
#
# Stress axis : x y z
#
# Youngs Moduli (GPa) = 63.78423 76.00038 112.94479
#
# Poissons Ratio (x) = 0.00129 0.34309
# Poissons Ratio (y) = 0.00109 0.23477
# Poissons Ratio (z) = 0.19376 0.15797
#
# Static dielectric constant tensor:
#      x y z
#    x 4.166320 0.000000 0.000000 
#    y 0.000000 4.061970 0.000000 
#    z 0.000000 0.000000 4.609280 
# 
# 
# High freq. dielectric constant tensor:
#      x y z
#    x 1.930430 0.000000 0.000000 
#    y 0.000000 1.922940 0.000000 
#    z 0.000000 0.000000 1.956620 
# 
# From -- ./inp_files/9763.got.cif
#   From: 2010.03.12/outbox.cif.g09.slc.cpg/sg56_5_cif.got.tgz:9763.got - 2010.04.16 15:33:40.
