data_PCOD8229654
_publ_section_title
;
Structure prediction by ZEFSAII (Michael W. Deem and Ramdas Pophale) SiO2 
 PCOD8229654
Probable space group: P C C N
;
_chemical_formula_sum "Si O2"
_cell_formula_units_Z 48
_cell_length_a 16.325582
_cell_length_b 9.183636
_cell_length_c 14.493802
_cell_angle_alpha 90.000000
_cell_angle_beta 90.000000
_cell_angle_gamma 90.000000
_cell_volume 2173.029682
_symmetry_space_group_name_H-M "P C C N"
_symmetry_group_IT_number 56
_symmetry_cell_setting 'orthorhombic'
loop_
_space_group_symop_operation_xyz
x,y,z
1/2-x,1/2-y,z
1/2+x,-y,1/2-z
-x,1/2+y,1/2-z
-x,-y,-z
1/2+x,1/2+y,-z
1/2-x,y,1/2+z
x,1/2-y,1/2+z
loop_
_atom_site_type_symbol
_atom_site_label
_atom_site_fract_x
_atom_site_fract_y
_atom_site_fract_z
Si Si1 0.384471 0.213588 0.485811
Si Si2 0.312571 0.867677 0.136214
Si Si3 0.441004 0.400932 0.169285
Si Si4 0.269446 0.083105 0.761380
Si Si5 0.486797 0.769298 0.666642
Si Si6 0.767180 0.530847 0.035679
O O1 0.445151 0.172909 0.568995
O O2 0.439256 0.269855 0.401366
O O3 0.323548 0.344560 0.510389
O O4 0.329048 0.072656 0.462770
O O5 0.250000 0.750000 0.179075
O O6 0.404062 0.807155 0.132703
O O7 0.304867 0.008904 0.203758
O O8 0.283443 0.894325 0.030565
O O9 0.346778 0.422720 0.195020
O O10 0.490853 0.291967 0.233681
O O11 0.482973 0.557324 0.169942
O O12 0.250000 0.250000 0.788479
O O13 0.289460 0.999050 0.857207
#
# Coordination Sequence:
#
# PCOD8229654 Si02
#       6
#     8   8   8   8   8   8
#     4  11  23  46  72 103 138 185 240 297 355 433
#     4  12  27  48  68 105 151 189 236 302 366 432
#     4  12  26  46  71 102 143 187 235 297 363 426
#     4  12  23  46  75 103 137 189 251 292 355 436
#     4  12  28  46  70 108 147 187 239 298 369 432
#     4  11  23  42  77 103 131 190 248 289 358 433
#
# _framework density 22.088977
#
# number of rings (size 3 to 8) (size 9 to 14) (size 15 to 20)
#    0.000    0.333    6.667    1.500    7.000    2.667 
#    0.000    0.000    0.000    0.000    0.000    0.000 
#    0.000    0.000    0.000    0.000    0.000    0.000 
#
# Total GULP energy -595393.512953 kJ/mol
# GULP energy per Si atom -12404.031520 kJ/mol
# Density = 2.203870 g / cm^3
# Si number density = 22.088977 Si / 1000 Ang^3
#
#
#
# Elastic Constant Matrix: (Units=GPa)
#
#
# Indices 1 2 3 4 5 6 
#
# 1 105.4468 25.2823 10.2294 0.0000 0.0000 0.0000
# 2 25.2823 70.4931 37.3398 0.0000 0.0000 0.0000
# 3 10.2294 37.3398 107.6812 0.0000 0.0000 0.0000
# 4 0.0000 0.0000 0.0000 31.0746 0.0000 0.0000
# 5 0.0000 0.0000 0.0000 0.0000 34.7355 0.0000
# 6 0.0000 0.0000 0.0000 0.0000 0.0000 38.2556
#
#
#
# Elastic Compliance Matrix: (Units=1/GPa)
#
#
# Indices 1 2 3 4 5 6 
#
# 1 0.010388 -0.003924 0.000374 0.000000 0.000000 0.000000
# 2 -0.003924 0.018860 -0.006167 0.000000 0.000000 0.000000
# 3 0.000374 -0.006167 0.011390 0.000000 0.000000 0.000000
# 4 0.000000 0.000000 0.000000 0.032181 0.000000 0.000000
# 5 0.000000 0.000000 0.000000 0.000000 0.028789 0.000000
# 6 0.000000 0.000000 0.000000 0.000000 0.000000 0.026140
#
#
# Mechanical properties :
#
#
# Convention : Reuss Voigt Hill
#
# Bulk Modulus (GPa) = 47.16229 47.70266 47.43247
# Shear Modulus (GPa) = 32.41522 34.86444 33.63983
#
# Velocity S-wave (km/s) = 3.83493 3.97717 3.90670
# Velocity P-wave (km/s) = 6.40362 6.53706 6.47068
#
# Compressibility (1/GPa) = 0.02120338
#
# Stress axis : x y z
#
# Youngs Moduli (GPa) = 96.26552 53.02327 87.79882
#
# Poissons Ratio (x) = 0.20804 -0.03281
# Poissons Ratio (y) = 0.37771 0.54146
# Poissons Ratio (z) = -0.03598 0.32700
#
# Static dielectric constant tensor:
#      x y z
#    x 3.996460 0.000000 0.000000 
#    y 0.000000 3.949190 0.000000 
#    z 0.000000 0.000000 3.953340 
# 
# 
# High freq. dielectric constant tensor:
#      x y z
#    x 1.870100 0.000000 0.000000 
#    y 0.000000 1.859510 0.000000 
#    z 0.000000 0.000000 1.880860 
# 
# From -- ./inp_files/12686.got.cif
#   From: 2010.03.12/outbox.cif.g09.slc.cpg/sg56_7_cif.got.tgz:12686.got - 2010.04.16 15:33:40.
