data_PCOD8229657
_publ_section_title
;
Structure prediction by ZEFSAII (Michael W. Deem and Ramdas Pophale) SiO2 
 PCOD8229657
Probable space group: P C C N
;
_chemical_formula_sum "Si O2"
_cell_formula_units_Z 48
_cell_length_a 16.989678
_cell_length_b 6.603820
_cell_length_c 20.784767
_cell_angle_alpha 90.000000
_cell_angle_beta 90.000000
_cell_angle_gamma 90.000000
_cell_volume 2331.983834
_symmetry_space_group_name_H-M "P C C N"
_symmetry_group_IT_number 56
_symmetry_cell_setting 'orthorhombic'
loop_
_space_group_symop_operation_xyz
x,y,z
1/2-x,1/2-y,z
1/2+x,-y,1/2-z
-x,1/2+y,1/2-z
-x,-y,-z
1/2+x,1/2+y,-z
1/2-x,y,1/2+z
x,1/2-y,1/2+z
loop_
_atom_site_type_symbol
_atom_site_label
_atom_site_fract_x
_atom_site_fract_y
_atom_site_fract_z
Si Si1 0.304665 0.558068 0.064896
Si Si2 0.105124 0.111441 0.379321
Si Si3 0.104824 0.371101 0.253294
Si Si4 0.750000 0.750000 0.039729
Si Si5 0.961547 0.281047 0.671213
Si Si6 0.981774 0.405505 0.432009
Si Si7 0.250000 0.250000 0.669812
O O1 0.250000 0.750000 0.059357
O O2 0.390814 0.655127 0.069287
O O3 0.288335 0.426833 0.127974
O O4 0.295333 0.416226 0.002543
O O5 0.110301 0.205833 0.308893
O O6 0.187158 0.136704 0.415864
O O7 0.034093 0.206330 0.420883
O O8 0.089642 0.873326 0.371282
O O9 0.098041 0.597411 0.282170
O O10 0.183584 0.358357 0.211978
O O11 0.027085 0.338063 0.211113
O O12 0.004281 0.435112 0.624179
O O13 0.000000 0.500000 0.500000
#
# Coordination Sequence:
#
# PCOD8229657 Si02
#       7
#     8   8   8   4   8   8   4
#     4  11  26  42  67  98 137 176 224 282 342 409
#     4  11  25  42  70  96 135 177 225 282 338 411
#     4  11  23  43  66  98 132 173 224 276 338 412
#     4  11  25  46  62  98 137 177 224 284 342 407
#     4  11  24  42  73  96 135 178 224 282 341 410
#     4  11  24  45  67 103 130 179 232 277 339 414
#     4  11  25  44  66  96 139 173 218 282 342 403
#
# _framework density 20.583333
#
# number of rings (size 3 to 8) (size 9 to 14) (size 15 to 20)
#    0.000    1.000    5.000    0.500    4.667    2.000 
#    0.000    3.333    0.000    0.000    0.000    0.000 
#    0.000    0.000    0.000    0.000    0.000    0.000 
#
# Total GULP energy -595479.765549 kJ/mol
# GULP energy per Si atom -12405.828449 kJ/mol
# Density = 2.053648 g / cm^3
# Si number density = 20.583333 Si / 1000 Ang^3
#
#
#
# Elastic Constant Matrix: (Units=GPa)
#
#
# Indices 1 2 3 4 5 6 
#
# 1 141.1251 39.6600 42.7198 0.0000 0.0000 0.0000
# 2 39.6600 104.7377 24.3507 0.0000 0.0000 0.0000
# 3 42.7198 24.3507 95.5737 0.0000 0.0000 0.0000
# 4 0.0000 0.0000 0.0000 19.3899 0.0000 0.0000
# 5 0.0000 0.0000 0.0000 0.0000 41.1527 0.0000
# 6 0.0000 0.0000 0.0000 0.0000 0.0000 32.5523
#
#
#
# Elastic Compliance Matrix: (Units=1/GPa)
#
#
# Indices 1 2 3 4 5 6 
#
# 1 0.008801 -0.002570 -0.003279 0.000000 0.000000 0.000000
# 2 -0.002570 0.010899 -0.001628 0.000000 0.000000 0.000000
# 3 -0.003279 -0.001628 0.012344 0.000000 0.000000 0.000000
# 4 0.000000 0.000000 0.000000 0.051573 0.000000 0.000000
# 5 0.000000 0.000000 0.000000 0.000000 0.024300 0.000000
# 6 0.000000 0.000000 0.000000 0.000000 0.000000 0.030720
#
#
# Mechanical properties :
#
#
# Convention : Reuss Voigt Hill
#
# Bulk Modulus (GPa) = 58.51656 61.65528 60.08592
# Shear Modulus (GPa) = 31.38977 34.26606 32.82791
#
# Velocity S-wave (km/s) = 3.90937 4.08456 3.99793
# Velocity P-wave (km/s) = 6.99059 7.22937 7.11099
#
# Compressibility (1/GPa) = 0.01708918
#
# Stress axis : x y z
#
# Youngs Moduli (GPa) = 113.62650 91.74796 81.01366
#
# Poissons Ratio (x) = 0.23581 0.26564
# Poissons Ratio (y) = 0.29204 0.13191
# Poissons Ratio (z) = 0.37258 0.14938
#
# Static dielectric constant tensor:
#      x y z
#    x 4.321000 0.000000 0.000000 
#    y 0.000000 3.737460 0.000000 
#    z 0.000000 0.000000 4.065060 
# 
# 
# High freq. dielectric constant tensor:
#      x y z
#    x 1.813860 0.000000 0.000000 
#    y 0.000000 1.804330 0.000000 
#    z 0.000000 0.000000 1.823160 
# 
# From -- ./inp_files/21251.got.cif
#   From: 2010.03.12/outbox.cif.g09.slc.cpg/sg56_11_cif.got.tgz:21251.got - 2010.04.16 15:33:40.
