data_PCOD8229452
_publ_section_title
;
Structure prediction by ZEFSAII (Michael W. Deem and Ramdas Pophale) SiO2 
 PCOD8229452
Probable space group: P C C N
;
_chemical_formula_sum "Si O2"
_cell_formula_units_Z 36
_cell_length_a 5.078441
_cell_length_b 11.936993
_cell_length_c 27.039602
_cell_angle_alpha 90.000000
_cell_angle_beta 90.000000
_cell_angle_gamma 90.000000
_cell_volume 1639.176221
_symmetry_space_group_name_H-M "P C C N"
_symmetry_group_IT_number 56
_symmetry_cell_setting 'orthorhombic'
loop_
_space_group_symop_operation_xyz
x,y,z
1/2-x,1/2-y,z
1/2+x,-y,1/2-z
-x,1/2+y,1/2-z
-x,-y,-z
1/2+x,1/2+y,-z
1/2-x,y,1/2+z
x,1/2-y,1/2+z
loop_
_atom_site_type_symbol
_atom_site_label
_atom_site_fract_x
_atom_site_fract_y
_atom_site_fract_z
Si Si1 0.750000 0.250000 0.203434
Si Si2 0.099942 0.539862 0.854800
Si Si3 0.002496 0.677722 0.508492
Si Si4 0.602424 0.513447 0.919247
Si Si5 0.995044 0.317326 0.798328
O O1 0.912372 0.338404 0.170625
O O2 0.543997 0.317749 0.238592
O O3 0.394017 0.522817 0.875009
O O4 0.018867 0.445149 0.815417
O O5 0.895612 0.535225 0.899702
O O6 0.250000 0.750000 0.492158
O O7 0.081845 0.608989 0.557162
O O8 0.750000 0.750000 0.523311
O O9 0.940434 0.603730 0.461342
O O10 0.250000 0.250000 0.814822
O O11 0.750000 0.250000 0.823407
#
# Coordination Sequence:
#
# PCOD8229452 Si02
#       5
#     4   8   8   8   8
#     4  10  30  42  74  98 138 192 224 298 354 394
#     4  12  26  44  72 103 143 175 246 282 337 428
#     4  11  24  46  73  96 147 177 218 280 351 412
#     4  11  27  43  68 111 131 181 228 282 341 407
#     4  10  25  44  69  98 139 186 234 285 354 399
#
# _framework density 21.962251999999999
#
# number of rings (size 3 to 8) (size 9 to 14) (size 15 to 20)
#    0.667    0.444    0.000    4.000   10.889    8.889 
#    0.000    0.000    0.000    0.000    0.000    0.000 
#    0.000    0.000    0.000    0.000    0.000    0.000 
#
# Total GULP energy -446503.611596 kJ/mol
# GULP energy per Si atom -12402.878100 kJ/mol
# Density = 2.191226 g / cm^3
# Si number density = 21.962252 Si / 1000 Ang^3
#
#
#
# Elastic Constant Matrix: (Units=GPa)
#
#
# Indices 1 2 3 4 5 6 
#
# 1 124.1853 45.9746 16.5894 0.0000 0.0000 0.0000
# 2 45.9746 153.4635 55.4347 0.0000 0.0000 0.0000
# 3 16.5894 55.4347 90.5657 0.0000 0.0000 0.0000
# 4 0.0000 0.0000 0.0000 28.6588 0.0000 0.0000
# 5 0.0000 0.0000 0.0000 0.0000 24.3663 0.0000
# 6 0.0000 0.0000 0.0000 0.0000 0.0000 40.7667
#
#
#
# Elastic Compliance Matrix: (Units=1/GPa)
#
#
# Indices 1 2 3 4 5 6 
#
# 1 0.009057 -0.002714 0.000002 0.000000 0.000000 0.000000
# 2 -0.002714 0.009179 -0.005121 0.000000 0.000000 0.000000
# 3 0.000002 -0.005121 0.014176 0.000000 0.000000 0.000000
# 4 0.000000 0.000000 0.000000 0.034893 0.000000 0.000000
# 5 0.000000 0.000000 0.000000 0.000000 0.041040 0.000000
# 6 0.000000 0.000000 0.000000 0.000000 0.000000 0.024530
#
#
# Mechanical properties :
#
#
# Convention : Reuss Voigt Hill
#
# Bulk Modulus (GPa) = 59.71642 67.13467 63.42554
# Shear Modulus (GPa) = 32.44138 35.43941 33.94039
#
# Velocity S-wave (km/s) = 3.84753 4.02139 3.93542
# Velocity P-wave (km/s) = 6.85474 7.22472 7.04216
#
# Compressibility (1/GPa) = 0.01674581
#
# Stress axis : x y z
#
# Youngs Moduli (GPa) = 110.41222 108.94104 70.54138
#
# Poissons Ratio (x) = 0.29568 -0.00016
# Poissons Ratio (y) = 0.29967 0.36127
# Poissons Ratio (z) = -0.00025 0.55793
#
# Static dielectric constant tensor:
#      x y z
#    x 4.035390 0.000000 0.000000 
#    y 0.000000 4.066750 0.000000 
#    z 0.000000 0.000000 3.835830 
# 
# 
# High freq. dielectric constant tensor:
#      x y z
#    x 1.875020 0.000000 0.000000 
#    y 0.000000 1.872900 0.000000 
#    z 0.000000 0.000000 1.863790 
# 
# From -- ./inp_files/19908.got.cif
#   From: 2010.03.12/outbox.cif.g09.slc.cpg/sg56_10_cif.got.tgz:19908.got - 2010.04.16 15:33:40.
