data_PCOD8229507
_publ_section_title
;
Structure prediction by ZEFSAII (Michael W. Deem and Ramdas Pophale) SiO2 
 PCOD8229507
Probable space group: P C C N
;
_chemical_formula_sum "Si O2"
_cell_formula_units_Z 48
_cell_length_a 4.994157
_cell_length_b 22.726369
_cell_length_c 21.250529
_cell_angle_alpha 90.000000
_cell_angle_beta 90.000000
_cell_angle_gamma 90.000000
_cell_volume 2411.914956
_symmetry_space_group_name_H-M "P C C N"
_symmetry_group_IT_number 56
_symmetry_cell_setting 'orthorhombic'
loop_
_space_group_symop_operation_xyz
x,y,z
1/2-x,1/2-y,z
1/2+x,-y,1/2-z
-x,1/2+y,1/2-z
-x,-y,-z
1/2+x,1/2+y,-z
1/2-x,y,1/2+z
x,1/2-y,1/2+z
loop_
_atom_site_type_symbol
_atom_site_label
_atom_site_fract_x
_atom_site_fract_y
_atom_site_fract_z
Si Si1 0.823973 0.083764 0.605850
Si Si2 0.006839 0.211325 0.938421
Si Si3 0.311233 0.123945 0.541582
Si Si4 0.156685 0.455147 0.930462
Si Si5 0.141359 0.903138 0.131016
Si Si6 0.767633 0.039498 0.743375
O O1 0.533186 0.109129 0.593079
O O2 0.857531 0.070884 0.679350
O O3 0.038621 0.132023 0.581520
O O4 0.884320 0.024940 0.565117
O O5 0.750000 0.250000 0.955458
O O6 0.927608 0.164289 0.885050
O O7 0.250000 0.250000 0.910465
O O8 0.114753 0.182067 0.002733
O O9 0.284158 0.069295 0.494179
O O10 0.374363 0.442810 0.875719
O O11 0.875056 0.423604 0.916376
O O12 0.235579 0.910217 0.202829
O O13 0.471200 0.012774 0.738861
#
# Coordination Sequence:
#
# PCOD8229507 Si02
#       6
#     8   8   8   8   8   8
#     4  12  21  35  57  86 131 162 187 224 295 364
#     4  11  23  42  65  83 110 150 204 269 308 334
#     4  11  23  36  56  90 115 155 200 242 300 355
#     4  11  20  35  57  85 129 155 191 236 282 363
#     4  11  21  38  60  90 115 158 206 241 288 346
#     4  12  22  38  58  86 129 168 194 226 282 368
#
# _framework density 19.901199999999999
#
# number of rings (size 3 to 8) (size 9 to 14) (size 15 to 20)
#    0.000    0.667    3.333    8.000    0.000    0.000 
#    0.000    0.000    0.000    6.000    0.000    0.000 
#    0.000    0.000    0.000    0.000    0.000    0.000 
#
# Total GULP energy -595373.983446 kJ/mol
# GULP energy per Si atom -12403.624655 kJ/mol
# Density = 1.985590 g / cm^3
# Si number density = 19.901200 Si / 1000 Ang^3
#
#
#
# Elastic Constant Matrix: (Units=GPa)
#
#
# Indices 1 2 3 4 5 6 
#
# 1 126.3393 37.8247 18.7214 0.0000 0.0000 0.0000
# 2 37.8247 81.5643 24.0171 0.0000 0.0000 0.0000
# 3 18.7214 24.0171 81.6844 0.0000 0.0000 0.0000
# 4 0.0000 0.0000 0.0000 10.6393 0.0000 0.0000
# 5 0.0000 0.0000 0.0000 0.0000 29.1107 0.0000
# 6 0.0000 0.0000 0.0000 0.0000 0.0000 37.5177
#
#
#
# Elastic Compliance Matrix: (Units=1/GPa)
#
#
# Indices 1 2 3 4 5 6 
#
# 1 0.009257 -0.004016 -0.000941 0.000000 0.000000 0.000000
# 2 -0.004016 0.015164 -0.003538 0.000000 0.000000 0.000000
# 3 -0.000941 -0.003538 0.013498 0.000000 0.000000 0.000000
# 4 0.000000 0.000000 0.000000 0.093991 0.000000 0.000000
# 5 0.000000 0.000000 0.000000 0.000000 0.034352 0.000000
# 6 0.000000 0.000000 0.000000 0.000000 0.000000 0.026654
#
#
# Mechanical properties :
#
#
# Convention : Reuss Voigt Hill
#
# Bulk Modulus (GPa) = 47.77913 50.07939 48.92926
# Shear Modulus (GPa) = 23.05393 29.38852 26.22123
#
# Velocity S-wave (km/s) = 3.40725 3.84698 3.63377
# Velocity P-wave (km/s) = 6.28804 6.70455 6.49963
#
# Compressibility (1/GPa) = 0.02092964
#
# Stress axis : x y z
#
# Youngs Moduli (GPa) = 108.02759 65.94389 74.08383
#
# Poissons Ratio (x) = 0.26481 0.06970
# Poissons Ratio (y) = 0.43381 0.26213
# Poissons Ratio (z) = 0.10164 0.23333
#
# Static dielectric constant tensor:
#      x y z
#    x 3.958090 0.000000 0.000000 
#    y 0.000000 3.448180 0.000000 
#    z 0.000000 0.000000 3.497300 
# 
# 
# High freq. dielectric constant tensor:
#      x y z
#    x 1.806830 0.000000 0.000000 
#    y 0.000000 1.743130 0.000000 
#    z 0.000000 0.000000 1.766930 
# 
# From -- ./inp_files/17501.got.cif
#   From: 2010.03.12/outbox.cif.g09.slc.cpg/sg56_9_cif.got.tgz:17501.got - 2010.04.16 15:33:40.
