data_PCOD8229519
_publ_section_title
;
Structure prediction by ZEFSAII (Michael W. Deem and Ramdas Pophale) SiO2 
 PCOD8229519
Probable space group: P C C N
;
_chemical_formula_sum "Si O2"
_cell_formula_units_Z 32
_cell_length_a 10.144117
_cell_length_b 10.452044
_cell_length_c 14.179275
_cell_angle_alpha 90.000000
_cell_angle_beta 90.000000
_cell_angle_gamma 90.000000
_cell_volume 1503.382548
_symmetry_space_group_name_H-M "P C C N"
_symmetry_group_IT_number 56
_symmetry_cell_setting 'orthorhombic'
loop_
_space_group_symop_operation_xyz
x,y,z
1/2-x,1/2-y,z
1/2+x,-y,1/2-z
-x,1/2+y,1/2-z
-x,-y,-z
1/2+x,1/2+y,-z
1/2-x,y,1/2+z
x,1/2-y,1/2+z
loop_
_atom_site_type_symbol
_atom_site_label
_atom_site_fract_x
_atom_site_fract_y
_atom_site_fract_z
Si Si1 0.714349 0.385770 0.815498
Si Si2 0.803218 0.939403 0.644894
Si Si3 0.641716 0.346098 0.507480
Si Si4 0.050932 0.199230 0.894419
O O1 0.750000 0.250000 0.767031
O O2 0.741874 0.500638 0.743952
O O3 0.805580 0.402399 0.907824
O O4 0.559680 0.382956 0.841344
O O5 0.673203 0.896019 0.585664
O O6 0.895617 0.818262 0.668550
O O7 0.884912 0.040147 0.581013
O O8 0.750000 0.250000 0.551046
O O9 0.507775 0.263856 0.490132
#
# Coordination Sequence:
#
# PCOD8229519 Si02
#       4
#     8   8   8   8
#     4   9  21  37  57  84 121 152 198 241 295 357
#     4  11  20  38  62  82 121 160 189 251 306 328
#     4   9  20  39  57  85 119 152 198 245 290 359
#     4   9  22  37  54  91 116 148 212 238 278 383
#
# _framework density 21.285333000000001
#
# number of rings (size 3 to 8) (size 9 to 14) (size 15 to 20)
#    0.000    3.000    0.000    1.500    7.000    4.000 
#    4.500    2.500    0.000    0.000    0.000    0.000 
#    0.000    0.000    0.000    0.000    0.000    0.000 
#
# Total GULP energy -396575.226287 kJ/mol
# GULP energy per Si atom -12392.975821 kJ/mol
# Density = 2.123689 g / cm^3
# Si number density = 21.285333 Si / 1000 Ang^3
#
#
#
# Elastic Constant Matrix: (Units=GPa)
#
#
# Indices 1 2 3 4 5 6 
#
# 1 78.7565 2.8494 0.6383 0.0000 0.0000 0.0000
# 2 2.8494 64.2070 20.3355 0.0000 0.0000 0.0000
# 3 0.6383 20.3355 60.9431 0.0000 0.0000 0.0000
# 4 0.0000 0.0000 0.0000 27.2569 0.0000 0.0000
# 5 0.0000 0.0000 0.0000 0.0000 11.5918 0.0000
# 6 0.0000 0.0000 0.0000 0.0000 0.0000 34.1185
#
#
#
# Elastic Compliance Matrix: (Units=1/GPa)
#
#
# Indices 1 2 3 4 5 6 
#
# 1 0.012718 -0.000584 0.000062 0.000000 0.000000 0.000000
# 2 -0.000584 0.017442 -0.005814 0.000000 0.000000 0.000000
# 3 0.000062 -0.005814 0.018348 0.000000 0.000000 0.000000
# 4 0.000000 0.000000 0.000000 0.036688 0.000000 0.000000
# 5 0.000000 0.000000 0.000000 0.000000 0.086268 0.000000
# 6 0.000000 0.000000 0.000000 0.000000 0.000000 0.029310
#
#
# Mechanical properties :
#
#
# Convention : Reuss Voigt Hill
#
# Bulk Modulus (GPa) = 27.90520 27.95033 27.92777
# Shear Modulus (GPa) = 22.18370 26.59900 24.39135
#
# Velocity S-wave (km/s) = 3.23182 3.53886 3.38882
# Velocity P-wave (km/s) = 5.20238 5.46423 5.33491
#
# Compressibility (1/GPa) = 0.03583561
#
# Stress axis : x y z
#
# Youngs Moduli (GPa) = 78.62874 57.33321 54.50163
#
# Poissons Ratio (x) = 0.03348 -0.00336
# Poissons Ratio (y) = 0.04591 0.31687
# Poissons Ratio (z) = -0.00485 0.33333
#
# Static dielectric constant tensor:
#      x y z
#    x 3.966880 0.000000 0.000000 
#    y 0.000000 3.898010 0.000000 
#    z 0.000000 0.000000 3.296540 
# 
# 
# High freq. dielectric constant tensor:
#      x y z
#    x 1.843010 0.000000 0.000000 
#    y 0.000000 1.837560 0.000000 
#    z 0.000000 0.000000 1.788560 
# 
# From -- ./inp_files/15349.got.cif
#   From: 2010.03.12/outbox.cif.g09.slc.cpg/sg56_8_cif.got.tgz:15349.got - 2010.04.16 15:33:40.
