data_PCOD8229308
_publ_section_title
;
Structure prediction by ZEFSAII (Michael W. Deem and Ramdas Pophale) SiO2 
 PCOD8229308
Probable space group: P C C N
;
_chemical_formula_sum "Si O2"
_cell_formula_units_Z 48
_cell_length_a 7.119974
_cell_length_b 22.178380
_cell_length_c 12.951554
_cell_angle_alpha 90.000000
_cell_angle_beta 90.000000
_cell_angle_gamma 90.000000
_cell_volume 2045.173273
_symmetry_space_group_name_H-M "P C C N"
_symmetry_group_IT_number 56
_symmetry_cell_setting 'orthorhombic'
loop_
_space_group_symop_operation_xyz
x,y,z
1/2-x,1/2-y,z
1/2+x,-y,1/2-z
-x,1/2+y,1/2-z
-x,-y,-z
1/2+x,1/2+y,-z
1/2-x,y,1/2+z
x,1/2-y,1/2+z
loop_
_atom_site_type_symbol
_atom_site_label
_atom_site_fract_x
_atom_site_fract_y
_atom_site_fract_z
Si Si1 0.103322 0.803203 0.710687
Si Si2 0.887481 0.387724 0.382838
Si Si3 0.412406 0.021974 0.895102
Si Si4 0.012119 0.513835 0.328618
Si Si5 0.278566 0.153226 0.909732
Si Si6 0.031346 0.141762 0.089407
O O1 0.250000 0.750000 0.691537
O O2 0.214202 0.864247 0.683813
O O3 0.036374 0.808127 0.829074
O O4 0.915892 0.794941 0.638378
O O5 0.867231 0.369544 0.504163
O O6 0.883561 0.460037 0.373907
O O7 0.087284 0.358840 0.342619
O O8 0.212313 0.990174 0.882786
O O9 0.401720 0.093496 0.904222
O O10 0.536335 0.005509 0.794549
O O11 0.500000 0.000000 0.000000
O O12 0.917149 0.578333 0.355250
O O13 0.217855 0.166478 0.028939
#
# Coordination Sequence:
#
# PCOD8229308 Si02
#       6
#     8   8   8   8   8   8
#     4  12  25  48  79 103 142 203 257 308 371 442
#     4   9  24  44  68 107 151 192 242 313 362 451
#     4  11  25  36  67 103 151 201 236 300 371 447
#     4  11  22  41  69 105 153 194 244 296 377 459
#     4   9  24  44  67 102 148 184 247 310 369 432
#     4  10  23  45  70 108 149 189 248 305 378 440
#
# _framework density 23.469892999999999
#
# number of rings (size 3 to 8) (size 9 to 14) (size 15 to 20)
#    1.000    0.667    1.667    1.500    4.667    1.333 
#    3.000    0.000    3.667    0.000    0.000    1.167 
#    0.000    0.000    0.000    0.000    0.000    0.000 
#
# Total GULP energy -594808.390208 kJ/mol
# GULP energy per Si atom -12391.841463 kJ/mol
# Density = 2.341647 g / cm^3
# Si number density = 23.469893 Si / 1000 Ang^3
#
#
#
# Elastic Constant Matrix: (Units=GPa)
#
#
# Indices 1 2 3 4 5 6 
#
# 1 96.5692 33.5001 54.6725 0.0000 0.0000 0.0000
# 2 33.5001 35.3748 19.4876 0.0000 0.0000 0.0000
# 3 54.6725 19.4876 179.0661 0.0000 0.0000 0.0000
# 4 0.0000 0.0000 0.0000 19.4501 0.0000 0.0000
# 5 0.0000 0.0000 0.0000 0.0000 52.2034 0.0000
# 6 0.0000 0.0000 0.0000 0.0000 0.0000 38.3085
#
#
#
# Elastic Compliance Matrix: (Units=1/GPa)
#
#
# Indices 1 2 3 4 5 6 
#
# 1 0.017528 -0.014522 -0.003771 0.000000 0.000000 0.000000
# 2 -0.014522 0.042102 -0.000148 0.000000 0.000000 0.000000
# 3 -0.003771 -0.000148 0.006752 0.000000 0.000000 0.000000
# 4 0.000000 0.000000 0.000000 0.051414 0.000000 0.000000
# 5 0.000000 0.000000 0.000000 0.000000 0.019156 0.000000
# 6 0.000000 0.000000 0.000000 0.000000 0.000000 0.026104
#
#
# Mechanical properties :
#
#
# Convention : Reuss Voigt Hill
#
# Bulk Modulus (GPa) = 33.89789 58.48117 46.18953
# Shear Modulus (GPa) = 23.83549 35.54905 29.69227
#
# Velocity S-wave (km/s) = 3.19027 3.89609 3.56071
# Velocity P-wave (km/s) = 5.29575 6.72391 6.05210
#
# Compressibility (1/GPa) = 0.02950036
#
# Stress axis : x y z
#
# Youngs Moduli (GPa) = 57.05184 23.75163 148.10189
#
# Poissons Ratio (x) = 0.34491 0.55853
# Poissons Ratio (y) = 0.82848 0.02196
# Poissons Ratio (z) = 0.21516 0.00352
#
# Static dielectric constant tensor:
#      x y z
#    x 4.236720 0.000000 0.000000 
#    y 0.000000 4.003580 0.000000 
#    z 0.000000 0.000000 4.203090 
# 
# 
# High freq. dielectric constant tensor:
#      x y z
#    x 1.929000 0.000000 0.000000 
#    y 0.000000 1.904260 0.000000 
#    z 0.000000 0.000000 1.925430 
# 
# From -- ./inp_files/6408.got.cif
#   From: 2010.03.12/outbox.cif.g09.slc.cpg/sg56_4_cif.got.tgz:6408.got - 2010.04.16 15:33:40.
