data_PCOD8229970
_publ_section_title
;
Structure prediction by ZEFSAII (Michael W. Deem and Ramdas Pophale) SiO2 
 PCOD8229970
Probable space group: P B C M
;
_chemical_formula_sum "Si O2"
_cell_formula_units_Z 48
_cell_length_a 31.273850
_cell_length_b 9.130528
_cell_length_c 8.705043
_cell_angle_alpha 90.000000
_cell_angle_beta 90.000000
_cell_angle_gamma 90.000000
_cell_volume 2485.696851
_symmetry_space_group_name_H-M "P B C M"
_symmetry_group_IT_number 57
_symmetry_cell_setting 'orthorhombic'
loop_
_space_group_symop_operation_xyz
x,y,z
-x,-y,1/2+z
x,1/2-y,-z
-x,1/2+y,1/2-z
-x,-y,-z
x,y,1/2-z
-x,1/2+y,z
x,1/2-y,1/2+z
loop_
_atom_site_type_symbol
_atom_site_label
_atom_site_fract_x
_atom_site_fract_y
_atom_site_fract_z
Si Si1 0.461849 0.409144 0.071713
Si Si2 0.130667 0.090692 0.071444
Si Si3 0.377152 0.907960 0.570157
Si Si4 0.037289 0.407872 0.572362
Si Si5 0.213980 0.412346 0.067989
Si Si6 0.300908 0.088677 0.432104
O O1 0.471257 0.391253 0.250000
O O2 0.418012 0.492303 0.038600
O O3 0.458685 0.250000 0.000000
O O4 0.500000 0.500000 0.000000
O O5 0.142138 0.103688 0.250000
O O6 0.084097 0.015093 0.046250
O O7 0.126337 0.250000 0.000000
O O8 0.170107 0.005443 0.986678
O O9 0.386781 0.750000 0.500000
O O10 0.366656 0.895181 0.750000
O O11 0.337777 0.979170 0.481735
O O12 0.036612 0.250000 0.500000
O O13 0.027602 0.389942 0.750000
O O14 0.000000 0.500000 0.500000
O O15 0.217713 0.412394 0.250000
O O16 0.210945 0.250000 0.000000
O O17 0.256761 0.482657 0.995972
O O18 0.309206 0.250000 0.500000
O O19 0.298939 0.101941 0.250000
#
# Coordination Sequence:
#
# PCOD8229970 Si02
#       6
#     8   8   8   8   8   8
#     4  11  24  41  64  91 122 155 192 235 281 331
#     4   9  16  27  44  69  99 132 170 215 265 318
#     4  11  24  41  60  85 115 151 191 232 276 327
#     4  10  20  33  51  74 103 137 176 220 268 322
#     4  10  17  27  46  73 104 136 172 218 268 321
#     4  11  21  35  56  82 112 145 181 226 274 325
#
# _framework density 19.310479999999998
#
# number of rings (size 3 to 8) (size 9 to 14) (size 15 to 20)
#    0.000    1.667    0.000    8.000    0.000    7.333 
#    0.000    0.000    0.000    1.000    0.000    2.333 
#    0.000    0.000    0.000    0.000    0.000    0.000 
#
# Total GULP energy -594979.532752 kJ/mol
# GULP energy per Si atom -12395.406932 kJ/mol
# Density = 1.926653 g / cm^3
# Si number density = 19.310480 Si / 1000 Ang^3
#
#
#
# Elastic Constant Matrix: (Units=GPa)
#
#
# Indices 1 2 3 4 5 6 
#
# 1 165.5940 52.5093 100.3284 0.0000 0.0000 0.0000
# 2 52.5093 83.6977 55.0576 0.0000 0.0000 0.0000
# 3 100.3284 55.0576 179.9737 0.0000 0.0000 0.0000
# 4 0.0000 0.0000 0.0000 28.1267 0.0000 0.0000
# 5 0.0000 0.0000 0.0000 0.0000 37.6066 0.0000
# 6 0.0000 0.0000 0.0000 0.0000 0.0000 16.7935
#
#
#
# Elastic Compliance Matrix: (Units=1/GPa)
#
#
# Indices 1 2 3 4 5 6 
#
# 1 0.009752 -0.003182 -0.004463 0.000000 0.000000 0.000000
# 2 -0.003182 0.015996 -0.003120 0.000000 0.000000 0.000000
# 3 -0.004463 -0.003120 0.008998 0.000000 0.000000 0.000000
# 4 0.000000 0.000000 0.000000 0.035553 0.000000 0.000000
# 5 0.000000 0.000000 0.000000 0.000000 0.026591 0.000000
# 6 0.000000 0.000000 0.000000 0.000000 0.000000 0.059547
#
#
# Mechanical properties :
#
#
# Convention : Reuss Voigt Hill
#
# Bulk Modulus (GPa) = 75.65779 93.89510 84.77644
# Shear Modulus (GPa) = 27.41635 31.26337 29.33986
#
# Velocity S-wave (km/s) = 3.77206 4.02803 3.90214
# Velocity P-wave (km/s) = 7.63125 8.38825 8.01869
#
# Compressibility (1/GPa) = 0.01321741
#
# Stress axis : x y z
#
# Youngs Moduli (GPa) = 102.54528 62.51419 111.12966
#
# Poissons Ratio (x) = 0.19894 0.49594
# Poissons Ratio (y) = 0.32633 0.34668
# Poissons Ratio (z) = 0.45763 0.19502
#
# Static dielectric constant tensor:
#      x y z
#    x 4.774360 0.000000 0.000000 
#    y 0.000000 3.096100 0.000000 
#    z 0.000000 0.000000 3.760510 
# 
# 
# High freq. dielectric constant tensor:
#      x y z
#    x 1.786000 0.000000 0.000000 
#    y 0.000000 1.700230 0.000000 
#    z 0.000000 0.000000 1.775110 
# 
# From -- ./inp_files/10046.got.cif
#   From: 2010.03.12/outbox.cif.g09.slc.cpg/sg57_6_cif.got.tgz:10046.got - 2010.04.16 15:48:40.
