data_PCOD8229584
_publ_section_title
;
Structure prediction by ZEFSAII (Michael W. Deem and Ramdas Pophale) SiO2 
 PCOD8229584
Probable space group: P C C N
;
_chemical_formula_sum "Si O2"
_cell_formula_units_Z 48
_cell_length_a 6.061460
_cell_length_b 14.333755
_cell_length_c 25.376011
_cell_angle_alpha 90.000000
_cell_angle_beta 90.000000
_cell_angle_gamma 90.000000
_cell_volume 2204.756210
_symmetry_space_group_name_H-M "P C C N"
_symmetry_group_IT_number 56
_symmetry_cell_setting 'orthorhombic'
loop_
_space_group_symop_operation_xyz
x,y,z
1/2-x,1/2-y,z
1/2+x,-y,1/2-z
-x,1/2+y,1/2-z
-x,-y,-z
1/2+x,1/2+y,-z
1/2-x,y,1/2+z
x,1/2-y,1/2+z
loop_
_atom_site_type_symbol
_atom_site_label
_atom_site_fract_x
_atom_site_fract_y
_atom_site_fract_z
Si Si1 0.250000 0.250000 0.154463
Si Si2 0.445752 0.679898 0.936372
Si Si3 0.855476 0.479972 0.630327
Si Si4 0.750000 0.750000 0.521599
Si Si5 0.754103 0.424788 0.314876
Si Si6 0.528777 0.404872 0.710039
Si Si7 0.596652 0.830527 0.121491
O O1 0.441872 0.291315 0.118471
O O2 0.351124 0.170293 0.191349
O O3 0.250000 0.750000 0.950885
O O4 0.362459 0.574619 0.925740
O O5 0.618276 0.677840 0.984588
O O6 0.742493 0.409675 0.672363
O O7 0.709383 0.570013 0.622973
O O8 0.099968 0.511153 0.646678
O O9 0.927140 0.803502 0.559376
O O10 0.577045 0.492040 0.286892
O O11 0.898716 0.376492 0.269168
O O12 0.637876 0.342025 0.348974
O O13 0.750000 0.750000 0.149030
#
# Coordination Sequence:
#
# PCOD8229584 Si02
#       7
#     4   8   8   4   8   8   8
#     4  11  22  40  65 100 146 167 228 287 344 406
#     4  11  22  40  71 103 130 174 223 292 352 414
#     4  11  22  40  69  97 133 178 222 278 347 411
#     4   9  24  46  67  96 140 167 232 295 342 414
#     4  11  22  41  72  93 143 182 230 276 342 411
#     4  11  22  40  67 101 137 181 223 279 336 418
#     4   9  24  48  63  95 136 176 229 285 336 413
#
# _framework density 21.771115999999999
#
# number of rings (size 3 to 8) (size 9 to 14) (size 15 to 20)
#    0.500    1.000    5.000    0.000    0.000    2.667 
#    1.500    5.000    1.833    0.000    0.000    0.000 
#    0.000    0.000    0.000    0.000    0.000    0.000 
#
# Total GULP energy -595054.162961 kJ/mol
# GULP energy per Si atom -12396.961728 kJ/mol
# Density = 2.172156 g / cm^3
# Si number density = 21.771116 Si / 1000 Ang^3
#
#
#
# Elastic Constant Matrix: (Units=GPa)
#
#
# Indices 1 2 3 4 5 6 
#
# 1 81.2128 19.4987 38.9044 0.0000 0.0000 0.0000
# 2 19.4987 86.0670 41.6022 0.0000 0.0000 0.0000
# 3 38.9044 41.6022 128.6758 0.0000 0.0000 0.0000
# 4 0.0000 0.0000 0.0000 27.0263 0.0000 0.0000
# 5 0.0000 0.0000 0.0000 0.0000 -26.5065 0.0000
# 6 0.0000 0.0000 0.0000 0.0000 0.0000 39.3546
#
#
#
# Elastic Compliance Matrix: (Units=1/GPa)
#
#
# Indices 1 2 3 4 5 6 
#
# 1 0.014537 -0.001385 -0.003947 0.000000 0.000000 0.000000
# 2 -0.001385 0.013903 -0.004076 0.000000 0.000000 0.000000
# 3 -0.003947 -0.004076 0.010283 0.000000 0.000000 0.000000
# 4 0.000000 0.000000 0.000000 0.037001 0.000000 0.000000
# 5 0.000000 0.000000 0.000000 0.000000 -0.037727 0.000000
# 6 0.000000 0.000000 0.000000 0.000000 0.000000 0.025410
#
#
# Mechanical properties :
#
#
# Convention : Reuss Voigt Hill
#
# Bulk Modulus (GPa) = 50.23834 55.10735 52.67284
# Shear Modulus (GPa) = 56.26858 21.03822 38.65340
#
# Velocity S-wave (km/s) = 5.08936 3.11197 4.21817
# Velocity P-wave (km/s) = 7.59350 6.18705 6.92607
#
# Compressibility (1/GPa) = 0.01990512
#
# Stress axis : x y z
#
# Youngs Moduli (GPa) = 68.79078 71.92697 97.25041
#
# Poissons Ratio (x) = 0.09965 0.38387
# Poissons Ratio (y) = 0.09530 0.39640
# Poissons Ratio (z) = 0.27153 0.29318
#
# Static dielectric constant tensor:
#      x y z
#    x 4.230840 0.000000 0.000000 
#    y 0.000000 3.848620 0.000000 
#    z 0.000000 0.000000 3.870590 
# 
# 
# High freq. dielectric constant tensor:
#      x y z
#    x 1.859780 0.000000 0.000000 
#    y 0.000000 1.850090 0.000000 
#    z 0.000000 0.000000 1.844160 
# 
# From -- ./inp_files/21704.got.cif
#   From: 2010.03.12/outbox.cif.g09.slc.cpg/sg56_11_cif.got.tgz:21704.got - 2010.04.16 15:33:40.
