data_PCOD8229842
_publ_section_title
;
Structure prediction by ZEFSAII (Michael W. Deem and Ramdas Pophale) SiO2 
 PCOD8229842
Probable space group: P C C N
;
_chemical_formula_sum "Si O2"
_cell_formula_units_Z 32
_cell_length_a 15.098537
_cell_length_b 4.929127
_cell_length_c 18.114997
_cell_angle_alpha 90.000000
_cell_angle_beta 90.000000
_cell_angle_gamma 90.000000
_cell_volume 1348.165291
_symmetry_space_group_name_H-M "P C C N"
_symmetry_group_IT_number 56
_symmetry_cell_setting 'orthorhombic'
loop_
_space_group_symop_operation_xyz
x,y,z
1/2-x,1/2-y,z
1/2+x,-y,1/2-z
-x,1/2+y,1/2-z
-x,-y,-z
1/2+x,1/2+y,-z
1/2-x,y,1/2+z
x,1/2-y,1/2+z
loop_
_atom_site_type_symbol
_atom_site_label
_atom_site_fract_x
_atom_site_fract_y
_atom_site_fract_z
Si Si1 0.590623 0.883674 0.467890
Si Si2 0.559642 0.429750 0.240534
Si Si3 0.690269 0.990609 0.613127
Si Si4 0.349379 0.650389 0.614397
O O1 0.606647 0.570260 0.442969
O O2 0.500000 0.000000 0.500000
O O3 0.665873 0.943900 0.528127
O O4 0.599033 0.067444 0.395049
O O5 0.480637 0.630306 0.261629
O O6 0.600967 0.490860 0.160983
O O7 0.637517 0.450484 0.302099
O O8 0.750000 0.250000 0.621869
O O9 0.750000 0.750000 0.644448
O O10 0.250000 0.750000 0.597493
#
# Coordination Sequence:
#
# PCOD8229842 Si02
#       4
#     8   8   8   8
#     4  12  25  44  69  99 135 177 225 280 341 410
#     4  12  26  46  69  99 136 180 228 281 342 411
#     4  12  25  44  68  99 135 176 223 280 341 405
#     4  12  25  44  69  99 134 177 226 281 340 408
#
# _framework density 23.735959999999999
#
# number of rings (size 3 to 8) (size 9 to 14) (size 15 to 20)
#    0.000    0.000    0.000   12.000    0.000    2.000 
#    0.000    0.000    0.000    0.000    0.000    0.000 
#    0.000    0.000    0.000    0.000    0.000    0.000 
#
# Total GULP energy -396542.917003 kJ/mol
# GULP energy per Si atom -12391.966156 kJ/mol
# Density = 2.368194 g / cm^3
# Si number density = 23.735960 Si / 1000 Ang^3
#
#
#
# Elastic Constant Matrix: (Units=GPa)
#
#
# Indices 1 2 3 4 5 6 
#
# 1 101.3777 37.6732 12.6810 0.0000 0.0000 0.0000
# 2 37.6732 120.0347 22.4475 0.0000 0.0000 0.0000
# 3 12.6810 22.4475 93.9477 0.0000 0.0000 0.0000
# 4 0.0000 0.0000 0.0000 36.6380 0.0000 0.0000
# 5 0.0000 0.0000 0.0000 0.0000 40.8543 0.0000
# 6 0.0000 0.0000 0.0000 0.0000 0.0000 57.3164
#
#
#
# Elastic Compliance Matrix: (Units=1/GPa)
#
#
# Indices 1 2 3 4 5 6 
#
# 1 0.011211 -0.003387 -0.000704 0.000000 0.000000 0.000000
# 2 -0.003387 0.009744 -0.001871 0.000000 0.000000 0.000000
# 3 -0.000704 -0.001871 0.011186 0.000000 0.000000 0.000000
# 4 0.000000 0.000000 0.000000 0.027294 0.000000 0.000000
# 5 0.000000 0.000000 0.000000 0.000000 0.024477 0.000000
# 6 0.000000 0.000000 0.000000 0.000000 0.000000 0.017447
#
#
# Mechanical properties :
#
#
# Convention : Reuss Voigt Hill
#
# Bulk Modulus (GPa) = 49.46291 51.21817 50.34054
# Shear Modulus (GPa) = 41.65907 43.13231 42.39569
#
# Velocity S-wave (km/s) = 4.19394 4.26745 4.23086
# Velocity P-wave (km/s) = 6.65855 6.77545 6.71725
#
# Compressibility (1/GPa) = 0.02021717
#
# Stress axis : x y z
#
# Youngs Moduli (GPa) = 89.19998 102.62944 89.39511
#
# Poissons Ratio (x) = 0.34759 0.06293
# Poissons Ratio (y) = 0.30211 0.16726
# Poissons Ratio (z) = 0.06280 0.19202
#
# Static dielectric constant tensor:
#      x y z
#    x 4.792680 0.000000 0.000000 
#    y 0.000000 4.906820 0.000000 
#    z 0.000000 0.000000 4.460540 
# 
# 
# High freq. dielectric constant tensor:
#      x y z
#    x 1.949980 0.000000 0.000000 
#    y 0.000000 1.955960 0.000000 
#    z 0.000000 0.000000 1.948960 
# 
# From -- ./inp_files/15947.got.cif
#   From: 2010.03.12/outbox.cif.g09.slc.cpg/sg56_8_cif.got.tgz:15947.got - 2010.04.16 15:33:40.
