data_PCOD8229194
_publ_section_title
;
Structure prediction by ZEFSAII (Michael W. Deem and Ramdas Pophale) SiO2 
 PCOD8229194
Probable space group: P C C N
;
_chemical_formula_sum "Si O2"
_cell_formula_units_Z 56
_cell_length_a 21.097865
_cell_length_b 7.671305
_cell_length_c 15.776562
_cell_angle_alpha 90.000000
_cell_angle_beta 90.000000
_cell_angle_gamma 90.000000
_cell_volume 2553.407488
_symmetry_space_group_name_H-M "P C C N"
_symmetry_group_IT_number 56
_symmetry_cell_setting 'orthorhombic'
loop_
_space_group_symop_operation_xyz
x,y,z
1/2-x,1/2-y,z
1/2+x,-y,1/2-z
-x,1/2+y,1/2-z
-x,-y,-z
1/2+x,1/2+y,-z
1/2-x,y,1/2+z
x,1/2-y,1/2+z
loop_
_atom_site_type_symbol
_atom_site_label
_atom_site_fract_x
_atom_site_fract_y
_atom_site_fract_z
Si Si1 0.957623 0.960933 0.580169
Si Si2 0.119891 0.364577 0.480406
Si Si3 0.883569 0.304770 0.631585
Si Si4 0.075868 0.408040 0.671074
Si Si5 0.792157 0.598485 0.242007
Si Si6 0.250000 0.250000 0.422712
Si Si7 0.528155 0.222858 0.775007
Si Si8 0.250000 0.750000 0.300007
O O1 0.913066 0.795311 0.565975
O O2 0.004221 0.921463 0.658660
O O3 0.913616 0.125518 0.599317
O O4 0.000000 0.000000 0.500000
O O5 0.098906 0.540196 0.432510
O O6 0.096797 0.375063 0.576120
O O7 0.196432 0.341748 0.480459
O O8 0.909013 0.346361 0.726656
O O9 0.808260 0.290037 0.637669
O O10 0.134952 0.391287 0.734004
O O11 0.041970 0.595628 0.678397
O O12 0.025825 0.260865 0.700930
O O13 0.750000 0.750000 0.287097
O O14 0.785938 0.612862 0.139392
O O15 0.764307 0.409066 0.264673
#
# Coordination Sequence:
#
# PCOD8229194 Si02
#       8
#     8   8   8   8   8   4   8   4
#     4  12  27  49  72 106 148 194 244 306 377 434
#     4  12  27  46  72 112 147 189 242 312 368 433
#     4  12  25  46  78 107 149 193 247 305 370 453
#     4  12  26  46  72 109 146 193 252 307 369 443
#     4  10  23  45  71 103 140 192 246 292 368 444
#     4  10  22  46  74 100 144 194 234 298 374 430
#     4  12  24  45  75 103 144 195 251 300 367 448
#     4  12  20  44  76 102 134 190 244 292 364 440
#
# _framework density 21.931479
#
# number of rings (size 3 to 8) (size 9 to 14) (size 15 to 20)
#    0.429    0.000    4.286    4.286    1.000    2.857 
#    0.000    0.714    0.000    0.000    0.000    0.000 
#    0.000    0.000    0.000    0.000    0.000    0.000 
#
# Total GULP energy -694329.999233 kJ/mol
# GULP energy per Si atom -12398.749986 kJ/mol
# Density = 2.188156 g / cm^3
# Si number density = 21.931479 Si / 1000 Ang^3
#
#
#
# Elastic Constant Matrix: (Units=GPa)
#
#
# Indices 1 2 3 4 5 6 
#
# 1 134.9983 50.5815 52.0716 0.0000 0.0000 0.0000
# 2 50.5815 132.7609 36.3269 0.0000 0.0000 0.0000
# 3 52.0716 36.3269 128.6479 0.0000 0.0000 0.0000
# 4 0.0000 0.0000 0.0000 23.6778 0.0000 0.0000
# 5 0.0000 0.0000 0.0000 0.0000 35.7223 0.0000
# 6 0.0000 0.0000 0.0000 0.0000 0.0000 41.7041
#
#
#
# Elastic Compliance Matrix: (Units=1/GPa)
#
#
# Indices 1 2 3 4 5 6 
#
# 1 0.009670 -0.002832 -0.003114 0.000000 0.000000 0.000000
# 2 -0.002832 0.008992 -0.001393 0.000000 0.000000 0.000000
# 3 -0.003114 -0.001393 0.009427 0.000000 0.000000 0.000000
# 4 0.000000 0.000000 0.000000 0.042234 0.000000 0.000000
# 5 0.000000 0.000000 0.000000 0.000000 0.027994 0.000000
# 6 0.000000 0.000000 0.000000 0.000000 0.000000 0.023978
#
#
# Mechanical properties :
#
#
# Convention : Reuss Voigt Hill
#
# Bulk Modulus (GPa) = 74.56659 74.92966 74.74813
# Shear Modulus (GPa) = 35.34969 37.38266 36.36617
#
# Velocity S-wave (km/s) = 4.01911 4.13306 4.07648
# Velocity P-wave (km/s) = 7.45730 7.55088 7.50423
#
# Compressibility (1/GPa) = 0.01341083
#
# Stress axis : x y z
#
# Youngs Moduli (GPa) = 103.41413 111.20404 106.07802
#
# Poissons Ratio (x) = 0.31493 0.33036
# Poissons Ratio (y) = 0.29287 0.14776
# Poissons Ratio (z) = 0.32206 0.15490
#
# Static dielectric constant tensor:
#      x y z
#    x 4.169890 0.000000 0.000000 
#    y 0.000000 4.309710 0.000000 
#    z 0.000000 0.000000 3.848780 
# 
# 
# High freq. dielectric constant tensor:
#      x y z
#    x 1.880600 0.000000 0.000000 
#    y 0.000000 1.877430 0.000000 
#    z 0.000000 0.000000 1.842360 
# 
# From -- ./inp_files/13107.got.cif
#   From: 2010.03.12/outbox.cif.g09.slc.cpg/sg56_7_cif.got.tgz:13107.got - 2010.04.16 15:33:40.
