data_PCOD8229385
_publ_section_title
;
Structure prediction by ZEFSAII (Michael W. Deem and Ramdas Pophale) SiO2 
 PCOD8229385
Probable space group: P C C N
;
_chemical_formula_sum "Si O2"
_cell_formula_units_Z 48
_cell_length_a 8.844782
_cell_length_b 20.894233
_cell_length_c 11.919044
_cell_angle_alpha 90.000000
_cell_angle_beta 90.000000
_cell_angle_gamma 90.000000
_cell_volume 2202.698163
_symmetry_space_group_name_H-M "P C C N"
_symmetry_group_IT_number 56
_symmetry_cell_setting 'orthorhombic'
loop_
_space_group_symop_operation_xyz
x,y,z
1/2-x,1/2-y,z
1/2+x,-y,1/2-z
-x,1/2+y,1/2-z
-x,-y,-z
1/2+x,1/2+y,-z
1/2-x,y,1/2+z
x,1/2-y,1/2+z
loop_
_atom_site_type_symbol
_atom_site_label
_atom_site_fract_x
_atom_site_fract_y
_atom_site_fract_z
Si Si1 0.880502 0.939306 0.120864
Si Si2 0.015114 0.666772 0.767313
Si Si3 0.080155 0.125593 0.327270
Si Si4 0.653739 0.135817 0.003307
Si Si5 0.250000 0.750000 0.634148
Si Si6 0.539845 0.080338 0.599123
Si Si7 0.750000 0.750000 0.713244
O O1 0.710213 0.927119 0.160597
O O2 0.994187 0.892053 0.183634
O O3 0.918950 0.012037 0.152774
O O4 0.900350 0.927413 0.987268
O O5 0.060603 0.636557 0.883606
O O6 0.143909 0.711037 0.716955
O O7 0.863196 0.707845 0.788257
O O8 0.149911 0.197004 0.356565
O O9 0.948740 0.099720 0.410602
O O10 0.011697 0.126890 0.200342
O O11 0.818274 0.106687 0.027041
O O12 0.658039 0.205999 0.950117
#
# Coordination Sequence:
#
# PCOD8229385 Si02
#       7
#     8   8   8   8   4   8   4
#     4  10  26  47  69  98 139 184 236 286 348 411
#     4  11  24  44  66  98 135 177 223 288 343 414
#     4  11  26  46  71 103 139 185 233 289 351 417
#     4  12  26  41  71 101 138 178 232 285 352 414
#     4  12  22  44  66 100 134 178 228 284 354 414
#     4  11  26  47  70 100 141 184 236 288 342 423
#     4  10  24  44  64  96 134 174 226 276 342 412
#
# _framework density 21.791454999999999
#
# number of rings (size 3 to 8) (size 9 to 14) (size 15 to 20)
#    0.000    1.000    3.333    1.500    9.333    2.667 
#    0.000    0.000    0.000    0.000    0.000    0.000 
#    0.000    0.000    0.000    0.000    0.000    0.000 
#
# Total GULP energy -594969.611180 kJ/mol
# GULP energy per Si atom -12395.200233 kJ/mol
# Density = 2.174186 g / cm^3
# Si number density = 21.791455 Si / 1000 Ang^3
#
#
#
# Elastic Constant Matrix: (Units=GPa)
#
#
# Indices 1 2 3 4 5 6 
#
# 1 110.1228 21.7685 45.7089 0.0000 0.0000 0.0000
# 2 21.7685 82.3347 31.2378 0.0000 0.0000 0.0000
# 3 45.7089 31.2378 114.3902 0.0000 0.0000 0.0000
# 4 0.0000 0.0000 0.0000 30.1689 0.0000 0.0000
# 5 0.0000 0.0000 0.0000 0.0000 27.1824 0.0000
# 6 0.0000 0.0000 0.0000 0.0000 0.0000 28.0755
#
#
#
# Elastic Compliance Matrix: (Units=1/GPa)
#
#
# Indices 1 2 3 4 5 6 
#
# 1 0.011027 -0.001387 -0.004027 0.000000 0.000000 0.000000
# 2 -0.001387 0.013724 -0.003193 0.000000 0.000000 0.000000
# 3 -0.004027 -0.003193 0.011223 0.000000 0.000000 0.000000
# 4 0.000000 0.000000 0.000000 0.033147 0.000000 0.000000
# 5 0.000000 0.000000 0.000000 0.000000 0.036789 0.000000
# 6 0.000000 0.000000 0.000000 0.000000 0.000000 0.035618
#
#
# Mechanical properties :
#
#
# Convention : Reuss Voigt Hill
#
# Bulk Modulus (GPa) = 53.31098 56.03089 54.67094
# Shear Modulus (GPa) = 30.30380 30.96087 30.63234
#
# Velocity S-wave (km/s) = 3.73316 3.77341 3.75334
# Velocity P-wave (km/s) = 6.56500 6.68977 6.62768
#
# Compressibility (1/GPa) = 0.01875786
#
# Stress axis : x y z
#
# Youngs Moduli (GPa) = 90.68973 72.86546 89.10052
#
# Poissons Ratio (x) = 0.10109 0.35883
# Poissons Ratio (y) = 0.12582 0.28453
# Poissons Ratio (z) = 0.36523 0.23269
#
# Static dielectric constant tensor:
#      x y z
#    x 3.542060 0.000000 0.000000 
#    y 0.000000 3.925980 0.000000 
#    z 0.000000 0.000000 3.804540 
# 
# 
# High freq. dielectric constant tensor:
#      x y z
#    x 1.873820 0.000000 0.000000 
#    y 0.000000 1.854690 0.000000 
#    z 0.000000 0.000000 1.847780 
# 
# From -- ./inp_files/6441.got.cif
#   From: 2010.03.12/outbox.cif.g09.slc.cpg/sg56_4_cif.got.tgz:6441.got - 2010.04.16 15:33:40.
