data_PCOD8229779
_publ_section_title
;
Structure prediction by ZEFSAII (Michael W. Deem and Ramdas Pophale) SiO2 
 PCOD8229779
Probable space group: P C C N
;
_chemical_formula_sum "Si O2"
_cell_formula_units_Z 40
_cell_length_a 4.883406
_cell_length_b 11.425750
_cell_length_c 27.787251
_cell_angle_alpha 90.000000
_cell_angle_beta 90.000000
_cell_angle_gamma 90.000000
_cell_volume 1550.433465
_symmetry_space_group_name_H-M "P C C N"
_symmetry_group_IT_number 56
_symmetry_cell_setting 'orthorhombic'
loop_
_space_group_symop_operation_xyz
x,y,z
1/2-x,1/2-y,z
1/2+x,-y,1/2-z
-x,1/2+y,1/2-z
-x,-y,-z
1/2+x,1/2+y,-z
1/2-x,y,1/2+z
x,1/2-y,1/2+z
loop_
_atom_site_type_symbol
_atom_site_label
_atom_site_fract_x
_atom_site_fract_y
_atom_site_fract_z
Si Si1 0.603540 0.126601 0.641363
Si Si2 0.250000 0.250000 0.340329
Si Si3 0.685461 0.526929 0.721857
Si Si4 0.407255 0.415281 0.583214
Si Si5 0.250000 0.250000 0.005054
Si Si6 0.430724 0.854503 0.571981
O O1 0.750000 0.250000 0.643437
O O2 0.290161 0.138789 0.624907
O O3 0.790493 0.050646 0.603227
O O4 0.625243 0.062688 0.691837
O O5 0.378149 0.349848 0.305276
O O6 0.466877 0.180640 0.374063
O O7 0.396074 0.462443 0.732894
O O8 0.454727 0.320622 0.540800
O O9 0.253527 0.532091 0.568487
O O10 0.344780 0.356796 0.970333
O O11 0.250000 0.750000 0.552092
#
# Coordination Sequence:
#
# PCOD8229779 Si02
#       6
#     8   4   8   8   4   8
#     4  12  25  48  75 104 145 192 232 298 376 428
#     4  11  26  50  71 106 150 186 241 298 374 437
#     4  12  29  47  77 109 140 185 241 302 361 443
#     4  12  25  47  73 105 149 188 247 294 360 437
#     4  11  26  44  67 114 142 196 245 308 352 431
#     4  11  26  45  75 101 147 200 242 300 363 437
#
# _framework density 25.799237000000002
#
# number of rings (size 3 to 8) (size 9 to 14) (size 15 to 20)
#    0.000    0.400    4.000    3.000   11.200    0.800 
#    0.000    0.000    0.000    0.000    0.000    0.000 
#    0.000    0.000    0.000    0.000    0.000    0.000 
#
# Total GULP energy -495534.610793 kJ/mol
# GULP energy per Si atom -12388.365270 kJ/mol
# Density = 2.574052 g / cm^3
# Si number density = 25.799237 Si / 1000 Ang^3
#
#
#
# Elastic Constant Matrix: (Units=GPa)
#
#
# Indices 1 2 3 4 5 6 
#
# 1 68.5736 -36.7646 12.4972 0.0000 0.0000 0.0000
# 2 -36.7646 44.4990 17.7335 0.0000 0.0000 0.0000
# 3 12.4972 17.7335 96.7899 0.0000 0.0000 0.0000
# 4 0.0000 0.0000 0.0000 41.0085 0.0000 0.0000
# 5 0.0000 0.0000 0.0000 0.0000 7.6135 0.0000
# 6 0.0000 0.0000 0.0000 0.0000 0.0000 36.9462
#
#
#
# Elastic Compliance Matrix: (Units=1/GPa)
#
#
# Indices 1 2 3 4 5 6 
#
# 1 0.033350 0.031575 -0.010091 0.000000 0.000000 0.000000
# 2 0.031575 0.054137 -0.013996 0.000000 0.000000 0.000000
# 3 -0.010091 -0.013996 0.014199 0.000000 0.000000 0.000000
# 4 0.000000 0.000000 0.000000 0.024385 0.000000 0.000000
# 5 0.000000 0.000000 0.000000 0.000000 0.131346 0.000000
# 6 0.000000 0.000000 0.000000 0.000000 0.000000 0.027066
#
#
# Mechanical properties :
#
#
# Convention : Reuss Voigt Hill
#
# Bulk Modulus (GPa) = 8.57170 21.86609 15.21889
# Shear Modulus (GPa) = 16.21300 31.54006 23.87653
#
# Velocity S-wave (km/s) = 2.50957 3.50025 3.04546
# Velocity P-wave (km/s) = 3.42446 4.98292 4.27530
#
# Compressibility (1/GPa) = 0.11666302
#
# Stress axis : x y z
#
# Youngs Moduli (GPa) = 29.98457 18.47167 70.42832
#
# Poissons Ratio (x) = -0.58325 0.71071
# Poissons Ratio (y) = -0.94677 0.98569
# Poissons Ratio (z) = 0.30258 0.25852
#
# Static dielectric constant tensor:
#      x y z
#    x 4.031630 0.000000 0.000000 
#    y 0.000000 4.208710 0.000000 
#    z 0.000000 0.000000 4.763710 
# 
# 
# High freq. dielectric constant tensor:
#      x y z
#    x 2.026660 0.000000 0.000000 
#    y 0.000000 2.044420 0.000000 
#    z 0.000000 0.000000 2.036410 
# 
# From -- ./inp_files/21540.got.cif
#   From: 2010.03.12/outbox.cif.g09.slc.cpg/sg56_11_cif.got.tgz:21540.got - 2010.04.16 15:33:40.
