data_PCOD8229688
_publ_section_title
;
Structure prediction by ZEFSAII (Michael W. Deem and Ramdas Pophale) SiO2 
 PCOD8229688
Probable space group: P C C N
;
_chemical_formula_sum "Si O2"
_cell_formula_units_Z 60
_cell_length_a 17.893914
_cell_length_b 8.579869
_cell_length_c 17.359614
_cell_angle_alpha 90.000000
_cell_angle_beta 90.000000
_cell_angle_gamma 90.000000
_cell_volume 2665.177062
_symmetry_space_group_name_H-M "P C C N"
_symmetry_group_IT_number 56
_symmetry_cell_setting 'orthorhombic'
loop_
_space_group_symop_operation_xyz
x,y,z
1/2-x,1/2-y,z
1/2+x,-y,1/2-z
-x,1/2+y,1/2-z
-x,-y,-z
1/2+x,1/2+y,-z
1/2-x,y,1/2+z
x,1/2-y,1/2+z
loop_
_atom_site_type_symbol
_atom_site_label
_atom_site_fract_x
_atom_site_fract_y
_atom_site_fract_z
Si Si1 0.750000 0.250000 0.035140
Si Si2 0.925583 0.987444 0.280549
Si Si3 0.496683 0.790840 0.320134
Si Si4 0.451337 0.143604 0.517234
Si Si5 0.024163 0.078462 0.421147
Si Si6 0.282853 0.076011 0.554010
Si Si7 0.743902 0.428075 0.289113
Si Si8 0.355423 0.883352 0.846230
O O1 0.678583 0.236501 0.091021
O O2 0.747303 0.417385 0.988868
O O3 0.984543 0.038006 0.213413
O O4 0.840990 0.035055 0.265197
O O5 0.956150 0.061127 0.360675
O O6 0.933838 0.799711 0.280236
O O7 0.510483 0.770551 0.410519
O O8 0.418893 0.705824 0.297948
O O9 0.456828 0.243506 0.439967
O O10 0.369602 0.086737 0.538417
O O11 0.500000 0.000000 0.500000
O O12 0.104319 0.022458 0.390871
O O13 0.000000 0.000000 0.500000
O O14 0.250000 0.250000 0.531146
O O15 0.268999 0.047652 0.644641
O O16 0.750000 0.250000 0.318852
O O17 0.793467 0.450705 0.212466
#
# Coordination Sequence:
#
# PCOD8229688 Si02
#       8
#     4   8   8   8   8   8   8   8
#     4  12  24  46  80 100 156 198 248 320 384 444
#     4  11  25  43  73 102 145 193 237 306 373 447
#     4  11  24  44  70 103 144 183 246 299 366 443
#     4  12  27  45  72 111 143 189 260 310 377 454
#     4  11  25  46  77 103 150 193 243 316 382 436
#     4  12  29  47  73 110 153 200 253 311 386 462
#     4  12  25  46  74 105 145 198 252 300 377 460
#     4  11  23  46  74 111 143 194 254 308 375 454
#
# _framework density 22.512574999999998
#
# number of rings (size 3 to 8) (size 9 to 14) (size 15 to 20)
#    0.000    0.533    5.333    2.400    9.333    0.000 
#    0.000    0.667    0.000    0.000    0.000    0.000 
#    0.000    0.000    0.000    0.000    0.000    0.000 
#
# Total GULP energy -743310.022644 kJ/mol
# GULP energy per Si atom -12388.500377 kJ/mol
# Density = 2.246134 g / cm^3
# Si number density = 22.512575 Si / 1000 Ang^3
#
#
#
# Elastic Constant Matrix: (Units=GPa)
#
#
# Indices 1 2 3 4 5 6 
#
# 1 143.7293 42.6636 32.6504 0.0000 0.0000 0.0000
# 2 42.6636 112.4634 21.5400 0.0000 0.0000 0.0000
# 3 32.6504 21.5400 81.6897 0.0000 0.0000 0.0000
# 4 0.0000 0.0000 0.0000 43.4082 0.0000 0.0000
# 5 0.0000 0.0000 0.0000 0.0000 36.0233 0.0000
# 6 0.0000 0.0000 0.0000 0.0000 0.0000 38.4503
#
#
#
# Elastic Compliance Matrix: (Units=1/GPa)
#
#
# Indices 1 2 3 4 5 6 
#
# 1 0.008346 -0.002662 -0.002634 0.000000 0.000000 0.000000
# 2 -0.002662 0.010214 -0.001629 0.000000 0.000000 0.000000
# 3 -0.002634 -0.001629 0.013724 0.000000 0.000000 0.000000
# 4 0.000000 0.000000 0.000000 0.023037 0.000000 0.000000
# 5 0.000000 0.000000 0.000000 0.000000 0.027760 0.000000
# 6 0.000000 0.000000 0.000000 0.000000 0.000000 0.026008
#
#
# Mechanical properties :
#
#
# Convention : Reuss Voigt Hill
#
# Bulk Modulus (GPa) = 54.24884 59.06560 56.65722
# Shear Modulus (GPa) = 38.73505 39.64491 39.18998
#
# Velocity S-wave (km/s) = 4.15251 4.20099 4.17682
# Velocity P-wave (km/s) = 6.86590 7.05867 6.96295
#
# Compressibility (1/GPa) = 0.01843357
#
# Stress axis : x y z
#
# Youngs Moduli (GPa) = 119.81909 97.90938 72.86596
#
# Poissons Ratio (x) = 0.26059 0.19193
# Poissons Ratio (y) = 0.31891 0.11872
# Poissons Ratio (z) = 0.31560 0.15952
#
# Static dielectric constant tensor:
#      x y z
#    x 4.057470 0.000000 0.000000 
#    y 0.000000 4.420280 0.000000 
#    z 0.000000 0.000000 3.475930 
# 
# 
# High freq. dielectric constant tensor:
#      x y z
#    x 1.895920 0.000000 0.000000 
#    y 0.000000 1.894860 0.000000 
#    z 0.000000 0.000000 1.891100 
# 
# From -- ./inp_files/16648.got.cif
#   From: 2010.03.12/outbox.cif.g09.slc.cpg/sg56_9_cif.got.tgz:16648.got - 2010.04.16 15:33:40.
