data_PCOD8229643
_publ_section_title
;
Structure prediction by ZEFSAII (Michael W. Deem and Ramdas Pophale) SiO2 
 PCOD8229643
Probable space group: P C C N
;
_chemical_formula_sum "Si O2"
_cell_formula_units_Z 60
_cell_length_a 18.372274
_cell_length_b 8.972774
_cell_length_c 18.103189
_cell_angle_alpha 90.000000
_cell_angle_beta 90.000000
_cell_angle_gamma 90.000000
_cell_volume 2984.315458
_symmetry_space_group_name_H-M "P C C N"
_symmetry_group_IT_number 56
_symmetry_cell_setting 'orthorhombic'
loop_
_space_group_symop_operation_xyz
x,y,z
1/2-x,1/2-y,z
1/2+x,-y,1/2-z
-x,1/2+y,1/2-z
-x,-y,-z
1/2+x,1/2+y,-z
1/2-x,y,1/2+z
x,1/2-y,1/2+z
loop_
_atom_site_type_symbol
_atom_site_label
_atom_site_fract_x
_atom_site_fract_y
_atom_site_fract_z
Si Si1 0.750000 0.250000 0.006248
Si Si2 0.369356 0.837798 0.876667
Si Si3 0.002951 0.154016 0.172946
Si Si4 0.741730 0.529066 0.904058
Si Si5 0.185151 0.856112 0.218842
Si Si6 0.045316 0.099654 0.443640
Si Si7 0.974943 0.301392 0.323473
Si Si8 0.631710 0.772501 0.929249
O O1 0.679934 0.209984 0.055101
O O2 0.730669 0.385311 0.953789
O O3 0.425664 0.704535 0.860541
O O4 0.318443 0.874623 0.806637
O O5 0.412506 0.990514 0.888872
O O6 0.014258 0.219829 0.254966
O O7 0.067944 0.222025 0.125052
O O8 0.002590 0.974884 0.173332
O O9 0.706868 0.509982 0.821883
O O10 0.692136 0.649691 0.944056
O O11 0.826169 0.580803 0.897731
O O12 0.250000 0.750000 0.194912
O O13 0.111361 0.788239 0.185923
O O14 0.995135 0.214058 0.398066
O O15 0.101476 0.197690 0.489470
O O16 0.000000 0.000000 0.500000
#
# Coordination Sequence:
#
# PCOD8229643 Si02
#       8
#     4   8   8   8   8   8   8   8
#     4  12  24  44  68  98 140 180 228 282 340 420
#     4  11  25  44  69 102 136 176 230 286 347 413
#     4  11  24  46  72  98 137 176 235 286 341 413
#     4  11  25  42  69  95 136 182 228 277 344 413
#     4  11  23  41  68  96 130 177 231 274 336 416
#     4  12  26  43  70 100 140 175 225 289 349 406
#     4  11  26  44  69 102 135 182 231 287 346 408
#     4  11  25  44  65 101 134 176 227 288 343 408
#
# _framework density 20.105112999999999
#
# number of rings (size 3 to 8) (size 9 to 14) (size 15 to 20)
#    0.000    0.800    5.333    1.600    5.600    1.600 
#    0.000    0.000    0.000    0.000    0.000    0.000 
#    0.000    0.000    0.000    0.000    0.000    0.000 
#
# Total GULP energy -743996.427511 kJ/mol
# GULP energy per Si atom -12399.940459 kJ/mol
# Density = 2.005935 g / cm^3
# Si number density = 20.105113 Si / 1000 Ang^3
#
#
#
# Elastic Constant Matrix: (Units=GPa)
#
#
# Indices 1 2 3 4 5 6 
#
# 1 84.1244 39.5041 39.6910 0.0000 0.0000 0.0000
# 2 39.5041 126.9513 61.3963 0.0000 0.0000 0.0000
# 3 39.6910 61.3963 106.9694 0.0000 0.0000 0.0000
# 4 0.0000 0.0000 0.0000 34.2458 0.0000 0.0000
# 5 0.0000 0.0000 0.0000 0.0000 40.5728 0.0000
# 6 0.0000 0.0000 0.0000 0.0000 0.0000 35.2832
#
#
#
# Elastic Compliance Matrix: (Units=1/GPa)
#
#
# Indices 1 2 3 4 5 6 
#
# 1 0.015072 -0.002748 -0.004015 0.000000 0.000000 0.000000
# 2 -0.002748 0.011405 -0.005526 0.000000 0.000000 0.000000
# 3 -0.004015 -0.005526 0.014010 0.000000 0.000000 0.000000
# 4 0.000000 0.000000 0.000000 0.029201 0.000000 0.000000
# 5 0.000000 0.000000 0.000000 0.000000 0.024647 0.000000
# 6 0.000000 0.000000 0.000000 0.000000 0.000000 0.028342
#
#
# Mechanical properties :
#
#
# Convention : Reuss Voigt Hill
#
# Bulk Modulus (GPa) = 62.86189 66.58088 64.72139
# Shear Modulus (GPa) = 32.77430 33.85059 33.31244
#
# Velocity S-wave (km/s) = 4.04189 4.10772 4.07494
# Velocity P-wave (km/s) = 7.28814 7.46231 7.37574
#
# Compressibility (1/GPa) = 0.01590789
#
# Stress axis : x y z
#
# Youngs Moduli (GPa) = 66.34771 87.68233 71.37716
#
# Poissons Ratio (x) = 0.24098 0.28659
# Poissons Ratio (y) = 0.18234 0.39444
# Poissons Ratio (z) = 0.26639 0.48455
#
# Static dielectric constant tensor:
#      x y z
#    x 3.903220 0.000000 0.000000 
#    y 0.000000 4.246230 0.000000 
#    z 0.000000 0.000000 3.789460 
# 
# 
# High freq. dielectric constant tensor:
#      x y z
#    x 1.798970 0.000000 0.000000 
#    y 0.000000 1.790560 0.000000 
#    z 0.000000 0.000000 1.792690 
# 
# From -- ./inp_files/16671.got.cif
#   From: 2010.03.12/outbox.cif.g09.slc.cpg/sg56_9_cif.got.tgz:16671.got - 2010.04.16 15:33:40.
