data_PCOD8229275
_publ_section_title
;
Structure prediction by ZEFSAII (Michael W. Deem and Ramdas Pophale) SiO2 
 PCOD8229275
Probable space group: P C C N
;
_chemical_formula_sum "Si O2"
_cell_formula_units_Z 36
_cell_length_a 21.824050
_cell_length_b 5.061209
_cell_length_c 12.543705
_cell_angle_alpha 90.000000
_cell_angle_beta 90.000000
_cell_angle_gamma 90.000000
_cell_volume 1385.528461
_symmetry_space_group_name_H-M "P C C N"
_symmetry_group_IT_number 56
_symmetry_cell_setting 'orthorhombic'
loop_
_space_group_symop_operation_xyz
x,y,z
1/2-x,1/2-y,z
1/2+x,-y,1/2-z
-x,1/2+y,1/2-z
-x,-y,-z
1/2+x,1/2+y,-z
1/2-x,y,1/2+z
x,1/2-y,1/2+z
loop_
_atom_site_type_symbol
_atom_site_label
_atom_site_fract_x
_atom_site_fract_y
_atom_site_fract_z
Si Si1 0.953687 0.548407 0.132273
Si Si2 0.368858 0.659393 0.967109
Si Si3 0.285569 0.502366 0.803446
Si Si4 0.033990 0.449617 0.625877
Si Si5 0.750000 0.250000 0.901541
O O1 0.936729 0.517934 0.257272
O O2 0.977529 0.844063 0.107036
O O3 0.895085 0.452995 0.061939
O O4 0.009029 0.344990 0.106632
O O5 0.414787 0.493000 0.038371
O O6 0.304916 0.644326 0.028056
O O7 0.354967 0.507696 0.853158
O O8 0.250000 0.750000 0.855814
O O9 0.281955 0.525442 0.674542
O O10 0.250000 0.250000 0.845393
#
# Coordination Sequence:
#
# PCOD8229275 Si02
#       5
#     8   8   8   8   4
#     4  10  23  44  65 103 135 175 222 284 338 406
#     4  12  22  44  73  99 132 182 234 272 342 413
#     4  10  25  47  62  96 139 176 225 279 336 400
#     4  10  23  43  67  98 140 173 223 280 345 397
#     4  10  24  48  64 102 138 178 230 282 348 392
#
# _framework density 25.982863999999999
#
# number of rings (size 3 to 8) (size 9 to 14) (size 15 to 20)
#    0.667    0.889    1.111    2.667    0.000    4.444 
#   16.000    0.000    0.000    0.000    0.000    0.000 
#    0.000    0.000    0.000    0.000    0.000    0.000 
#
# Total GULP energy -446104.630393 kJ/mol
# GULP energy per Si atom -12391.795289 kJ/mol
# Density = 2.592373 g / cm^3
# Si number density = 25.982864 Si / 1000 Ang^3
#
#
#
# Elastic Constant Matrix: (Units=GPa)
#
#
# Indices 1 2 3 4 5 6 
#
# 1 101.2147 10.5382 77.8566 0.0000 0.0000 0.0000
# 2 10.5382 108.7777 -3.0656 0.0000 0.0000 0.0000
# 3 77.8566 -3.0656 102.9669 0.0000 0.0000 0.0000
# 4 0.0000 0.0000 0.0000 -9.9413 0.0000 0.0000
# 5 0.0000 0.0000 0.0000 0.0000 13.9973 0.0000
# 6 0.0000 0.0000 0.0000 0.0000 0.0000 19.6960
#
#
#
# Elastic Compliance Matrix: (Units=1/GPa)
#
#
# Indices 1 2 3 4 5 6 
#
# 1 0.024495 -0.002898 -0.018608 0.000000 0.000000 0.000000
# 2 -0.002898 0.009544 0.002475 0.000000 0.000000 0.000000
# 3 -0.018608 0.002475 0.023856 0.000000 0.000000 0.000000
# 4 0.000000 0.000000 0.000000 -0.100590 0.000000 0.000000
# 5 0.000000 0.000000 0.000000 0.000000 0.071442 0.000000
# 6 0.000000 0.000000 0.000000 0.000000 0.000000 0.050772
#
#
# Mechanical properties :
#
#
# Convention : Reuss Voigt Hill
#
# Bulk Modulus (GPa) = 50.41949 53.73531 52.07740
# Shear Modulus (GPa) = 40.26079 19.92574 30.09327
#
# Velocity S-wave (km/s) = 3.94066 2.77226 3.40692
# Velocity P-wave (km/s) = 6.33656 5.56536 5.96344
#
# Compressibility (1/GPa) = 0.01983360
#
# Stress axis : x y z
#
# Youngs Moduli (GPa) = 40.82399 104.78312 41.91873
#
# Poissons Ratio (x) = 0.30361 0.78003
# Poissons Ratio (y) = 0.11829 -0.10375
# Poissons Ratio (z) = 0.75965 -0.25934
#
# Static dielectric constant tensor:
#      x y z
#    x 5.180120 0.000000 0.000000 
#    y 0.000000 4.438260 0.000000 
#    z 0.000000 0.000000 5.272330 
# 
# 
# High freq. dielectric constant tensor:
#      x y z
#    x 2.030450 0.000000 0.000000 
#    y 0.000000 2.026840 0.000000 
#    z 0.000000 0.000000 2.073840 
# 
# From -- ./inp_files/12940.got.cif
#   From: 2010.03.12/outbox.cif.g09.slc.cpg/sg56_7_cif.got.tgz:12940.got - 2010.04.16 15:33:40.
