data_PCOD8229480
_publ_section_title
;
Structure prediction by ZEFSAII (Michael W. Deem and Ramdas Pophale) SiO2 
 PCOD8229480
Probable space group: P C C N
;
_chemical_formula_sum "Si O2"
_cell_formula_units_Z 28
_cell_length_a 19.237873
_cell_length_b 4.775993
_cell_length_c 11.240319
_cell_angle_alpha 90.000000
_cell_angle_beta 90.000000
_cell_angle_gamma 90.000000
_cell_volume 1032.759912
_symmetry_space_group_name_H-M "P C C N"
_symmetry_group_IT_number 56
_symmetry_cell_setting 'orthorhombic'
loop_
_space_group_symop_operation_xyz
x,y,z
1/2-x,1/2-y,z
1/2+x,-y,1/2-z
-x,1/2+y,1/2-z
-x,-y,-z
1/2+x,1/2+y,-z
1/2-x,y,1/2+z
x,1/2-y,1/2+z
loop_
_atom_site_type_symbol
_atom_site_label
_atom_site_fract_x
_atom_site_fract_y
_atom_site_fract_z
Si Si1 0.358311 0.871794 0.936091
Si Si2 0.750000 0.250000 0.755786
Si Si3 0.667559 0.866175 0.406963
Si Si4 0.954507 0.657334 0.233079
O O1 0.317605 0.725283 0.826793
O O2 0.430193 0.004835 0.888932
O O3 0.370866 0.630964 0.032040
O O4 0.314231 0.124314 0.997242
O O5 0.738799 0.521886 0.841130
O O6 0.611995 0.753859 0.311663
O O7 0.006412 0.444005 0.300584
#
# Coordination Sequence:
#
# PCOD8229480 Si02
#       4
#     8   4   8   8
#     4  11  25  44  69 100 137 183 233 287 349 413
#     4  10  26  46  68 100 140 180 236 290 340 412
#     4  11  25  44  69 100 137 183 233 287 349 413
#     4  11  24  43  68 100 138 178 229 287 342 413
#
# _framework density 27.111820000000002
#
# number of rings (size 3 to 8) (size 9 to 14) (size 15 to 20)
#    0.000    1.143    0.000    4.286    0.000   20.571 
#    0.000    0.000    0.000    0.000    0.000    0.000 
#    0.000    0.000    0.000    0.000    0.000    0.000 
#
# Total GULP energy -347216.198367 kJ/mol
# GULP energy per Si atom -12400.578513 kJ/mol
# Density = 2.705011 g / cm^3
# Si number density = 27.111820 Si / 1000 Ang^3
#
#
#
# Elastic Constant Matrix: (Units=GPa)
#
#
# Indices 1 2 3 4 5 6 
#
# 1 97.5630 16.6952 30.6707 0.0000 0.0000 0.0000
# 2 16.6952 142.3865 43.2782 0.0000 0.0000 0.0000
# 3 30.6707 43.2782 112.5496 0.0000 0.0000 0.0000
# 4 0.0000 0.0000 0.0000 42.4249 0.0000 0.0000
# 5 0.0000 0.0000 0.0000 0.0000 32.9335 0.0000
# 6 0.0000 0.0000 0.0000 0.0000 0.0000 34.6336
#
#
#
# Elastic Compliance Matrix: (Units=1/GPa)
#
#
# Indices 1 2 3 4 5 6 
#
# 1 0.011234 -0.000438 -0.002893 0.000000 0.000000 0.000000
# 2 -0.000438 0.007970 -0.002945 0.000000 0.000000 0.000000
# 3 -0.002893 -0.002945 0.010806 0.000000 0.000000 0.000000
# 4 0.000000 0.000000 0.000000 0.023571 0.000000 0.000000
# 5 0.000000 0.000000 0.000000 0.000000 0.030364 0.000000
# 6 0.000000 0.000000 0.000000 0.000000 0.000000 0.028874
#
#
# Mechanical properties :
#
#
# Convention : Reuss Voigt Hill
#
# Bulk Modulus (GPa) = 57.28216 59.30969 58.29593
# Shear Modulus (GPa) = 38.11263 39.45541 38.78402
#
# Velocity S-wave (km/s) = 3.75341 3.81896 3.78633
# Velocity P-wave (km/s) = 6.32124 6.43190 6.37681
#
# Compressibility (1/GPa) = 0.01745744
#
# Stress axis : x y z
#
# Youngs Moduli (GPa) = 89.01391 125.47556 92.54243
#
# Poissons Ratio (x) = 0.05495 0.26773
# Poissons Ratio (y) = 0.03898 0.27256
# Poissons Ratio (z) = 0.25752 0.36955
#
# Static dielectric constant tensor:
#      x y z
#    x 4.667660 0.000000 0.000000 
#    y 0.000000 5.052390 0.000000 
#    z 0.000000 0.000000 5.125710 
# 
# 
# High freq. dielectric constant tensor:
#      x y z
#    x 2.080840 0.000000 0.000000 
#    y 0.000000 2.112450 0.000000 
#    z 0.000000 0.000000 2.092620 
# 
# From -- ./inp_files/8527.got.cif
#   From: 2010.03.12/outbox.cif.g09.slc.cpg/sg56_5_cif.got.tgz:8527.got - 2010.04.16 15:33:40.
