data_PCOD8229821
_publ_section_title
;
Structure prediction by ZEFSAII (Michael W. Deem and Ramdas Pophale) SiO2 
 PCOD8229821
Probable space group: P C C N
;
_chemical_formula_sum "Si O2"
_cell_formula_units_Z 32
_cell_length_a 4.784109
_cell_length_b 8.848786
_cell_length_c 30.504082
_cell_angle_alpha 90.000000
_cell_angle_beta 90.000000
_cell_angle_gamma 90.000000
_cell_volume 1291.346286
_symmetry_space_group_name_H-M "P C C N"
_symmetry_group_IT_number 56
_symmetry_cell_setting 'orthorhombic'
loop_
_space_group_symop_operation_xyz
x,y,z
1/2-x,1/2-y,z
1/2+x,-y,1/2-z
-x,1/2+y,1/2-z
-x,-y,-z
1/2+x,1/2+y,-z
1/2-x,y,1/2+z
x,1/2-y,1/2+z
loop_
_atom_site_type_symbol
_atom_site_label
_atom_site_fract_x
_atom_site_fract_y
_atom_site_fract_z
Si Si1 0.665423 0.927525 0.771446
Si Si2 0.250000 0.250000 0.548252
Si Si3 0.750000 0.250000 0.987062
Si Si4 0.382371 0.098800 0.849497
Si Si5 0.128961 0.550208 0.591039
O O1 0.750000 0.750000 0.772018
O O2 0.448438 0.970197 0.731908
O O3 0.493634 0.976924 0.814520
O O4 0.505133 0.308943 0.518365
O O5 0.196463 0.378469 0.583185
O O6 0.601972 0.376277 0.956973
O O7 0.250000 0.250000 0.826402
O O8 0.637079 0.142044 0.881447
O O9 0.153409 0.033638 0.881853
#
# Coordination Sequence:
#
# PCOD8229821 Si02
#       5
#     8   4   4   8   8
#     4  12  28  52  84 119 158 199 254 314 384 465
#     4  12  26  42  70 108 152 194 258 328 384 444
#     4  12  22  46  70 106 144 206 256 316 382 454
#     4  12  25  49  79 108 152 203 253 307 378 456
#     4  12  25  45  73 108 150 199 255 315 381 452
#
# _framework density 24.780342999999998
#
# number of rings (size 3 to 8) (size 9 to 14) (size 15 to 20)
#    0.000    0.000    2.500    7.500    1.750    2.000 
#    0.000    0.000    0.000    0.000    0.000    0.000 
#    0.000    0.000    0.000    0.000    0.000    0.000 
#
# Total GULP energy -396586.143657 kJ/mol
# GULP energy per Si atom -12393.316989 kJ/mol
# Density = 2.472394 g / cm^3
# Si number density = 24.780343 Si / 1000 Ang^3
#
#
#
# Elastic Constant Matrix: (Units=GPa)
#
#
# Indices 1 2 3 4 5 6 
#
# 1 170.9140 63.2784 62.0591 0.0000 0.0000 0.0000
# 2 63.2784 168.0040 42.7676 0.0000 0.0000 0.0000
# 3 62.0591 42.7676 95.2491 0.0000 0.0000 0.0000
# 4 0.0000 0.0000 0.0000 27.9746 0.0000 0.0000
# 5 0.0000 0.0000 0.0000 0.0000 59.9708 0.0000
# 6 0.0000 0.0000 0.0000 0.0000 0.0000 45.4800
#
#
#
# Elastic Compliance Matrix: (Units=1/GPa)
#
#
# Indices 1 2 3 4 5 6 
#
# 1 0.008193 -0.001950 -0.004463 0.000000 0.000000 0.000000
# 2 -0.001950 0.007184 -0.001955 0.000000 0.000000 0.000000
# 3 -0.004463 -0.001955 0.014284 0.000000 0.000000 0.000000
# 4 0.000000 0.000000 0.000000 0.035747 0.000000 0.000000
# 5 0.000000 0.000000 0.000000 0.000000 0.016675 0.000000
# 6 0.000000 0.000000 0.000000 0.000000 0.000000 0.021988
#
#
# Mechanical properties :
#
#
# Convention : Reuss Voigt Hill
#
# Bulk Modulus (GPa) = 77.36343 85.59748 81.48046
# Shear Modulus (GPa) = 39.96286 44.42255 42.19270
#
# Velocity S-wave (km/s) = 4.02018 4.23857 4.13082
# Velocity P-wave (km/s) = 7.26888 7.65320 7.46351
#
# Compressibility (1/GPa) = 0.01292600
#
# Stress axis : x y z
#
# Youngs Moduli (GPa) = 122.05162 139.18954 70.00617
#
# Poissons Ratio (x) = 0.27141 0.31242
# Poissons Ratio (y) = 0.23799 0.13689
# Poissons Ratio (z) = 0.54468 0.27217
#
# Static dielectric constant tensor:
#      x y z
#    x 4.890090 0.000000 0.000000 
#    y 0.000000 4.341030 0.000000 
#    z 0.000000 0.000000 4.532580 
# 
# 
# High freq. dielectric constant tensor:
#      x y z
#    x 2.009860 0.000000 0.000000 
#    y 0.000000 1.988870 0.000000 
#    z 0.000000 0.000000 1.996490 
# 
# From -- ./inp_files/22725.got.cif
#   From: 2010.03.12/outbox.cif.g09.slc.cpg/sg56_12_cif.got.tgz:22725.got - 2010.04.16 15:33:40.
