data_PCOD8229259
_publ_section_title
;
Structure prediction by ZEFSAII (Michael W. Deem and Ramdas Pophale) SiO2 
 PCOD8229259
Probable space group: P C C N
;
_chemical_formula_sum "Si O2"
_cell_formula_units_Z 56
_cell_length_a 5.874706
_cell_length_b 14.478483
_cell_length_c 30.816179
_cell_angle_alpha 90.000000
_cell_angle_beta 90.000000
_cell_angle_gamma 90.000000
_cell_volume 2621.126528
_symmetry_space_group_name_H-M "P C C N"
_symmetry_group_IT_number 56
_symmetry_cell_setting 'orthorhombic'
loop_
_space_group_symop_operation_xyz
x,y,z
1/2-x,1/2-y,z
1/2+x,-y,1/2-z
-x,1/2+y,1/2-z
-x,-y,-z
1/2+x,1/2+y,-z
1/2-x,y,1/2+z
x,1/2-y,1/2+z
loop_
_atom_site_type_symbol
_atom_site_label
_atom_site_fract_x
_atom_site_fract_y
_atom_site_fract_z
Si Si1 0.535086 0.587447 0.582600
Si Si2 0.066861 0.044437 0.760362
Si Si3 0.250000 0.750000 0.060911
Si Si4 0.588911 0.323614 0.694095
Si Si5 0.750000 0.750000 0.871497
Si Si6 0.322701 0.997790 0.350561
Si Si7 0.627498 0.845103 0.510766
Si Si8 0.829375 0.933441 0.922232
O O1 0.413865 0.686578 0.590006
O O2 0.629329 0.563981 0.630252
O O3 0.724704 0.597441 0.545315
O O4 0.373883 0.503801 0.568576
O O5 0.079219 0.137018 0.731365
O O6 0.816381 0.002045 0.747910
O O7 0.050494 0.055395 0.812403
O O8 0.384449 0.677500 0.031232
O O9 0.750000 0.250000 0.718477
O O10 0.467355 0.258035 0.659243
O O11 0.720913 0.403881 0.668493
O O12 0.741966 0.840291 0.900621
O O13 0.488200 0.979320 0.390725
O O14 0.750000 0.750000 0.496850
O O15 0.569607 0.907801 0.469159
#
# Coordination Sequence:
#
# PCOD8229259 Si02
#       8
#     8   8   4   8   4   8   8   8
#     4  11  24  43  68  96 136 191 239 300 357 432
#     4  10  24  45  72 103 144 192 232 289 367 443
#     4  10  24  46  68  88 136 190 250 298 352 428
#     4  11  23  42  71 104 146 179 232 297 368 437
#     4  12  22  38  68 108 142 180 230 292 364 438
#     4  11  24  41  70 101 138 185 233 294 361 435
#     4  10  23  42  65  97 140 189 235 297 359 428
#     4  12  23  39  69 107 140 182 233 294 363 434
#
# _framework density 21.364858000000002
#
# number of rings (size 3 to 8) (size 9 to 14) (size 15 to 20)
#    0.000    1.143    3.571    2.143    4.000    5.714 
#    0.000    0.000   20.429    0.000    0.000    0.000 
#    0.000    0.000    0.000    0.000    0.000    0.000 
#
# Total GULP energy -693834.537905 kJ/mol
# GULP energy per Si atom -12389.902463 kJ/mol
# Density = 2.131623 g / cm^3
# Si number density = 21.364858 Si / 1000 Ang^3
#
#
#
# Elastic Constant Matrix: (Units=GPa)
#
#
# Indices 1 2 3 4 5 6 
#
# 1 111.9884 44.9734 51.5488 0.0000 0.0000 0.0000
# 2 44.9734 102.8394 72.5555 0.0000 0.0000 0.0000
# 3 51.5488 72.5555 132.3039 0.0000 0.0000 0.0000
# 4 0.0000 0.0000 0.0000 35.4804 0.0000 0.0000
# 5 0.0000 0.0000 0.0000 0.0000 25.5395 0.0000
# 6 0.0000 0.0000 0.0000 0.0000 0.0000 40.5828
#
#
#
# Elastic Compliance Matrix: (Units=1/GPa)
#
#
# Indices 1 2 3 4 5 6 
#
# 1 0.011431 -0.003029 -0.002793 0.000000 0.000000 0.000000
# 2 -0.003029 0.016663 -0.007958 0.000000 0.000000 0.000000
# 3 -0.002793 -0.007958 0.013011 0.000000 0.000000 0.000000
# 4 0.000000 0.000000 0.000000 0.028185 0.000000 0.000000
# 5 0.000000 0.000000 0.000000 0.000000 0.039155 0.000000
# 6 0.000000 0.000000 0.000000 0.000000 0.000000 0.024641
#
#
# Mechanical properties :
#
#
# Convention : Reuss Voigt Hill
#
# Bulk Modulus (GPa) = 73.82329 76.14301 74.98315
# Shear Modulus (GPa) = 30.27367 32.19079 31.23223
#
# Velocity S-wave (km/s) = 3.76837 3.88586 3.82756
# Velocity P-wave (km/s) = 7.31866 7.47328 7.39637
#
# Compressibility (1/GPa) = 0.01354586
#
# Stress axis : x y z
#
# Youngs Moduli (GPa) = 87.47827 60.01382 76.85957
#
# Poissons Ratio (x) = 0.18176 0.21468
# Poissons Ratio (y) = 0.26493 0.61164
# Poissons Ratio (z) = 0.24434 0.47758
#
# Static dielectric constant tensor:
#      x y z
#    x 4.121800 0.000000 0.000000 
#    y 0.000000 4.093600 0.000000 
#    z 0.000000 0.000000 4.057550 
# 
# 
# High freq. dielectric constant tensor:
#      x y z
#    x 1.846710 0.000000 0.000000 
#    y 0.000000 1.840570 0.000000 
#    z 0.000000 0.000000 1.838430 
# 
# From -- ./inp_files/22913.got.cif
#   From: 2010.03.12/outbox.cif.g09.slc.cpg/sg56_12_cif.got.tgz:22913.got - 2010.04.16 15:33:40.
