data_PCOD8229536
_publ_section_title
;
Structure prediction by ZEFSAII (Michael W. Deem and Ramdas Pophale) SiO2 
 PCOD8229536
Probable space group: P C C N
;
_chemical_formula_sum "Si O2"
_cell_formula_units_Z 64
_cell_length_a 32.408861
_cell_length_b 11.453247
_cell_length_c 8.611837
_cell_angle_alpha 90.000000
_cell_angle_beta 90.000000
_cell_angle_gamma 90.000000
_cell_volume 3196.599271
_symmetry_space_group_name_H-M "P C C N"
_symmetry_group_IT_number 56
_symmetry_cell_setting 'orthorhombic'
loop_
_space_group_symop_operation_xyz
x,y,z
1/2-x,1/2-y,z
1/2+x,-y,1/2-z
-x,1/2+y,1/2-z
-x,-y,-z
1/2+x,1/2+y,-z
1/2-x,y,1/2+z
x,1/2-y,1/2+z
loop_
_atom_site_type_symbol
_atom_site_label
_atom_site_fract_x
_atom_site_fract_y
_atom_site_fract_z
Si Si1 0.432160 0.091420 0.744659
Si Si2 0.571969 0.283961 0.405802
Si Si3 0.871319 0.433937 0.420605
Si Si4 0.377460 0.512569 0.733298
Si Si5 0.932422 0.675135 0.915595
Si Si6 0.522707 0.124718 0.193432
Si Si7 0.790007 0.374308 0.268388
Si Si8 0.794784 0.384492 0.897953
O O1 0.433566 0.186029 0.608617
O O2 0.396087 0.000697 0.711897
O O3 0.472913 0.009970 0.750716
O O4 0.425050 0.159204 0.903410
O O5 0.609815 0.196091 0.442561
O O6 0.589637 0.384449 0.295436
O O7 0.532620 0.216834 0.330845
O O8 0.555973 0.347410 0.559804
O O9 0.871338 0.500360 0.583573
O O10 0.825764 0.443197 0.354101
O O11 0.395436 0.389561 0.673985
O O12 0.333726 0.537385 0.650955
O O13 0.976134 0.626662 0.860719
O O14 0.792923 0.378236 0.083206
O O15 0.747939 0.435683 0.328687
O O16 0.796722 0.241968 0.321096
#
# Coordination Sequence:
#
# PCOD8229536 Si02
#       8
#     8   8   8   8   8   8   8   8
#     4  11  25  42  61  90 119 168 210 273 315 384
#     4  11  22  37  61  90 122 162 209 261 326 380
#     4  11  23  39  63  91 128 162 216 254 330 385
#     4  12  23  38  62  90 124 169 206 267 314 388
#     4  12  25  42  64  85 126 164 224 266 329 379
#     4  11  24  41  63  89 126 166 214 272 326 389
#     4  11  21  36  58  93 129 172 200 266 312 406
#     4  11  22  35  59  92 134 164 212 251 332 379
#
# _framework density 20.021276
#
# number of rings (size 3 to 8) (size 9 to 14) (size 15 to 20)
#    0.000    0.750    3.750    5.625    3.500    0.000 
#    0.000    3.125    0.000    0.750    0.000    5.250 
#    0.000    0.000    0.000    0.000    0.000    0.000 
#
# Total GULP energy -793608.420045 kJ/mol
# GULP energy per Si atom -12400.131563 kJ/mol
# Density = 1.997571 g / cm^3
# Si number density = 20.021276 Si / 1000 Ang^3
#
#
#
# Elastic Constant Matrix: (Units=GPa)
#
#
# Indices 1 2 3 4 5 6 
#
# 1 116.2440 28.0509 20.4144 0.0000 0.0000 0.0000
# 2 28.0509 91.1692 15.3497 0.0000 0.0000 0.0000
# 3 20.4144 15.3497 71.2478 0.0000 0.0000 0.0000
# 4 0.0000 0.0000 0.0000 34.5175 0.0000 0.0000
# 5 0.0000 0.0000 0.0000 0.0000 24.5924 0.0000
# 6 0.0000 0.0000 0.0000 0.0000 0.0000 22.3661
#
#
#
# Elastic Compliance Matrix: (Units=1/GPa)
#
#
# Indices 1 2 3 4 5 6 
#
# 1 0.009613 -0.002588 -0.002197 0.000000 0.000000 0.000000
# 2 -0.002588 0.012078 -0.001861 0.000000 0.000000 0.000000
# 3 -0.002197 -0.001861 0.015066 0.000000 0.000000 0.000000
# 4 0.000000 0.000000 0.000000 0.028971 0.000000 0.000000
# 5 0.000000 0.000000 0.000000 0.000000 0.040663 0.000000
# 6 0.000000 0.000000 0.000000 0.000000 0.000000 0.044711
#
#
# Mechanical properties :
#
#
# Convention : Reuss Voigt Hill
#
# Bulk Modulus (GPa) = 42.61441 45.14345 43.87893
# Shear Modulus (GPa) = 29.03370 30.61828 29.82599
#
# Velocity S-wave (km/s) = 3.81220 3.91485 3.86387
# Velocity P-wave (km/s) = 6.38028 6.55984 6.47068
#
# Compressibility (1/GPa) = 0.02346624
#
# Stress axis : x y z
#
# Youngs Moduli (GPa) = 104.02737 82.79453 66.37540
#
# Poissons Ratio (x) = 0.21426 0.14581
# Poissons Ratio (y) = 0.26920 0.12350
# Poissons Ratio (z) = 0.22853 0.15405
#
# Static dielectric constant tensor:
#      x y z
#    x 5.957040 0.000000 0.000000 
#    y 0.000000 3.914280 0.000000 
#    z 0.000000 0.000000 3.783700 
# 
# 
# High freq. dielectric constant tensor:
#      x y z
#    x 1.784380 0.000000 0.000000 
#    y 0.000000 1.757580 0.000000 
#    z 0.000000 0.000000 1.799960 
# 
# From -- ./inp_files/5206.got.cif
#   From: 2010.03.12/outbox.cif.g09.slc.cpg/sg56_3_cif.got.tgz:5206.got - 2010.04.16 15:33:40.
