data_PCOD8229111
_publ_section_title
;
Structure prediction by ZEFSAII (Michael W. Deem and Ramdas Pophale) SiO2 
 PCOD8229111
Probable space group: P C C N
;
_chemical_formula_sum "Si O2"
_cell_formula_units_Z 32
_cell_length_a 21.943434
_cell_length_b 5.351531
_cell_length_c 13.159331
_cell_angle_alpha 90.000000
_cell_angle_beta 90.000000
_cell_angle_gamma 90.000000
_cell_volume 1545.312968
_symmetry_space_group_name_H-M "P C C N"
_symmetry_group_IT_number 56
_symmetry_cell_setting 'orthorhombic'
loop_
_space_group_symop_operation_xyz
x,y,z
1/2-x,1/2-y,z
1/2+x,-y,1/2-z
-x,1/2+y,1/2-z
-x,-y,-z
1/2+x,1/2+y,-z
1/2-x,y,1/2+z
x,1/2-y,1/2+z
loop_
_atom_site_type_symbol
_atom_site_label
_atom_site_fract_x
_atom_site_fract_y
_atom_site_fract_z
Si Si1 0.073022 0.920034 0.205931
Si Si2 0.866079 0.703057 0.454163
Si Si3 0.968427 0.860882 0.592733
Si Si4 0.682693 0.287816 0.389254
O O1 0.130152 0.726022 0.197670
O O2 0.014865 0.830457 0.142515
O O3 0.054977 0.944598 0.322741
O O4 0.093951 0.179173 0.150823
O O5 0.909541 0.715353 0.551805
O O6 0.827223 0.446407 0.467235
O O7 0.823253 0.947678 0.447184
O O8 0.000000 0.000000 0.500000
O O9 0.750000 0.250000 0.341593
#
# Coordination Sequence:
#
# PCOD8229111 Si02
#       4
#     8   8   8   8
#     4  10  25  37  70  93 138 172 216 280 342 393
#     4  10  22  42  66  95 131 174 214 280 328 396
#     4  12  21  42  64 104 134 170 224 277 342 406
#     4  10  22  44  68  91 132 176 223 272 330 392
#
# _framework density 20.70778
#
# number of rings (size 3 to 8) (size 9 to 14) (size 15 to 20)
#    1.500    0.000    2.500    3.000    0.000    2.000 
#    0.000    1.250    5.500    0.000    0.000    0.000 
#    0.000    0.000    0.000    0.000    0.000    0.000 
#
# Total GULP energy -396426.946332 kJ/mol
# GULP energy per Si atom -12388.342073 kJ/mol
# Density = 2.066065 g / cm^3
# Si number density = 20.707780 Si / 1000 Ang^3
#
#
#
# Elastic Constant Matrix: (Units=GPa)
#
#
# Indices 1 2 3 4 5 6 
#
# 1 114.5394 26.7119 24.1217 0.0000 0.0000 0.0000
# 2 26.7119 121.1040 18.7719 0.0000 0.0000 0.0000
# 3 24.1217 18.7719 96.8843 0.0000 0.0000 0.0000
# 4 0.0000 0.0000 0.0000 29.8342 0.0000 0.0000
# 5 0.0000 0.0000 0.0000 0.0000 -29.8435 0.0000
# 6 0.0000 0.0000 0.0000 0.0000 0.0000 31.4079
#
#
#
# Elastic Compliance Matrix: (Units=1/GPa)
#
#
# Indices 1 2 3 4 5 6 
#
# 1 0.009579 -0.001797 -0.002037 0.000000 0.000000 0.000000
# 2 -0.001797 0.008850 -0.001267 0.000000 0.000000 0.000000
# 3 -0.002037 -0.001267 0.011074 0.000000 0.000000 0.000000
# 4 0.000000 0.000000 0.000000 0.033519 0.000000 0.000000
# 5 0.000000 0.000000 0.000000 0.000000 -0.033508 0.000000
# 6 0.000000 0.000000 0.000000 0.000000 0.000000 0.031839
#
#
# Mechanical properties :
#
#
# Convention : Reuss Voigt Hill
#
# Bulk Modulus (GPa) = 51.81099 52.41540 52.11320
# Shear Modulus (GPa) = 64.11212 23.80786 43.95999
#
# Velocity S-wave (km/s) = 5.57024 3.39441 4.61246
# Velocity P-wave (km/s) = 8.15135 6.38197 7.32032
#
# Compressibility (1/GPa) = 0.01930092
#
# Stress axis : x y z
#
# Youngs Moduli (GPa) = 104.39910 112.99186 90.29989
#
# Poissons Ratio (x) = 0.20305 0.18391
# Poissons Ratio (y) = 0.18761 0.11444
# Poissons Ratio (z) = 0.21262 0.14320
#
# Static dielectric constant tensor:
#      x y z
#    x 3.955490 0.000000 0.000000 
#    y 0.000000 3.596710 0.000000 
#    z 0.000000 0.000000 3.786210 
# 
# 
# High freq. dielectric constant tensor:
#      x y z
#    x 1.815330 0.000000 0.000000 
#    y 0.000000 1.815020 0.000000 
#    z 0.000000 0.000000 1.772190 
# 
# From -- ./inp_files/8772.got.cif
#   From: 2010.03.12/outbox.cif.g09.slc.cpg/sg56_5_cif.got.tgz:8772.got - 2010.04.16 15:33:40.
