data_PCOD8229421
_publ_section_title
;
Structure prediction by ZEFSAII (Michael W. Deem and Ramdas Pophale) SiO2 
 PCOD8229421
Probable space group: P C C N
;
_chemical_formula_sum "Si O2"
_cell_formula_units_Z 48
_cell_length_a 19.407727
_cell_length_b 8.683136
_cell_length_c 13.347377
_cell_angle_alpha 90.000000
_cell_angle_beta 90.000000
_cell_angle_gamma 90.000000
_cell_volume 2249.299078
_symmetry_space_group_name_H-M "P C C N"
_symmetry_group_IT_number 56
_symmetry_cell_setting 'orthorhombic'
loop_
_space_group_symop_operation_xyz
x,y,z
1/2-x,1/2-y,z
1/2+x,-y,1/2-z
-x,1/2+y,1/2-z
-x,-y,-z
1/2+x,1/2+y,-z
1/2-x,y,1/2+z
x,1/2-y,1/2+z
loop_
_atom_site_type_symbol
_atom_site_label
_atom_site_fract_x
_atom_site_fract_y
_atom_site_fract_z
Si Si1 0.491001 0.201469 0.383064
Si Si2 0.135291 0.128545 0.468098
Si Si3 0.318561 0.032400 0.169942
Si Si4 0.250000 0.750000 0.568478
Si Si5 0.750000 0.750000 0.173378
Si Si6 0.109630 0.726308 0.965183
Si Si7 0.945631 0.398447 0.719881
O O1 0.424713 0.249035 0.448146
O O2 0.557182 0.206301 0.453511
O O3 0.497039 0.309286 0.284938
O O4 0.483084 0.027698 0.345397
O O5 0.166590 0.151153 0.579192
O O6 0.196875 0.152441 0.391193
O O7 0.104742 0.957507 0.460472
O O8 0.289218 0.124544 0.262236
O O9 0.265617 0.898266 0.137304
O O10 0.391343 0.961255 0.200362
O O11 0.314841 0.785295 0.496940
O O12 0.093453 0.783220 0.854235
#
# Coordination Sequence:
#
# PCOD8229421 Si02
#       7
#     8   8   8   4   4   8   8
#     4  12  25  47  71 103 142 184 236 296 351 423
#     4  11  25  46  71 101 146 181 230 294 349 413
#     4  11  26  45  69 105 138 181 238 282 357 420
#     4  10  24  46  72  98 144 182 226 302 340 426
#     4  12  26  44  72 106 136 192 224 294 348 424
#     4  11  26  44  70 102 140 189 233 292 351 417
#     4  12  26  44  70 107 135 188 241 286 361 421
#
# _framework density 21.339981999999999
#
# number of rings (size 3 to 8) (size 9 to 14) (size 15 to 20)
#    0.000    0.667    5.000    2.500    9.333    2.667 
#    0.000    0.000    0.000    0.000    0.000    0.000 
#    0.000    0.000    0.000    0.000    0.000    0.000 
#
# Total GULP energy -595489.609005 kJ/mol
# GULP energy per Si atom -12406.033521 kJ/mol
# Density = 2.129141 g / cm^3
# Si number density = 21.339982 Si / 1000 Ang^3
#
#
#
# Elastic Constant Matrix: (Units=GPa)
#
#
# Indices 1 2 3 4 5 6 
#
# 1 92.6894 13.5223 40.0845 0.0000 0.0000 0.0000
# 2 13.5223 42.6219 18.7345 0.0000 0.0000 0.0000
# 3 40.0845 18.7345 124.2055 0.0000 0.0000 0.0000
# 4 0.0000 0.0000 0.0000 41.9100 0.0000 0.0000
# 5 0.0000 0.0000 0.0000 0.0000 39.4334 0.0000
# 6 0.0000 0.0000 0.0000 0.0000 0.0000 30.2165
#
#
#
# Elastic Compliance Matrix: (Units=1/GPa)
#
#
# Indices 1 2 3 4 5 6 
#
# 1 0.012763 -0.002398 -0.003757 0.000000 0.000000 0.000000
# 2 -0.002398 0.025579 -0.003084 0.000000 0.000000 0.000000
# 3 -0.003757 -0.003084 0.009729 0.000000 0.000000 0.000000
# 4 0.000000 0.000000 0.000000 0.023861 0.000000 0.000000
# 5 0.000000 0.000000 0.000000 0.000000 0.025359 0.000000
# 6 0.000000 0.000000 0.000000 0.000000 0.000000 0.033095
#
#
# Mechanical properties :
#
#
# Convention : Reuss Voigt Hill
#
# Bulk Modulus (GPa) = 33.79295 44.91105 39.35200
# Shear Modulus (GPa) = 31.50033 34.79034 33.14533
#
# Velocity S-wave (km/s) = 3.84620 4.04206 3.94535
# Velocity P-wave (km/s) = 5.96609 6.54794 6.26377
#
# Compressibility (1/GPa) = 0.02959197
#
# Stress axis : x y z
#
# Youngs Moduli (GPa) = 78.34854 39.09530 102.78527
#
# Poissons Ratio (x) = 0.09374 0.38621
# Poissons Ratio (y) = 0.18786 0.31702
# Poissons Ratio (z) = 0.29439 0.12058
#
# Static dielectric constant tensor:
#      x y z
#    x 3.918780 0.000000 0.000000 
#    y 0.000000 3.894610 0.000000 
#    z 0.000000 0.000000 4.153450 
# 
# 
# High freq. dielectric constant tensor:
#      x y z
#    x 1.845680 0.000000 0.000000 
#    y 0.000000 1.837770 0.000000 
#    z 0.000000 0.000000 1.857870 
# 
# From -- ./inp_files/8887.got.cif
#   From: 2010.03.12/outbox.cif.g09.slc.cpg/sg56_5_cif.got.tgz:8887.got - 2010.04.16 15:33:40.
