data_PCOD8229298
_publ_section_title
;
Structure prediction by ZEFSAII (Michael W. Deem and Ramdas Pophale) SiO2 
 PCOD8229298
Probable space group: P C C N
;
_chemical_formula_sum "Si O2"
_cell_formula_units_Z 40
_cell_length_a 17.709223
_cell_length_b 8.998360
_cell_length_c 10.943324
_cell_angle_alpha 90.000000
_cell_angle_beta 90.000000
_cell_angle_gamma 90.000000
_cell_volume 1743.862057
_symmetry_space_group_name_H-M "P C C N"
_symmetry_group_IT_number 56
_symmetry_cell_setting 'orthorhombic'
loop_
_space_group_symop_operation_xyz
x,y,z
1/2-x,1/2-y,z
1/2+x,-y,1/2-z
-x,1/2+y,1/2-z
-x,-y,-z
1/2+x,1/2+y,-z
1/2-x,y,1/2+z
x,1/2-y,1/2+z
loop_
_atom_site_type_symbol
_atom_site_label
_atom_site_fract_x
_atom_site_fract_y
_atom_site_fract_z
Si Si1 0.596080 0.523413 0.744582
Si Si2 0.682447 0.155905 0.880442
Si Si3 0.872529 0.421554 0.514567
Si Si4 0.268161 0.419289 0.439200
Si Si5 0.957222 0.299442 0.714750
O O1 0.670975 0.559270 0.668147
O O2 0.552046 0.377030 0.697108
O O3 0.538712 0.662272 0.727727
O O4 0.616323 0.506274 0.886884
O O5 0.750000 0.250000 0.812317
O O6 0.610435 0.136446 0.795847
O O7 0.660995 0.256992 0.996648
O O8 0.706235 0.995151 0.932762
O O9 0.811863 0.507988 0.599896
O O10 0.950622 0.392883 0.587607
O O11 0.250000 0.250000 0.468212
#
# Coordination Sequence:
#
# PCOD8229298 Si02
#       5
#     8   8   8   8   8
#     4  11  26  45  67 105 135 183 228 277 356 405
#     4   9  21  42  70  98 128 182 231 275 340 406
#     4  10  23  44  70  90 139 179 226 280 338 413
#     4  11  25  43  69 101 135 173 236 288 332 406
#     4  11  24  43  70  97 142 179 226 284 342 417
#
# _framework density 22.937595999999999
#
# number of rings (size 3 to 8) (size 9 to 14) (size 15 to 20)
#    0.000    1.600    2.000    0.600   11.200    3.200 
#    0.000    0.000    0.000    0.000    0.000    0.000 
#    0.000    0.000    0.000    0.000    0.000    0.000 
#
# Total GULP energy -495712.042536 kJ/mol
# GULP energy per Si atom -12392.801063 kJ/mol
# Density = 2.288539 g / cm^3
# Si number density = 22.937596 Si / 1000 Ang^3
#
#
#
# Elastic Constant Matrix: (Units=GPa)
#
#
# Indices 1 2 3 4 5 6 
#
# 1 114.9719 43.6704 41.2507 0.0000 0.0000 0.0000
# 2 43.6704 142.3073 32.5584 0.0000 0.0000 0.0000
# 3 41.2507 32.5584 68.2571 0.0000 0.0000 0.0000
# 4 0.0000 0.0000 0.0000 18.7060 0.0000 0.0000
# 5 0.0000 0.0000 0.0000 0.0000 28.6599 0.0000
# 6 0.0000 0.0000 0.0000 0.0000 0.0000 44.3286
#
#
#
# Elastic Compliance Matrix: (Units=1/GPa)
#
#
# Indices 1 2 3 4 5 6 
#
# 1 0.011696 -0.002214 -0.006012 0.000000 0.000000 0.000000
# 2 -0.002214 0.008307 -0.002625 0.000000 0.000000 0.000000
# 3 -0.006012 -0.002625 0.019536 0.000000 0.000000 0.000000
# 4 0.000000 0.000000 0.000000 0.053459 0.000000 0.000000
# 5 0.000000 0.000000 0.000000 0.000000 0.034892 0.000000
# 6 0.000000 0.000000 0.000000 0.000000 0.000000 0.022559
#
#
# Mechanical properties :
#
#
# Convention : Reuss Voigt Hill
#
# Bulk Modulus (GPa) = 56.06174 62.27727 59.16951
# Shear Modulus (GPa) = 28.07491 32.20935 30.14213
#
# Velocity S-wave (km/s) = 3.50232 3.75135 3.62897
# Velocity P-wave (km/s) = 6.39133 6.78035 6.58871
#
# Compressibility (1/GPa) = 0.01783748
#
# Stress axis : x y z
#
# Youngs Moduli (GPa) = 85.50113 120.38327 51.18761
#
# Poissons Ratio (x) = 0.26647 0.30776
# Poissons Ratio (y) = 0.18926 0.13435
# Poissons Ratio (z) = 0.51407 0.31596
#
# Static dielectric constant tensor:
#      x y z
#    x 4.311090 0.000000 0.000000 
#    y 0.000000 4.093150 0.000000 
#    z 0.000000 0.000000 3.825530 
# 
# 
# High freq. dielectric constant tensor:
#      x y z
#    x 1.915450 0.000000 0.000000 
#    y 0.000000 1.899780 0.000000 
#    z 0.000000 0.000000 1.891520 
# 
# From -- ./inp_files/8180.got.cif
#   From: 2010.03.12/outbox.cif.g09.slc.cpg/sg56_5_cif.got.tgz:8180.got - 2010.04.16 15:33:40.
