data_PCOD8229200
_publ_section_title
;
Structure prediction by ZEFSAII (Michael W. Deem and Ramdas Pophale) SiO2 
 PCOD8229200
Probable space group: P C C N
;
_chemical_formula_sum "Si O2"
_cell_formula_units_Z 56
_cell_length_a 19.989876
_cell_length_b 17.752440
_cell_length_c 9.437706
_cell_angle_alpha 90.000000
_cell_angle_beta 90.000000
_cell_angle_gamma 90.000000
_cell_volume 3349.149992
_symmetry_space_group_name_H-M "P C C N"
_symmetry_group_IT_number 56
_symmetry_cell_setting 'orthorhombic'
loop_
_space_group_symop_operation_xyz
x,y,z
1/2-x,1/2-y,z
1/2+x,-y,1/2-z
-x,1/2+y,1/2-z
-x,-y,-z
1/2+x,1/2+y,-z
1/2-x,y,1/2+z
x,1/2-y,1/2+z
loop_
_atom_site_type_symbol
_atom_site_label
_atom_site_fract_x
_atom_site_fract_y
_atom_site_fract_z
Si Si1 0.502768 0.492212 0.831239
Si Si2 0.571356 0.727214 0.536426
Si Si3 0.110076 0.067465 0.358607
Si Si4 0.881488 0.963547 0.331506
Si Si5 0.797583 0.685278 0.485082
Si Si6 0.251842 0.410987 0.766752
Si Si7 0.469720 0.162709 0.234473
O O1 0.558829 0.545848 0.765587
O O2 0.429569 0.515896 0.766747
O O3 0.519287 0.405851 0.780975
O O4 0.500000 0.500000 0.000000
O O5 0.606253 0.656924 0.614573
O O6 0.627053 0.783108 0.469125
O O7 0.516660 0.701268 0.418416
O O8 0.527811 0.773508 0.647965
O O9 0.097016 0.022227 0.504930
O O10 0.184434 0.045376 0.308923
O O11 0.801828 0.972218 0.307689
O O12 0.896070 0.875280 0.289347
O O13 0.750000 0.750000 0.544468
O O14 0.792541 0.617174 0.596064
O O15 0.769281 0.657449 0.334994
#
# Coordination Sequence:
#
# PCOD8229200 Si02
#       7
#     8   8   8   8   8   8   8
#     4  10  23  38  52  68 101 149 186 225 269 318
#     4  11  20  32  50  74 104 142 179 221 259 311
#     4  11  22  34  52  72 104 148 173 227 266 314
#     4   9  20  37  48  72 101 143 182 213 260 315
#     4  12  21  29  41  72 111 141 173 210 254 293
#     4  12  21  32  49  73 106 143 182 214 257 315
#     4   9  21  33  50  71 101 137 179 218 262 312
#
# _framework density 16.720661
#
# number of rings (size 3 to 8) (size 9 to 14) (size 15 to 20)
#    0.857    0.571    4.286    2.571    6.000    0.000 
#    0.000    0.000    0.000    0.000    0.000    0.000 
#    0.000    1.143    0.571    0.000    0.000    0.000 
#
# Total GULP energy -693782.941692 kJ/mol
# GULP energy per Si atom -12388.981102 kJ/mol
# Density = 1.668260 g / cm^3
# Si number density = 16.720661 Si / 1000 Ang^3
#
#
#
# Elastic Constant Matrix: (Units=GPa)
#
#
# Indices 1 2 3 4 5 6 
#
# 1 71.1182 26.9105 39.6975 0.0000 0.0000 0.0000
# 2 26.9105 31.4661 27.8044 0.0000 0.0000 0.0000
# 3 39.6975 27.8044 118.8616 0.0000 0.0000 0.0000
# 4 0.0000 0.0000 0.0000 28.1144 0.0000 0.0000
# 5 0.0000 0.0000 0.0000 0.0000 25.7622 0.0000
# 6 0.0000 0.0000 0.0000 0.0000 0.0000 26.9183
#
#
#
# Elastic Compliance Matrix: (Units=1/GPa)
#
#
# Indices 1 2 3 4 5 6 
#
# 1 0.022018 -0.015546 -0.003717 0.000000 0.000000 0.000000
# 2 -0.015546 0.051037 -0.006747 0.000000 0.000000 0.000000
# 3 -0.003717 -0.006747 0.011233 0.000000 0.000000 0.000000
# 4 0.000000 0.000000 0.000000 0.035569 0.000000 0.000000
# 5 0.000000 0.000000 0.000000 0.000000 0.038817 0.000000
# 6 0.000000 0.000000 0.000000 0.000000 0.000000 0.037149
#
#
# Mechanical properties :
#
#
# Convention : Reuss Voigt Hill
#
# Bulk Modulus (GPa) = 30.98987 45.58564 38.28775
# Shear Modulus (GPa) = 19.33493 24.62787 21.98140
#
# Velocity S-wave (km/s) = 3.40420 3.84200 3.62971
# Velocity P-wave (km/s) = 5.83315 6.85591 6.36511
#
# Compressibility (1/GPa) = 0.03226861
#
# Stress axis : x y z
#
# Youngs Moduli (GPa) = 45.41640 19.59361 89.02502
#
# Poissons Ratio (x) = 0.30460 0.33092
# Poissons Ratio (y) = 0.70605 0.60062
# Poissons Ratio (z) = 0.16882 0.13219
#
# Static dielectric constant tensor:
#      x y z
#    x 2.852600 0.000000 0.000000 
#    y 0.000000 2.733570 0.000000 
#    z 0.000000 0.000000 3.307640 
# 
# 
# High freq. dielectric constant tensor:
#      x y z
#    x 1.608420 0.000000 0.000000 
#    y 0.000000 1.590820 0.000000 
#    z 0.000000 0.000000 1.671510 
# 
# From -- ./inp_files/4540.got.cif
#   From: 2010.03.12/outbox.cif.g09.slc.cpg/sg56_3_cif.got.tgz:4540.got - 2010.04.16 15:33:40.
