data_PCOD8229009
_publ_section_title
;
Structure prediction by ZEFSAII (Michael W. Deem and Ramdas Pophale) SiO2 
 PCOD8229009
Probable space group: P C C N
;
_chemical_formula_sum "Si O2"
_cell_formula_units_Z 60
_cell_length_a 29.172002
_cell_length_b 13.276825
_cell_length_c 8.241130
_cell_angle_alpha 90.000000
_cell_angle_beta 90.000000
_cell_angle_gamma 90.000000
_cell_volume 3191.884961
_symmetry_space_group_name_H-M "P C C N"
_symmetry_group_IT_number 56
_symmetry_cell_setting 'orthorhombic'
loop_
_space_group_symop_operation_xyz
x,y,z
1/2-x,1/2-y,z
1/2+x,-y,1/2-z
-x,1/2+y,1/2-z
-x,-y,-z
1/2+x,1/2+y,-z
1/2-x,y,1/2+z
x,1/2-y,1/2+z
loop_
_atom_site_type_symbol
_atom_site_label
_atom_site_fract_x
_atom_site_fract_y
_atom_site_fract_z
Si Si1 0.250000 0.750000 0.649787
Si Si2 0.110871 0.539948 0.003212
Si Si3 0.936089 0.603566 0.784346
Si Si4 0.055638 0.846354 0.047454
Si Si5 0.389972 0.710323 0.752501
Si Si6 0.539337 0.804432 0.453736
Si Si7 0.970586 0.511174 0.241155
Si Si8 0.312224 0.660693 0.386255
O O1 0.290575 0.694861 0.555056
O O2 0.229062 0.656795 0.755983
O O3 0.109050 0.458622 0.151690
O O4 0.109846 0.652374 0.080269
O O5 0.068210 0.513623 0.890154
O O6 0.159400 0.553631 0.904172
O O7 0.931428 0.639547 0.596909
O O8 0.937328 0.701085 0.900622
O O9 0.979937 0.530056 0.818671
O O10 0.081488 0.810543 0.210081
O O11 0.039560 0.958856 0.085807
O O12 0.085747 0.857583 0.887250
O O13 0.010952 0.776438 0.022256
O O14 0.341751 0.744453 0.821785
O O15 0.531489 0.871389 0.289940
#
# Coordination Sequence:
#
# PCOD8229009 Si02
#       8
#     4   8   8   8   8   8   8   8
#     4  10  22  40  58  84 120 150 176 226 314 360
#     4  12  22  35  54  83 111 153 202 235 286 351
#     4  11  23  37  54  77 115 159 208 257 296 338
#     4  11  19  31  51  76 109 153 206 245 287 335
#     4  12  19  33  52  84 108 148 194 243 284 347
#     4  11  22  38  51  76 114 167 200 260 306 319
#     4  11  22  36  52  78 112 158 211 256 289 335
#     4  11  21  37  58  84 117 153 178 231 292 372
#
# _framework density 18.797668999999999
#
# number of rings (size 3 to 8) (size 9 to 14) (size 15 to 20)
#    0.000    0.800    4.000    6.800    0.000    0.000 
#    0.000    0.000    0.000    0.000    0.000    0.000 
#    0.000   12.800    0.000    0.000    0.000    0.000 
#
# Total GULP energy -743328.355990 kJ/mol
# GULP energy per Si atom -12388.805933 kJ/mol
# Density = 1.875488 g / cm^3
# Si number density = 18.797669 Si / 1000 Ang^3
#
#
#
# Elastic Constant Matrix: (Units=GPa)
#
#
# Indices 1 2 3 4 5 6 
#
# 1 78.8121 33.5280 42.8544 0.0000 0.0000 0.0000
# 2 33.5280 74.3257 25.2751 0.0000 0.0000 0.0000
# 3 42.8544 25.2751 92.7118 0.0000 0.0000 0.0000
# 4 0.0000 0.0000 0.0000 31.1830 0.0000 0.0000
# 5 0.0000 0.0000 0.0000 0.0000 36.7924 0.0000
# 6 0.0000 0.0000 0.0000 0.0000 0.0000 26.2577
#
#
#
# Elastic Compliance Matrix: (Units=1/GPa)
#
#
# Indices 1 2 3 4 5 6 
#
# 1 0.019258 -0.006238 -0.007201 0.000000 0.000000 0.000000
# 2 -0.006238 0.016850 -0.001710 0.000000 0.000000 0.000000
# 3 -0.007201 -0.001710 0.014581 0.000000 0.000000 0.000000
# 4 0.000000 0.000000 0.000000 0.032069 0.000000 0.000000
# 5 0.000000 0.000000 0.000000 0.000000 0.027180 0.000000
# 6 0.000000 0.000000 0.000000 0.000000 0.000000 0.038084
#
#
# Mechanical properties :
#
#
# Convention : Reuss Voigt Hill
#
# Bulk Modulus (GPa) = 49.04387 49.90716 49.47552
# Shear Modulus (GPa) = 27.01008 28.45945 27.73476
#
# Velocity S-wave (km/s) = 3.79474 3.89522 3.84531
# Velocity P-wave (km/s) = 6.73402 6.84380 6.78914
#
# Compressibility (1/GPa) = 0.02038991
#
# Stress axis : x y z
#
# Youngs Moduli (GPa) = 51.92690 59.34748 68.58345
#
# Poissons Ratio (x) = 0.37023 0.49386
# Poissons Ratio (y) = 0.32394 0.11728
# Poissons Ratio (z) = 0.37392 0.10149
#
# Static dielectric constant tensor:
#      x y z
#    x 3.326660 0.000000 0.000000 
#    y 0.000000 3.328980 0.000000 
#    z 0.000000 0.000000 3.709630 
# 
# 
# High freq. dielectric constant tensor:
#      x y z
#    x 1.688600 0.000000 0.000000 
#    y 0.000000 1.704690 0.000000 
#    z 0.000000 0.000000 1.764690 
# 
# From -- ./inp_files/5180.got.cif
#   From: 2010.03.12/outbox.cif.g09.slc.cpg/sg56_3_cif.got.tgz:5180.got - 2010.04.16 15:33:40.
