data_PCOD8229649
_publ_section_title
;
Structure prediction by ZEFSAII (Michael W. Deem and Ramdas Pophale) SiO2 
 PCOD8229649
Probable space group: P C C N
;
_chemical_formula_sum "Si O2"
_cell_formula_units_Z 48
_cell_length_a 17.521253
_cell_length_b 14.592393
_cell_length_c 8.738997
_cell_angle_alpha 90.000000
_cell_angle_beta 90.000000
_cell_angle_gamma 90.000000
_cell_volume 2234.360620
_symmetry_space_group_name_H-M "P C C N"
_symmetry_group_IT_number 56
_symmetry_cell_setting 'orthorhombic'
loop_
_space_group_symop_operation_xyz
x,y,z
1/2-x,1/2-y,z
1/2+x,-y,1/2-z
-x,1/2+y,1/2-z
-x,-y,-z
1/2+x,1/2+y,-z
1/2-x,y,1/2+z
x,1/2-y,1/2+z
loop_
_atom_site_type_symbol
_atom_site_label
_atom_site_fract_x
_atom_site_fract_y
_atom_site_fract_z
Si Si1 0.143383 0.490238 0.549342
Si Si2 0.291064 0.497227 0.387403
Si Si3 0.910571 0.818544 0.115439
Si Si4 0.676143 0.683543 0.425355
Si Si5 0.918327 0.179555 0.893063
Si Si6 0.829571 0.301474 0.101549
O O1 0.200621 0.511754 0.408621
O O2 0.187128 0.474384 0.712051
O O3 0.095438 0.400200 0.508144
O O4 0.085089 0.574145 0.555056
O O5 0.310201 0.414718 0.500834
O O6 0.329126 0.591687 0.448599
O O7 0.850998 0.832562 0.252518
O O8 0.997074 0.806981 0.175394
O O9 0.891146 0.726656 0.024620
O O10 0.750000 0.750000 0.427883
O O11 0.848170 0.200578 0.780379
O O12 0.902155 0.250769 0.028270
O O13 0.750000 0.250000 0.069409
#
# Coordination Sequence:
#
# PCOD8229649 Si02
#       6
#     8   8   8   8   8   8
#     4  11  23  42  66  97 132 170 219 271 327 383
#     4  11  24  41  69 101 127 169 228 273 318 387
#     4  12  25  44  66  97 138 173 218 270 333 389
#     4  12  25  43  68  97 129 177 222 273 320 392
#     4  11  25  43  67 100 134 176 215 270 333 389
#     4  11  23  43  70  98 131 173 222 272 322 391
#
# _framework density 21.482655000000001
#
# number of rings (size 3 to 8) (size 9 to 14) (size 15 to 20)
#    0.000    0.667    3.333    4.500    2.333    1.333 
#    0.000    9.167    0.000    0.000    0.000    0.000 
#    0.000    0.000    0.000    0.000    0.000    0.000 
#
# Total GULP energy -595091.663069 kJ/mol
# GULP energy per Si atom -12397.742981 kJ/mol
# Density = 2.143376 g / cm^3
# Si number density = 21.482655 Si / 1000 Ang^3
#
#
#
# Elastic Constant Matrix: (Units=GPa)
#
#
# Indices 1 2 3 4 5 6 
#
# 1 112.5950 41.1382 31.2042 0.0000 0.0000 0.0000
# 2 41.1382 139.3363 57.0796 0.0000 0.0000 0.0000
# 3 31.2042 57.0796 89.5930 0.0000 0.0000 0.0000
# 4 0.0000 0.0000 0.0000 23.4552 0.0000 0.0000
# 5 0.0000 0.0000 0.0000 0.0000 30.0636 0.0000
# 6 0.0000 0.0000 0.0000 0.0000 0.0000 26.7685
#
#
#
# Elastic Compliance Matrix: (Units=1/GPa)
#
#
# Indices 1 2 3 4 5 6 
#
# 1 0.010273 -0.002121 -0.002227 0.000000 0.000000 0.000000
# 2 -0.002121 0.010149 -0.005727 0.000000 0.000000 0.000000
# 3 -0.002227 -0.005727 0.015586 0.000000 0.000000 0.000000
# 4 0.000000 0.000000 0.000000 0.042634 0.000000 0.000000
# 5 0.000000 0.000000 0.000000 0.000000 0.033263 0.000000
# 6 0.000000 0.000000 0.000000 0.000000 0.000000 0.037357
#
#
# Mechanical properties :
#
#
# Convention : Reuss Voigt Hill
#
# Bulk Modulus (GPa) = 63.05799 66.70759 64.88279
# Shear Modulus (GPa) = 28.62046 30.19761 29.40904
#
# Velocity S-wave (km/s) = 3.65397 3.75330 3.70397
# Velocity P-wave (km/s) = 6.87159 7.06415 6.96854
#
# Compressibility (1/GPa) = 0.01585842
#
# Stress axis : x y z
#
# Youngs Moduli (GPa) = 97.33832 98.52865 64.15961
#
# Poissons Ratio (x) = 0.20897 0.14288
# Poissons Ratio (y) = 0.20645 0.36747
# Poissons Ratio (z) = 0.21676 0.56432
#
# Static dielectric constant tensor:
#      x y z
#    x 3.737450 0.000000 0.000000 
#    y 0.000000 4.148080 0.000000 
#    z 0.000000 0.000000 3.812930 
# 
# 
# High freq. dielectric constant tensor:
#      x y z
#    x 1.834770 0.000000 0.000000 
#    y 0.000000 1.862850 0.000000 
#    z 0.000000 0.000000 1.842880 
# 
# From -- ./inp_files/4002.got.cif
#   From: 2010.03.12/outbox.cif.g09.slc.cpg/sg56_3_cif.got.tgz:4002.got - 2010.04.16 15:33:40.
