data_PCOD8229329
_publ_section_title
;
Structure prediction by ZEFSAII (Michael W. Deem and Ramdas Pophale) SiO2 
 PCOD8229329
Probable space group: P C C N
;
_chemical_formula_sum "Si O2"
_cell_formula_units_Z 60
_cell_length_a 14.759479
_cell_length_b 17.619053
_cell_length_c 10.737055
_cell_angle_alpha 90.000000
_cell_angle_beta 90.000000
_cell_angle_gamma 90.000000
_cell_volume 2792.150138
_symmetry_space_group_name_H-M "P C C N"
_symmetry_group_IT_number 56
_symmetry_cell_setting 'orthorhombic'
loop_
_space_group_symop_operation_xyz
x,y,z
1/2-x,1/2-y,z
1/2+x,-y,1/2-z
-x,1/2+y,1/2-z
-x,-y,-z
1/2+x,1/2+y,-z
1/2-x,y,1/2+z
x,1/2-y,1/2+z
loop_
_atom_site_type_symbol
_atom_site_label
_atom_site_fract_x
_atom_site_fract_y
_atom_site_fract_z
Si Si1 0.440381 0.967852 0.316095
Si Si2 0.420618 0.800105 0.678108
Si Si3 0.220189 0.031159 0.671936
Si Si4 0.641011 0.376335 0.572802
Si Si5 0.109709 0.953106 0.087167
Si Si6 0.250000 0.750000 0.042039
Si Si7 0.675909 0.555891 0.595164
Si Si8 0.003564 0.649312 0.145212
O O1 0.388106 0.982068 0.445195
O O2 0.455307 0.880722 0.276561
O O3 0.381342 0.005362 0.205574
O O4 0.542004 0.000494 0.323739
O O5 0.410840 0.836706 0.813152
O O6 0.430386 0.868429 0.580065
O O7 0.332879 0.754367 0.636426
O O8 0.504627 0.740843 0.664855
O O9 0.258196 0.078995 0.789601
O O10 0.216325 0.077912 0.541669
O O11 0.289313 0.959963 0.645331
O O12 0.731829 0.326051 0.541977
O O13 0.663766 0.464138 0.600510
O O14 0.571107 0.374806 0.462091
O O15 0.589293 0.608307 0.612612
#
# Coordination Sequence:
#
# PCOD8229329 Si02
#       8
#     8   8   8   8   8   4   8   8
#     4  11  24  41  65  95 133 177 221 279 340 406
#     4  11  24  38  59  92 134 175 212 274 341 406
#     4  12  23  39  69 101 134 173 223 285 339 402
#     4  11  22  37  64  92 135 178 215 270 342 420
#     4  11  24  42  63 100 131 175 226 276 343 416
#     4  10  24  36  54  96 138 174 206 266 350 432
#     4  12  24  42  66 101 134 175 235 274 338 407
#     4  11  25  40  62  95 134 181 221 279 320 420
#
# _framework density 21.488817000000001
#
# number of rings (size 3 to 8) (size 9 to 14) (size 15 to 20)
#    0.000    0.800    5.333    1.600    7.467    0.000 
#    0.000    0.000    0.000    0.800    6.933    0.000 
#    0.000    0.000    0.000    0.000    0.000    0.000 
#
# Total GULP energy -743334.282548 kJ/mol
# GULP energy per Si atom -12388.904709 kJ/mol
# Density = 2.143991 g / cm^3
# Si number density = 21.488817 Si / 1000 Ang^3
#
#
#
# Elastic Constant Matrix: (Units=GPa)
#
#
# Indices 1 2 3 4 5 6 
#
# 1 70.8907 31.3171 51.0407 0.0000 0.0000 0.0000
# 2 31.3171 73.3776 24.7211 0.0000 0.0000 0.0000
# 3 51.0407 24.7211 135.3089 0.0000 0.0000 0.0000
# 4 0.0000 0.0000 0.0000 22.5961 0.0000 0.0000
# 5 0.0000 0.0000 0.0000 0.0000 34.3582 0.0000
# 6 0.0000 0.0000 0.0000 0.0000 0.0000 34.2980
#
#
#
# Elastic Compliance Matrix: (Units=1/GPa)
#
#
# Indices 1 2 3 4 5 6 
#
# 1 0.022415 -0.007158 -0.007147 0.000000 0.000000 0.000000
# 2 -0.007158 0.016808 -0.000371 0.000000 0.000000 0.000000
# 3 -0.007147 -0.000371 0.010154 0.000000 0.000000 0.000000
# 4 0.000000 0.000000 0.000000 0.044255 0.000000 0.000000
# 5 0.000000 0.000000 0.000000 0.000000 0.029105 0.000000
# 6 0.000000 0.000000 0.000000 0.000000 0.000000 0.029156
#
#
# Mechanical properties :
#
#
# Convention : Reuss Voigt Hill
#
# Bulk Modulus (GPa) = 49.93916 54.85944 52.39930
# Shear Modulus (GPa) = 26.60694 29.75037 28.17865
#
# Velocity S-wave (km/s) = 3.52259 3.72487 3.62514
# Velocity P-wave (km/s) = 6.31149 6.63960 6.47762
#
# Compressibility (1/GPa) = 0.02002436
#
# Stress axis : x y z
#
# Youngs Moduli (GPa) = 44.61396 59.49493 98.48083
#
# Poissons Ratio (x) = 0.42589 0.70387
# Poissons Ratio (y) = 0.31937 0.03650
# Poissons Ratio (z) = 0.31887 0.02205
#
# Static dielectric constant tensor:
#      x y z
#    x 3.796960 0.000000 0.000000 
#    y 0.000000 3.903110 0.000000 
#    z 0.000000 0.000000 4.340560 
# 
# 
# High freq. dielectric constant tensor:
#      x y z
#    x 1.829870 0.000000 0.000000 
#    y 0.000000 1.807800 0.000000 
#    z 0.000000 0.000000 1.873360 
# 
# From -- ./inp_files/8025.got.cif
#   From: 2010.03.12/outbox.cif.g09.slc.cpg/sg56_5_cif.got.tgz:8025.got - 2010.04.16 15:33:40.
