data_PCOD8229772
_publ_section_title
;
Structure prediction by ZEFSAII (Michael W. Deem and Ramdas Pophale) SiO2 
 PCOD8229772
Probable space group: P C C N
;
_chemical_formula_sum "Si O2"
_cell_formula_units_Z 32
_cell_length_a 5.241832
_cell_length_b 17.139714
_cell_length_c 13.624823
_cell_angle_alpha 90.000000
_cell_angle_beta 90.000000
_cell_angle_gamma 90.000000
_cell_volume 1224.101803
_symmetry_space_group_name_H-M "P C C N"
_symmetry_group_IT_number 56
_symmetry_cell_setting 'orthorhombic'
loop_
_space_group_symop_operation_xyz
x,y,z
1/2-x,1/2-y,z
1/2+x,-y,1/2-z
-x,1/2+y,1/2-z
-x,-y,-z
1/2+x,1/2+y,-z
1/2-x,y,1/2+z
x,1/2-y,1/2+z
loop_
_atom_site_type_symbol
_atom_site_label
_atom_site_fract_x
_atom_site_fract_y
_atom_site_fract_z
Si Si1 0.250000 0.750000 0.068752
Si Si2 0.025148 0.897293 0.759855
Si Si3 0.769561 0.492076 0.402661
Si Si4 0.250000 0.250000 0.808437
Si Si5 0.338026 0.889827 0.936263
O O1 0.493872 0.723815 0.133376
O O2 0.373570 0.813587 0.999096
O O3 0.959834 0.977400 0.819170
O O4 0.815839 0.827945 0.755035
O O5 0.255155 0.864974 0.827011
O O6 0.104206 0.922596 0.650562
O O7 0.865557 0.447692 0.503629
O O8 0.604974 0.566099 0.434961
#
# Coordination Sequence:
#
# PCOD8229772 Si02
#       5
#     4   8   8   4   8
#     4  12  30  52  76 116 160 210 256 324 388 472
#     4  12  26  46  80 111 156 204 262 325 395 464
#     4  11  25  48  75 117 148 204 262 325 391 469
#     4  12  32  50  80 114 164 202 266 322 388 466
#     4  11  27  47  77 110 158 203 260 322 394 466
#
# _framework density 26.141618999999999
#
# number of rings (size 3 to 8) (size 9 to 14) (size 15 to 20)
#    0.000    0.500    5.000    0.750   14.000    0.000 
#    0.000    0.000    0.000    0.000    0.000    0.000 
#    0.000    0.000    0.000    0.000    0.000    0.000 
#
# Total GULP energy -396447.186446 kJ/mol
# GULP energy per Si atom -12388.974576 kJ/mol
# Density = 2.608212 g / cm^3
# Si number density = 26.141619 Si / 1000 Ang^3
#
#
#
# Elastic Constant Matrix: (Units=GPa)
#
#
# Indices 1 2 3 4 5 6 
#
# 1 60.3195 -0.6402 8.1202 0.0000 0.0000 0.0000
# 2 -0.6402 96.2362 48.6366 0.0000 0.0000 0.0000
# 3 8.1202 48.6366 117.8709 0.0000 0.0000 0.0000
# 4 0.0000 0.0000 0.0000 -5.9951 0.0000 0.0000
# 5 0.0000 0.0000 0.0000 0.0000 5.7583 0.0000
# 6 0.0000 0.0000 0.0000 0.0000 0.0000 39.1729
#
#
#
# Elastic Compliance Matrix: (Units=1/GPa)
#
#
# Indices 1 2 3 4 5 6 
#
# 1 0.016792 0.000880 -0.001520 0.000000 0.000000 0.000000
# 2 0.000880 0.013175 -0.005497 0.000000 0.000000 0.000000
# 3 -0.001520 -0.005497 0.010857 0.000000 0.000000 0.000000
# 4 0.000000 0.000000 0.000000 -0.166803 0.000000 0.000000
# 5 0.000000 0.000000 0.000000 0.000000 0.173661 0.000000
# 6 0.000000 0.000000 0.000000 0.000000 0.000000 0.025528
#
#
# Mechanical properties :
#
#
# Convention : Reuss Voigt Hill
#
# Bulk Modulus (GPa) = 35.02614 42.96219 38.99417
# Shear Modulus (GPa) = 52.63111 22.34123 37.48617
#
# Velocity S-wave (km/s) = 4.49186 2.92657 3.79088
# Velocity P-wave (km/s) = 6.35060 5.28108 5.84037
#
# Compressibility (1/GPa) = 0.02855010
#
# Stress axis : x y z
#
# Youngs Moduli (GPa) = 59.55102 75.90093 92.10844
#
# Poissons Ratio (x) = -0.06678 0.13999
# Poissons Ratio (y) = -0.05240 0.50632
# Poissons Ratio (z) = 0.09051 0.41723
#
# Static dielectric constant tensor:
#      x y z
#    x 4.444510 0.000000 0.000000 
#    y 0.000000 4.900590 0.000000 
#    z 0.000000 0.000000 5.308460 
# 
# 
# High freq. dielectric constant tensor:
#      x y z
#    x 2.027540 0.000000 0.000000 
#    y 0.000000 2.062260 0.000000 
#    z 0.000000 0.000000 2.075570 
# 
# From -- ./inp_files/9399.got.cif
#   From: 2010.03.12/outbox.cif.g09.slc.cpg/sg56_5_cif.got.tgz:9399.got - 2010.04.16 15:33:40.
