data_PCOD8229724
_publ_section_title
;
Structure prediction by ZEFSAII (Michael W. Deem and Ramdas Pophale) SiO2 
 PCOD8229724
Probable space group: P C C N
;
_chemical_formula_sum "Si O2"
_cell_formula_units_Z 64
_cell_length_a 29.446447
_cell_length_b 11.631790
_cell_length_c 8.653996
_cell_angle_alpha 90.000000
_cell_angle_beta 90.000000
_cell_angle_gamma 90.000000
_cell_volume 2964.122469
_symmetry_space_group_name_H-M "P C C N"
_symmetry_group_IT_number 56
_symmetry_cell_setting 'orthorhombic'
loop_
_space_group_symop_operation_xyz
x,y,z
1/2-x,1/2-y,z
1/2+x,-y,1/2-z
-x,1/2+y,1/2-z
-x,-y,-z
1/2+x,1/2+y,-z
1/2-x,y,1/2+z
x,1/2-y,1/2+z
loop_
_atom_site_type_symbol
_atom_site_label
_atom_site_fract_x
_atom_site_fract_y
_atom_site_fract_z
Si Si1 0.790449 0.046381 0.440487
Si Si2 0.876280 0.835191 0.700679
Si Si3 0.093468 0.768912 0.285787
Si Si4 0.949292 0.459932 0.670894
Si Si5 0.804458 0.487051 0.299331
Si Si6 0.873722 0.903662 0.347535
Si Si7 0.658813 0.237024 0.453967
Si Si8 0.447370 0.003162 0.683612
O O1 0.742792 0.993917 0.387582
O O2 0.793957 0.044368 0.624185
O O3 0.798958 0.181597 0.403647
O O4 0.827777 0.976692 0.344343
O O5 0.878757 0.855300 0.518844
O O6 0.869748 0.700497 0.727357
O O7 0.835547 0.899599 0.792388
O O8 0.924603 0.878058 0.764202
O O9 0.054905 0.678888 0.335163
O O10 0.109290 0.730188 0.115516
O O11 0.143505 0.756460 0.368730
O O12 0.074524 0.898905 0.283284
O O13 0.915386 0.516567 0.794458
O O14 0.938186 0.499003 0.498337
O O15 0.999544 0.494655 0.722526
O O16 0.830790 0.392540 0.401347
#
# Coordination Sequence:
#
# PCOD8229724 Si02
#       8
#     8   8   8   8   8   8   8   8
#     4  11  25  41  64  98 131 172 222 272 337 402
#     4  11  24  46  66  94 131 176 223 278 332 399
#     4  12  22  42  69  95 136 179 215 280 340 399
#     4  11  25  43  68  99 133 180 224 280 339 404
#     4  11  25  42  65  97 132 172 219 278 332 406
#     4  11  25  45  68  93 131 175 225 275 336 400
#     4  12  22  41  67  96 135 172 219 268 341 400
#     4  11  25  44  66 100 137 173 230 277 339 404
#
# _framework density 21.591552
#
# number of rings (size 3 to 8) (size 9 to 14) (size 15 to 20)
#    0.000    0.750    5.000    1.875    3.500    4.000 
#    0.000    2.500    0.000    0.000    0.000    0.000 
#    0.000    0.000    0.000    0.000    0.000    0.000 
#
# Total GULP energy -793209.683541 kJ/mol
# GULP energy per Si atom -12393.901305 kJ/mol
# Density = 2.154241 g / cm^3
# Si number density = 21.591552 Si / 1000 Ang^3
#
#
#
# Elastic Constant Matrix: (Units=GPa)
#
#
# Indices 1 2 3 4 5 6 
#
# 1 126.9483 37.8160 48.3172 0.0000 0.0000 0.0000
# 2 37.8160 96.2928 25.8808 0.0000 0.0000 0.0000
# 3 48.3172 25.8808 51.0733 0.0000 0.0000 0.0000
# 4 0.0000 0.0000 0.0000 35.3430 0.0000 0.0000
# 5 0.0000 0.0000 0.0000 0.0000 36.5508 0.0000
# 6 0.0000 0.0000 0.0000 0.0000 0.0000 23.6188
#
#
#
# Elastic Compliance Matrix: (Units=1/GPa)
#
#
# Indices 1 2 3 4 5 6 
#
# 1 0.012642 -0.002026 -0.010933 0.000000 0.000000 0.000000
# 2 -0.002026 0.012347 -0.004340 0.000000 0.000000 0.000000
# 3 -0.010933 -0.004340 0.032122 0.000000 0.000000 0.000000
# 4 0.000000 0.000000 0.000000 0.028294 0.000000 0.000000
# 5 0.000000 0.000000 0.000000 0.000000 0.027359 0.000000
# 6 0.000000 0.000000 0.000000 0.000000 0.000000 0.042339
#
#
# Mechanical properties :
#
#
# Convention : Reuss Voigt Hill
#
# Bulk Modulus (GPa) = 44.41917 55.37138 49.89527
# Shear Modulus (GPa) = 25.35421 29.92256 27.63839
#
# Velocity S-wave (km/s) = 3.43047 3.72673 3.58167
# Velocity P-wave (km/s) = 6.02561 6.64971 6.34534
#
# Compressibility (1/GPa) = 0.02251280
#
# Stress axis : x y z
#
# Youngs Moduli (GPa) = 79.10163 80.99012 31.13143
#
# Poissons Ratio (x) = 0.16411 0.34036
# Poissons Ratio (y) = 0.16028 0.13511
# Poissons Ratio (z) = 0.86482 0.35149
#
# Static dielectric constant tensor:
#      x y z
#    x 3.986720 0.000000 0.000000 
#    y 0.000000 3.851130 0.000000 
#    z 0.000000 0.000000 3.955150 
# 
# 
# High freq. dielectric constant tensor:
#      x y z
#    x 1.848040 0.000000 0.000000 
#    y 0.000000 1.843980 0.000000 
#    z 0.000000 0.000000 1.862810 
# 
# From -- ./inp_files/5217.got.cif
#   From: 2010.03.12/outbox.cif.g09.slc.cpg/sg56_3_cif.got.tgz:5217.got - 2010.04.16 15:33:40.
