data_PCOD8229582
_publ_section_title
;
Structure prediction by ZEFSAII (Michael W. Deem and Ramdas Pophale) SiO2 
 PCOD8229582
Probable space group: P C C N
;
_chemical_formula_sum "Si O2"
_cell_formula_units_Z 60
_cell_length_a 23.191821
_cell_length_b 8.231794
_cell_length_c 13.724031
_cell_angle_alpha 90.000000
_cell_angle_beta 90.000000
_cell_angle_gamma 90.000000
_cell_volume 2620.058779
_symmetry_space_group_name_H-M "P C C N"
_symmetry_group_IT_number 56
_symmetry_cell_setting 'orthorhombic'
loop_
_space_group_symop_operation_xyz
x,y,z
1/2-x,1/2-y,z
1/2+x,-y,1/2-z
-x,1/2+y,1/2-z
-x,-y,-z
1/2+x,1/2+y,-z
1/2-x,y,1/2+z
x,1/2-y,1/2+z
loop_
_atom_site_type_symbol
_atom_site_label
_atom_site_fract_x
_atom_site_fract_y
_atom_site_fract_z
Si Si1 0.541379 0.133189 0.757225
Si Si2 0.218085 0.413693 0.048979
Si Si3 0.150475 0.371739 0.857112
Si Si4 0.250000 0.750000 0.607807
Si Si5 0.029040 0.151126 0.443307
Si Si6 0.057802 0.399406 0.603476
Si Si7 0.635953 0.365458 0.799454
Si Si8 0.372692 0.364764 0.702861
O O1 0.507319 0.201959 0.849937
O O2 0.499325 0.103541 0.667902
O O3 0.593807 0.254667 0.732239
O O4 0.568284 0.960932 0.783752
O O5 0.250000 0.250000 0.085497
O O6 0.253813 0.582771 0.044405
O O7 0.171741 0.456660 0.132812
O O8 0.198081 0.378555 0.939954
O O9 0.090256 0.414359 0.907982
O O10 0.162704 0.499215 0.771363
O O11 0.152424 0.191346 0.808235
O O12 0.190094 0.743763 0.667814
O O13 0.037421 0.324379 0.500042
O O14 0.000000 0.000000 0.500000
O O15 0.093988 0.570004 0.610605
O O16 0.109162 0.292029 0.643916
#
# Coordination Sequence:
#
# PCOD8229582 Si02
#       8
#     8   8   8   4   8   8   8   8
#     4  12  22  43  68 105 145 188 233 303 372 441
#     4  12  26  51  79 103 143 196 248 314 372 437
#     4  11  25  44  71 105 137 192 245 297 373 445
#     4  12  28  50  76 106 146 202 252 314 374 448
#     4  12  22  38  70 102 144 185 239 294 365 446
#     4  11  22  39  69 106 141 189 241 296 370 448
#     4  11  25  46  70 102 151 188 245 312 374 446
#     4  11  22  45  69 100 143 185 241 296 372 439
#
# _framework density 22.900248999999999
#
# number of rings (size 3 to 8) (size 9 to 14) (size 15 to 20)
#    0.000    0.533    6.667    3.200    0.000    2.667 
#    2.400    0.000    0.000    0.000    0.000    0.000 
#    0.000    0.000    0.000    0.000    0.000    0.000 
#
# Total GULP energy -743309.737026 kJ/mol
# GULP energy per Si atom -12388.495617 kJ/mol
# Density = 2.284813 g / cm^3
# Si number density = 22.900249 Si / 1000 Ang^3
#
#
#
# Elastic Constant Matrix: (Units=GPa)
#
#
# Indices 1 2 3 4 5 6 
#
# 1 98.3164 33.8178 29.5272 0.0000 0.0000 0.0000
# 2 33.8178 73.0527 12.4064 0.0000 0.0000 0.0000
# 3 29.5272 12.4064 94.4809 0.0000 0.0000 0.0000
# 4 0.0000 0.0000 0.0000 29.2282 0.0000 0.0000
# 5 0.0000 0.0000 0.0000 0.0000 32.2407 0.0000
# 6 0.0000 0.0000 0.0000 0.0000 0.0000 36.2433
#
#
#
# Elastic Compliance Matrix: (Units=1/GPa)
#
#
# Indices 1 2 3 4 5 6 
#
# 1 0.013065 -0.005477 -0.003364 0.000000 0.000000 0.000000
# 2 -0.005477 0.016297 -0.000428 0.000000 0.000000 0.000000
# 3 -0.003364 -0.000428 0.011692 0.000000 0.000000 0.000000
# 4 0.000000 0.000000 0.000000 0.034214 0.000000 0.000000
# 5 0.000000 0.000000 0.000000 0.000000 0.031017 0.000000
# 6 0.000000 0.000000 0.000000 0.000000 0.000000 0.027591
#
#
# Mechanical properties :
#
#
# Convention : Reuss Voigt Hill
#
# Bulk Modulus (GPa) = 44.41395 46.37253 45.39324
# Shear Modulus (GPa) = 31.26574 32.21568 31.74071
#
# Velocity S-wave (km/s) = 3.69901 3.75478 3.72700
# Velocity P-wave (km/s) = 6.13842 6.25233 6.19563
#
# Compressibility (1/GPa) = 0.02251545
#
# Stress axis : x y z
#
# Youngs Moduli (GPa) = 76.53765 61.36136 85.53059
#
# Poissons Ratio (x) = 0.33608 0.28773
# Poissons Ratio (y) = 0.41920 0.03663
# Poissons Ratio (z) = 0.25747 0.02628
#
# Static dielectric constant tensor:
#      x y z
#    x 4.128800 0.000000 0.000000 
#    y 0.000000 3.942750 0.000000 
#    z 0.000000 0.000000 4.805800 
# 
# 
# High freq. dielectric constant tensor:
#      x y z
#    x 1.908410 0.000000 0.000000 
#    y 0.000000 1.917570 0.000000 
#    z 0.000000 0.000000 1.885080 
# 
# From -- ./inp_files/13252.got.cif
#   From: 2010.03.12/outbox.cif.g09.slc.cpg/sg56_7_cif.got.tgz:13252.got - 2010.04.16 15:33:40.
