data_PCOD8229223
_publ_section_title
;
Structure prediction by ZEFSAII (Michael W. Deem and Ramdas Pophale) SiO2 
 PCOD8229223
Probable space group: P C C N
;
_chemical_formula_sum "Si O2"
_cell_formula_units_Z 32
_cell_length_a 10.833515
_cell_length_b 20.272816
_cell_length_c 5.355785
_cell_angle_alpha 90.000000
_cell_angle_beta 90.000000
_cell_angle_gamma 90.000000
_cell_volume 1176.268866
_symmetry_space_group_name_H-M "P C C N"
_symmetry_group_IT_number 56
_symmetry_cell_setting 'orthorhombic'
loop_
_space_group_symop_operation_xyz
x,y,z
1/2-x,1/2-y,z
1/2+x,-y,1/2-z
-x,1/2+y,1/2-z
-x,-y,-z
1/2+x,1/2+y,-z
1/2-x,y,1/2+z
x,1/2-y,1/2+z
loop_
_atom_site_type_symbol
_atom_site_label
_atom_site_fract_x
_atom_site_fract_y
_atom_site_fract_z
Si Si1 0.387459 0.276274 0.803320
Si Si2 0.302549 0.675177 0.659612
Si Si3 0.173425 0.993764 0.349484
Si Si4 0.473443 0.107130 0.027777
O O1 0.250000 0.250000 0.854644
O O2 0.453537 0.263400 0.071593
O O3 0.393109 0.353672 0.735589
O O4 0.250000 0.750000 0.670790
O O5 0.240580 0.639863 0.415710
O O6 0.448545 0.662493 0.628054
O O7 0.234244 0.982374 0.621891
O O8 0.118710 0.068343 0.342678
O O9 0.059249 0.943787 0.323087
#
# Coordination Sequence:
#
# PCOD8229223 Si02
#       4
#     8   8   8   8
#     4  10  25  42  67 106 139 184 226 285 353 423
#     4  10  23  40  63  98 138 179 224 277 336 421
#     4  11  28  49  74 104 138 187 243 298 338 418
#     4  11  26  46  76 102 144 189 232 289 363 405
#
# _framework density 27.204664999999999
#
# number of rings (size 3 to 8) (size 9 to 14) (size 15 to 20)
#    0.000    1.500    0.000    1.500   14.000    8.000 
#    0.000    0.000    0.000    0.000    0.000    0.000 
#    0.000    0.000    0.000    0.000    0.000    0.000 
#
# Total GULP energy -396458.523581 kJ/mol
# GULP energy per Si atom -12389.328862 kJ/mol
# Density = 2.714275 g / cm^3
# Si number density = 27.204665 Si / 1000 Ang^3
#
#
#
# Elastic Constant Matrix: (Units=GPa)
#
#
# Indices 1 2 3 4 5 6 
#
# 1 70.2412 36.7574 22.2575 0.0000 0.0000 0.0000
# 2 36.7574 106.9029 24.8067 0.0000 0.0000 0.0000
# 3 22.2575 24.8067 186.1295 0.0000 0.0000 0.0000
# 4 0.0000 0.0000 0.0000 28.3761 0.0000 0.0000
# 5 0.0000 0.0000 0.0000 0.0000 40.8672 0.0000
# 6 0.0000 0.0000 0.0000 0.0000 0.0000 72.4466
#
#
#
# Elastic Compliance Matrix: (Units=1/GPa)
#
#
# Indices 1 2 3 4 5 6 
#
# 1 0.017681 -0.005767 -0.001346 0.000000 0.000000 0.000000
# 2 -0.005767 0.011534 -0.000848 0.000000 0.000000 0.000000
# 3 -0.001346 -0.000848 0.005646 0.000000 0.000000 0.000000
# 4 0.000000 0.000000 0.000000 0.035241 0.000000 0.000000
# 5 0.000000 0.000000 0.000000 0.000000 0.024470 0.000000
# 6 0.000000 0.000000 0.000000 0.000000 0.000000 0.013803
#
#
# Mechanical properties :
#
#
# Convention : Reuss Voigt Hill
#
# Bulk Modulus (GPa) = 52.79655 58.99076 55.89365
# Shear Modulus (GPa) = 38.28204 46.96811 42.62507
#
# Velocity S-wave (km/s) = 3.75532 4.15959 3.96261
# Velocity P-wave (km/s) = 6.18486 6.69334 6.44412
#
# Compressibility (1/GPa) = 0.01894063
#
# Stress axis : x y z
#
# Youngs Moduli (GPa) = 56.55769 86.70062 177.10147
#
# Poissons Ratio (x) = 0.50002 0.23832
# Poissons Ratio (y) = 0.32618 0.15010
# Poissons Ratio (z) = 0.07611 0.07348
#
# Static dielectric constant tensor:
#      x y z
#    x 4.676630 0.000000 0.000000 
#    y 0.000000 5.555270 0.000000 
#    z 0.000000 0.000000 5.730560 
# 
# 
# High freq. dielectric constant tensor:
#      x y z
#    x 2.085390 0.000000 0.000000 
#    y 0.000000 2.110520 0.000000 
#    z 0.000000 0.000000 2.101300 
# 
# From -- ./inp_files/218.got.cif
#   From: 2010.03.12/outbox.cif.g09.slc.cpg/sg56_1_cif.got.tgz:218.got - 2010.04.16 15:33:40.
