data_PCOD8229840
_publ_section_title
;
Structure prediction by ZEFSAII (Michael W. Deem and Ramdas Pophale) SiO2 
 PCOD8229840
Probable space group: P C C N
;
_chemical_formula_sum "Si O2"
_cell_formula_units_Z 24
_cell_length_a 5.829239
_cell_length_b 15.019174
_cell_length_c 9.689675
_cell_angle_alpha 90.000000
_cell_angle_beta 90.000000
_cell_angle_gamma 90.000000
_cell_volume 848.334484
_symmetry_space_group_name_H-M "P C C N"
_symmetry_group_IT_number 56
_symmetry_cell_setting 'orthorhombic'
loop_
_space_group_symop_operation_xyz
x,y,z
1/2-x,1/2-y,z
1/2+x,-y,1/2-z
-x,1/2+y,1/2-z
-x,-y,-z
1/2+x,1/2+y,-z
1/2-x,y,1/2+z
x,1/2-y,1/2+z
loop_
_atom_site_type_symbol
_atom_site_label
_atom_site_fract_x
_atom_site_fract_y
_atom_site_fract_z
Si Si1 0.658018 0.460594 0.885053
Si Si2 0.694199 0.858815 0.769951
Si Si3 0.465411 0.684651 0.543980
O O1 0.712689 0.539873 0.780271
O O2 0.540269 0.373056 0.815215
O O3 0.883549 0.418158 0.954449
O O4 0.500000 0.500000 0.000000
O O5 0.888193 0.799795 0.686538
O O6 0.643198 0.810890 0.915698
O O7 0.250000 0.750000 0.523422
#
# Coordination Sequence:
#
# PCOD8229840 Si02
#       3
#     8   8   8
#     4  12  24  49  86 125 162 218 281 342 419 514
#     4  12  25  52  86 121 170 221 282 344 427 511
#     4  12  30  53  82 127 171 220 282 359 428 499
#
# _framework density 28.290727
#
# number of rings (size 3 to 8) (size 9 to 14) (size 15 to 20)
#    0.000    0.000    6.667    3.000    0.000    2.667 
#    6.000    1.667    0.000    0.000    0.000    0.000 
#    0.000    0.000    0.000    0.000    0.000    0.000 
#
# Total GULP energy -297591.718474 kJ/mol
# GULP energy per Si atom -12399.654936 kJ/mol
# Density = 2.822634 g / cm^3
# Si number density = 28.290727 Si / 1000 Ang^3
#
#
#
# Elastic Constant Matrix: (Units=GPa)
#
#
# Indices 1 2 3 4 5 6 
#
# 1 137.8414 69.0196 77.6138 0.0000 0.0000 0.0000
# 2 69.0196 129.3925 34.0259 0.0000 0.0000 0.0000
# 3 77.6138 34.0259 188.4601 0.0000 0.0000 0.0000
# 4 0.0000 0.0000 0.0000 24.3118 0.0000 0.0000
# 5 0.0000 0.0000 0.0000 0.0000 54.9977 0.0000
# 6 0.0000 0.0000 0.0000 0.0000 0.0000 97.4356
#
#
#
# Elastic Compliance Matrix: (Units=1/GPa)
#
#
# Indices 1 2 3 4 5 6 
#
# 1 0.012296 -0.005488 -0.004073 0.000000 0.000000 0.000000
# 2 -0.005488 0.010563 0.000353 0.000000 0.000000 0.000000
# 3 -0.004073 0.000353 0.006920 0.000000 0.000000 0.000000
# 4 0.000000 0.000000 0.000000 0.041132 0.000000 0.000000
# 5 0.000000 0.000000 0.000000 0.000000 0.018183 0.000000
# 6 0.000000 0.000000 0.000000 0.000000 0.000000 0.010263
#
#
# Mechanical properties :
#
#
# Convention : Reuss Voigt Hill
#
# Bulk Modulus (GPa) = 88.00560 90.77917 89.39238
# Shear Modulus (GPa) = 41.13198 53.68467 47.40833
#
# Velocity S-wave (km/s) = 3.81715 4.36088 4.09804
# Velocity P-wave (km/s) = 7.11355 7.58380 7.35243
#
# Compressibility (1/GPa) = 0.01136291
#
# Stress axis : x y z
#
# Youngs Moduli (GPa) = 81.32793 94.67159 144.51173
#
# Poissons Ratio (x) = 0.51953 0.58860
# Poissons Ratio (y) = 0.44630 -0.05100
# Poissons Ratio (z) = 0.33125 -0.03341
#
# Static dielectric constant tensor:
#      x y z
#    x 4.958280 0.000000 0.000000 
#    y 0.000000 4.994930 0.000000 
#    z 0.000000 0.000000 4.674260 
# 
# 
# High freq. dielectric constant tensor:
#      x y z
#    x 2.162270 0.000000 0.000000 
#    y 0.000000 2.188190 0.000000 
#    z 0.000000 0.000000 2.137460 
# 
# From -- ./inp_files/5338.got.cif
#   From: 2010.03.12/outbox.cif.g09.slc.cpg/sg56_3_cif.got.tgz:5338.got - 2010.04.16 15:33:40.
