data_PCOD8229734
_publ_section_title
;
Structure prediction by ZEFSAII (Michael W. Deem and Ramdas Pophale) SiO2 
 PCOD8229734
Probable space group: P C C N
;
_chemical_formula_sum "Si O2"
_cell_formula_units_Z 56
_cell_length_a 9.158603
_cell_length_b 20.842359
_cell_length_c 14.062890
_cell_angle_alpha 90.000000
_cell_angle_beta 90.000000
_cell_angle_gamma 90.000000
_cell_volume 2684.421360
_symmetry_space_group_name_H-M "P C C N"
_symmetry_group_IT_number 56
_symmetry_cell_setting 'orthorhombic'
loop_
_space_group_symop_operation_xyz
x,y,z
1/2-x,1/2-y,z
1/2+x,-y,1/2-z
-x,1/2+y,1/2-z
-x,-y,-z
1/2+x,1/2+y,-z
1/2-x,y,1/2+z
x,1/2-y,1/2+z
loop_
_atom_site_type_symbol
_atom_site_label
_atom_site_fract_x
_atom_site_fract_y
_atom_site_fract_z
Si Si1 0.140787 0.970880 0.049813
Si Si2 0.972062 0.391524 0.271509
Si Si3 0.774822 0.130203 0.592180
Si Si4 0.481738 0.181824 0.668923
Si Si5 0.721738 0.592947 0.368944
Si Si6 0.583430 0.754643 0.665006
Si Si7 0.047136 0.203097 0.540235
O O1 0.083550 0.934322 0.142560
O O2 0.254738 0.025320 0.080382
O O3 0.233384 0.927744 0.977403
O O4 0.000000 0.000000 0.000000
O O5 0.848836 0.393377 0.189919
O O6 0.121576 0.417903 0.224357
O O7 0.004896 0.321476 0.312966
O O8 0.631232 0.169222 0.616329
O O9 0.880074 0.179669 0.537942
O O10 0.378689 0.120336 0.660487
O O11 0.504727 0.198169 0.780327
O O12 0.416257 0.247543 0.624867
O O13 0.648180 0.640795 0.445162
O O14 0.750000 0.750000 0.702222
O O15 0.582575 0.741401 0.554170
#
# Coordination Sequence:
#
# PCOD8229734 Si02
#       7
#     8   8   8   8   8   8   8
#     4  12  28  47  72  99 141 194 239 290 351 417
#     4  11  27  47  70 108 140 182 245 291 353 428
#     4  11  26  48  68 103 141 183 233 295 357 421
#     4  12  21  44  70 103 141 175 224 292 358 413
#     4  11  24  47  71  97 144 186 238 290 342 424
#     4  12  23  41  75 104 137 182 228 286 361 428
#     4  11  25  42  70 106 140 175 233 291 350 435
#
# _framework density 20.861108000000002
#
# number of rings (size 3 to 8) (size 9 to 14) (size 15 to 20)
#    0.000    0.571    5.714    2.571    6.000    2.286 
#    0.000    0.000    0.000    0.000    0.000    0.000 
#    0.000    0.000    0.000    0.000    0.000    0.000 
#
# Total GULP energy -694474.547208 kJ/mol
# GULP energy per Si atom -12401.331200 kJ/mol
# Density = 2.081363 g / cm^3
# Si number density = 20.861108 Si / 1000 Ang^3
#
#
#
# Elastic Constant Matrix: (Units=GPa)
#
#
# Indices 1 2 3 4 5 6 
#
# 1 108.2555 51.6832 44.4068 0.0000 0.0000 0.0000
# 2 51.6832 103.3100 54.5981 0.0000 0.0000 0.0000
# 3 44.4068 54.5981 123.3092 0.0000 0.0000 0.0000
# 4 0.0000 0.0000 0.0000 34.3100 0.0000 0.0000
# 5 0.0000 0.0000 0.0000 0.0000 35.4099 0.0000
# 6 0.0000 0.0000 0.0000 0.0000 0.0000 40.7400
#
#
#
# Elastic Compliance Matrix: (Units=1/GPa)
#
#
# Indices 1 2 3 4 5 6 
#
# 1 0.012609 -0.005102 -0.002282 0.000000 0.000000 0.000000
# 2 -0.005102 0.014701 -0.004672 0.000000 0.000000 0.000000
# 3 -0.002282 -0.004672 0.011000 0.000000 0.000000 0.000000
# 4 0.000000 0.000000 0.000000 0.029146 0.000000 0.000000
# 5 0.000000 0.000000 0.000000 0.000000 0.028241 0.000000
# 6 0.000000 0.000000 0.000000 0.000000 0.000000 0.024546
#
#
# Mechanical properties :
#
#
# Convention : Reuss Voigt Hill
#
# Bulk Modulus (GPa) = 70.42886 70.69456 70.56171
# Shear Modulus (GPa) = 33.53734 34.37110 33.95422
#
# Velocity S-wave (km/s) = 4.01390 4.06349 4.03877
# Velocity P-wave (km/s) = 7.43747 7.48182 7.45968
#
# Compressibility (1/GPa) = 0.01419872
#
# Stress axis : x y z
#
# Youngs Moduli (GPa) = 79.30664 68.02208 90.90908
#
# Poissons Ratio (x) = 0.34706 0.20744
# Poissons Ratio (y) = 0.40464 0.42471
# Poissons Ratio (z) = 0.18096 0.31779
#
# Static dielectric constant tensor:
#      x y z
#    x 3.978010 0.000000 0.000000 
#    y 0.000000 3.773870 0.000000 
#    z 0.000000 0.000000 3.893140 
# 
# 
# High freq. dielectric constant tensor:
#      x y z
#    x 1.828500 0.000000 0.000000 
#    y 0.000000 1.817540 0.000000 
#    z 0.000000 0.000000 1.827450 
# 
# From -- ./inp_files/10854.got.cif
#   From: 2010.03.12/outbox.cif.g09.slc.cpg/sg56_6_cif.got.tgz:10854.got - 2010.04.16 15:33:40.
