data_PCOD8229572
_publ_section_title
;
Structure prediction by ZEFSAII (Michael W. Deem and Ramdas Pophale) SiO2 
 PCOD8229572
Probable space group: P C C N
;
_chemical_formula_sum "Si O2"
_cell_formula_units_Z 32
_cell_length_a 10.491274
_cell_length_b 8.820221
_cell_length_c 13.043274
_cell_angle_alpha 90.000000
_cell_angle_beta 90.000000
_cell_angle_gamma 90.000000
_cell_volume 1206.963993
_symmetry_space_group_name_H-M "P C C N"
_symmetry_group_IT_number 56
_symmetry_cell_setting 'orthorhombic'
loop_
_space_group_symop_operation_xyz
x,y,z
1/2-x,1/2-y,z
1/2+x,-y,1/2-z
-x,1/2+y,1/2-z
-x,-y,-z
1/2+x,1/2+y,-z
1/2-x,y,1/2+z
x,1/2-y,1/2+z
loop_
_atom_site_type_symbol
_atom_site_label
_atom_site_fract_x
_atom_site_fract_y
_atom_site_fract_z
Si Si1 0.744872 0.084327 0.006090
Si Si2 0.414903 0.665886 0.315175
Si Si3 0.037872 0.624685 0.139112
Si Si4 0.608877 0.698825 0.973492
O O1 0.750000 0.250000 0.952070
O O2 0.622244 0.023512 0.942094
O O3 0.715141 0.113678 0.126644
O O4 0.872225 0.984129 0.992960
O O5 0.386474 0.756348 0.211164
O O6 0.481045 0.505953 0.287848
O O7 0.499492 0.773673 0.389840
O O8 0.926682 0.716410 0.079484
O O9 0.750000 0.750000 0.938203
#
# Coordination Sequence:
#
# PCOD8229572 Si02
#       4
#     8   8   8   8
#     4  11  25  45  69  99 139 179 231 286 343 417
#     4  11  25  44  68 102 140 177 231 288 344 415
#     4  11  25  44  68 102 140 177 231 288 344 415
#     4  11  21  47  73  92 133 187 227 276 348 408
#
# _framework density 26.512802000000001
#
# number of rings (size 3 to 8) (size 9 to 14) (size 15 to 20)
#    0.000    1.000    5.000    1.500    7.000    4.000 
#    0.000    0.000    0.000    0.000    0.000    0.000 
#    0.000    0.000    0.000    0.000    0.000    0.000 
#
# Total GULP energy -396448.304923 kJ/mol
# GULP energy per Si atom -12389.009529 kJ/mol
# Density = 2.645246 g / cm^3
# Si number density = 26.512802 Si / 1000 Ang^3
#
#
#
# Elastic Constant Matrix: (Units=GPa)
#
#
# Indices 1 2 3 4 5 6 
#
# 1 83.7225 16.7183 10.4684 0.0000 0.0000 0.0000
# 2 16.7183 151.7246 29.7431 0.0000 0.0000 0.0000
# 3 10.4684 29.7431 85.1297 0.0000 0.0000 0.0000
# 4 0.0000 0.0000 0.0000 43.9536 0.0000 0.0000
# 5 0.0000 0.0000 0.0000 0.0000 30.7387 0.0000
# 6 0.0000 0.0000 0.0000 0.0000 0.0000 51.9666
#
#
#
# Elastic Compliance Matrix: (Units=1/GPa)
#
#
# Indices 1 2 3 4 5 6 
#
# 1 0.012311 -0.001138 -0.001116 0.000000 0.000000 0.000000
# 2 -0.001138 0.007181 -0.002369 0.000000 0.000000 0.000000
# 3 -0.001116 -0.002369 0.012712 0.000000 0.000000 0.000000
# 4 0.000000 0.000000 0.000000 0.022751 0.000000 0.000000
# 5 0.000000 0.000000 0.000000 0.000000 0.032532 0.000000
# 6 0.000000 0.000000 0.000000 0.000000 0.000000 0.019243
#
#
# Mechanical properties :
#
#
# Convention : Reuss Voigt Hill
#
# Bulk Modulus (GPa) = 43.55896 48.27071 45.91483
# Shear Modulus (GPa) = 40.44375 42.90824 41.67599
#
# Velocity S-wave (km/s) = 3.90993 4.02729 3.96905
# Velocity P-wave (km/s) = 6.07029 6.31439 6.19355
#
# Compressibility (1/GPa) = 0.02295739
#
# Stress axis : x y z
#
# Youngs Moduli (GPa) = 81.22823 139.26354 78.66757
#
# Poissons Ratio (x) = 0.15844 0.08782
# Poissons Ratio (y) = 0.09241 0.18636
# Poissons Ratio (z) = 0.09068 0.32990
#
# Static dielectric constant tensor:
#      x y z
#    x 5.223390 0.000000 0.000000 
#    y 0.000000 5.677150 0.000000 
#    z 0.000000 0.000000 4.301510 
# 
# 
# High freq. dielectric constant tensor:
#      x y z
#    x 2.061180 0.000000 0.000000 
#    y 0.000000 2.100190 0.000000 
#    z 0.000000 0.000000 2.035400 
# 
# From -- ./inp_files/10165.got.cif
#   From: 2010.03.12/outbox.cif.g09.slc.cpg/sg56_6_cif.got.tgz:10165.got - 2010.04.16 15:33:40.
