data_PCOD8229961
_publ_section_title
;
Structure prediction by ZEFSAII (Michael W. Deem and Ramdas Pophale) SiO2 
 PCOD8229961
Probable space group: P B C M
;
_chemical_formula_sum "Si O2"
_cell_formula_units_Z 48
_cell_length_a 15.591333
_cell_length_b 19.390926
_cell_length_c 8.704710
_cell_angle_alpha 90.000000
_cell_angle_beta 90.000000
_cell_angle_gamma 90.000000
_cell_volume 2631.698321
_symmetry_space_group_name_H-M "P B C M"
_symmetry_group_IT_number 57
_symmetry_cell_setting 'orthorhombic'
loop_
_space_group_symop_operation_xyz
x,y,z
-x,-y,1/2+z
x,1/2-y,-z
-x,1/2+y,1/2-z
-x,-y,-z
x,y,1/2-z
-x,1/2+y,z
x,1/2-y,1/2+z
loop_
_atom_site_type_symbol
_atom_site_label
_atom_site_fract_x
_atom_site_fract_y
_atom_site_fract_z
Si Si1 0.266962 0.325187 0.069493
Si Si2 0.409048 0.417693 0.572519
Si Si3 0.411651 0.576828 0.929317
Si Si4 0.094455 0.326604 0.568193
Si Si5 0.261369 0.675161 0.570276
Si Si6 0.073210 0.674665 0.929958
O O1 0.254457 0.317692 0.250000
O O2 0.284006 0.250000 0.000000
O O3 0.346985 0.373314 0.033265
O O4 0.181471 0.360900 0.996892
O O5 0.394754 0.398476 0.750000
O O6 0.506169 0.399837 0.526353
O O7 0.388943 0.497465 0.539317
O O8 0.430650 0.589220 0.750000
O O9 0.332079 0.621815 0.991287
O O10 0.092282 0.250000 0.500000
O O11 0.097263 0.326327 0.750000
O O12 0.007175 0.365431 0.510033
O O13 0.276550 0.750000 0.500000
O O14 0.270968 0.685336 0.750000
O O15 0.166955 0.642400 0.533268
O O16 0.054767 0.678362 0.750000
O O17 0.077141 0.750000 0.000000
#
# Coordination Sequence:
#
# PCOD8229961 Si02
#       6
#     8   8   8   8   8   8
#     4  11  21  34  52  75 102 129 162 204 249 295
#     4  10  20  35  54  74  97 129 168 207 249 298
#     4   9  19  36  54  72  98 133 170 205 246 297
#     4  10  17  27  44  68  98 129 161 196 238 287
#     4   9  18  31  49  74 102 131 163 203 245 286
#     4   9  15  25  42  66  96 128 161 195 236 283
#
# _framework density 18.239172
#
# number of rings (size 3 to 8) (size 9 to 14) (size 15 to 20)
#    0.000    2.333    0.000    6.000    0.000    2.667 
#    0.000    1.667    0.000    1.000    0.000    0.000 
#    0.000    0.000    0.000    0.000    0.000    0.000 
#
# Total GULP energy -594924.354271 kJ/mol
# GULP energy per Si atom -12394.257381 kJ/mol
# Density = 1.819766 g / cm^3
# Si number density = 18.239172 Si / 1000 Ang^3
#
#
#
# Elastic Constant Matrix: (Units=GPa)
#
#
# Indices 1 2 3 4 5 6 
#
# 1 159.5953 58.5505 60.2710 0.0000 0.0000 0.0000
# 2 58.5505 49.2857 28.5183 0.0000 0.0000 0.0000
# 3 60.2710 28.5183 113.3726 0.0000 0.0000 0.0000
# 4 0.0000 0.0000 0.0000 19.2110 0.0000 0.0000
# 5 0.0000 0.0000 0.0000 0.0000 32.1552 0.0000
# 6 0.0000 0.0000 0.0000 0.0000 0.0000 1.2745
#
#
#
# Elastic Compliance Matrix: (Units=1/GPa)
#
#
# Indices 1 2 3 4 5 6 
#
# 1 0.012070 -0.012436 -0.003288 0.000000 0.000000 0.000000
# 2 -0.012436 0.036560 -0.002585 0.000000 0.000000 0.000000
# 3 -0.003288 -0.002585 0.011219 0.000000 0.000000 0.000000
# 4 0.000000 0.000000 0.000000 0.052053 0.000000 0.000000
# 5 0.000000 0.000000 0.000000 0.000000 0.031099 0.000000
# 6 0.000000 0.000000 0.000000 0.000000 0.000000 0.784620
#
#
# Mechanical properties :
#
#
# Convention : Reuss Voigt Hill
#
# Bulk Modulus (GPa) = 43.04917 68.54812 55.79865
# Shear Modulus (GPa) = 5.14412 22.18908 13.66660
#
# Velocity S-wave (km/s) = 1.68122 3.49171 2.74030
# Velocity P-wave (km/s) = 5.23665 7.34306 6.37742
#
# Compressibility (1/GPa) = 0.02322925
#
# Stress axis : x y z
#
# Youngs Moduli (GPa) = 82.84825 27.35243 89.13513
#
# Poissons Ratio (x) = 0.34017 0.29312
# Poissons Ratio (y) = 1.03034 0.23041
# Poissons Ratio (z) = 0.27244 0.07071
#
# Static dielectric constant tensor:
#      x y z
#    x 4.512070 0.000000 0.000000 
#    y 0.000000 2.939100 0.000000 
#    z 0.000000 0.000000 3.456320 
# 
# 
# High freq. dielectric constant tensor:
#      x y z
#    x 1.734710 0.000000 0.000000 
#    y 0.000000 1.650150 0.000000 
#    z 0.000000 0.000000 1.718230 
# 
# From -- ./inp_files/4878.got.cif
#   From: 2010.03.12/outbox.cif.g09.slc.cpg/sg57_3_cif.got.tgz:4878.got - 2010.04.16 15:48:40.
