data_PCOD8229267
_publ_section_title
;
Structure prediction by ZEFSAII (Michael W. Deem and Ramdas Pophale) SiO2 
 PCOD8229267
Probable space group: P C C N
;
_chemical_formula_sum "Si O2"
_cell_formula_units_Z 56
_cell_length_a 30.755890
_cell_length_b 5.487264
_cell_length_c 13.502081
_cell_angle_alpha 90.000000
_cell_angle_beta 90.000000
_cell_angle_gamma 90.000000
_cell_volume 2278.687989
_symmetry_space_group_name_H-M "P C C N"
_symmetry_group_IT_number 56
_symmetry_cell_setting 'orthorhombic'
loop_
_space_group_symop_operation_xyz
x,y,z
1/2-x,1/2-y,z
1/2+x,-y,1/2-z
-x,1/2+y,1/2-z
-x,-y,-z
1/2+x,1/2+y,-z
1/2-x,y,1/2+z
x,1/2-y,1/2+z
loop_
_atom_site_type_symbol
_atom_site_label
_atom_site_fract_x
_atom_site_fract_y
_atom_site_fract_z
Si Si1 0.250000 0.250000 0.217491
Si Si2 0.250000 0.750000 0.095213
Si Si3 0.972374 0.090770 0.353705
Si Si4 0.834704 0.114812 0.504825
Si Si5 0.991166 0.406271 0.631081
Si Si6 0.160816 0.214571 0.319745
Si Si7 0.900164 0.494756 0.539216
Si Si8 0.112528 0.171254 0.631626
O O1 0.255281 0.499889 0.155902
O O2 0.208125 0.300958 0.285411
O O3 0.291347 0.743657 0.022942
O O4 0.997462 0.111014 0.249239
O O5 0.920740 0.045784 0.338162
O O6 0.992329 0.854727 0.412078
O O7 0.981558 0.353418 0.409496
O O8 0.880237 0.254286 0.491173
O O9 0.832187 0.033131 0.619084
O O10 0.842059 0.907747 0.420817
O O11 0.940985 0.441205 0.607103
O O12 0.139559 0.408024 0.393722
O O13 0.127614 0.175516 0.227914
O O14 0.913713 0.666211 0.447688
#
# Coordination Sequence:
#
# PCOD8229267 Si02
#       8
#     4   4   8   8   8   8   8   8
#     4  12  28  50  80 112 148 198 248 306 376 442
#     4  12  28  52  78 114 156 190 256 310 372 448
#     4  10  23  42  72 100 145 192 245 308 369 448
#     4  11  28  45  76 108 151 197 246 317 369 449
#     4  10  23  43  68 106 140 191 248 307 373 439
#     4  11  26  47  75 107 148 199 247 302 378 443
#     4  11  26  44  71 107 148 192 251 309 368 451
#     4  11  24  48  69 107 145 196 248 305 376 445
#
# _framework density 24.575545999999999
#
# number of rings (size 3 to 8) (size 9 to 14) (size 15 to 20)
#    0.000    1.143    2.857    0.857   12.000    3.429 
#    0.000    0.000    0.000    0.000    0.000    0.000 
#    0.000    0.000    0.000    0.000    0.000    0.000 
#
# Total GULP energy -694055.430603 kJ/mol
# GULP energy per Si atom -12393.846975 kJ/mol
# Density = 2.451961 g / cm^3
# Si number density = 24.575546 Si / 1000 Ang^3
#
#
#
# Elastic Constant Matrix: (Units=GPa)
#
#
# Indices 1 2 3 4 5 6 
#
# 1 113.2578 43.3121 30.1710 0.0000 0.0000 0.0000
# 2 43.3121 155.4043 44.4682 0.0000 0.0000 0.0000
# 3 30.1710 44.4682 72.8043 0.0000 0.0000 0.0000
# 4 0.0000 0.0000 0.0000 15.4261 0.0000 0.0000
# 5 0.0000 0.0000 0.0000 0.0000 43.3584 0.0000
# 6 0.0000 0.0000 0.0000 0.0000 0.0000 42.0620
#
#
#
# Elastic Compliance Matrix: (Units=1/GPa)
#
#
# Indices 1 2 3 4 5 6 
#
# 1 0.010425 -0.002023 -0.003085 0.000000 0.000000 0.000000
# 2 -0.002023 0.008190 -0.004164 0.000000 0.000000 0.000000
# 3 -0.003085 -0.004164 0.017557 0.000000 0.000000 0.000000
# 4 0.000000 0.000000 0.000000 0.064825 0.000000 0.000000
# 5 0.000000 0.000000 0.000000 0.000000 0.023064 0.000000
# 6 0.000000 0.000000 0.000000 0.000000 0.000000 0.023774
#
#
# Mechanical properties :
#
#
# Convention : Reuss Voigt Hill
#
# Bulk Modulus (GPa) = 56.72521 64.15211 60.43866
# Shear Modulus (GPa) = 29.02678 35.07032 32.04855
#
# Velocity S-wave (km/s) = 3.44048 3.78172 3.61513
# Velocity P-wave (km/s) = 6.23816 6.72527 6.48629
#
# Compressibility (1/GPa) = 0.01762885
#
# Stress axis : x y z
#
# Youngs Moduli (GPa) = 95.92623 122.09778 56.95661
#
# Poissons Ratio (x) = 0.24698 0.17569
# Poissons Ratio (y) = 0.19404 0.23718
# Poissons Ratio (z) = 0.29590 0.50844
#
# Static dielectric constant tensor:
#      x y z
#    x 4.254090 0.000000 0.000000 
#    y 0.000000 4.539180 0.000000 
#    z 0.000000 0.000000 4.363880 
# 
# 
# High freq. dielectric constant tensor:
#      x y z
#    x 1.986650 0.000000 0.000000 
#    y 0.000000 1.975230 0.000000 
#    z 0.000000 0.000000 1.984970 
# 
# From -- ./inp_files/13498.got.cif
#   From: 2010.03.12/outbox.cif.g09.slc.cpg/sg56_7_cif.got.tgz:13498.got - 2010.04.16 15:33:40.
