data_PCOD8229987
_publ_section_title
;
Structure prediction by ZEFSAII (Michael W. Deem and Ramdas Pophale) SiO2 
 PCOD8229987
Probable space group: P B C M
;
_chemical_formula_sum "Si O2"
_cell_formula_units_Z 64
_cell_length_a 15.653364
_cell_length_b 9.850330
_cell_length_c 24.758624
_cell_angle_alpha 90.000000
_cell_angle_beta 90.000000
_cell_angle_gamma 90.000000
_cell_volume 3817.552066
_symmetry_space_group_name_H-M "P B C M"
_symmetry_group_IT_number 57
_symmetry_cell_setting 'orthorhombic'
loop_
_space_group_symop_operation_xyz
x,y,z
-x,-y,1/2+z
x,1/2-y,-z
-x,1/2+y,1/2-z
-x,-y,-z
x,y,1/2-z
-x,1/2+y,z
x,1/2-y,1/2+z
loop_
_atom_site_type_symbol
_atom_site_label
_atom_site_fract_x
_atom_site_fract_y
_atom_site_fract_z
Si Si1 0.403835 0.792693 0.186275
Si Si2 0.979722 0.966727 0.387474
Si Si3 0.546811 0.592482 0.186643
Si Si4 0.278189 0.297764 0.686978
Si Si5 0.130186 0.487188 0.689060
Si Si6 0.783467 0.251308 0.345460
Si Si7 0.825379 0.544938 0.688807
Si Si8 0.088447 0.768857 0.562023
O O1 0.382155 0.782905 0.250000
O O2 0.462060 0.668121 0.164717
O O3 0.316071 0.790869 0.152664
O O4 0.454341 0.932518 0.173471
O O5 0.046983 0.034696 0.346941
O O6 0.900824 0.914367 0.351643
O O7 0.949591 0.081367 0.429290
O O8 0.018238 0.841297 0.420178
O O9 0.547714 0.620045 0.250000
O O10 0.630974 0.662924 0.160350
O O11 0.283795 0.332729 0.750000
O O12 0.203480 0.392620 0.662934
O O13 0.256062 0.140752 0.675756
O O14 0.106945 0.443257 0.750000
O O15 0.162553 0.641961 0.689501
O O16 0.793781 0.107742 0.316554
O O17 0.822692 0.248734 0.405667
O O18 0.857041 0.571904 0.750000
O O19 0.111862 0.750000 0.500000
#
# Coordination Sequence:
#
# PCOD8229987 Si02
#       8
#     8   8   8   8   8   8   8   8
#     4  10  18  30  45  69 100 127 157 190 226 281
#     4  10  20  32  50  74  95 124 165 197 244 291
#     4   9  18  28  43  65  95 131 161 188 224 270
#     4   9  17  28  41  61  95 136 162 184 222 266
#     4  10  17  29  47  67  99 134 160 192 227 284
#     4  10  20  31  48  69  94 129 167 196 243 289
#     4  10  19  29  43  69 104 133 159 193 229 283
#     4  10  21  37  53  70  92 121 164 214 254 286
#
# _framework density 16.764669999999999
#
# number of rings (size 3 to 8) (size 9 to 14) (size 15 to 20)
#    0.000    2.250    1.250    2.625    1.750    0.000 
#    0.000    3.750    0.000    0.000    0.000    0.875 
#    0.000    0.000    0.000    0.000    0.000    0.000 
#
# Total GULP energy -793526.279010 kJ/mol
# GULP energy per Si atom -12398.848110 kJ/mol
# Density = 1.672651 g / cm^3
# Si number density = 16.764670 Si / 1000 Ang^3
#
#
#
# Elastic Constant Matrix: (Units=GPa)
#
#
# Indices 1 2 3 4 5 6 
#
# 1 86.5327 24.9200 24.4749 0.0000 0.0000 0.0000
# 2 24.9200 88.9703 20.5704 0.0000 0.0000 0.0000
# 3 24.4749 20.5704 63.0626 0.0000 0.0000 0.0000
# 4 0.0000 0.0000 0.0000 14.5995 0.0000 0.0000
# 5 0.0000 0.0000 0.0000 0.0000 11.5036 0.0000
# 6 0.0000 0.0000 0.0000 0.0000 0.0000 31.9130
#
#
#
# Elastic Compliance Matrix: (Units=1/GPa)
#
#
# Indices 1 2 3 4 5 6 
#
# 1 0.013597 -0.002799 -0.004364 0.000000 0.000000 0.000000
# 2 -0.002799 0.012733 -0.003067 0.000000 0.000000 0.000000
# 3 -0.004364 -0.003067 0.018551 0.000000 0.000000 0.000000
# 4 0.000000 0.000000 0.000000 0.068495 0.000000 0.000000
# 5 0.000000 0.000000 0.000000 0.000000 0.086929 0.000000
# 6 0.000000 0.000000 0.000000 0.000000 0.000000 0.031335
#
#
# Mechanical properties :
#
#
# Convention : Reuss Voigt Hill
#
# Bulk Modulus (GPa) = 40.94891 42.05513 41.50202
# Shear Modulus (GPa) = 19.21295 22.84325 21.02810
#
# Velocity S-wave (km/s) = 3.38899 3.69532 3.54547
# Velocity P-wave (km/s) = 6.30812 6.58386 6.44747
#
# Compressibility (1/GPa) = 0.02442067
#
# Stress axis : x y z
#
# Youngs Moduli (GPa) = 73.54683 78.53685 53.90461
#
# Poissons Ratio (x) = 0.21986 0.23523
# Poissons Ratio (y) = 0.20589 0.16532
# Poissons Ratio (z) = 0.32095 0.24086
#
# Static dielectric constant tensor:
#      x y z
#    x 3.269600 0.000000 0.000000 
#    y 0.000000 3.267740 0.000000 
#    z 0.000000 0.000000 2.692960 
# 
# 
# High freq. dielectric constant tensor:
#      x y z
#    x 1.649850 0.000000 0.000000 
#    y 0.000000 1.665570 0.000000 
#    z 0.000000 0.000000 1.582900 
# 
# From -- ./inp_files/27598.got.cif
#   From: 2010.03.12/outbox.cif.g09.slc.cpg/sg57_14_cif.got.tgz:27598.got - 2010.04.16 15:48:40.
