data_PCOD8229218
_publ_section_title
;
Structure prediction by ZEFSAII (Michael W. Deem and Ramdas Pophale) SiO2 
 PCOD8229218
Probable space group: P C C N
;
_chemical_formula_sum "Si O2"
_cell_formula_units_Z 32
_cell_length_a 10.875469
_cell_length_b 14.195763
_cell_length_c 8.771081
_cell_angle_alpha 90.000000
_cell_angle_beta 90.000000
_cell_angle_gamma 90.000000
_cell_volume 1354.128431
_symmetry_space_group_name_H-M "P C C N"
_symmetry_group_IT_number 56
_symmetry_cell_setting 'orthorhombic'
loop_
_space_group_symop_operation_xyz
x,y,z
1/2-x,1/2-y,z
1/2+x,-y,1/2-z
-x,1/2+y,1/2-z
-x,-y,-z
1/2+x,1/2+y,-z
1/2-x,y,1/2+z
x,1/2-y,1/2+z
loop_
_atom_site_type_symbol
_atom_site_label
_atom_site_fract_x
_atom_site_fract_y
_atom_site_fract_z
Si Si1 0.577155 0.172629 0.093362
Si Si2 0.740224 0.109906 0.356732
Si Si3 0.997811 0.376159 0.543331
Si Si4 0.919376 0.968452 0.238968
O O1 0.682965 0.173135 0.222271
O O2 0.497688 0.268393 0.096555
O O3 0.483941 0.086153 0.121145
O O4 0.642473 0.164544 0.928706
O O5 0.638981 0.093879 0.485922
O O6 0.788149 0.008714 0.293446
O O7 0.012737 0.446468 0.687292
O O8 0.094340 0.396194 0.405822
#
# Coordination Sequence:
#
# PCOD8229218 Si02
#       4
#     8   8   8   8
#     4  11  24  38  69 100 135 174 224 276 330 394
#     4  11  22  39  66 103 130 169 222 280 327 385
#     4  10  23  40  66  99 137 169 222 278 326 398
#     4  10  23  40  61 100 137 172 216 279 336 387
#
# _framework density 23.631437999999999
#
# number of rings (size 3 to 8) (size 9 to 14) (size 15 to 20)
#    0.000    1.500    2.500    1.500   10.500    0.000 
#    0.000    0.000    0.000   22.500    0.000    0.000 
#    0.000    0.000    0.000    0.000    0.000    0.000 
#
# Total GULP energy -396577.386699 kJ/mol
# GULP energy per Si atom -12393.043334 kJ/mol
# Density = 2.357765 g / cm^3
# Si number density = 23.631438 Si / 1000 Ang^3
#
#
#
# Elastic Constant Matrix: (Units=GPa)
#
#
# Indices 1 2 3 4 5 6 
#
# 1 28.3532 28.8233 6.8289 0.0000 0.0000 0.0000
# 2 28.8233 167.0172 43.8791 0.0000 0.0000 0.0000
# 3 6.8289 43.8791 56.2054 0.0000 0.0000 0.0000
# 4 0.0000 0.0000 0.0000 46.4860 0.0000 0.0000
# 5 0.0000 0.0000 0.0000 0.0000 42.3600 0.0000
# 6 0.0000 0.0000 0.0000 0.0000 0.0000 40.5467
#
#
#
# Elastic Compliance Matrix: (Units=1/GPa)
#
#
# Indices 1 2 3 4 5 6 
#
# 1 0.042796 -0.007573 0.000712 0.000000 0.000000 0.000000
# 2 -0.007573 0.008872 -0.006006 0.000000 0.000000 0.000000
# 3 0.000712 -0.006006 0.022395 0.000000 0.000000 0.000000
# 4 0.000000 0.000000 0.000000 0.021512 0.000000 0.000000
# 5 0.000000 0.000000 0.000000 0.000000 0.023607 0.000000
# 6 0.000000 0.000000 0.000000 0.000000 0.000000 0.024663
#
#
# Mechanical properties :
#
#
# Convention : Reuss Voigt Hill
#
# Bulk Modulus (GPa) = 20.69146 45.62649 33.15898
# Shear Modulus (GPa) = 26.92682 37.34816 32.13749
#
# Velocity S-wave (km/s) = 3.37923 3.97979 3.69175
# Velocity P-wave (km/s) = 4.89904 6.36143 5.67751
#
# Compressibility (1/GPa) = 0.04832912
#
# Stress axis : x y z
#
# Youngs Moduli (GPa) = 23.36662 112.71011 44.65371
#
# Poissons Ratio (x) = 0.85353 -0.03181
# Poissons Ratio (y) = 0.17695 0.26821
# Poissons Ratio (z) = -0.01664 0.67699
#
# Static dielectric constant tensor:
#      x y z
#    x 3.958880 0.000000 0.000000 
#    y 0.000000 4.251320 0.000000 
#    z 0.000000 0.000000 4.499560 
# 
# 
# High freq. dielectric constant tensor:
#      x y z
#    x 1.880620 0.000000 0.000000 
#    y 0.000000 1.939310 0.000000 
#    z 0.000000 0.000000 1.950060 
# 
# From -- ./inp_files/3135.got.cif
#   From: 2010.03.12/outbox.cif.g09.slc.cpg/sg56_2_cif.got.tgz:3135.got - 2010.04.16 15:33:40.
