data_PCOD8229136
_publ_section_title
;
Structure prediction by ZEFSAII (Michael W. Deem and Ramdas Pophale) SiO2 
 PCOD8229136
Probable space group: P C C N
;
_chemical_formula_sum "Si O2"
_cell_formula_units_Z 64
_cell_length_a 14.397381
_cell_length_b 16.359127
_cell_length_c 12.940948
_cell_angle_alpha 90.000000
_cell_angle_beta 90.000000
_cell_angle_gamma 90.000000
_cell_volume 3047.963161
_symmetry_space_group_name_H-M "P C C N"
_symmetry_group_IT_number 56
_symmetry_cell_setting 'orthorhombic'
loop_
_space_group_symop_operation_xyz
x,y,z
1/2-x,1/2-y,z
1/2+x,-y,1/2-z
-x,1/2+y,1/2-z
-x,-y,-z
1/2+x,1/2+y,-z
1/2-x,y,1/2+z
x,1/2-y,1/2+z
loop_
_atom_site_type_symbol
_atom_site_label
_atom_site_fract_x
_atom_site_fract_y
_atom_site_fract_z
Si Si1 0.490541 0.908041 0.342837
Si Si2 0.268658 0.070743 0.828323
Si Si3 0.366098 0.952117 0.673595
Si Si4 0.657859 0.800877 0.785167
Si Si5 0.328525 0.686599 0.329047
Si Si6 0.942586 0.676783 0.150254
Si Si7 0.701427 0.430381 0.051177
Si Si8 0.513075 0.741487 0.433694
O O1 0.540237 0.996899 0.353286
O O2 0.492260 0.879994 0.222333
O O3 0.384901 0.916270 0.373915
O O4 0.539660 0.838245 0.416607
O O5 0.300344 0.012414 0.736034
O O6 0.183600 0.117682 0.775376
O O7 0.348287 0.128259 0.874704
O O8 0.234895 0.022548 0.928672
O O9 0.376222 0.869298 0.740319
O O10 0.320685 0.920725 0.568328
O O11 0.750000 0.750000 0.813186
O O12 0.585303 0.756383 0.711957
O O13 0.596766 0.815023 0.888504
O O14 0.250000 0.750000 0.285862
O O15 0.282496 0.632343 0.419013
O O16 0.413233 0.735139 0.379680
O O17 0.997354 0.709801 0.050601
#
# Coordination Sequence:
#
# PCOD8229136 Si02
#       8
#     8   8   8   8   8   8   8   8
#     4  10  22  43  61 100 134 166 235 277 329 405
#     4   9  21  39  59  96 134 161 215 269 334 403
#     4  10  24  42  67  94 134 177 220 285 338 400
#     4   9  20  38  61  98 132 169 215 273 334 399
#     4  11  25  48  62 100 137 179 238 278 333 409
#     4   9  21  40  62  95 132 169 215 282 325 396
#     4  11  23  40  66  90 128 182 219 276 336 398
#     4  11  23  39  71  96 133 178 226 274 340 404
#
# _framework density 20.997627999999999
#
# number of rings (size 3 to 8) (size 9 to 14) (size 15 to 20)
#    0.000    2.000    1.250    1.125    5.250    6.000 
#    0.000    5.625    0.000    0.000    0.000    0.000 
#    0.000    0.000    0.000    0.000    0.000    0.000 
#
# Total GULP energy -793210.275806 kJ/mol
# GULP energy per Si atom -12393.910559 kJ/mol
# Density = 2.094984 g / cm^3
# Si number density = 20.997628 Si / 1000 Ang^3
#
#
#
# Elastic Constant Matrix: (Units=GPa)
#
#
# Indices 1 2 3 4 5 6 
#
# 1 77.0132 9.7413 25.1280 0.0000 0.0000 0.0000
# 2 9.7413 73.7535 20.7268 0.0000 0.0000 0.0000
# 3 25.1280 20.7268 100.9388 0.0000 0.0000 0.0000
# 4 0.0000 0.0000 0.0000 19.7448 0.0000 0.0000
# 5 0.0000 0.0000 0.0000 0.0000 22.5666 0.0000
# 6 0.0000 0.0000 0.0000 0.0000 0.0000 25.1956
#
#
#
# Elastic Compliance Matrix: (Units=1/GPa)
#
#
# Indices 1 2 3 4 5 6 
#
# 1 0.014193 -0.000936 -0.003341 0.000000 0.000000 0.000000
# 2 -0.000936 0.014451 -0.002734 0.000000 0.000000 0.000000
# 3 -0.003341 -0.002734 0.011300 0.000000 0.000000 0.000000
# 4 0.000000 0.000000 0.000000 0.050646 0.000000 0.000000
# 5 0.000000 0.000000 0.000000 0.000000 0.044313 0.000000
# 6 0.000000 0.000000 0.000000 0.000000 0.000000 0.039690
#
#
# Mechanical properties :
#
#
# Convention : Reuss Voigt Hill
#
# Bulk Modulus (GPa) = 38.57765 40.32198 39.44982
# Shear Modulus (GPa) = 25.34773 26.57536 25.96155
#
# Velocity S-wave (km/s) = 3.47821 3.56144 3.52007
# Velocity P-wave (km/s) = 5.87731 6.01303 5.94556
#
# Compressibility (1/GPa) = 0.02592174
#
# Stress axis : x y z
#
# Youngs Moduli (GPa) = 70.45571 69.20081 88.49374
#
# Poissons Ratio (x) = 0.06475 0.29567
# Poissons Ratio (y) = 0.06592 0.24198
# Poissons Ratio (z) = 0.23541 0.18922
#
# Static dielectric constant tensor:
#      x y z
#    x 3.892140 0.000000 0.000000 
#    y 0.000000 4.140730 0.000000 
#    z 0.000000 0.000000 3.793230 
# 
# 
# High freq. dielectric constant tensor:
#      x y z
#    x 1.821160 0.000000 0.000000 
#    y 0.000000 1.830050 0.000000 
#    z 0.000000 0.000000 1.810920 
# 
# From -- ./inp_files/8067.got.cif
#   From: 2010.03.12/outbox.cif.g09.slc.cpg/sg56_5_cif.got.tgz:8067.got - 2010.04.16 15:33:40.
