data_PCOD8229075
_publ_section_title
;
Structure prediction by ZEFSAII (Michael W. Deem and Ramdas Pophale) SiO2 
 PCOD8229075
Probable space group: P C C N
;
_chemical_formula_sum "Si O2"
_cell_formula_units_Z 56
_cell_length_a 21.348187
_cell_length_b 9.239110
_cell_length_c 14.205097
_cell_angle_alpha 90.000000
_cell_angle_beta 90.000000
_cell_angle_gamma 90.000000
_cell_volume 2801.788445
_symmetry_space_group_name_H-M "P C C N"
_symmetry_group_IT_number 56
_symmetry_cell_setting 'orthorhombic'
loop_
_space_group_symop_operation_xyz
x,y,z
1/2-x,1/2-y,z
1/2+x,-y,1/2-z
-x,1/2+y,1/2-z
-x,-y,-z
1/2+x,1/2+y,-z
1/2-x,y,1/2+z
x,1/2-y,1/2+z
loop_
_atom_site_type_symbol
_atom_site_label
_atom_site_fract_x
_atom_site_fract_y
_atom_site_fract_z
Si Si1 0.095050 0.222786 0.989580
Si Si2 0.308409 0.526347 0.003406
Si Si3 0.994832 0.153240 0.141856
Si Si4 0.865824 0.233720 0.849125
Si Si5 0.008203 0.322148 0.324125
Si Si6 0.833979 0.011980 0.483844
Si Si7 0.141961 0.744025 0.870345
O O1 0.060848 0.248059 0.890436
O O2 0.044088 0.151657 0.057945
O O3 0.122202 0.372500 0.028755
O O4 0.150810 0.110799 0.975064
O O5 0.332068 0.599468 0.100195
O O6 0.238567 0.467475 0.017237
O O7 0.310004 0.643499 0.918698
O O8 0.021042 0.259658 0.221187
O O9 0.928006 0.205422 0.103691
O O10 0.985808 0.994094 0.183694
O O11 0.845597 0.384005 0.895436
O O12 0.845050 0.234179 0.740418
O O13 0.939985 0.221210 0.861143
O O14 0.849723 0.086822 0.583441
#
# Coordination Sequence:
#
# PCOD8229075 Si02
#       7
#     8   8   8   8   8   8   8
#     4  12  24  40  64  89 130 161 194 255 310 355
#     4  11  22  43  61  87 126 164 208 245 296 359
#     4  11  24  41  66  94 123 157 200 252 313 366
#     4  10  22  41  66  90 120 157 206 254 304 358
#     4  11  24  41  66  94 123 157 200 252 313 366
#     4  11  26  38  61  94 119 166 210 245 291 365
#     4  10  22  41  66  90 120 157 206 254 304 358
#
# _framework density 19.987231999999999
#
# number of rings (size 3 to 8) (size 9 to 14) (size 15 to 20)
#    0.000    1.143    2.857    4.286    8.000    3.429 
#    0.000    0.000    0.000    5.143    0.000    0.000 
#    0.000    0.000    0.000    0.000    0.000    0.000 
#
# Total GULP energy -694713.137725 kJ/mol
# GULP energy per Si atom -12405.591745 kJ/mol
# Density = 1.994174 g / cm^3
# Si number density = 19.987232 Si / 1000 Ang^3
#
#
#
# Elastic Constant Matrix: (Units=GPa)
#
#
# Indices 1 2 3 4 5 6 
#
# 1 90.4329 15.4354 9.1985 0.0000 0.0000 0.0000
# 2 15.4354 56.4722 21.8205 0.0000 0.0000 0.0000
# 3 9.1985 21.8205 89.5397 0.0000 0.0000 0.0000
# 4 0.0000 0.0000 0.0000 17.7263 0.0000 0.0000
# 5 0.0000 0.0000 0.0000 0.0000 14.9962 0.0000
# 6 0.0000 0.0000 0.0000 0.0000 0.0000 33.2032
#
#
#
# Elastic Compliance Matrix: (Units=1/GPa)
#
#
# Indices 1 2 3 4 5 6 
#
# 1 0.011616 -0.002996 -0.000463 0.000000 0.000000 0.000000
# 2 -0.002996 0.020321 -0.004644 0.000000 0.000000 0.000000
# 3 -0.000463 -0.004644 0.012348 0.000000 0.000000 0.000000
# 4 0.000000 0.000000 0.000000 0.056413 0.000000 0.000000
# 5 0.000000 0.000000 0.000000 0.000000 0.066683 0.000000
# 6 0.000000 0.000000 0.000000 0.000000 0.000000 0.030118
#
#
# Mechanical properties :
#
#
# Convention : Reuss Voigt Hill
#
# Bulk Modulus (GPa) = 35.61524 36.59484 36.10504
# Shear Modulus (GPa) = 22.41483 25.85117 24.13300
#
# Velocity S-wave (km/s) = 3.35245 3.60027 3.47857
# Velocity P-wave (km/s) = 5.73087 5.96921 5.85125
#
# Compressibility (1/GPa) = 0.02807786
#
# Stress axis : x y z
#
# Youngs Moduli (GPa) = 86.08503 49.20942 80.98709
#
# Poissons Ratio (x) = 0.14744 0.03752
# Poissons Ratio (y) = 0.25792 0.37614
# Poissons Ratio (z) = 0.03988 0.22855
#
# Static dielectric constant tensor:
#      x y z
#    x 3.712120 0.000000 0.000000 
#    y 0.000000 3.593810 0.000000 
#    z 0.000000 0.000000 4.249630 
# 
# 
# High freq. dielectric constant tensor:
#      x y z
#    x 1.790010 0.000000 0.000000 
#    y 0.000000 1.780040 0.000000 
#    z 0.000000 0.000000 1.781760 
# 
# From -- ./inp_files/10868.got.cif
#   From: 2010.03.12/outbox.cif.g09.slc.cpg/sg56_6_cif.got.tgz:10868.got - 2010.04.16 15:33:40.
