data_PCOD8229739
_publ_section_title
;
Structure prediction by ZEFSAII (Michael W. Deem and Ramdas Pophale) SiO2 
 PCOD8229739
Probable space group: P C C N
;
_chemical_formula_sum "Si O2"
_cell_formula_units_Z 48
_cell_length_a 17.483888
_cell_length_b 8.759849
_cell_length_c 14.071041
_cell_angle_alpha 90.000000
_cell_angle_beta 90.000000
_cell_angle_gamma 90.000000
_cell_volume 2155.067434
_symmetry_space_group_name_H-M "P C C N"
_symmetry_group_IT_number 56
_symmetry_cell_setting 'orthorhombic'
loop_
_space_group_symop_operation_xyz
x,y,z
1/2-x,1/2-y,z
1/2+x,-y,1/2-z
-x,1/2+y,1/2-z
-x,-y,-z
1/2+x,1/2+y,-z
1/2-x,y,1/2+z
x,1/2-y,1/2+z
loop_
_atom_site_type_symbol
_atom_site_label
_atom_site_fract_x
_atom_site_fract_y
_atom_site_fract_z
Si Si1 0.262392 0.074097 0.043337
Si Si2 0.483217 0.093264 0.595234
Si Si3 0.937634 0.932407 0.429656
Si Si4 0.256178 0.074116 0.328100
Si Si5 0.603491 0.404881 0.252367
Si Si6 0.348232 0.575190 0.190642
O O1 0.250000 0.250000 0.074920
O O2 0.229079 0.044937 0.938663
O O3 0.351223 0.026734 0.040253
O O4 0.216257 0.961505 0.112142
O O5 0.443272 0.250627 0.568283
O O6 0.559756 0.130069 0.654346
O O7 0.500000 0.000000 0.500000
O O8 0.428568 0.997251 0.662939
O O9 0.952459 0.008049 0.326432
O O10 0.000000 0.000000 0.500000
O O11 0.250000 0.250000 0.303888
O O12 0.327477 0.018287 0.267459
O O13 0.179201 0.989847 0.292565
O O14 0.639082 0.254800 0.299659
#
# Coordination Sequence:
#
# PCOD8229739 Si02
#       6
#     8   8   8   8   8   8
#     4  11  24  47  77 103 146 197 252 305 376 451
#     4  12  27  48  76 104 150 194 247 309 378 446
#     4  12  27  46  71 109 146 193 251 311 378 448
#     4  11  25  44  74 102 140 190 242 299 367 444
#     4  12  27  47  71 111 147 189 243 304 379 443
#     4  12  24  49  72 109 145 195 246 308 366 457
#
# _framework density 22.273085999999999
#
# number of rings (size 3 to 8) (size 9 to 14) (size 15 to 20)
#    0.000    0.333    3.333    5.000    7.000    0.000 
#    3.000    0.000    0.000    0.000    0.000    0.000 
#    0.000    0.000    0.000    0.000    0.000    0.000 
#
# Total GULP energy -595466.593186 kJ/mol
# GULP energy per Si atom -12405.554025 kJ/mol
# Density = 2.222239 g / cm^3
# Si number density = 22.273086 Si / 1000 Ang^3
#
#
#
# Elastic Constant Matrix: (Units=GPa)
#
#
# Indices 1 2 3 4 5 6 
#
# 1 123.1932 50.9288 45.0030 0.0000 0.0000 0.0000
# 2 50.9288 154.2684 69.0705 0.0000 0.0000 0.0000
# 3 45.0030 69.0705 130.3122 0.0000 0.0000 0.0000
# 4 0.0000 0.0000 0.0000 37.3171 0.0000 0.0000
# 5 0.0000 0.0000 0.0000 0.0000 40.7145 0.0000
# 6 0.0000 0.0000 0.0000 0.0000 0.0000 41.5675
#
#
#
# Elastic Compliance Matrix: (Units=1/GPa)
#
#
# Indices 1 2 3 4 5 6 
#
# 1 0.009860 -0.002269 -0.002202 0.000000 0.000000 0.000000
# 2 -0.002269 0.009021 -0.003998 0.000000 0.000000 0.000000
# 3 -0.002202 -0.003998 0.010554 0.000000 0.000000 0.000000
# 4 0.000000 0.000000 0.000000 0.026797 0.000000 0.000000
# 5 0.000000 0.000000 0.000000 0.000000 0.024561 0.000000
# 6 0.000000 0.000000 0.000000 0.000000 0.000000 0.024057
#
#
# Mechanical properties :
#
#
# Convention : Reuss Voigt Hill
#
# Bulk Modulus (GPa) = 80.02640 81.97537 81.00089
# Shear Modulus (GPa) = 39.69673 40.10460 39.90067
#
# Velocity S-wave (km/s) = 4.22628 4.24793 4.23712
# Velocity P-wave (km/s) = 7.73453 7.80670 7.77069
#
# Compressibility (1/GPa) = 0.01249588
#
# Stress axis : x y z
#
# Youngs Moduli (GPa) = 101.42096 110.84859 94.75420
#
# Poissons Ratio (x) = 0.25151 0.20869
# Poissons Ratio (y) = 0.23012 0.37883
# Poissons Ratio (z) = 0.22337 0.44318
#
# Static dielectric constant tensor:
#      x y z
#    x 4.082190 0.000000 0.000000 
#    y 0.000000 3.967910 0.000000 
#    z 0.000000 0.000000 4.375940 
# 
# 
# High freq. dielectric constant tensor:
#      x y z
#    x 1.887790 0.000000 0.000000 
#    y 0.000000 1.883030 0.000000 
#    z 0.000000 0.000000 1.891720 
# 
# From -- ./inp_files/12705.got.cif
#   From: 2010.03.12/outbox.cif.g09.slc.cpg/sg56_7_cif.got.tgz:12705.got - 2010.04.16 15:33:40.
