data_PCOD8229071
_publ_section_title
;
Structure prediction by ZEFSAII (Michael W. Deem and Ramdas Pophale) SiO2 
 PCOD8229071
Probable space group: P C C N
;
_chemical_formula_sum "Si O2"
_cell_formula_units_Z 52
_cell_length_a 13.940977
_cell_length_b 17.570831
_cell_length_c 10.951289
_cell_angle_alpha 90.000000
_cell_angle_beta 90.000000
_cell_angle_gamma 90.000000
_cell_volume 2682.568078
_symmetry_space_group_name_H-M "P C C N"
_symmetry_group_IT_number 56
_symmetry_cell_setting 'orthorhombic'
loop_
_space_group_symop_operation_xyz
x,y,z
1/2-x,1/2-y,z
1/2+x,-y,1/2-z
-x,1/2+y,1/2-z
-x,-y,-z
1/2+x,1/2+y,-z
1/2-x,y,1/2+z
x,1/2-y,1/2+z
loop_
_atom_site_type_symbol
_atom_site_label
_atom_site_fract_x
_atom_site_fract_y
_atom_site_fract_z
Si Si1 0.364826 0.983546 0.947213
Si Si2 0.558508 0.227404 0.450839
Si Si3 0.650356 0.130659 0.260145
Si Si4 0.991375 0.107634 0.386823
Si Si5 0.488725 0.098264 0.606257
Si Si6 0.657253 0.017902 0.471412
Si Si7 0.250000 0.750000 0.395136
O O1 0.396927 0.928339 0.835296
O O2 0.412619 0.065673 0.931022
O O3 0.400352 0.943074 0.071433
O O4 0.251705 0.000493 0.950680
O O5 0.574178 0.191952 0.314651
O O6 0.510530 0.309519 0.447328
O O7 0.485115 0.174359 0.525086
O O8 0.660212 0.232284 0.519537
O O9 0.688886 0.082616 0.375011
O O10 0.734784 0.176227 0.191004
O O11 0.989104 0.120234 0.243640
O O12 0.575378 0.044812 0.563421
O O13 0.385509 0.056391 0.596478
#
# Coordination Sequence:
#
# PCOD8229071 Si02
#       7
#     8   8   8   8   8   8   4
#     4  11  24  40  63  90 126 164 214 252 312 377
#     4  11  24  36  62  93 127 162 210 256 321 371
#     4  11  21  37  59  95 125 161 205 247 318 377
#     4  11  24  41  61  93 126 165 207 266 309 374
#     4  10  22  41  64  90 126 165 208 263 314 371
#     4  10  23  40  64  92 123 168 211 255 312 379
#     4  12  22  34  58  96 132 162 196 260 322 376
#
# _framework density 19.384411
#
# number of rings (size 3 to 8) (size 9 to 14) (size 15 to 20)
#    0.000    1.231    3.077    3.231    6.462    0.000 
#    0.000    0.769    0.000    1.846    0.000    0.000 
#    0.000    0.000    0.000    0.000    0.000    0.000 
#
# Total GULP energy -644818.144500 kJ/mol
# GULP energy per Si atom -12400.348933 kJ/mol
# Density = 1.934029 g / cm^3
# Si number density = 19.384411 Si / 1000 Ang^3
#
#
#
# Elastic Constant Matrix: (Units=GPa)
#
#
# Indices 1 2 3 4 5 6 
#
# 1 91.8280 58.4825 32.1011 0.0000 0.0000 0.0000
# 2 58.4825 144.1818 45.2431 0.0000 0.0000 0.0000
# 3 32.1011 45.2431 89.7876 0.0000 0.0000 0.0000
# 4 0.0000 0.0000 0.0000 30.1868 0.0000 0.0000
# 5 0.0000 0.0000 0.0000 0.0000 19.3324 0.0000
# 6 0.0000 0.0000 0.0000 0.0000 0.0000 28.3075
#
#
#
# Elastic Compliance Matrix: (Units=1/GPa)
#
#
# Indices 1 2 3 4 5 6 
#
# 1 0.015243 -0.005313 -0.002773 0.000000 0.000000 0.000000
# 2 -0.005313 0.010090 -0.003185 0.000000 0.000000 0.000000
# 3 -0.002773 -0.003185 0.013733 0.000000 0.000000 0.000000
# 4 0.000000 0.000000 0.000000 0.033127 0.000000 0.000000
# 5 0.000000 0.000000 0.000000 0.000000 0.051727 0.000000
# 6 0.000000 0.000000 0.000000 0.000000 0.000000 0.035326
#
#
# Mechanical properties :
#
#
# Convention : Reuss Voigt Hill
#
# Bulk Modulus (GPa) = 60.51106 66.38341 63.44723
# Shear Modulus (GPa) = 26.69589 28.23006 27.46297
#
# Velocity S-wave (km/s) = 3.71507 3.82033 3.76806
# Velocity P-wave (km/s) = 7.04886 7.33348 7.19258
#
# Compressibility (1/GPa) = 0.01652591
#
# Stress axis : x y z
#
# Youngs Moduli (GPa) = 65.60559 99.10845 72.81476
#
# Poissons Ratio (x) = 0.52653 0.20189
# Poissons Ratio (y) = 0.34854 0.23190
# Poissons Ratio (z) = 0.18190 0.31565
#
# Static dielectric constant tensor:
#      x y z
#    x 3.227990 0.000000 0.000000 
#    y 0.000000 3.755670 0.000000 
#    z 0.000000 0.000000 3.699010 
# 
# 
# High freq. dielectric constant tensor:
#      x y z
#    x 1.718470 0.000000 0.000000 
#    y 0.000000 1.761430 0.000000 
#    z 0.000000 0.000000 1.769900 
# 
# From -- ./inp_files/7996.got.cif
#   From: 2010.03.12/outbox.cif.g09.slc.cpg/sg56_4_cif.got.tgz:7996.got - 2010.04.16 15:33:40.
