data_PCOD8229197
_publ_section_title
;
Structure prediction by ZEFSAII (Michael W. Deem and Ramdas Pophale) SiO2 
 PCOD8229197
Probable space group: P C C N
;
_chemical_formula_sum "Si O2"
_cell_formula_units_Z 60
_cell_length_a 18.202676
_cell_length_b 8.418804
_cell_length_c 16.672402
_cell_angle_alpha 90.000000
_cell_angle_beta 90.000000
_cell_angle_gamma 90.000000
_cell_volume 2554.958268
_symmetry_space_group_name_H-M "P C C N"
_symmetry_group_IT_number 56
_symmetry_cell_setting 'orthorhombic'
loop_
_space_group_symop_operation_xyz
x,y,z
1/2-x,1/2-y,z
1/2+x,-y,1/2-z
-x,1/2+y,1/2-z
-x,-y,-z
1/2+x,1/2+y,-z
1/2-x,y,1/2+z
x,1/2-y,1/2+z
loop_
_atom_site_type_symbol
_atom_site_label
_atom_site_fract_x
_atom_site_fract_y
_atom_site_fract_z
Si Si1 0.491690 0.978744 0.722470
Si Si2 0.987175 0.682079 0.019448
Si Si3 0.250000 0.250000 0.260981
Si Si4 0.717355 0.080096 0.499746
Si Si5 0.195594 0.038386 0.635002
Si Si6 0.550938 0.710905 0.350592
Si Si7 0.617298 0.219940 0.371034
Si Si8 0.373372 0.358629 0.879395
O O1 0.513041 0.950283 0.815659
O O2 0.423256 0.865262 0.701893
O O3 0.563437 0.954785 0.667093
O O4 0.463030 0.158193 0.717770
O O5 0.911975 0.724071 0.066034
O O6 0.059186 0.739756 0.061386
O O7 0.984324 0.770687 0.933349
O O8 0.000000 0.500000 0.000000
O O9 0.245020 0.093621 0.202547
O O10 0.178271 0.264855 0.317188
O O11 0.750000 0.250000 0.531977
O O12 0.671872 0.103480 0.417440
O O13 0.780809 0.971225 0.459185
O O14 0.674432 0.986182 0.569069
O O15 0.136450 0.180358 0.635791
O O16 0.160709 0.871398 0.663535
#
# Coordination Sequence:
#
# PCOD8229197 Si02
#       8
#     8   8   4   8   8   8   8   8
#     4  11  25  43  72 102 139 182 226 299 357 413
#     4  11  24  41  73 106 133 177 236 294 356 415
#     4  12  28  42  68 102 146 188 234 284 356 430
#     4  10  24  45  73  98 137 192 241 288 348 424
#     4  11  25  44  67 100 139 185 236 280 347 433
#     4  12  24  43  70 103 141 179 232 291 354 420
#     4  10  22  47  70 101 137 178 239 293 353 412
#     4  11  26  45  67 103 143 181 238 297 350 428
#
# _framework density 23.483751000000002
#
# number of rings (size 3 to 8) (size 9 to 14) (size 15 to 20)
#    0.000    1.067    2.667    2.400    7.467    2.133 
#    0.000    3.333    0.000    0.000    0.000    0.000 
#    0.000    0.000    0.000    0.000    0.000    0.000 
#
# Total GULP energy -743689.948082 kJ/mol
# GULP energy per Si atom -12394.832468 kJ/mol
# Density = 2.343030 g / cm^3
# Si number density = 23.483751 Si / 1000 Ang^3
#
#
#
# Elastic Constant Matrix: (Units=GPa)
#
#
# Indices 1 2 3 4 5 6 
#
# 1 86.7152 45.0898 21.1689 0.0000 0.0000 0.0000
# 2 45.0898 96.7896 30.4782 0.0000 0.0000 0.0000
# 3 21.1689 30.4782 93.5268 0.0000 0.0000 0.0000
# 4 0.0000 0.0000 0.0000 39.1693 0.0000 0.0000
# 5 0.0000 0.0000 0.0000 0.0000 27.5406 0.0000
# 6 0.0000 0.0000 0.0000 0.0000 0.0000 40.8765
#
#
#
# Elastic Compliance Matrix: (Units=1/GPa)
#
#
# Indices 1 2 3 4 5 6 
#
# 1 0.015354 -0.006751 -0.001275 0.000000 0.000000 0.000000
# 2 -0.006751 0.014482 -0.003191 0.000000 0.000000 0.000000
# 3 -0.001275 -0.003191 0.012021 0.000000 0.000000 0.000000
# 4 0.000000 0.000000 0.000000 0.025530 0.000000 0.000000
# 5 0.000000 0.000000 0.000000 0.000000 0.036310 0.000000
# 6 0.000000 0.000000 0.000000 0.000000 0.000000 0.024464
#
#
# Mechanical properties :
#
#
# Convention : Reuss Voigt Hill
#
# Bulk Modulus (GPa) = 51.49015 52.27837 51.88426
# Shear Modulus (GPa) = 31.83324 33.53692 32.68508
#
# Velocity S-wave (km/s) = 3.68576 3.78311 3.73475
# Velocity P-wave (km/s) = 6.33140 6.43369 6.38275
#
# Compressibility (1/GPa) = 0.01942119
#
# Stress axis : x y z
#
# Youngs Moduli (GPa) = 65.13107 69.05341 83.19004
#
# Poissons Ratio (x) = 0.46618 0.10608
# Poissons Ratio (y) = 0.43970 0.26547
# Poissons Ratio (z) = 0.08305 0.22036
#
# Static dielectric constant tensor:
#      x y z
#    x 4.572410 0.000000 0.000000 
#    y 0.000000 4.081770 0.000000 
#    z 0.000000 0.000000 4.325710 
# 
# 
# High freq. dielectric constant tensor:
#      x y z
#    x 1.942530 0.000000 0.000000 
#    y 0.000000 1.928390 0.000000 
#    z 0.000000 0.000000 1.929630 
# 
# From -- ./inp_files/16646.got.cif
#   From: 2010.03.12/outbox.cif.g09.slc.cpg/sg56_9_cif.got.tgz:16646.got - 2010.04.16 15:33:40.
