data_PCOD8229161
_publ_section_title
;
Structure prediction by ZEFSAII (Michael W. Deem and Ramdas Pophale) SiO2 
 PCOD8229161
Probable space group: P C C N
;
_chemical_formula_sum "Si O2"
_cell_formula_units_Z 48
_cell_length_a 16.040698
_cell_length_b 15.724080
_cell_length_c 9.267333
_cell_angle_alpha 90.000000
_cell_angle_beta 90.000000
_cell_angle_gamma 90.000000
_cell_volume 2337.455092
_symmetry_space_group_name_H-M "P C C N"
_symmetry_group_IT_number 56
_symmetry_cell_setting 'orthorhombic'
loop_
_space_group_symop_operation_xyz
x,y,z
1/2-x,1/2-y,z
1/2+x,-y,1/2-z
-x,1/2+y,1/2-z
-x,-y,-z
1/2+x,1/2+y,-z
1/2-x,y,1/2+z
x,1/2-y,1/2+z
loop_
_atom_site_type_symbol
_atom_site_label
_atom_site_fract_x
_atom_site_fract_y
_atom_site_fract_z
Si Si1 0.691241 0.668841 0.723753
Si Si2 0.997678 0.205292 0.270442
Si Si3 0.518618 0.144078 0.470400
Si Si4 0.228585 0.441917 0.030110
Si Si5 0.066439 0.963070 0.611791
Si Si6 0.894903 0.988180 0.072683
O O1 0.750000 0.750000 0.740944
O O2 0.596355 0.694694 0.750777
O O3 0.690146 0.636631 0.558341
O O4 0.725813 0.593837 0.827105
O O5 0.974662 0.298329 0.328876
O O6 0.953477 0.137104 0.376377
O O7 0.959099 0.199934 0.110792
O O8 0.580393 0.063319 0.461489
O O9 0.425699 0.103820 0.485363
O O10 0.159687 0.514185 0.060784
O O11 0.295409 0.486997 0.924105
O O12 0.059145 0.000761 0.773133
O O13 0.000000 0.000000 0.500000
#
# Coordination Sequence:
#
# PCOD8229161 Si02
#       6
#     8   8   8   8   8   8
#     4  12  25  37  61  96 135 167 215 275 337 394
#     4  11  24  41  61  98 127 172 217 268 334 392
#     4  10  23  40  67  91 133 170 215 269 331 389
#     4  12  23  42  64  92 131 176 220 273 326 399
#     4  11  24  41  65  95 132 175 222 266 329 401
#     4  10  22  44  64  95 131 176 219 271 336 395
#
# _framework density 20.535153999999999
#
# number of rings (size 3 to 8) (size 9 to 14) (size 15 to 20)
#    0.000    1.000    5.000    1.500    4.667    0.000 
#    0.000    0.833    0.000    4.000    0.000    0.000 
#    0.000    0.000    0.000    0.000    0.000    0.000 
#
# Total GULP energy -594913.511891 kJ/mol
# GULP energy per Si atom -12394.031498 kJ/mol
# Density = 2.048842 g / cm^3
# Si number density = 20.535154 Si / 1000 Ang^3
#
#
#
# Elastic Constant Matrix: (Units=GPa)
#
#
# Indices 1 2 3 4 5 6 
#
# 1 71.9729 27.7829 8.8602 0.0000 0.0000 0.0000
# 2 27.7829 109.7573 32.4686 0.0000 0.0000 0.0000
# 3 8.8602 32.4686 76.4220 0.0000 0.0000 0.0000
# 4 0.0000 0.0000 0.0000 37.1935 0.0000 0.0000
# 5 0.0000 0.0000 0.0000 0.0000 31.0418 0.0000
# 6 0.0000 0.0000 0.0000 0.0000 0.0000 23.2010
#
#
#
# Elastic Compliance Matrix: (Units=1/GPa)
#
#
# Indices 1 2 3 4 5 6 
#
# 1 0.015400 -0.003855 -0.000148 0.000000 0.000000 0.000000
# 2 -0.003855 0.011385 -0.004390 0.000000 0.000000 0.000000
# 3 -0.000148 -0.004390 0.014968 0.000000 0.000000 0.000000
# 4 0.000000 0.000000 0.000000 0.026886 0.000000 0.000000
# 5 0.000000 0.000000 0.000000 0.000000 0.032215 0.000000
# 6 0.000000 0.000000 0.000000 0.000000 0.000000 0.043102
#
#
# Mechanical properties :
#
#
# Convention : Reuss Voigt Hill
#
# Bulk Modulus (GPa) = 40.05133 44.04171 42.04652
# Shear Modulus (GPa) = 29.57458 30.88995 30.23226
#
# Velocity S-wave (km/s) = 3.79910 3.88267 3.84111
# Velocity P-wave (km/s) = 6.22819 6.44932 6.33972
#
# Compressibility (1/GPa) = 0.02496796
#
# Stress axis : x y z
#
# Youngs Moduli (GPa) = 64.93404 87.83130 66.81078
#
# Poissons Ratio (x) = 0.33855 0.00988
# Poissons Ratio (y) = 0.25029 0.29332
# Poissons Ratio (z) = 0.00960 0.38561
#
# Static dielectric constant tensor:
#      x y z
#    x 3.698230 0.000000 0.000000 
#    y 0.000000 3.671810 0.000000 
#    z 0.000000 0.000000 3.813070 
# 
# 
# High freq. dielectric constant tensor:
#      x y z
#    x 1.790290 0.000000 0.000000 
#    y 0.000000 1.793940 0.000000 
#    z 0.000000 0.000000 1.814960 
# 
# From -- ./inp_files/3380.got.cif
#   From: 2010.03.12/outbox.cif.g09.slc.cpg/sg56_2_cif.got.tgz:3380.got - 2010.04.16 15:33:40.
