data_PCOD8229896
_publ_section_title
;
Structure prediction by ZEFSAII (Michael W. Deem and Ramdas Pophale) SiO2 
 PCOD8229896
Probable space group: P B C M
;
_chemical_formula_sum "Si O2"
_cell_formula_units_Z 48
_cell_length_a 14.885461
_cell_length_b 9.776153
_cell_length_c 17.013200
_cell_angle_alpha 90.000000
_cell_angle_beta 90.000000
_cell_angle_gamma 90.000000
_cell_volume 2475.804149
_symmetry_space_group_name_H-M "P B C M"
_symmetry_group_IT_number 57
_symmetry_cell_setting 'orthorhombic'
loop_
_space_group_symop_operation_xyz
x,y,z
-x,-y,1/2+z
x,1/2-y,-z
-x,1/2+y,1/2-z
-x,-y,-z
x,y,1/2-z
-x,1/2+y,z
x,1/2-y,1/2+z
loop_
_atom_site_type_symbol
_atom_site_label
_atom_site_fract_x
_atom_site_fract_y
_atom_site_fract_z
Si Si1 0.748379 0.893766 0.965680
Si Si2 0.774234 0.148297 0.070531
Si Si3 0.411570 0.754339 0.905345
Si Si4 0.447743 0.038625 0.421421
Si Si5 0.898132 0.541718 0.157033
Si Si6 0.056735 0.765146 0.658178
O O1 0.645060 0.884788 0.939303
O O2 0.806163 0.938703 0.890269
O O3 0.780899 0.750000 0.000000
O O4 0.757866 0.998013 0.037430
O O5 0.687012 0.195320 0.121184
O O6 0.859814 0.148318 0.126232
O O7 0.794804 0.250000 0.000000
O O8 0.488811 0.856367 0.872986
O O9 0.429604 0.601165 0.872595
O O10 0.410865 0.750000 0.000000
O O11 0.500000 0.000000 0.500000
O O12 0.876905 0.548657 0.250000
O O13 0.940864 0.394387 0.133739
O O14 0.965646 0.661459 0.128799
O O15 0.061806 0.781998 0.750000
#
# Coordination Sequence:
#
# PCOD8229896 Si02
#       6
#     8   8   8   8   8   8
#     4  12  23  34  55  89 113 145 188 235 282 320
#     4  11  19  36  54  81 113 136 182 234 273 319
#     4   9  16  27  47  74 108 145 169 221 271 321
#     4  10  16  29  48  78 113 142 178 219 274 330
#     4  10  23  42  59  79 110 149 189 226 281 347
#     4  10  22  40  60  78 106 150 184 222 284 343
#
# _framework density 19.387640000000001
#
# number of rings (size 3 to 8) (size 9 to 14) (size 15 to 20)
#    0.000    1.667    6.667    1.500    2.333    1.333 
#    0.000    0.000    0.000    1.000    0.000    0.000 
#    0.000    0.000    0.000    0.000    0.000    0.000 
#
# Total GULP energy -595069.664092 kJ/mol
# GULP energy per Si atom -12397.284669 kJ/mol
# Density = 1.934351 g / cm^3
# Si number density = 19.387640 Si / 1000 Ang^3
#
#
#
# Elastic Constant Matrix: (Units=GPa)
#
#
# Indices 1 2 3 4 5 6 
#
# 1 132.0923 31.2684 32.1758 0.0000 0.0000 0.0000
# 2 31.2684 110.9156 22.2620 0.0000 0.0000 0.0000
# 3 32.1758 22.2620 15.7034 0.0000 0.0000 0.0000
# 4 0.0000 0.0000 0.0000 15.3898 0.0000 0.0000
# 5 0.0000 0.0000 0.0000 0.0000 1.8834 0.0000
# 6 0.0000 0.0000 0.0000 0.0000 0.0000 32.3585
#
#
#
# Elastic Compliance Matrix: (Units=1/GPa)
#
#
# Indices 1 2 3 4 5 6 
#
# 1 0.015730 0.002844 -0.036262 0.000000 0.000000 0.000000
# 2 0.002844 0.013116 -0.024420 0.000000 0.000000 0.000000
# 3 -0.036262 -0.024420 0.172599 0.000000 0.000000 0.000000
# 4 0.000000 0.000000 0.000000 0.064978 0.000000 0.000000
# 5 0.000000 0.000000 0.000000 0.000000 0.530948 0.000000
# 6 0.000000 0.000000 0.000000 0.000000 0.000000 0.030904
#
#
# Mechanical properties :
#
#
# Convention : Reuss Voigt Hill
#
# Bulk Modulus (GPa) = 11.65931 47.79152 29.72541
# Shear Modulus (GPa) = 5.14117 21.46002 13.30059
#
# Velocity S-wave (km/s) = 1.63019 3.33061 2.62207
# Velocity P-wave (km/s) = 3.09358 6.28447 4.95302
#
# Compressibility (1/GPa) = 0.08576838
#
# Stress axis : x y z
#
# Youngs Moduli (GPa) = 63.57169 76.24550 5.79377
#
# Poissons Ratio (x) = -0.21682 0.21009
# Poissons Ratio (y) = -0.18078 0.14148
# Poissons Ratio (z) = 2.30525 1.86190
#
# Static dielectric constant tensor:
#      x y z
#    x 3.853330 0.000000 0.000000 
#    y 0.000000 4.824960 0.000000 
#    z 0.000000 0.000000 3.022620 
# 
# 
# High freq. dielectric constant tensor:
#      x y z
#    x 1.770280 0.000000 0.000000 
#    y 0.000000 1.774050 0.000000 
#    z 0.000000 0.000000 1.692040 
# 
# From -- ./inp_files/25257.got.cif
#   From: 2010.03.12/outbox.cif.g09.slc.cpg/sg57_13_cif.got.tgz:25257.got - 2010.04.16 15:48:40.
