data_PCOD8229876
_publ_section_title
;
Structure prediction by ZEFSAII (Michael W. Deem and Ramdas Pophale) SiO2 
 PCOD8229876
Probable space group: P C C N
;
_chemical_formula_sum "Si O2"
_cell_formula_units_Z 24
_cell_length_a 8.433844
_cell_length_b 12.076530
_cell_length_c 7.685492
_cell_angle_alpha 90.000000
_cell_angle_beta 90.000000
_cell_angle_gamma 90.000000
_cell_volume 782.779427
_symmetry_space_group_name_H-M "P C C N"
_symmetry_group_IT_number 56
_symmetry_cell_setting 'orthorhombic'
loop_
_space_group_symop_operation_xyz
x,y,z
1/2-x,1/2-y,z
1/2+x,-y,1/2-z
-x,1/2+y,1/2-z
-x,-y,-z
1/2+x,1/2+y,-z
1/2-x,y,1/2+z
x,1/2-y,1/2+z
loop_
_atom_site_type_symbol
_atom_site_label
_atom_site_fract_x
_atom_site_fract_y
_atom_site_fract_z
Si Si1 0.068228 0.819395 0.448963
Si Si2 0.628999 0.428996 0.899948
Si Si3 0.628348 0.849445 0.275452
O O1 0.250736 0.843824 0.502327
O O2 0.042958 0.859709 0.252305
O O3 0.007573 0.688557 0.423081
O O4 0.953597 0.874803 0.589859
O O5 0.722460 0.536087 0.816383
O O6 0.500000 0.500000 0.000000
O O7 0.750000 0.750000 0.263266
#
# Coordination Sequence:
#
# PCOD8229876 Si02
#       3
#     8   8   8
#     4  12  30  55  86 128 177 230 294 367 446 530
#     4  12  30  54  88 130 175 230 297 372 446 531
#     4  12  30  52  87 128 176 236 297 360 447 535
#
# _framework density 30.659974999999999
#
# number of rings (size 3 to 8) (size 9 to 14) (size 15 to 20)
#    0.000    0.000    0.000    6.000   18.667   10.667 
#    0.000    0.000    0.000    0.000    0.000    0.000 
#    0.000    0.000    0.000    0.000    0.000    0.000 
#
# Total GULP energy -297369.172410 kJ/mol
# GULP energy per Si atom -12390.382184 kJ/mol
# Density = 3.059019 g / cm^3
# Si number density = 30.659975 Si / 1000 Ang^3
#
#
#
# Elastic Constant Matrix: (Units=GPa)
#
#
# Indices 1 2 3 4 5 6 
#
# 1 153.3023 78.1617 57.7860 0.0000 0.0000 0.0000
# 2 78.1617 271.0453 66.4695 0.0000 0.0000 0.0000
# 3 57.7860 66.4695 186.6287 0.0000 0.0000 0.0000
# 4 0.0000 0.0000 0.0000 38.9284 0.0000 0.0000
# 5 0.0000 0.0000 0.0000 0.0000 46.4422 0.0000
# 6 0.0000 0.0000 0.0000 0.0000 0.0000 52.0085
#
#
#
# Elastic Compliance Matrix: (Units=1/GPa)
#
#
# Indices 1 2 3 4 5 6 
#
# 1 0.008196 -0.001908 -0.001858 0.000000 0.000000 0.000000
# 2 -0.001908 0.004487 -0.001007 0.000000 0.000000 0.000000
# 3 -0.001858 -0.001007 0.006292 0.000000 0.000000 0.000000
# 4 0.000000 0.000000 0.000000 0.025688 0.000000 0.000000
# 5 0.000000 0.000000 0.000000 0.000000 0.021532 0.000000
# 6 0.000000 0.000000 0.000000 0.000000 0.000000 0.019228
#
#
# Mechanical properties :
#
#
# Convention : Reuss Voigt Hill
#
# Bulk Modulus (GPa) = 106.06195 112.86787 109.46491
# Shear Modulus (GPa) = 50.96179 54.71309 52.83744
#
# Velocity S-wave (km/s) = 4.08138 4.22893 4.15581
# Velocity P-wave (km/s) = 7.54177 7.79345 7.66864
#
# Compressibility (1/GPa) = 0.00942845
#
# Stress axis : x y z
#
# Youngs Moduli (GPa) = 122.00686 222.88637 158.92305
#
# Poissons Ratio (x) = 0.42523 0.29533
# Poissons Ratio (y) = 0.23277 0.16007
# Poissons Ratio (z) = 0.22673 0.22449
#
# Static dielectric constant tensor:
#      x y z
#    x 5.892720 0.000000 0.000000 
#    y 0.000000 8.757010 0.000000 
#    z 0.000000 0.000000 6.241480 
# 
# 
# High freq. dielectric constant tensor:
#      x y z
#    x 2.271860 0.000000 0.000000 
#    y 0.000000 2.322220 0.000000 
#    z 0.000000 0.000000 2.273140 
# 
# From -- ./inp_files/1827.got.cif
#   From: 2010.03.12/outbox.cif.g09.slc.cpg/sg56_1_cif.got.tgz:1827.got - 2010.04.16 15:33:40.
