data_PCOD8229629
_publ_section_title
;
Structure prediction by ZEFSAII (Michael W. Deem and Ramdas Pophale) SiO2 
 PCOD8229629
Probable space group: P C C N
;
_chemical_formula_sum "Si O2"
_cell_formula_units_Z 64
_cell_length_a 14.033404
_cell_length_b 28.545685
_cell_length_c 9.137962
_cell_angle_alpha 90.000000
_cell_angle_beta 90.000000
_cell_angle_gamma 90.000000
_cell_volume 3660.604800
_symmetry_space_group_name_H-M "P C C N"
_symmetry_group_IT_number 56
_symmetry_cell_setting 'orthorhombic'
loop_
_space_group_symop_operation_xyz
x,y,z
1/2-x,1/2-y,z
1/2+x,-y,1/2-z
-x,1/2+y,1/2-z
-x,-y,-z
1/2+x,1/2+y,-z
1/2-x,y,1/2+z
x,1/2-y,1/2+z
loop_
_atom_site_type_symbol
_atom_site_label
_atom_site_fract_x
_atom_site_fract_y
_atom_site_fract_z
Si Si1 0.936595 0.383669 0.039902
Si Si2 0.528028 0.524450 0.855029
Si Si3 0.084247 0.617839 0.298028
Si Si4 0.442804 0.033736 0.105441
Si Si5 0.763641 0.502797 0.341801
Si Si6 0.353071 0.797279 0.455299
Si Si7 0.251165 0.939037 0.910489
Si Si8 0.851059 0.298577 0.190432
O O1 0.858806 0.422471 0.079134
O O2 0.925907 0.338938 0.145742
O O3 0.035124 0.411271 0.072448
O O4 0.927518 0.367527 0.871193
O O5 0.487150 0.576333 0.836660
O O6 0.480699 0.484436 0.757734
O O7 0.640980 0.533677 0.839993
O O8 0.500000 0.500000 0.000000
O O9 0.070739 0.663190 0.403308
O O10 0.191010 0.601073 0.332222
O O11 0.327970 0.029497 0.091500
O O12 0.500000 0.000000 0.000000
O O13 0.785169 0.453877 0.428523
O O14 0.742184 0.487803 0.176606
O O15 0.389773 0.748948 0.384120
O O16 0.251153 0.809740 0.382133
O O17 0.344397 0.794505 0.632311
#
# Coordination Sequence:
#
# PCOD8229629 Si02
#       8
#     8   8   8   8   8   8   8   8
#     4  12  23  35  56  77 112 152 196 227 285 338
#     4  12  23  34  53  81 115 149 197 240 285 331
#     4  12  23  36  52  82 111 152 192 234 281 341
#     4  12  21  38  53  77 111 157 197 230 279 342
#     4  12  22  36  52  76 112 156 196 238 272 329
#     4  11  23  38  58  82 113 142 190 232 291 341
#     4  12  20  32  53  74 108 150 191 226 271 325
#     4  11  23  38  58  83 110 147 184 240 283 350
#
# _framework density 17.483450000000001
#
# number of rings (size 3 to 8) (size 9 to 14) (size 15 to 20)
#    0.000    0.250    8.750    3.000    3.500    0.000 
#    0.000    0.000    0.000    0.000    0.000    0.875 
#    0.000    4.000    0.000    0.000    0.000    0.000 
#
# Total GULP energy -793039.356042 kJ/mol
# GULP energy per Si atom -12391.239938 kJ/mol
# Density = 1.744366 g / cm^3
# Si number density = 17.483450 Si / 1000 Ang^3
#
#
#
# Elastic Constant Matrix: (Units=GPa)
#
#
# Indices 1 2 3 4 5 6 
#
# 1 62.4816 26.6972 19.9008 0.0000 0.0000 0.0000
# 2 26.6972 108.9719 46.2088 0.0000 0.0000 0.0000
# 3 19.9008 46.2088 134.2031 0.0000 0.0000 0.0000
# 4 0.0000 0.0000 0.0000 30.9333 0.0000 0.0000
# 5 0.0000 0.0000 0.0000 0.0000 16.3414 0.0000
# 6 0.0000 0.0000 0.0000 0.0000 0.0000 27.3600
#
#
#
# Elastic Compliance Matrix: (Units=1/GPa)
#
#
# Indices 1 2 3 4 5 6 
#
# 1 0.018084 -0.003856 -0.001354 0.000000 0.000000 0.000000
# 2 -0.003856 0.011568 -0.003411 0.000000 0.000000 0.000000
# 3 -0.001354 -0.003411 0.008827 0.000000 0.000000 0.000000
# 4 0.000000 0.000000 0.000000 0.032328 0.000000 0.000000
# 5 0.000000 0.000000 0.000000 0.000000 0.061194 0.000000
# 6 0.000000 0.000000 0.000000 0.000000 0.000000 0.036550
#
#
# Mechanical properties :
#
#
# Convention : Reuss Voigt Hill
#
# Bulk Modulus (GPa) = 47.09060 54.58557 50.83809
# Shear Modulus (GPa) = 25.92408 29.11693 27.52051
#
# Velocity S-wave (km/s) = 3.85486 4.08536 3.97178
# Velocity P-wave (km/s) = 6.84150 7.31728 7.08339
#
# Compressibility (1/GPa) = 0.02123566
#
# Stress axis : x y z
#
# Youngs Moduli (GPa) = 55.29868 86.44579 113.29256
#
# Poissons Ratio (x) = 0.33336 0.15338
# Poissons Ratio (y) = 0.21325 0.38647
# Poissons Ratio (z) = 0.07486 0.29489
#
# Static dielectric constant tensor:
#      x y z
#    x 3.146180 0.000000 0.000000 
#    y 0.000000 3.289210 0.000000 
#    z 0.000000 0.000000 3.571510 
# 
# 
# High freq. dielectric constant tensor:
#      x y z
#    x 1.638960 0.000000 0.000000 
#    y 0.000000 1.660870 0.000000 
#    z 0.000000 0.000000 1.704460 
# 
# From -- ./inp_files/3772.got.cif
#   From: 2010.03.12/outbox.cif.g09.slc.cpg/sg56_2_cif.got.tgz:3772.got - 2010.04.16 15:33:40.
