data_PCOD8229416
_publ_section_title
;
Structure prediction by ZEFSAII (Michael W. Deem and Ramdas Pophale) SiO2 
 PCOD8229416
Probable space group: P C C N
;
_chemical_formula_sum "Si O2"
_cell_formula_units_Z 56
_cell_length_a 11.401585
_cell_length_b 11.487738
_cell_length_c 20.859088
_cell_angle_alpha 90.000000
_cell_angle_beta 90.000000
_cell_angle_gamma 90.000000
_cell_volume 2732.090415
_symmetry_space_group_name_H-M "P C C N"
_symmetry_group_IT_number 56
_symmetry_cell_setting 'orthorhombic'
loop_
_space_group_symop_operation_xyz
x,y,z
1/2-x,1/2-y,z
1/2+x,-y,1/2-z
-x,1/2+y,1/2-z
-x,-y,-z
1/2+x,1/2+y,-z
1/2-x,y,1/2+z
x,1/2-y,1/2+z
loop_
_atom_site_type_symbol
_atom_site_label
_atom_site_fract_x
_atom_site_fract_y
_atom_site_fract_z
Si Si1 0.883968 0.365225 0.647442
Si Si2 0.625435 0.104518 0.173676
Si Si3 0.627359 0.787872 0.605566
Si Si4 0.988358 0.556677 0.070217
Si Si5 0.952480 0.066454 0.813562
Si Si6 0.755851 0.113217 0.405232
Si Si7 0.869278 0.490232 0.523269
O O1 0.919618 0.232657 0.656753
O O2 0.765478 0.398051 0.686282
O O3 0.857383 0.383777 0.572622
O O4 0.994180 0.441798 0.668956
O O5 0.558069 0.067569 0.237517
O O6 0.594782 0.020934 0.114780
O O7 0.750000 0.750000 0.638965
O O8 0.568317 0.684628 0.564677
O O9 0.538784 0.832374 0.660525
O O10 0.664413 0.888332 0.556025
O O11 0.112019 0.571334 0.106980
O O12 0.000000 0.500000 0.000000
O O13 0.824001 0.083219 0.844052
O O14 0.750000 0.250000 0.420963
O O15 0.715395 0.036619 0.465110
O O16 0.000000 0.500000 0.500000
#
# Coordination Sequence:
#
# PCOD8229416 Si02
#       7
#     8   8   8   8   8   8   8
#     4  10  24  46  68  95 131 177 222 277 343 401
#     4  11  27  42  72  96 136 175 227 283 332 417
#     4  11  23  44  68  95 138 178 226 281 345 413
#     4  12  26  42  66 106 134 172 227 286 346 400
#     4  11  25  44  68  98 130 186 226 273 344 415
#     4  12  24  41  71  97 138 176 223 284 337 409
#     4  11  21  43  68  97 127 174 224 274 338 408
#
# _framework density 20.497125
#
# number of rings (size 3 to 8) (size 9 to 14) (size 15 to 20)
#    0.000    0.857    4.286    3.429   12.000    0.000 
#    0.000    0.714    0.000    0.000    0.000    0.000 
#    0.000    0.000    0.000    0.000    0.000    0.000 
#
# Total GULP energy -694484.314924 kJ/mol
# GULP energy per Si atom -12401.505624 kJ/mol
# Density = 2.045047 g / cm^3
# Si number density = 20.497125 Si / 1000 Ang^3
#
#
#
# Elastic Constant Matrix: (Units=GPa)
#
#
# Indices 1 2 3 4 5 6 
#
# 1 95.4902 17.0842 2.1858 0.0000 0.0000 0.0000
# 2 17.0842 97.3266 29.8494 0.0000 0.0000 0.0000
# 3 2.1858 29.8494 102.7242 0.0000 0.0000 0.0000
# 4 0.0000 0.0000 0.0000 19.5044 0.0000 0.0000
# 5 0.0000 0.0000 0.0000 0.0000 31.4970 0.0000
# 6 0.0000 0.0000 0.0000 0.0000 0.0000 33.9424
#
#
#
# Elastic Compliance Matrix: (Units=1/GPa)
#
#
# Indices 1 2 3 4 5 6 
#
# 1 0.010823 -0.002008 0.000353 0.000000 0.000000 0.000000
# 2 -0.002008 0.011653 -0.003343 0.000000 0.000000 0.000000
# 3 0.000353 -0.003343 0.010699 0.000000 0.000000 0.000000
# 4 0.000000 0.000000 0.000000 0.051270 0.000000 0.000000
# 5 0.000000 0.000000 0.000000 0.000000 0.031749 0.000000
# 6 0.000000 0.000000 0.000000 0.000000 0.000000 0.029462
#
#
# Mechanical properties :
#
#
# Convention : Reuss Voigt Hill
#
# Bulk Modulus (GPa) = 43.14375 43.75331 43.44853
# Shear Modulus (GPa) = 30.60377 33.41686 32.01032
#
# Velocity S-wave (km/s) = 3.86823 4.04210 3.95612
# Velocity P-wave (km/s) = 6.40666 6.57094 6.48932
#
# Compressibility (1/GPa) = 0.02317833
#
# Stress axis : x y z
#
# Youngs Moduli (GPa) = 92.39171 85.81812 93.46878
#
# Poissons Ratio (x) = 0.17234 -0.03302
# Poissons Ratio (y) = 0.18554 0.31249
# Poissons Ratio (z) = -0.03264 0.28691
#
# Static dielectric constant tensor:
#      x y z
#    x 3.931600 0.000000 0.000000 
#    y 0.000000 3.736790 0.000000 
#    z 0.000000 0.000000 3.616020 
# 
# 
# High freq. dielectric constant tensor:
#      x y z
#    x 1.819080 0.000000 0.000000 
#    y 0.000000 1.810650 0.000000 
#    z 0.000000 0.000000 1.789040 
# 
# From -- ./inp_files/18716.got.cif
#   From: 2010.03.12/outbox.cif.g09.slc.cpg/sg56_10_cif.got.tgz:18716.got - 2010.04.16 15:33:40.
