data_PCOD8229213
_publ_section_title
;
Structure prediction by ZEFSAII (Michael W. Deem and Ramdas Pophale) SiO2 
 PCOD8229213
Probable space group: P C C N
;
_chemical_formula_sum "Si O2"
_cell_formula_units_Z 64
_cell_length_a 11.738486
_cell_length_b 17.797028
_cell_length_c 13.570854
_cell_angle_alpha 90.000000
_cell_angle_beta 90.000000
_cell_angle_gamma 90.000000
_cell_volume 2835.089335
_symmetry_space_group_name_H-M "P C C N"
_symmetry_group_IT_number 56
_symmetry_cell_setting 'orthorhombic'
loop_
_space_group_symop_operation_xyz
x,y,z
1/2-x,1/2-y,z
1/2+x,-y,1/2-z
-x,1/2+y,1/2-z
-x,-y,-z
1/2+x,1/2+y,-z
1/2-x,y,1/2+z
x,1/2-y,1/2+z
loop_
_atom_site_type_symbol
_atom_site_label
_atom_site_fract_x
_atom_site_fract_y
_atom_site_fract_z
Si Si1 0.232511 0.662524 0.722351
Si Si2 0.505247 0.221806 0.501693
Si Si3 0.437153 0.861985 0.888575
Si Si4 0.390553 0.946606 0.334139
Si Si5 0.875731 0.757893 0.192587
Si Si6 0.712692 0.380609 0.991178
Si Si7 0.884504 0.873904 0.850390
Si Si8 0.141595 0.085430 0.700791
O O1 0.250000 0.750000 0.694630
O O2 0.116138 0.656191 0.782502
O O3 0.334955 0.629418 0.788389
O O4 0.221920 0.608893 0.626157
O O5 0.490687 0.291624 0.573699
O O6 0.472112 0.245008 0.391226
O O7 0.637289 0.195096 0.506817
O O8 0.418767 0.158513 0.542481
O O9 0.341683 0.879435 0.969355
O O10 0.533086 0.927916 0.872931
O O11 0.351783 0.948096 0.449974
O O12 0.526517 0.940150 0.323326
O O13 0.345720 0.020817 0.281849
O O14 0.750000 0.750000 0.144510
O O15 0.893130 0.689235 0.266878
O O16 0.886767 0.836421 0.247512
O O17 0.759647 0.910210 0.859015
#
# Coordination Sequence:
#
# PCOD8229213 Si02
#       8
#     8   8   8   8   8   8   8   8
#     4  11  22  41  70  97 131 171 218 278 335 391
#     4  11  21  39  66 100 129 165 225 280 318 390
#     4  11  22  37  67  95 131 173 212 272 334 385
#     4  10  25  44  64  96 133 176 217 279 338 402
#     4  10  23  40  67  98 129 179 220 273 325 394
#     4  10  23  39  62  98 128 166 223 269 330 395
#     4  10  23  43  64  95 129 173 226 273 326 399
#     4  11  24  44  66  91 140 175 218 273 339 395
#
# _framework density 22.574244
#
# number of rings (size 3 to 8) (size 9 to 14) (size 15 to 20)
#    0.000    1.500    1.250    4.125    8.750    0.500 
#    2.250    2.500    0.000    0.000    0.000    0.000 
#    0.000    0.000    0.000    0.000    0.000    0.000 
#
# Total GULP energy -793332.751171 kJ/mol
# GULP energy per Si atom -12395.824237 kJ/mol
# Density = 2.252286 g / cm^3
# Si number density = 22.574244 Si / 1000 Ang^3
#
#
#
# Elastic Constant Matrix: (Units=GPa)
#
#
# Indices 1 2 3 4 5 6 
#
# 1 143.7096 10.1104 29.1455 0.0000 0.0000 0.0000
# 2 10.1104 21.4300 -12.2909 0.0000 0.0000 0.0000
# 3 29.1455 -12.2909 91.8961 0.0000 0.0000 0.0000
# 4 0.0000 0.0000 0.0000 12.3454 0.0000 0.0000
# 5 0.0000 0.0000 0.0000 0.0000 33.1951 0.0000
# 6 0.0000 0.0000 0.0000 0.0000 0.0000 22.4564
#
#
#
# Elastic Compliance Matrix: (Units=1/GPa)
#
#
# Indices 1 2 3 4 5 6 
#
# 1 0.008029 -0.005685 -0.003307 0.000000 0.000000 0.000000
# 2 -0.005685 0.054565 0.009101 0.000000 0.000000 0.000000
# 3 -0.003307 0.009101 0.013148 0.000000 0.000000 0.000000
# 4 0.000000 0.000000 0.000000 0.081002 0.000000 0.000000
# 5 0.000000 0.000000 0.000000 0.000000 0.030125 0.000000
# 6 0.000000 0.000000 0.000000 0.000000 0.000000 0.044531
#
#
# Mechanical properties :
#
#
# Convention : Reuss Voigt Hill
#
# Bulk Modulus (GPa) = 13.16462 34.55175 23.85819
# Shear Modulus (GPa) = 19.49309 28.93740 24.21525
#
# Velocity S-wave (km/s) = 2.94174 3.58422 3.27875
# Velocity P-wave (km/s) = 4.16927 5.69806 4.99253
#
# Compressibility (1/GPa) = 0.07596115
#
# Stress axis : x y z
#
# Youngs Moduli (GPa) = 124.54783 18.32669 76.05815
#
# Poissons Ratio (x) = 0.10418 0.25151
# Poissons Ratio (y) = 0.70800 -0.69219
# Poissons Ratio (z) = 0.41185 -0.16679
#
# Static dielectric constant tensor:
#      x y z
#    x 4.382370 0.000000 0.000000 
#    y 0.000000 3.716270 0.000000 
#    z 0.000000 0.000000 4.006470 
# 
# 
# High freq. dielectric constant tensor:
#      x y z
#    x 1.910590 0.000000 0.000000 
#    y 0.000000 1.858110 0.000000 
#    z 0.000000 0.000000 1.888390 
# 
# From -- ./inp_files/11842.got.cif
#   From: 2010.03.12/outbox.cif.g09.slc.cpg/sg56_6_cif.got.tgz:11842.got - 2010.04.16 15:33:40.
