data_PCOD8229303
_publ_section_title
;
Structure prediction by ZEFSAII (Michael W. Deem and Ramdas Pophale) SiO2 
 PCOD8229303
Probable space group: P C C N
;
_chemical_formula_sum "Si O2"
_cell_formula_units_Z 48
_cell_length_a 25.481868
_cell_length_b 7.768506
_cell_length_c 9.677739
_cell_angle_alpha 90.000000
_cell_angle_beta 90.000000
_cell_angle_gamma 90.000000
_cell_volume 1915.766932
_symmetry_space_group_name_H-M "P C C N"
_symmetry_group_IT_number 56
_symmetry_cell_setting 'orthorhombic'
loop_
_space_group_symop_operation_xyz
x,y,z
1/2-x,1/2-y,z
1/2+x,-y,1/2-z
-x,1/2+y,1/2-z
-x,-y,-z
1/2+x,1/2+y,-z
1/2-x,y,1/2+z
x,1/2-y,1/2+z
loop_
_atom_site_type_symbol
_atom_site_label
_atom_site_fract_x
_atom_site_fract_y
_atom_site_fract_z
Si Si1 0.332510 0.922152 0.419750
Si Si2 0.091200 0.348936 0.742518
Si Si3 0.031996 0.326931 0.010369
Si Si4 0.570177 0.338544 0.933900
Si Si5 0.691424 0.741991 0.910200
Si Si6 0.661348 0.386056 0.396560
O O1 0.396029 0.932187 0.443930
O O2 0.318277 0.886569 0.261215
O O3 0.309801 0.766038 0.516061
O O4 0.308264 0.104880 0.464520
O O5 0.080310 0.321561 0.903422
O O6 0.056252 0.210095 0.659290
O O7 0.074870 0.543455 0.703026
O O8 0.152698 0.317676 0.713300
O O9 0.990104 0.176790 0.976071
O O10 0.000000 0.500000 0.000000
O O11 0.598205 0.153097 0.901021
O O12 0.750000 0.750000 0.848259
O O13 0.673411 0.930011 0.965724
#
# Coordination Sequence:
#
# PCOD8229303 Si02
#       6
#     8   8   8   8   8   8
#     4   9  24  44  73 108 143 189 245 301 378 448
#     4  11  26  43  67 106 145 184 257 294 366 460
#     4  12  25  41  73 103 143 198 232 304 376 448
#     4   9  23  42  68 100 147 179 235 293 372 440
#     4  11  26  48  72 105 150 197 254 320 380 435
#     4  10  23  44  76 103 149 184 247 305 374 450
#
# _framework density 25.055239
#
# number of rings (size 3 to 8) (size 9 to 14) (size 15 to 20)
#    1.000    0.667    0.000    2.500    9.333    2.667 
#    0.000    1.667    0.000    0.000    0.000    0.000 
#    0.000    0.000    0.000    0.000    0.000    0.000 
#
# Total GULP energy -595014.214989 kJ/mol
# GULP energy per Si atom -12396.129479 kJ/mol
# Density = 2.499821 g / cm^3
# Si number density = 25.055239 Si / 1000 Ang^3
#
#
#
# Elastic Constant Matrix: (Units=GPa)
#
#
# Indices 1 2 3 4 5 6 
#
# 1 117.7512 9.8594 19.0711 0.0000 0.0000 0.0000
# 2 9.8594 130.8140 49.3107 0.0000 0.0000 0.0000
# 3 19.0711 49.3107 116.6165 0.0000 0.0000 0.0000
# 4 0.0000 0.0000 0.0000 29.1182 0.0000 0.0000
# 5 0.0000 0.0000 0.0000 0.0000 10.8390 0.0000
# 6 0.0000 0.0000 0.0000 0.0000 0.0000 18.8365
#
#
#
# Elastic Compliance Matrix: (Units=1/GPa)
#
#
# Indices 1 2 3 4 5 6 
#
# 1 0.008726 -0.000142 -0.001367 0.000000 0.000000 0.000000
# 2 -0.000142 0.009096 -0.003823 0.000000 0.000000 0.000000
# 3 -0.001367 -0.003823 0.010415 0.000000 0.000000 0.000000
# 4 0.000000 0.000000 0.000000 0.034343 0.000000 0.000000
# 5 0.000000 0.000000 0.000000 0.000000 0.092259 0.000000
# 6 0.000000 0.000000 0.000000 0.000000 0.000000 0.053088
#
#
# Mechanical properties :
#
#
# Convention : Reuss Voigt Hill
#
# Bulk Modulus (GPa) = 56.90621 57.96268 57.43445
# Shear Modulus (GPa) = 22.27671 30.88810 26.58241
#
# Velocity S-wave (km/s) = 2.98502 3.51493 3.26076
# Velocity P-wave (km/s) = 5.88575 6.29740 6.09505
#
# Compressibility (1/GPa) = 0.01757277
#
# Stress axis : x y z
#
# Youngs Moduli (GPa) = 114.60301 109.93505 96.01374
#
# Poissons Ratio (x) = 0.01566 0.13123
# Poissons Ratio (y) = 0.01633 0.36706
# Poissons Ratio (z) = 0.15663 0.42028
#
# Static dielectric constant tensor:
#      x y z
#    x 4.481740 0.000000 0.000000 
#    y 0.000000 4.727580 0.000000 
#    z 0.000000 0.000000 3.986210 
# 
# 
# High freq. dielectric constant tensor:
#      x y z
#    x 1.985060 0.000000 0.000000 
#    y 0.000000 2.017070 0.000000 
#    z 0.000000 0.000000 1.972190 
# 
# From -- ./inp_files/5115.got.cif
#   From: 2010.03.12/outbox.cif.g09.slc.cpg/sg56_3_cif.got.tgz:5115.got - 2010.04.16 15:33:40.
