data_PCOD8229590
_publ_section_title
;
Structure prediction by ZEFSAII (Michael W. Deem and Ramdas Pophale) SiO2 
 PCOD8229590
Probable space group: P C C N
;
_chemical_formula_sum "Si O2"
_cell_formula_units_Z 40
_cell_length_a 9.887711
_cell_length_b 10.218803
_cell_length_c 18.386571
_cell_angle_alpha 90.000000
_cell_angle_beta 90.000000
_cell_angle_gamma 90.000000
_cell_volume 1857.789629
_symmetry_space_group_name_H-M "P C C N"
_symmetry_group_IT_number 56
_symmetry_cell_setting 'orthorhombic'
loop_
_space_group_symop_operation_xyz
x,y,z
1/2-x,1/2-y,z
1/2+x,-y,1/2-z
-x,1/2+y,1/2-z
-x,-y,-z
1/2+x,1/2+y,-z
1/2-x,y,1/2+z
x,1/2-y,1/2+z
loop_
_atom_site_type_symbol
_atom_site_label
_atom_site_fract_x
_atom_site_fract_y
_atom_site_fract_z
Si Si1 0.019898 0.035333 0.904347
Si Si2 0.482396 0.951892 0.917526
Si Si3 0.258543 0.096958 0.653252
Si Si4 0.105016 0.700687 0.488827
Si Si5 0.760687 0.901907 0.679886
O O1 0.106817 0.048465 0.831422
O O2 0.619217 0.971027 0.871593
O O3 0.877572 0.965058 0.893079
O O4 0.992790 0.179897 0.940581
O O5 0.449288 0.797725 0.925964
O O6 0.365738 0.027623 0.873993
O O7 0.500000 0.000000 0.000000
O O8 0.250000 0.250000 0.637400
O O9 0.613811 0.054025 0.543331
O O10 0.294624 0.067424 0.736945
O O11 0.250000 0.750000 0.516688
O O12 0.750000 0.750000 0.661784
#
# Coordination Sequence:
#
# PCOD8229590 Si02
#       5
#     8   8   8   8   8
#     4  11  23  42  68  95 135 169 222 278 331 401
#     4  12  24  41  70  98 134 171 227 279 336 396
#     4  11  24  43  67  99 135 178 221 272 343 407
#     4  11  22  40  66  99 128 171 222 277 335 392
#     4  11  25  44  66  97 136 179 224 274 336 408
#
# _framework density 21.530964000000001
#
# number of rings (size 3 to 8) (size 9 to 14) (size 15 to 20)
#    0.000    0.800    4.000    3.600    2.800    0.800 
#    0.000    0.000    4.400    0.000    0.000    0.000 
#    0.000    0.000    0.000    0.000    0.000    0.000 
#
# Total GULP energy -495782.675584 kJ/mol
# GULP energy per Si atom -12394.566890 kJ/mol
# Density = 2.148196 g / cm^3
# Si number density = 21.530964 Si / 1000 Ang^3
#
#
#
# Elastic Constant Matrix: (Units=GPa)
#
#
# Indices 1 2 3 4 5 6 
#
# 1 132.0305 50.8956 54.1561 0.0000 0.0000 0.0000
# 2 50.8956 94.7392 49.6377 0.0000 0.0000 0.0000
# 3 54.1561 49.6377 113.2771 0.0000 0.0000 0.0000
# 4 0.0000 0.0000 0.0000 35.6872 0.0000 0.0000
# 5 0.0000 0.0000 0.0000 0.0000 42.9398 0.0000
# 6 0.0000 0.0000 0.0000 0.0000 0.0000 33.4766
#
#
#
# Elastic Compliance Matrix: (Units=1/GPa)
#
#
# Indices 1 2 3 4 5 6 
#
# 1 0.010413 -0.003876 -0.003280 0.000000 0.000000 0.000000
# 2 -0.003876 0.015143 -0.004783 0.000000 0.000000 0.000000
# 3 -0.003280 -0.004783 0.012492 0.000000 0.000000 0.000000
# 4 0.000000 0.000000 0.000000 0.028021 0.000000 0.000000
# 5 0.000000 0.000000 0.000000 0.000000 0.023288 0.000000
# 6 0.000000 0.000000 0.000000 0.000000 0.000000 0.029872
#
#
# Mechanical properties :
#
#
# Convention : Reuss Voigt Hill
#
# Bulk Modulus (GPa) = 70.56534 72.15840 71.36187
# Shear Modulus (GPa) = 33.82235 34.77790 34.30012
#
# Velocity S-wave (km/s) = 3.96772 4.02338 3.99565
# Velocity P-wave (km/s) = 7.33726 7.42765 7.38259
#
# Compressibility (1/GPa) = 0.01417126
#
# Stress axis : x y z
#
# Youngs Moduli (GPa) = 96.02932 66.03582 80.05147
#
# Poissons Ratio (x) = 0.25593 0.26259
# Poissons Ratio (y) = 0.37218 0.38287
# Poissons Ratio (z) = 0.31500 0.31584
#
# Static dielectric constant tensor:
#      x y z
#    x 3.979840 0.000000 0.000000 
#    y 0.000000 4.060240 0.000000 
#    z 0.000000 0.000000 3.843720 
# 
# 
# High freq. dielectric constant tensor:
#      x y z
#    x 1.858140 0.000000 0.000000 
#    y 0.000000 1.849110 0.000000 
#    z 0.000000 0.000000 1.842500 
# 
# From -- ./inp_files/14441.got.cif
#   From: 2010.03.12/outbox.cif.g09.slc.cpg/sg56_8_cif.got.tgz:14441.got - 2010.04.16 15:33:40.
