data_PCOD8229322
_publ_section_title
;
Structure prediction by ZEFSAII (Michael W. Deem and Ramdas Pophale) SiO2 
 PCOD8229322
Probable space group: P C C N
;
_chemical_formula_sum "Si O2"
_cell_formula_units_Z 56
_cell_length_a 13.821855
_cell_length_b 13.862715
_cell_length_c 12.996370
_cell_angle_alpha 90.000000
_cell_angle_beta 90.000000
_cell_angle_gamma 90.000000
_cell_volume 2490.214138
_symmetry_space_group_name_H-M "P C C N"
_symmetry_group_IT_number 56
_symmetry_cell_setting 'orthorhombic'
loop_
_space_group_symop_operation_xyz
x,y,z
1/2-x,1/2-y,z
1/2+x,-y,1/2-z
-x,1/2+y,1/2-z
-x,-y,-z
1/2+x,1/2+y,-z
1/2-x,y,1/2+z
x,1/2-y,1/2+z
loop_
_atom_site_type_symbol
_atom_site_label
_atom_site_fract_x
_atom_site_fract_y
_atom_site_fract_z
Si Si1 0.811175 0.096478 0.969700
Si Si2 0.854743 0.970617 0.444120
Si Si3 0.750000 0.750000 0.639590
Si Si4 0.250000 0.750000 0.366558
Si Si5 0.076358 0.302389 0.729356
Si Si6 0.544054 0.516734 0.659109
Si Si7 0.830445 0.878881 0.968646
Si Si8 0.090408 0.836961 0.226855
O O1 0.876821 0.160412 0.892452
O O2 0.703172 0.071842 0.925750
O O3 0.793214 0.161091 0.069276
O O4 0.861266 0.991100 0.993933
O O5 0.888364 0.961308 0.562192
O O6 0.779902 0.882438 0.421253
O O7 0.945793 0.962035 0.371155
O O8 0.679365 0.690882 0.713914
O O9 0.678681 0.818740 0.573518
O O10 0.161422 0.774921 0.294689
O O11 0.013449 0.387711 0.779957
O O12 0.094822 0.325218 0.608107
O O13 0.017439 0.204548 0.752595
O O14 0.599628 0.447298 0.737166
#
# Coordination Sequence:
#
# PCOD8229322 Si02
#       8
#     8   8   4   4   8   8   8   8
#     4  10  23  47  69  98 139 186 232 284 354 418
#     4   9  21  40  74  91 140 190 224 283 358 420
#     4  12  26  46  72 104 140 182 234 292 356 424
#     4  12  26  46  72 104 140 182 234 292 356 424
#     4  12  27  44  71 106 139 183 242 291 354 428
#     4  11  21  44  66 107 140 184 234 293 354 418
#     4  10  23  47  69  98 139 186 232 284 354 418
#     4  12  27  44  71 106 139 183 242 291 354 428
#
# _framework density 22.488026000000001
#
# number of rings (size 3 to 8) (size 9 to 14) (size 15 to 20)
#    0.857    0.286    4.286    0.857    8.000    1.143 
#    2.571    1.429    0.000    0.000    0.000    0.000 
#    0.000    0.000    0.000    0.000    0.000    0.000 
#
# Total GULP energy -693917.668612 kJ/mol
# GULP energy per Si atom -12391.386940 kJ/mol
# Density = 2.243684 g / cm^3
# Si number density = 22.488026 Si / 1000 Ang^3
#
#
#
# Elastic Constant Matrix: (Units=GPa)
#
#
# Indices 1 2 3 4 5 6 
#
# 1 54.0254 5.3294 9.9517 0.0000 0.0000 0.0000
# 2 5.3294 87.7102 34.2893 0.0000 0.0000 0.0000
# 3 9.9517 34.2893 65.7617 0.0000 0.0000 0.0000
# 4 0.0000 0.0000 0.0000 30.1553 0.0000 0.0000
# 5 0.0000 0.0000 0.0000 0.0000 51.8829 0.0000
# 6 0.0000 0.0000 0.0000 0.0000 0.0000 44.8070
#
#
#
# Elastic Compliance Matrix: (Units=1/GPa)
#
#
# Indices 1 2 3 4 5 6 
#
# 1 0.019041 -0.000038 -0.002861 0.000000 0.000000 0.000000
# 2 -0.000038 0.014320 -0.007461 0.000000 0.000000 0.000000
# 3 -0.002861 -0.007461 0.019530 0.000000 0.000000 0.000000
# 4 0.000000 0.000000 0.000000 0.033162 0.000000 0.000000
# 5 0.000000 0.000000 0.000000 0.000000 0.019274 0.000000
# 6 0.000000 0.000000 0.000000 0.000000 0.000000 0.022318
#
#
# Mechanical properties :
#
#
# Convention : Reuss Voigt Hill
#
# Bulk Modulus (GPa) = 31.08569 34.07091 32.57830
# Shear Modulus (GPa) = 31.42890 35.89750 33.66320
#
# Velocity S-wave (km/s) = 3.74248 3.99970 3.87323
# Velocity P-wave (km/s) = 5.70334 6.04266 5.87545
#
# Compressibility (1/GPa) = 0.03216915
#
# Stress axis : x y z
#
# Youngs Moduli (GPa) = 52.51914 69.83079 51.20389
#
# Poissons Ratio (x) = 0.00267 0.14652
# Poissons Ratio (y) = 0.00201 0.38204
# Poissons Ratio (z) = 0.15028 0.52101
#
# Static dielectric constant tensor:
#      x y z
#    x 3.867500 0.000000 0.000000 
#    y 0.000000 3.925990 0.000000 
#    z 0.000000 0.000000 3.823090 
# 
# 
# High freq. dielectric constant tensor:
#      x y z
#    x 1.877090 0.000000 0.000000 
#    y 0.000000 1.889790 0.000000 
#    z 0.000000 0.000000 1.878290 
# 
# From -- ./inp_files/7922.got.cif
#   From: 2010.03.12/outbox.cif.g09.slc.cpg/sg56_4_cif.got.tgz:7922.got - 2010.04.16 15:33:40.
