data_PCOD8229915
_publ_section_title
;
Structure prediction by ZEFSAII (Michael W. Deem and Ramdas Pophale) SiO2 
 PCOD8229915
Probable space group: P B C M
;
_chemical_formula_sum "Si O2"
_cell_formula_units_Z 48
_cell_length_a 16.174670
_cell_length_b 8.656669
_cell_length_c 14.002804
_cell_angle_alpha 90.000000
_cell_angle_beta 90.000000
_cell_angle_gamma 90.000000
_cell_volume 1960.655314
_symmetry_space_group_name_H-M "P B C M"
_symmetry_group_IT_number 57
_symmetry_cell_setting 'orthorhombic'
loop_
_space_group_symop_operation_xyz
x,y,z
-x,-y,1/2+z
x,1/2-y,-z
-x,1/2+y,1/2-z
-x,-y,-z
x,y,1/2-z
-x,1/2+y,z
x,1/2-y,1/2+z
loop_
_atom_site_type_symbol
_atom_site_label
_atom_site_fract_x
_atom_site_fract_y
_atom_site_fract_z
Si Si1 0.164520 0.382755 0.921357
Si Si2 0.943969 0.822263 0.750000
Si Si3 0.385943 0.728810 0.362807
Si Si4 0.542834 0.951712 0.637546
Si Si5 0.235841 0.936656 0.574498
Si Si6 0.885460 0.469923 0.750000
Si Si7 0.679501 0.774055 0.142428
O O1 0.089385 0.403392 0.847157
O O2 0.243361 0.342679 0.856460
O O3 0.144077 0.250000 0.000000
O O4 0.183854 0.546960 0.975523
O O5 0.922031 0.641940 0.750000
O O6 0.042188 0.843714 0.750000
O O7 0.370527 0.739583 0.250000
O O8 0.447171 0.584505 0.386331
O O9 0.428465 0.883628 0.405502
O O10 0.297048 0.710310 0.415493
O O11 0.557006 0.960946 0.750000
O O12 0.599442 0.811471 0.599556
O O13 0.170515 0.943112 0.658695
O O14 0.298250 0.082615 0.575505
O O15 0.663419 0.835048 0.250000
#
# Coordination Sequence:
#
# PCOD8229915 Si02
#       7
#     8   4   8   8   8   4   8
#     4  10  20  39  69  92 126 169 216 260 321 387
#     4  12  24  48  68  97 131 162 214 267 329 408
#     4  10  18  34  55  92 138 172 222 270 312 379
#     4   9  19  30  56  93 131 182 221 265 321 365
#     4  11  20  38  64  93 127 172 219 264 322 385
#     4  12  24  44  70  97 129 168 206 267 331 390
#     4  10  16  34  62  86 120 169 220 259 313 377
#
# _framework density 24.481611000000001
#
# number of rings (size 3 to 8) (size 9 to 14) (size 15 to 20)
#    0.000    1.667    5.833    1.000    0.000    3.333 
#    3.000    1.667    0.000    0.000    0.000    0.000 
#    0.000    0.000    0.000    0.000    0.000    0.000 
#
# Total GULP energy -595006.191382 kJ/mol
# GULP energy per Si atom -12395.962320 kJ/mol
# Density = 2.442589 g / cm^3
# Si number density = 24.481611 Si / 1000 Ang^3
#
#
#
# Elastic Constant Matrix: (Units=GPa)
#
#
# Indices 1 2 3 4 5 6 
#
# 1 133.0676 39.2368 40.5659 0.0000 0.0000 0.0000
# 2 39.2368 51.2342 39.2232 0.0000 0.0000 0.0000
# 3 40.5659 39.2232 99.5118 0.0000 0.0000 0.0000
# 4 0.0000 0.0000 0.0000 18.9222 0.0000 0.0000
# 5 0.0000 0.0000 0.0000 0.0000 -7.1321 0.0000
# 6 0.0000 0.0000 0.0000 0.0000 0.0000 33.8535
#
#
#
# Elastic Compliance Matrix: (Units=1/GPa)
#
#
# Indices 1 2 3 4 5 6 
#
# 1 0.009860 -0.006407 -0.001494 0.000000 0.000000 0.000000
# 2 -0.006407 0.032117 -0.010047 0.000000 0.000000 0.000000
# 3 -0.001494 -0.010047 0.014618 0.000000 0.000000 0.000000
# 4 0.000000 0.000000 0.000000 0.052848 0.000000 0.000000
# 5 0.000000 0.000000 0.000000 0.000000 -0.140210 0.000000
# 6 0.000000 0.000000 0.000000 0.000000 0.000000 0.029539
#
#
# Mechanical properties :
#
#
# Convention : Reuss Voigt Hill
#
# Bulk Modulus (GPa) = 48.31330 57.98506 53.14918
# Shear Modulus (GPa) = 120.28750 20.11455 70.20103
#
# Velocity S-wave (km/s) = 7.01716 2.86950 5.36071
# Velocity P-wave (km/s) = 9.24291 5.89197 7.75070
#
# Compressibility (1/GPa) = 0.02069823
#
# Stress axis : x y z
#
# Youngs Moduli (GPa) = 101.42375 31.13633 68.40794
#
# Poissons Ratio (x) = 0.19950 0.10219
# Poissons Ratio (y) = 0.64984 0.68731
# Poissons Ratio (z) = 0.15151 0.31283
#
# Static dielectric constant tensor:
#      x y z
#    x 4.372430 0.000000 0.000000 
#    y 0.000000 4.386770 0.000000 
#    z 0.000000 0.000000 4.409920 
# 
# 
# High freq. dielectric constant tensor:
#      x y z
#    x 1.962060 0.000000 0.000000 
#    y 0.000000 1.954040 0.000000 
#    z 0.000000 0.000000 1.976720 
# 
# From -- ./inp_files/18979.got.cif
#   From: 2010.03.12/outbox.cif.g09.slc.cpg/sg57_10_cif.got.tgz:18979.got - 2010.04.16 15:48:40.
