data_PCOD8229790
_publ_section_title
;
Structure prediction by ZEFSAII (Michael W. Deem and Ramdas Pophale) SiO2 
 PCOD8229790
Probable space group: P C C N
;
_chemical_formula_sum "Si O2"
_cell_formula_units_Z 40
_cell_length_a 15.357843
_cell_length_b 10.774627
_cell_length_c 9.436347
_cell_angle_alpha 90.000000
_cell_angle_beta 90.000000
_cell_angle_gamma 90.000000
_cell_volume 1561.479801
_symmetry_space_group_name_H-M "P C C N"
_symmetry_group_IT_number 56
_symmetry_cell_setting 'orthorhombic'
loop_
_space_group_symop_operation_xyz
x,y,z
1/2-x,1/2-y,z
1/2+x,-y,1/2-z
-x,1/2+y,1/2-z
-x,-y,-z
1/2+x,1/2+y,-z
1/2-x,y,1/2+z
x,1/2-y,1/2+z
loop_
_atom_site_type_symbol
_atom_site_label
_atom_site_fract_x
_atom_site_fract_y
_atom_site_fract_z
Si Si1 0.398939 0.114652 0.278711
Si Si2 0.534901 0.304863 0.004819
Si Si3 0.304420 0.535471 0.005758
Si Si4 0.105365 0.538870 0.000553
Si Si5 0.103309 0.116525 0.225483
O O1 0.489403 0.150746 0.359104
O O2 0.325571 0.059436 0.380306
O O3 0.358255 0.244482 0.226912
O O4 0.418973 0.022376 0.150340
O O5 0.635079 0.344646 0.005016
O O6 0.540501 0.156035 0.022298
O O7 0.486283 0.376424 0.133165
O O8 0.205503 0.580326 0.998172
O O9 0.322469 0.467627 0.154498
O O10 0.916053 0.562965 0.119203
#
# Coordination Sequence:
#
# PCOD8229790 Si02
#       5
#     8   8   8   8   8
#     4  11  26  47  77 110 155 205 254 309 378 463
#     4  11  28  47  76 112 158 195 268 312 371 462
#     4  11  26  49  72 115 161 193 253 322 384 447
#     4  12  27  48  82 108 155 208 250 317 389 442
#     4  11  26  47  77 110 155 205 254 309 378 463
#
# _framework density 25.616726
#
# number of rings (size 3 to 8) (size 9 to 14) (size 15 to 20)
#    0.000    0.800    0.000    6.600   11.200    6.400 
#    0.000    4.000    0.000    0.000    0.000    2.800 
#    0.000    0.000    0.000    0.000    0.000    0.000 
#
# Total GULP energy -496049.606887 kJ/mol
# GULP energy per Si atom -12401.240172 kJ/mol
# Density = 2.555842 g / cm^3
# Si number density = 25.616726 Si / 1000 Ang^3
#
#
#
# Elastic Constant Matrix: (Units=GPa)
#
#
# Indices 1 2 3 4 5 6 
#
# 1 142.6175 1.4804 27.8470 0.0000 0.0000 0.0000
# 2 1.4804 89.5559 21.2689 0.0000 0.0000 0.0000
# 3 27.8470 21.2689 123.0594 0.0000 0.0000 0.0000
# 4 0.0000 0.0000 0.0000 -1.6671 0.0000 0.0000
# 5 0.0000 0.0000 0.0000 0.0000 13.6717 0.0000
# 6 0.0000 0.0000 0.0000 0.0000 0.0000 33.6431
#
#
#
# Elastic Compliance Matrix: (Units=1/GPa)
#
#
# Indices 1 2 3 4 5 6 
#
# 1 0.007343 0.000285 -0.001711 0.000000 0.000000 0.000000
# 2 0.000285 0.011655 -0.002079 0.000000 0.000000 0.000000
# 3 -0.001711 -0.002079 0.008873 0.000000 0.000000 0.000000
# 4 0.000000 0.000000 0.000000 -0.599829 0.000000 0.000000
# 5 0.000000 0.000000 0.000000 0.000000 0.073144 0.000000
# 6 0.000000 0.000000 0.000000 0.000000 0.000000 0.029724
#
#
# Mechanical properties :
#
#
# Convention : Reuss Voigt Hill
#
# Bulk Modulus (GPa) = 47.93622 50.71393 49.32507
# Shear Modulus (GPa) = -10.98593 29.43864 9.22636
#
# Velocity S-wave (km/s) = -2.07313 3.39366 1.89987
# Velocity P-wave (km/s) = 3.60873 5.93263 4.91014
#
# Compressibility (1/GPa) = 0.02086105
#
# Stress axis : x y z
#
# Youngs Moduli (GPa) = 136.18667 85.79846 112.70641
#
# Poissons Ratio (x) = -0.02445 0.19282
# Poissons Ratio (y) = -0.03880 0.23431
# Poissons Ratio (z) = 0.23300 0.17837
#
# Static dielectric constant tensor:
#      x y z
#    x 4.586090 0.000000 0.000000 
#    y 0.000000 4.702740 0.000000 
#    z 0.000000 0.000000 4.808330 
# 
# 
# High freq. dielectric constant tensor:
#      x y z
#    x 2.024130 0.000000 0.000000 
#    y 0.000000 2.035870 0.000000 
#    z 0.000000 0.000000 2.035390 
# 
# From -- ./inp_files/7653.got.cif
#   From: 2010.03.12/outbox.cif.g09.slc.cpg/sg56_4_cif.got.tgz:7653.got - 2010.04.16 15:33:40.
