data_PCOD8229221
_publ_section_title
;
Structure prediction by ZEFSAII (Michael W. Deem and Ramdas Pophale) SiO2 
 PCOD8229221
Probable space group: P C C N
;
_chemical_formula_sum "Si O2"
_cell_formula_units_Z 48
_cell_length_a 13.070570
_cell_length_b 13.551095
_cell_length_c 13.286516
_cell_angle_alpha 90.000000
_cell_angle_beta 90.000000
_cell_angle_gamma 90.000000
_cell_volume 2353.314832
_symmetry_space_group_name_H-M "P C C N"
_symmetry_group_IT_number 56
_symmetry_cell_setting 'orthorhombic'
loop_
_space_group_symop_operation_xyz
x,y,z
1/2-x,1/2-y,z
1/2+x,-y,1/2-z
-x,1/2+y,1/2-z
-x,-y,-z
1/2+x,1/2+y,-z
1/2-x,y,1/2+z
x,1/2-y,1/2+z
loop_
_atom_site_type_symbol
_atom_site_label
_atom_site_fract_x
_atom_site_fract_y
_atom_site_fract_z
Si Si1 0.838766 0.536203 0.863628
Si Si2 0.846225 0.187898 0.413287
Si Si3 0.141733 0.720078 0.316208
Si Si4 0.975533 0.704264 0.938219
Si Si5 0.121411 0.414756 0.567937
Si Si6 0.416506 0.505235 0.859235
O O1 0.831108 0.429476 0.915420
O O2 0.908887 0.604909 0.934724
O O3 0.723714 0.576680 0.865816
O O4 0.884070 0.538165 0.749826
O O5 0.750000 0.250000 0.459944
O O6 0.860215 0.224372 0.301718
O O7 0.954783 0.213144 0.462804
O O8 0.250000 0.750000 0.361380
O O9 0.122744 0.615837 0.367727
O O10 0.055667 0.799130 0.346292
O O11 0.904306 0.799484 0.929244
O O12 0.135190 0.443909 0.450116
O O13 0.039181 0.487256 0.622711
#
# Coordination Sequence:
#
# PCOD8229221 Si02
#       6
#     8   8   8   8   8   8
#     4  11  24  42  64  99 127 165 221 273 318 388
#     4  10  23  40  63  93 127 167 214 271 324 381
#     4   9  20  38  62  93 125 167 219 262 324 386
#     4  11  23  39  63  92 131 166 214 270 325 389
#     4  10  23  43  65  92 129 173 216 253 337 389
#     4   9  22  42  66  91 126 173 214 268 317 395
#
# _framework density 20.396761000000001
#
# number of rings (size 3 to 8) (size 9 to 14) (size 15 to 20)
#    0.000    2.000    0.000    1.500   11.667    2.667 
#    9.000    1.667    0.000    0.000    0.000    0.000 
#    0.000    0.000    0.000    0.000    0.000    0.000 
#
# Total GULP energy -594910.602215 kJ/mol
# GULP energy per Si atom -12393.970879 kJ/mol
# Density = 2.035034 g / cm^3
# Si number density = 20.396761 Si / 1000 Ang^3
#
#
#
# Elastic Constant Matrix: (Units=GPa)
#
#
# Indices 1 2 3 4 5 6 
#
# 1 145.1169 54.3864 48.3384 0.0000 0.0000 0.0000
# 2 54.3864 77.7450 43.4331 0.0000 0.0000 0.0000
# 3 48.3384 43.4331 83.5709 0.0000 0.0000 0.0000
# 4 0.0000 0.0000 0.0000 -58.5497 0.0000 0.0000
# 5 0.0000 0.0000 0.0000 0.0000 33.2047 0.0000
# 6 0.0000 0.0000 0.0000 0.0000 0.0000 38.1707
#
#
#
# Elastic Compliance Matrix: (Units=1/GPa)
#
#
# Indices 1 2 3 4 5 6 
#
# 1 0.009839 -0.005219 -0.002979 0.000000 0.000000 0.000000
# 2 -0.005219 0.020893 -0.007840 0.000000 0.000000 0.000000
# 3 -0.002979 -0.007840 0.017763 0.000000 0.000000 0.000000
# 4 0.000000 0.000000 0.000000 -0.017080 0.000000 0.000000
# 5 0.000000 0.000000 0.000000 0.000000 0.030116 0.000000
# 6 0.000000 0.000000 0.000000 0.000000 0.000000 0.026198
#
#
# Mechanical properties :
#
#
# Convention : Reuss Voigt Hill
#
# Bulk Modulus (GPa) = 60.89865 66.52763 63.71314
# Shear Modulus (GPa) = 39.91090 13.25014 26.58052
#
# Velocity S-wave (km/s) = 4.42829 2.55153 3.61387
# Velocity P-wave (km/s) = 7.48787 6.43179 6.97983
#
# Compressibility (1/GPa) = 0.01642072
#
# Stress axis : x y z
#
# Youngs Moduli (GPa) = 101.63522 47.86242 56.29561
#
# Poissons Ratio (x) = 0.24978 0.16769
# Poissons Ratio (y) = 0.53041 0.44135
# Poissons Ratio (z) = 0.30275 0.37524
#
# Static dielectric constant tensor:
#      x y z
#    x 3.906530 0.000000 0.000000 
#    y 0.000000 3.792820 0.000000 
#    z 0.000000 0.000000 3.631100 
# 
# 
# High freq. dielectric constant tensor:
#      x y z
#    x 1.804080 0.000000 0.000000 
#    y 0.000000 1.798350 0.000000 
#    z 0.000000 0.000000 1.799050 
# 
# From -- ./inp_files/11601.got.cif
#   From: 2010.03.12/outbox.cif.g09.slc.cpg/sg56_6_cif.got.tgz:11601.got - 2010.04.16 15:33:40.
