data_PCOD8229926
_publ_section_title
;
Structure prediction by ZEFSAII (Michael W. Deem and Ramdas Pophale) SiO2 
 PCOD8229926
Probable space group: P B C M
;
_chemical_formula_sum "Si O2"
_cell_formula_units_Z 48
_cell_length_a 15.162615
_cell_length_b 21.549589
_cell_length_c 9.240026
_cell_angle_alpha 90.000000
_cell_angle_beta 90.000000
_cell_angle_gamma 90.000000
_cell_volume 3019.161137
_symmetry_space_group_name_H-M "P B C M"
_symmetry_group_IT_number 57
_symmetry_cell_setting 'orthorhombic'
loop_
_space_group_symop_operation_xyz
x,y,z
-x,-y,1/2+z
x,1/2-y,-z
-x,1/2+y,1/2-z
-x,-y,-z
x,y,1/2-z
-x,1/2+y,z
x,1/2-y,1/2+z
loop_
_atom_site_type_symbol
_atom_site_label
_atom_site_fract_x
_atom_site_fract_y
_atom_site_fract_z
Si Si1 0.309103 0.313987 0.081418
Si Si2 0.022222 0.560241 0.585853
Si Si3 0.209282 0.965359 0.079911
Si Si4 0.163189 0.091764 0.918723
Si Si5 0.545817 0.586458 0.916352
Si Si6 0.619039 0.451459 0.917781
O O1 0.306935 0.299446 0.250000
O O2 0.219434 0.348703 0.032581
O O3 0.392770 0.356175 0.040671
O O4 0.317813 0.250000 0.000000
O O5 0.019829 0.538450 0.750000
O O6 0.123536 0.579891 0.550500
O O7 0.000000 0.500000 0.500000
O O8 0.941644 0.608810 0.557730
O O9 0.229992 0.971951 0.250000
O O10 0.291364 0.933223 0.000394
O O11 0.191278 0.033241 0.014526
O O12 0.183687 0.075942 0.750000
O O13 0.515217 0.589315 0.750000
O O14 0.601045 0.524017 0.944640
O O15 0.460074 0.589478 0.017269
O O16 0.629048 0.434977 0.750000
#
# Coordination Sequence:
#
# PCOD8229926 Si02
#       6
#     8   8   8   8   8   8
#     4  10  20  33  48  66  90 121 155 189 226 269
#     4   8  15  25  40  61  87 117 146 176 215 261
#     4  10  17  25  41  68  94 118 148 182 222 273
#     4   9  16  30  45  60  88 122 152 184 221 265
#     4   9  18  32  45  63  89 118 152 189 228 270
#     4  10  18  29  46  66  90 121 151 183 231 281
#
# _framework density 15.898455999999999
#
# number of rings (size 3 to 8) (size 9 to 14) (size 15 to 20)
#    0.000    2.667    1.667    1.000    0.000    2.667 
#    0.000    0.000    0.000    0.000    0.000    1.167 
#    0.000    2.667    0.000    0.000    0.000    0.000 
#
# Total GULP energy -594735.143384 kJ/mol
# GULP energy per Si atom -12390.315487 kJ/mol
# Density = 1.586227 g / cm^3
# Si number density = 15.898456 Si / 1000 Ang^3
#
#
#
# Elastic Constant Matrix: (Units=GPa)
#
#
# Indices 1 2 3 4 5 6 
#
# 1 158.4740 50.0673 68.2779 0.0000 0.0000 0.0000
# 2 50.0673 64.3026 28.6802 0.0000 0.0000 0.0000
# 3 68.2779 28.6802 73.6498 0.0000 0.0000 0.0000
# 4 0.0000 0.0000 0.0000 20.0577 0.0000 0.0000
# 5 0.0000 0.0000 0.0000 0.0000 25.9716 0.0000
# 6 0.0000 0.0000 0.0000 0.0000 0.0000 16.7048
#
#
#
# Elastic Compliance Matrix: (Units=1/GPa)
#
#
# Indices 1 2 3 4 5 6 
#
# 1 0.011792 -0.005211 -0.008903 0.000000 0.000000 0.000000
# 2 -0.005211 0.021123 -0.003395 0.000000 0.000000 0.000000
# 3 -0.008903 -0.003395 0.023153 0.000000 0.000000 0.000000
# 4 0.000000 0.000000 0.000000 0.049856 0.000000 0.000000
# 5 0.000000 0.000000 0.000000 0.000000 0.038504 0.000000
# 6 0.000000 0.000000 0.000000 0.000000 0.000000 0.059863
#
#
# Mechanical properties :
#
#
# Convention : Reuss Voigt Hill
#
# Bulk Modulus (GPa) = 47.50293 65.60857 56.55575
# Shear Modulus (GPa) = 20.29834 22.50689 21.40261
#
# Velocity S-wave (km/s) = 3.57704 3.76661 3.67305
# Velocity P-wave (km/s) = 6.85595 7.76359 7.32385
#
# Compressibility (1/GPa) = 0.02105133
#
# Stress axis : x y z
#
# Youngs Moduli (GPa) = 84.80114 47.34212 43.19018
#
# Poissons Ratio (x) = 0.24669 0.38452
# Poissons Ratio (y) = 0.44188 0.14662
# Poissons Ratio (z) = 0.75499 0.16072
#
# Static dielectric constant tensor:
#      x y z
#    x 3.644810 0.000000 0.000000 
#    y 0.000000 2.515300 0.000000 
#    z 0.000000 0.000000 3.089270 
# 
# 
# High freq. dielectric constant tensor:
#      x y z
#    x 1.635010 0.000000 0.000000 
#    y 0.000000 1.541810 0.000000 
#    z 0.000000 0.000000 1.620100 
# 
# From -- ./inp_files/4863.got.cif
#   From: 2010.03.12/outbox.cif.g09.slc.cpg/sg57_3_cif.got.tgz:4863.got - 2010.04.16 15:48:40.
