data_PCOD8229130
_publ_section_title
;
Structure prediction by ZEFSAII (Michael W. Deem and Ramdas Pophale) SiO2 
 PCOD8229130
Probable space group: P C C N
;
_chemical_formula_sum "Si O2"
_cell_formula_units_Z 64
_cell_length_a 17.831731
_cell_length_b 10.907331
_cell_length_c 15.405090
_cell_angle_alpha 90.000000
_cell_angle_beta 90.000000
_cell_angle_gamma 90.000000
_cell_volume 2996.237509
_symmetry_space_group_name_H-M "P C C N"
_symmetry_group_IT_number 56
_symmetry_cell_setting 'orthorhombic'
loop_
_space_group_symop_operation_xyz
x,y,z
1/2-x,1/2-y,z
1/2+x,-y,1/2-z
-x,1/2+y,1/2-z
-x,-y,-z
1/2+x,1/2+y,-z
1/2-x,y,1/2+z
x,1/2-y,1/2+z
loop_
_atom_site_type_symbol
_atom_site_label
_atom_site_fract_x
_atom_site_fract_y
_atom_site_fract_z
Si Si1 0.977442 0.565504 0.412130
Si Si2 0.668902 0.035549 0.870053
Si Si3 0.567761 0.913599 0.726454
Si Si4 0.083361 0.010122 0.459386
Si Si5 0.829242 0.263096 0.264418
Si Si6 0.834017 0.711308 0.151321
Si Si7 0.455676 0.789614 0.847018
Si Si8 0.329164 0.036712 0.681742
O O1 0.017814 0.504921 0.330022
O O2 0.005808 0.706252 0.420966
O O3 0.000000 0.500000 0.500000
O O4 0.888341 0.570522 0.394101
O O5 0.608142 0.984778 0.803583
O O6 0.677715 0.180340 0.851162
O O7 0.746626 0.962313 0.859793
O O8 0.643218 0.023565 0.968083
O O9 0.625768 0.841246 0.665935
O O10 0.514807 0.814609 0.771522
O O11 0.083877 0.910597 0.383680
O O12 0.114037 0.138266 0.418961
O O13 0.000000 0.000000 0.500000
O O14 0.750000 0.250000 0.214983
O O15 0.890240 0.209505 0.198138
O O16 0.851232 0.401831 0.285992
O O17 0.750000 0.750000 0.118789
O O18 0.830060 0.633841 0.240126
#
# Coordination Sequence:
#
# PCOD8229130 Si02
#       8
#     8   8   8   8   8   8   8   8
#     4  12  28  43  69 107 143 186 242 305 361 430
#     4  11  25  46  71 100 138 186 241 291 366 437
#     4  12  24  43  73 100 132 187 239 287 357 445
#     4  12  28  45  70 110 143 184 238 308 372 432
#     4  10  22  42  71  95 132 185 233 281 349 434
#     4  12  26  47  76 104 143 190 245 301 370 445
#     4  12  24  44  73  99 139 188 236 296 361 442
#     4  11  23  48  69 101 141 188 235 293 363 435
#
# _framework density 21.360122
#
# number of rings (size 3 to 8) (size 9 to 14) (size 15 to 20)
#    0.000    0.500    7.500    0.000    5.250    1.000 
#    4.500    0.000    0.000    0.000    0.000    0.000 
#    0.000    0.000    0.000    0.000    0.000    0.000 
#
# Total GULP energy -793372.115882 kJ/mol
# GULP energy per Si atom -12396.439311 kJ/mol
# Density = 2.131151 g / cm^3
# Si number density = 21.360122 Si / 1000 Ang^3
#
#
#
# Elastic Constant Matrix: (Units=GPa)
#
#
# Indices 1 2 3 4 5 6 
#
# 1 133.3726 12.8649 41.5713 0.0000 0.0000 0.0000
# 2 12.8649 63.3273 0.4873 0.0000 0.0000 0.0000
# 3 41.5713 0.4873 70.7970 0.0000 0.0000 0.0000
# 4 0.0000 0.0000 0.0000 30.9219 0.0000 0.0000
# 5 0.0000 0.0000 0.0000 0.0000 37.3471 0.0000
# 6 0.0000 0.0000 0.0000 0.0000 0.0000 36.1502
#
#
#
# Elastic Compliance Matrix: (Units=1/GPa)
#
#
# Indices 1 2 3 4 5 6 
#
# 1 0.009393 -0.001866 -0.005503 0.000000 0.000000 0.000000
# 2 -0.001866 0.016162 0.000984 0.000000 0.000000 0.000000
# 3 -0.005503 0.000984 0.017349 0.000000 0.000000 0.000000
# 4 0.000000 0.000000 0.000000 0.032340 0.000000 0.000000
# 5 0.000000 0.000000 0.000000 0.000000 0.026776 0.000000
# 6 0.000000 0.000000 0.000000 0.000000 0.000000 0.027662
#
#
# Mechanical properties :
#
#
# Convention : Reuss Voigt Hill
#
# Bulk Modulus (GPa) = 33.18244 41.92710 37.55477
# Shear Modulus (GPa) = 32.78780 35.05541 33.92160
#
# Velocity S-wave (km/s) = 3.92216 4.05552 3.98940
# Velocity P-wave (km/s) = 6.00663 6.44988 6.23220
#
# Compressibility (1/GPa) = 0.03013642
#
# Stress axis : x y z
#
# Youngs Moduli (GPa) = 106.46364 61.87185 57.63964
#
# Poissons Ratio (x) = 0.11544 0.31717
# Poissons Ratio (y) = 0.19864 -0.05674
# Poissons Ratio (z) = 0.58582 -0.06090
#
# Static dielectric constant tensor:
#      x y z
#    x 4.219190 0.000000 0.000000 
#    y 0.000000 4.278840 0.000000 
#    z 0.000000 0.000000 3.720640 
# 
# 
# High freq. dielectric constant tensor:
#      x y z
#    x 1.862490 0.000000 0.000000 
#    y 0.000000 1.847190 0.000000 
#    z 0.000000 0.000000 1.818400 
# 
# From -- ./inp_files/12875.got.cif
#   From: 2010.03.12/outbox.cif.g09.slc.cpg/sg56_7_cif.got.tgz:12875.got - 2010.04.16 15:33:40.
