data_PCOD8229418
_publ_section_title
;
Structure prediction by ZEFSAII (Michael W. Deem and Ramdas Pophale) SiO2 
 PCOD8229418
Probable space group: P C C N
;
_chemical_formula_sum "Si O2"
_cell_formula_units_Z 24
_cell_length_a 8.078392
_cell_length_b 10.231271
_cell_length_c 10.318203
_cell_angle_alpha 90.000000
_cell_angle_beta 90.000000
_cell_angle_gamma 90.000000
_cell_volume 852.822362
_symmetry_space_group_name_H-M "P C C N"
_symmetry_group_IT_number 56
_symmetry_cell_setting 'orthorhombic'
loop_
_space_group_symop_operation_xyz
x,y,z
1/2-x,1/2-y,z
1/2+x,-y,1/2-z
-x,1/2+y,1/2-z
-x,-y,-z
1/2+x,1/2+y,-z
1/2-x,y,1/2+z
x,1/2-y,1/2+z
loop_
_atom_site_type_symbol
_atom_site_label
_atom_site_fract_x
_atom_site_fract_y
_atom_site_fract_z
Si Si1 0.616007 0.017495 0.270810
Si Si2 0.162339 0.911527 0.497054
Si Si3 0.067110 0.249870 0.358283
O O1 0.708614 0.022179 0.406889
O O2 0.454187 0.112553 0.284288
O O3 0.557019 0.870088 0.243880
O O4 0.725004 0.081188 0.151958
O O5 0.090198 0.767550 0.540899
O O6 0.000000 0.000000 0.500000
O O7 0.250000 0.250000 0.424530
#
# Coordination Sequence:
#
# PCOD8229418 Si02
#       3
#     8   8   8
#     4  11  25  48  75 104 144 189 240 296 361 431
#     4  10  24  46  70 103 141 187 239 294 357 426
#     4  11  24  44  71 107 145 188 239 298 359 427
#
# _framework density 28.141850999999999
#
# number of rings (size 3 to 8) (size 9 to 14) (size 15 to 20)
#    0.000    1.333    0.000    5.000    0.000   12.000 
#    0.000   25.000    0.000    0.000    0.000    0.000 
#    0.000    0.000    0.000    0.000    0.000    0.000 
#
# Total GULP energy -297404.209955 kJ/mol
# GULP energy per Si atom -12391.842081 kJ/mol
# Density = 2.807780 g / cm^3
# Si number density = 28.141851 Si / 1000 Ang^3
#
#
#
# Elastic Constant Matrix: (Units=GPa)
#
#
# Indices 1 2 3 4 5 6 
#
# 1 91.5452 12.7400 28.9452 0.0000 0.0000 0.0000
# 2 12.7400 134.9497 -4.3484 0.0000 0.0000 0.0000
# 3 28.9452 -4.3484 138.5351 0.0000 0.0000 0.0000
# 4 0.0000 0.0000 0.0000 28.0551 0.0000 0.0000
# 5 0.0000 0.0000 0.0000 0.0000 42.6184 0.0000
# 6 0.0000 0.0000 0.0000 0.0000 0.0000 35.8286
#
#
#
# Elastic Compliance Matrix: (Units=1/GPa)
#
#
# Indices 1 2 3 4 5 6 
#
# 1 0.011888 -0.001204 -0.002522 0.000000 0.000000 0.000000
# 2 -0.001204 0.007540 0.000488 0.000000 0.000000 0.000000
# 3 -0.002522 0.000488 0.007761 0.000000 0.000000 0.000000
# 4 0.000000 0.000000 0.000000 0.035644 0.000000 0.000000
# 5 0.000000 0.000000 0.000000 0.000000 0.023464 0.000000
# 6 0.000000 0.000000 0.000000 0.000000 0.000000 0.027911
#
#
# Mechanical properties :
#
#
# Convention : Reuss Voigt Hill
#
# Bulk Modulus (GPa) = 48.27615 48.85596 48.56606
# Shear Modulus (GPa) = 39.18911 43.14663 41.16787
#
# Velocity S-wave (km/s) = 3.73575 3.91984 3.82890
# Velocity P-wave (km/s) = 5.98327 6.15509 6.06979
#
# Compressibility (1/GPa) = 0.02071416
#
# Stress axis : x y z
#
# Youngs Moduli (GPa) = 84.11564 132.63436 128.85618
#
# Poissons Ratio (x) = 0.15964 0.32494
# Poissons Ratio (y) = 0.10124 -0.06290
# Poissons Ratio (z) = 0.21212 -0.06474
#
# Static dielectric constant tensor:
#      x y z
#    x 5.165590 0.000000 0.000000 
#    y 0.000000 6.266020 0.000000 
#    z 0.000000 0.000000 6.961760 
# 
# 
# High freq. dielectric constant tensor:
#      x y z
#    x 2.147800 0.000000 0.000000 
#    y 0.000000 2.154380 0.000000 
#    z 0.000000 0.000000 2.118830 
# 
# From -- ./inp_files/5809.got.cif
#   From: 2010.03.12/outbox.cif.g09.slc.cpg/sg56_3_cif.got.tgz:5809.got - 2010.04.16 15:33:40.
