data_PCOD8229399
_publ_section_title
;
Structure prediction by ZEFSAII (Michael W. Deem and Ramdas Pophale) SiO2 
 PCOD8229399
Probable space group: P C C N
;
_chemical_formula_sum "Si O2"
_cell_formula_units_Z 40
_cell_length_a 9.059541
_cell_length_b 19.695963
_cell_length_c 8.989258
_cell_angle_alpha 90.000000
_cell_angle_beta 90.000000
_cell_angle_gamma 90.000000
_cell_volume 1604.010695
_symmetry_space_group_name_H-M "P C C N"
_symmetry_group_IT_number 56
_symmetry_cell_setting 'orthorhombic'
loop_
_space_group_symop_operation_xyz
x,y,z
1/2-x,1/2-y,z
1/2+x,-y,1/2-z
-x,1/2+y,1/2-z
-x,-y,-z
1/2+x,1/2+y,-z
1/2-x,y,1/2+z
x,1/2-y,1/2+z
loop_
_atom_site_type_symbol
_atom_site_label
_atom_site_fract_x
_atom_site_fract_y
_atom_site_fract_z
Si Si1 0.588419 0.977502 0.322810
Si Si2 0.135893 0.311546 0.164821
Si Si3 0.803260 0.089925 0.267517
Si Si4 0.280503 0.100121 0.418982
Si Si5 0.669331 0.183823 0.032176
O O1 0.416290 0.970541 0.278654
O O2 0.676535 0.934585 0.201134
O O3 0.609760 0.951682 0.493812
O O4 0.646618 0.054986 0.310901
O O5 0.250000 0.250000 0.162489
O O6 0.127472 0.342118 0.331776
O O7 0.971875 0.288180 0.122421
O O8 0.180254 0.368140 0.046604
O O9 0.781281 0.143187 0.136798
O O10 0.875230 0.132475 0.401402
O O11 0.750000 0.250000 0.966009
#
# Coordination Sequence:
#
# PCOD8229399 Si02
#       5
#     8   8   8   8   8
#     4  11  26  48  77 111 146 200 247 314 382 447
#     4  11  25  46  77 106 145 199 254 305 365 453
#     4  12  29  50  78 112 154 200 258 313 382 452
#     4  10  24  44  76 107 147 185 253 308 376 436
#     4  12  30  50  75 111 156 199 250 312 382 454
#
# _framework density 24.937487999999998
#
# number of rings (size 3 to 8) (size 9 to 14) (size 15 to 20)
#    0.000    0.800    2.000    2.400   14.000    6.400 
#    0.000    0.000    0.000    0.000    0.000    0.000 
#    0.000    0.000    0.000    0.000    0.000    0.000 
#
# Total GULP energy -496111.037408 kJ/mol
# GULP energy per Si atom -12402.775935 kJ/mol
# Density = 2.488073 g / cm^3
# Si number density = 24.937488 Si / 1000 Ang^3
#
#
#
# Elastic Constant Matrix: (Units=GPa)
#
#
# Indices 1 2 3 4 5 6 
#
# 1 115.3668 36.7916 22.5384 0.0000 0.0000 0.0000
# 2 36.7916 106.0305 28.1310 0.0000 0.0000 0.0000
# 3 22.5384 28.1310 137.3504 0.0000 0.0000 0.0000
# 4 0.0000 0.0000 0.0000 38.9755 0.0000 0.0000
# 5 0.0000 0.0000 0.0000 0.0000 25.2720 0.0000
# 6 0.0000 0.0000 0.0000 0.0000 0.0000 46.0888
#
#
#
# Elastic Compliance Matrix: (Units=1/GPa)
#
#
# Indices 1 2 3 4 5 6 
#
# 1 0.009867 -0.003166 -0.000971 0.000000 0.000000 0.000000
# 2 -0.003166 0.010989 -0.001731 0.000000 0.000000 0.000000
# 3 -0.000971 -0.001731 0.007794 0.000000 0.000000 0.000000
# 4 0.000000 0.000000 0.000000 0.025657 0.000000 0.000000
# 5 0.000000 0.000000 0.000000 0.000000 0.039569 0.000000
# 6 0.000000 0.000000 0.000000 0.000000 0.000000 0.021697
#
#
# Mechanical properties :
#
#
# Convention : Reuss Voigt Hill
#
# Bulk Modulus (GPa) = 59.11995 59.29665 59.20830
# Shear Modulus (GPa) = 37.60821 40.15303 38.88062
#
# Velocity S-wave (km/s) = 3.88764 4.01702 3.95286
# Velocity P-wave (km/s) = 6.62649 6.73387 6.68039
#
# Compressibility (1/GPa) = 0.01691476
#
# Stress axis : x y z
#
# Youngs Moduli (GPa) = 101.34353 90.99803 128.29572
#
# Poissons Ratio (x) = 0.28813 0.12453
# Poissons Ratio (y) = 0.32089 0.22210
# Poissons Ratio (z) = 0.09837 0.15753
#
# Static dielectric constant tensor:
#      x y z
#    x 4.421990 0.000000 0.000000 
#    y 0.000000 4.425500 0.000000 
#    z 0.000000 0.000000 5.018540 
# 
# 
# High freq. dielectric constant tensor:
#      x y z
#    x 1.993360 0.000000 0.000000 
#    y 0.000000 1.994790 0.000000 
#    z 0.000000 0.000000 2.014130 
# 
# From -- ./inp_files/2055.got.cif
#   From: 2010.03.12/outbox.cif.g09.slc.cpg/sg56_2_cif.got.tgz:2055.got - 2010.04.16 15:33:40.
