data_PCOD8229747
_publ_section_title
;
Structure prediction by ZEFSAII (Michael W. Deem and Ramdas Pophale) SiO2 
 PCOD8229747
Probable space group: P C C N
;
_chemical_formula_sum "Si O2"
_cell_formula_units_Z 40
_cell_length_a 5.108575
_cell_length_b 21.890229
_cell_length_c 13.900835
_cell_angle_alpha 90.000000
_cell_angle_beta 90.000000
_cell_angle_gamma 90.000000
_cell_volume 1554.500861
_symmetry_space_group_name_H-M "P C C N"
_symmetry_group_IT_number 56
_symmetry_cell_setting 'orthorhombic'
loop_
_space_group_symop_operation_xyz
x,y,z
1/2-x,1/2-y,z
1/2+x,-y,1/2-z
-x,1/2+y,1/2-z
-x,-y,-z
1/2+x,1/2+y,-z
1/2-x,y,1/2+z
x,1/2-y,1/2+z
loop_
_atom_site_type_symbol
_atom_site_label
_atom_site_fract_x
_atom_site_fract_y
_atom_site_fract_z
Si Si1 0.993297 0.074953 0.933404
Si Si2 0.999183 0.714107 0.571279
Si Si3 0.004019 0.484715 0.843328
Si Si4 0.496584 0.214618 0.657588
Si Si5 0.611388 0.921452 0.346012
O O1 0.020628 0.144105 0.894610
O O2 0.994296 0.070248 0.048377
O O3 0.781655 0.967810 0.111095
O O4 0.711367 0.051205 0.904400
O O5 0.250000 0.750000 0.613149
O O6 0.750000 0.750000 0.611918
O O7 0.006230 0.715459 0.456740
O O8 0.921732 0.557520 0.848751
O O9 0.972331 0.466702 0.730669
O O10 0.250000 0.250000 0.699175
O O11 0.448837 0.145811 0.693802
O O12 0.750000 0.250000 0.699674
#
# Coordination Sequence:
#
# PCOD8229747 Si02
#       5
#     8   8   8   8   8
#     4  11  25  44  69 100 137 182 232 283 346 416
#     4   9  17  35  62  92 129 174 222 279 341 401
#     4  12  26  44  69 104 135 182 236 277 350 422
#     4   9  20  38  65  95 126 174 225 274 345 409
#     4  11  26  47  71  99 143 180 226 295 342 410
#
# _framework density 25.731732999999998
#
# number of rings (size 3 to 8) (size 9 to 14) (size 15 to 20)
#    0.000    1.600    0.000    3.600    0.000   12.800 
#    0.000    6.000    0.000    0.000    0.000    0.000 
#    0.000    0.000    0.000    0.000    0.000    0.000 
#
# Total GULP energy -495764.944195 kJ/mol
# GULP energy per Si atom -12394.123605 kJ/mol
# Density = 2.567317 g / cm^3
# Si number density = 25.731733 Si / 1000 Ang^3
#
#
#
# Elastic Constant Matrix: (Units=GPa)
#
#
# Indices 1 2 3 4 5 6 
#
# 1 133.3582 68.1348 8.0326 0.0000 0.0000 0.0000
# 2 68.1348 202.2864 20.3866 0.0000 0.0000 0.0000
# 3 8.0326 20.3866 90.1117 0.0000 0.0000 0.0000
# 4 0.0000 0.0000 0.0000 23.1876 0.0000 0.0000
# 5 0.0000 0.0000 0.0000 0.0000 -27.6336 0.0000
# 6 0.0000 0.0000 0.0000 0.0000 0.0000 48.4924
#
#
#
# Elastic Compliance Matrix: (Units=1/GPa)
#
#
# Indices 1 2 3 4 5 6 
#
# 1 0.009059 -0.003039 -0.000120 0.000000 0.000000 0.000000
# 2 -0.003039 0.006078 -0.001104 0.000000 0.000000 0.000000
# 3 -0.000120 -0.001104 0.011358 0.000000 0.000000 0.000000
# 4 0.000000 0.000000 0.000000 0.043126 0.000000 0.000000
# 5 0.000000 0.000000 0.000000 0.000000 -0.036188 0.000000
# 6 0.000000 0.000000 0.000000 0.000000 0.000000 0.020622
#
#
# Mechanical properties :
#
#
# Convention : Reuss Voigt Hill
#
# Bulk Modulus (GPa) = 55.65357 68.76271 62.20814
# Shear Modulus (GPa) = 72.91704 30.75609 51.83657
#
# Velocity S-wave (km/s) = 5.32906 3.46100 4.49319
# Velocity P-wave (km/s) = 7.71625 6.53853 7.15167
#
# Compressibility (1/GPa) = 0.01796830
#
# Stress axis : x y z
#
# Youngs Moduli (GPa) = 110.39335 164.51713 88.04481
#
# Poissons Ratio (x) = 0.49997 0.01056
# Poissons Ratio (y) = 0.33549 0.09722
# Poissons Ratio (z) = 0.01324 0.18167
#
# Static dielectric constant tensor:
#      x y z
#    x 4.857630 0.000000 0.000000 
#    y 0.000000 5.185310 0.000000 
#    z 0.000000 0.000000 4.594370 
# 
# 
# High freq. dielectric constant tensor:
#      x y z
#    x 2.032220 0.000000 0.000000 
#    y 0.000000 2.039240 0.000000 
#    z 0.000000 0.000000 2.039530 
# 
# From -- ./inp_files/13909.got.cif
#   From: 2010.03.12/outbox.cif.g09.slc.cpg/sg56_7_cif.got.tgz:13909.got - 2010.04.16 15:33:40.
