data_PCOD8229573
_publ_section_title
;
Structure prediction by ZEFSAII (Michael W. Deem and Ramdas Pophale) SiO2 
 PCOD8229573
Probable space group: P C C N
;
_chemical_formula_sum "Si O2"
_cell_formula_units_Z 60
_cell_length_a 11.875481
_cell_length_b 11.869524
_cell_length_c 21.885892
_cell_angle_alpha 90.000000
_cell_angle_beta 90.000000
_cell_angle_gamma 90.000000
_cell_volume 3084.954506
_symmetry_space_group_name_H-M "P C C N"
_symmetry_group_IT_number 56
_symmetry_cell_setting 'orthorhombic'
loop_
_space_group_symop_operation_xyz
x,y,z
1/2-x,1/2-y,z
1/2+x,-y,1/2-z
-x,1/2+y,1/2-z
-x,-y,-z
1/2+x,1/2+y,-z
1/2-x,y,1/2+z
x,1/2-y,1/2+z
loop_
_atom_site_type_symbol
_atom_site_label
_atom_site_fract_x
_atom_site_fract_y
_atom_site_fract_z
Si Si1 0.844277 0.844353 0.215419
Si Si2 0.659955 0.839947 0.472876
Si Si3 0.559025 0.203038 0.591923
Si Si4 0.577821 0.223525 0.226967
Si Si5 0.060187 0.059934 0.905014
Si Si6 0.223632 0.922132 0.726883
Si Si7 0.250000 0.750000 0.499927
Si Si8 0.702589 0.059097 0.408065
O O1 0.750000 0.750000 0.217746
O O2 0.870931 0.871535 0.145233
O O3 0.953468 0.797915 0.249291
O O4 0.798062 0.953316 0.249648
O O5 0.750000 0.750000 0.496994
O O6 0.567727 0.777722 0.431236
O O7 0.598273 0.901792 0.528307
O O8 0.721831 0.932169 0.431055
O O9 0.576944 0.270871 0.654011
O O10 0.640251 0.255839 0.541774
O O11 0.585978 0.071705 0.602636
O O12 0.658984 0.120852 0.244996
O O13 0.621087 0.340945 0.254966
O O14 0.928672 0.085937 0.897199
O O15 0.229380 0.922549 0.653920
O O16 0.244970 0.859863 0.541592
#
# Coordination Sequence:
#
# PCOD8229573 Si02
#       8
#     8   8   8   8   8   8   4   8
#     4  12  28  41  70 100 134 178 223 282 329 401
#     4  11  24  42  67  98 131 171 216 272 332 396
#     4  11  23  40  71  92 127 175 221 271 323 407
#     4  11  25  45  67  97 134 179 223 277 338 397
#     4  11  21  49  64  96 132 174 225 266 336 391
#     4  11  25  45  67  97 134 179 223 277 338 397
#     4  12  20  42  68 100 116 166 230 254 336 386
#     4  11  23  40  71  92 127 175 221 271 323 407
#
# _framework density 19.449235000000002
#
# number of rings (size 3 to 8) (size 9 to 14) (size 15 to 20)
#    0.000    0.800    5.333    2.800    7.467    0.000 
#    0.000    0.667    0.000    0.000    0.000    0.000 
#    0.000    0.000    0.000    0.000    0.000    0.000 
#
# Total GULP energy -744383.779814 kJ/mol
# GULP energy per Si atom -12406.396330 kJ/mol
# Density = 1.940497 g / cm^3
# Si number density = 19.449235 Si / 1000 Ang^3
#
#
#
# Elastic Constant Matrix: (Units=GPa)
#
#
# Indices 1 2 3 4 5 6 
#
# 1 90.3840 83.4882 38.9407 0.0000 0.0000 0.0000
# 2 83.4882 87.1934 37.2138 0.0000 0.0000 0.0000
# 3 38.9407 37.2138 139.0916 0.0000 0.0000 0.0000
# 4 0.0000 0.0000 0.0000 27.2449 0.0000 0.0000
# 5 0.0000 0.0000 0.0000 0.0000 27.3519 0.0000
# 6 0.0000 0.0000 0.0000 0.0000 0.0000 31.2734
#
#
#
# Elastic Compliance Matrix: (Units=1/GPa)
#
#
# Indices 1 2 3 4 5 6 
#
# 1 0.096575 -0.091364 -0.002593 0.000000 0.000000 0.000000
# 2 -0.091364 0.099382 -0.001011 0.000000 0.000000 0.000000
# 3 -0.002593 -0.001011 0.008186 0.000000 0.000000 0.000000
# 4 0.000000 0.000000 0.000000 0.036704 0.000000 0.000000
# 5 0.000000 0.000000 0.000000 0.000000 0.036561 0.000000
# 6 0.000000 0.000000 0.000000 0.000000 0.000000 0.031976
#
#
# Mechanical properties :
#
#
# Convention : Reuss Voigt Hill
#
# Bulk Modulus (GPa) = 70.39076 70.66159 70.52618
# Shear Modulus (GPa) = 9.91957 27.64245 18.78101
#
# Velocity S-wave (km/s) = 2.26082 3.77405 3.11085
# Velocity P-wave (km/s) = 6.56397 7.44322 7.01738
#
# Compressibility (1/GPa) = 0.01420641
#
# Stress axis : x y z
#
# Youngs Moduli (GPa) = 10.35470 10.06222 122.16090
#
# Poissons Ratio (x) = 0.91932 0.31677
# Poissons Ratio (y) = 0.94605 0.12349
# Poissons Ratio (z) = 0.02685 0.01017
#
# Static dielectric constant tensor:
#      x y z
#    x 3.621420 0.000000 0.000000 
#    y 0.000000 3.619560 0.000000 
#    z 0.000000 0.000000 3.720980 
# 
# 
# High freq. dielectric constant tensor:
#      x y z
#    x 1.757600 0.000000 0.000000 
#    y 0.000000 1.757460 0.000000 
#    z 0.000000 0.000000 1.778870 
# 
# From -- ./inp_files/18795.got.cif
#   From: 2010.03.12/outbox.cif.g09.slc.cpg/sg56_10_cif.got.tgz:18795.got - 2010.04.16 15:33:40.
