data_PCOD8229061
_publ_section_title
;
Structure prediction by ZEFSAII (Michael W. Deem and Ramdas Pophale) SiO2 
 PCOD8229061
Probable space group: P C C N
;
_chemical_formula_sum "Si O2"
_cell_formula_units_Z 48
_cell_length_a 16.658888
_cell_length_b 9.952222
_cell_length_c 12.838207
_cell_angle_alpha 90.000000
_cell_angle_beta 90.000000
_cell_angle_gamma 90.000000
_cell_volume 2128.484232
_symmetry_space_group_name_H-M "P C C N"
_symmetry_group_IT_number 56
_symmetry_cell_setting 'orthorhombic'
loop_
_space_group_symop_operation_xyz
x,y,z
1/2-x,1/2-y,z
1/2+x,-y,1/2-z
-x,1/2+y,1/2-z
-x,-y,-z
1/2+x,1/2+y,-z
1/2-x,y,1/2+z
x,1/2-y,1/2+z
loop_
_atom_site_type_symbol
_atom_site_label
_atom_site_fract_x
_atom_site_fract_y
_atom_site_fract_z
Si Si1 0.250000 0.250000 0.199128
Si Si2 0.089527 0.645679 0.951564
Si Si3 0.950286 0.856561 0.603487
Si Si4 0.250000 0.750000 0.393524
Si Si5 0.326506 0.491245 0.832885
Si Si6 0.871398 0.867055 0.966722
Si Si7 0.489211 0.626833 0.824606
O O1 0.211033 0.366620 0.270417
O O2 0.183139 0.186937 0.125732
O O3 0.096394 0.495552 0.909732
O O4 0.177951 0.705245 0.969950
O O5 0.045972 0.732704 0.863658
O O6 0.040606 0.644053 0.058819
O O7 0.894282 0.748436 0.549017
O O8 0.958108 0.831085 0.725516
O O9 0.225210 0.626995 0.316435
O O10 0.419756 0.517421 0.799367
O O11 0.325551 0.472665 0.959466
O O12 0.950638 0.931951 0.913382
#
# Coordination Sequence:
#
# PCOD8229061 Si02
#       7
#     4   8   8   4   8   8   8
#     4  12  28  44  72 106 142 192 238 294 370 420
#     4   9  22  41  64 100 134 182 227 289 350 424
#     4  10  22  40  73  96 135 178 240 288 343 427
#     4  10  24  46  66  96 144 178 222 290 364 412
#     4  11  26  47  69 101 141 181 237 293 353 434
#     4  11  25  43  70 105 135 183 235 297 351 429
#     4  10  23  43  69 101 134 182 233 285 359 417
#
# _framework density 22.551258000000001
#
# number of rings (size 3 to 8) (size 9 to 14) (size 15 to 20)
#    0.000    1.667    0.000    2.000   16.333    0.000 
#    0.000    4.167    0.000    0.000    0.000    0.000 
#    0.000    0.000    0.000    0.000    0.000    0.000 
#
# Total GULP energy -595093.261970 kJ/mol
# GULP energy per Si atom -12397.776291 kJ/mol
# Density = 2.249993 g / cm^3
# Si number density = 22.551258 Si / 1000 Ang^3
#
#
#
# Elastic Constant Matrix: (Units=GPa)
#
#
# Indices 1 2 3 4 5 6 
#
# 1 114.1782 48.1121 48.2942 0.0000 0.0000 0.0000
# 2 48.1121 105.3726 46.2798 0.0000 0.0000 0.0000
# 3 48.2942 46.2798 126.3697 0.0000 0.0000 0.0000
# 4 0.0000 0.0000 0.0000 25.7160 0.0000 0.0000
# 5 0.0000 0.0000 0.0000 0.0000 24.7601 0.0000
# 6 0.0000 0.0000 0.0000 0.0000 0.0000 34.2645
#
#
#
# Elastic Compliance Matrix: (Units=1/GPa)
#
#
# Indices 1 2 3 4 5 6 
#
# 1 0.011730 -0.004036 -0.003005 0.000000 0.000000 0.000000
# 2 -0.004036 0.012698 -0.003108 0.000000 0.000000 0.000000
# 3 -0.003005 -0.003108 0.010200 0.000000 0.000000 0.000000
# 4 0.000000 0.000000 0.000000 0.038886 0.000000 0.000000
# 5 0.000000 0.000000 0.000000 0.000000 0.040387 0.000000
# 6 0.000000 0.000000 0.000000 0.000000 0.000000 0.029185
#
#
# Mechanical properties :
#
#
# Convention : Reuss Voigt Hill
#
# Bulk Modulus (GPa) = 69.78188 70.14364 69.96276
# Shear Modulus (GPa) = 29.73361 30.49710 30.11535
#
# Velocity S-wave (km/s) = 3.63504 3.68141 3.65830
# Velocity P-wave (km/s) = 6.97344 7.01727 6.99539
#
# Compressibility (1/GPa) = 0.01433037
#
# Stress axis : x y z
#
# Youngs Moduli (GPa) = 85.25278 78.75292 98.04187
#
# Poissons Ratio (x) = 0.31785 0.29458
# Poissons Ratio (y) = 0.34409 0.30470
# Poissons Ratio (z) = 0.25615 0.24475
#
# Static dielectric constant tensor:
#      x y z
#    x 4.524370 0.000000 0.000000 
#    y 0.000000 4.173030 0.000000 
#    z 0.000000 0.000000 3.925570 
# 
# 
# High freq. dielectric constant tensor:
#      x y z
#    x 1.902210 0.000000 0.000000 
#    y 0.000000 1.895010 0.000000 
#    z 0.000000 0.000000 1.877100 
# 
# From -- ./inp_files/8325.got.cif
#   From: 2010.03.12/outbox.cif.g09.slc.cpg/sg56_5_cif.got.tgz:8325.got - 2010.04.16 15:33:40.
