data_PCOD8229623
_publ_section_title
;
Structure prediction by ZEFSAII (Michael W. Deem and Ramdas Pophale) SiO2 
 PCOD8229623
Probable space group: P C C N
;
_chemical_formula_sum "Si O2"
_cell_formula_units_Z 60
_cell_length_a 8.633495
_cell_length_b 25.536534
_cell_length_c 12.795700
_cell_angle_alpha 90.000000
_cell_angle_beta 90.000000
_cell_angle_gamma 90.000000
_cell_volume 2821.062075
_symmetry_space_group_name_H-M "P C C N"
_symmetry_group_IT_number 56
_symmetry_cell_setting 'orthorhombic'
loop_
_space_group_symop_operation_xyz
x,y,z
1/2-x,1/2-y,z
1/2+x,-y,1/2-z
-x,1/2+y,1/2-z
-x,-y,-z
1/2+x,1/2+y,-z
1/2-x,y,1/2+z
x,1/2-y,1/2+z
loop_
_atom_site_type_symbol
_atom_site_label
_atom_site_fract_x
_atom_site_fract_y
_atom_site_fract_z
Si Si1 0.580388 0.659992 0.035648
Si Si2 0.313634 0.108923 0.673623
Si Si3 0.254017 0.618962 0.834406
Si Si4 0.250000 0.250000 0.844826
Si Si5 0.023867 0.976183 0.886103
Si Si6 0.470506 0.416664 0.788856
Si Si7 0.490130 0.821299 0.206681
Si Si8 0.269417 0.808989 0.010435
O O1 0.694588 0.703191 0.081644
O O2 0.587744 0.606877 0.102004
O O3 0.402058 0.676016 0.046591
O O4 0.639630 0.649121 0.918495
O O5 0.362963 0.050122 0.646779
O O6 0.130499 0.106369 0.693141
O O7 0.396408 0.127983 0.782413
O O8 0.345193 0.569111 0.882236
O O9 0.363544 0.666939 0.795875
O O10 0.146126 0.598536 0.740782
O O11 0.164430 0.649095 0.926660
O O12 0.396106 0.229343 0.775001
O O13 0.055049 0.021271 0.800934
O O14 0.000000 0.000000 0.000000
O O15 0.399596 0.812974 0.099469
O O16 0.250000 0.750000 0.967672
#
# Coordination Sequence:
#
# PCOD8229623 Si02
#       8
#     8   8   8   4   8   8   8   8
#     4  12  24  45  65  97 140 180 225 292 343 411
#     4  11  25  45  67  99 138 178 232 291 350 416
#     4  11  26  44  69 105 135 182 237 284 353 424
#     4  12  26  42  68 102 138 182 232 290 340 410
#     4  11  22  46  71  95 139 181 224 292 355 410
#     4  12  24  43  72  99 136 182 234 287 354 415
#     4  11  24  43  67  97 137 177 230 281 338 414
#     4  12  24  43  67  98 138 180 228 287 343 419
#
# _framework density 21.268585999999999
#
# number of rings (size 3 to 8) (size 9 to 14) (size 15 to 20)
#    0.000    0.533    8.000    0.800    1.867    2.133 
#    0.000    0.667    0.000    0.000    0.000    0.000 
#    0.000    0.000    0.000    0.000    0.000    0.000 
#
# Total GULP energy -743305.014835 kJ/mol
# GULP energy per Si atom -12388.416914 kJ/mol
# Density = 2.122018 g / cm^3
# Si number density = 21.268586 Si / 1000 Ang^3
#
#
#
# Elastic Constant Matrix: (Units=GPa)
#
#
# Indices 1 2 3 4 5 6 
#
# 1 102.3369 44.2403 40.6482 0.0000 0.0000 0.0000
# 2 44.2403 144.3297 55.7818 0.0000 0.0000 0.0000
# 3 40.6482 55.7818 78.3178 0.0000 0.0000 0.0000
# 4 0.0000 0.0000 0.0000 34.2299 0.0000 0.0000
# 5 0.0000 0.0000 0.0000 0.0000 26.5984 0.0000
# 6 0.0000 0.0000 0.0000 0.0000 0.0000 37.0317
#
#
#
# Elastic Compliance Matrix: (Units=1/GPa)
#
#
# Indices 1 2 3 4 5 6 
#
# 1 0.012657 -0.001850 -0.005252 0.000000 0.000000 0.000000
# 2 -0.001850 0.009831 -0.006042 0.000000 0.000000 0.000000
# 3 -0.005252 -0.006042 0.019797 0.000000 0.000000 0.000000
# 4 0.000000 0.000000 0.000000 0.029214 0.000000 0.000000
# 5 0.000000 0.000000 0.000000 0.000000 0.037596 0.000000
# 6 0.000000 0.000000 0.000000 0.000000 0.000000 0.027004
#
#
# Mechanical properties :
#
#
# Convention : Reuss Voigt Hill
#
# Bulk Modulus (GPa) = 62.50547 67.36944 64.93746
# Shear Modulus (GPa) = 29.81163 31.85960 30.83562
#
# Velocity S-wave (km/s) = 3.74796 3.87455 3.81178
# Velocity P-wave (km/s) = 6.94133 7.19448 7.06904
#
# Compressibility (1/GPa) = 0.01599860
#
# Stress axis : x y z
#
# Youngs Moduli (GPa) = 79.00516 101.72202 50.51161
#
# Poissons Ratio (x) = 0.18819 0.26527
# Poissons Ratio (y) = 0.14616 0.30518
# Poissons Ratio (z) = 0.41491 0.61458
#
# Static dielectric constant tensor:
#      x y z
#    x 3.999760 0.000000 0.000000 
#    y 0.000000 4.044450 0.000000 
#    z 0.000000 0.000000 3.746810 
# 
# 
# High freq. dielectric constant tensor:
#      x y z
#    x 1.840550 0.000000 0.000000 
#    y 0.000000 1.843340 0.000000 
#    z 0.000000 0.000000 1.823060 
# 
# From -- ./inp_files/6542.got.cif
#   From: 2010.03.12/outbox.cif.g09.slc.cpg/sg56_4_cif.got.tgz:6542.got - 2010.04.16 15:33:40.
