data_PCOD8229196
_publ_section_title
;
Structure prediction by ZEFSAII (Michael W. Deem and Ramdas Pophale) SiO2 
 PCOD8229196
Probable space group: P C C N
;
_chemical_formula_sum "Si O2"
_cell_formula_units_Z 64
_cell_length_a 8.901409
_cell_length_b 22.743777
_cell_length_c 14.102322
_cell_angle_alpha 90.000000
_cell_angle_beta 90.000000
_cell_angle_gamma 90.000000
_cell_volume 2855.038517
_symmetry_space_group_name_H-M "P C C N"
_symmetry_group_IT_number 56
_symmetry_cell_setting 'orthorhombic'
loop_
_space_group_symop_operation_xyz
x,y,z
1/2-x,1/2-y,z
1/2+x,-y,1/2-z
-x,1/2+y,1/2-z
-x,-y,-z
1/2+x,1/2+y,-z
1/2-x,y,1/2+z
x,1/2-y,1/2+z
loop_
_atom_site_type_symbol
_atom_site_label
_atom_site_fract_x
_atom_site_fract_y
_atom_site_fract_z
Si Si1 0.095098 0.725707 0.863682
Si Si2 0.626098 0.399120 0.562556
Si Si3 0.855925 0.026309 0.946314
Si Si4 0.140644 0.196560 0.793831
Si Si5 0.755216 0.571497 0.203702
Si Si6 0.791257 0.584476 0.988591
Si Si7 0.875782 0.798395 0.988555
Si Si8 0.549018 0.470941 0.744308
O O1 0.250000 0.750000 0.820832
O O2 0.139616 0.670969 0.929994
O O3 0.998302 0.701523 0.776579
O O4 0.015665 0.777616 0.924721
O O5 0.769184 0.423427 0.505179
O O6 0.470122 0.408742 0.507012
O O7 0.626481 0.431486 0.663830
O O8 0.899494 0.055083 0.846002
O O9 0.746865 0.971076 0.922668
O O10 0.000000 0.000000 0.000000
O O11 0.250000 0.250000 0.775918
O O12 0.240851 0.139597 0.766526
O O13 0.077476 0.194499 0.901152
O O14 0.732044 0.566986 0.091742
O O15 0.629788 0.533983 0.259188
O O16 0.911841 0.540347 0.232255
O O17 0.700564 0.641447 0.950474
O O18 0.750000 0.750000 0.978260
#
# Coordination Sequence:
#
# PCOD8229196 Si02
#       8
#     8   8   8   8   8   8   8   8
#     4  12  27  45  71 102 142 186 230 299 364 425
#     4  12  26  47  70 103 141 185 237 288 360 430
#     4  12  26  43  68 104 139 187 231 288 357 429
#     4  10  24  47  71 102 135 183 243 294 349 428
#     4  11  24  44  71 102 139 183 236 293 356 423
#     4  11  23  44  73  97 138 183 233 295 347 421
#     4  10  22  46  75 102 131 185 245 289 351 419
#     4  12  24  44  68 104 141 184 229 290 351 424
#
# _framework density 22.416511
#
# number of rings (size 3 to 8) (size 9 to 14) (size 15 to 20)
#    0.000    0.750    5.000    1.500    3.500    0.500 
#    4.500    0.000    0.000    0.000    0.000    0.000 
#    0.000    0.000    0.000    0.000    0.000    0.000 
#
# Total GULP energy -793512.258341 kJ/mol
# GULP energy per Si atom -12398.629037 kJ/mol
# Density = 2.236549 g / cm^3
# Si number density = 22.416511 Si / 1000 Ang^3
#
#
#
# Elastic Constant Matrix: (Units=GPa)
#
#
# Indices 1 2 3 4 5 6 
#
# 1 84.8639 40.9814 20.9294 0.0000 0.0000 0.0000
# 2 40.9814 98.2575 17.4483 0.0000 0.0000 0.0000
# 3 20.9294 17.4483 88.3340 0.0000 0.0000 0.0000
# 4 0.0000 0.0000 0.0000 18.0953 0.0000 0.0000
# 5 0.0000 0.0000 0.0000 0.0000 34.4913 0.0000
# 6 0.0000 0.0000 0.0000 0.0000 0.0000 48.9316
#
#
#
# Elastic Compliance Matrix: (Units=1/GPa)
#
#
# Indices 1 2 3 4 5 6 
#
# 1 0.015247 -0.005926 -0.002442 0.000000 0.000000 0.000000
# 2 -0.005926 0.012850 -0.001134 0.000000 0.000000 0.000000
# 3 -0.002442 -0.001134 0.012123 0.000000 0.000000 0.000000
# 4 0.000000 0.000000 0.000000 0.055263 0.000000 0.000000
# 5 0.000000 0.000000 0.000000 0.000000 0.028993 0.000000
# 6 0.000000 0.000000 0.000000 0.000000 0.000000 0.020437
#
#
# Mechanical properties :
#
#
# Convention : Reuss Voigt Hill
#
# Bulk Modulus (GPa) = 47.13259 47.79707 47.46483
# Shear Modulus (GPa) = 29.24146 33.11007 31.17577
#
# Velocity S-wave (km/s) = 3.61565 3.84740 3.73332
# Velocity P-wave (km/s) = 6.20500 6.41133 6.30901
#
# Compressibility (1/GPa) = 0.02121674
#
# Stress axis : x y z
#
# Youngs Moduli (GPa) = 65.58468 77.81926 82.48550
#
# Poissons Ratio (x) = 0.46114 0.20144
# Poissons Ratio (y) = 0.38864 0.09356
# Poissons Ratio (z) = 0.16017 0.08827
#
# Static dielectric constant tensor:
#      x y z
#    x 4.024250 0.000000 0.000000 
#    y 0.000000 4.320150 0.000000 
#    z 0.000000 0.000000 4.143180 
# 
# 
# High freq. dielectric constant tensor:
#      x y z
#    x 1.877590 0.000000 0.000000 
#    y 0.000000 1.890240 0.000000 
#    z 0.000000 0.000000 1.892660 
# 
# From -- ./inp_files/11056.got.cif
#   From: 2010.03.12/outbox.cif.g09.slc.cpg/sg56_6_cif.got.tgz:11056.got - 2010.04.16 15:33:40.
