data_PCOD8229145
_publ_section_title
;
Structure prediction by ZEFSAII (Michael W. Deem and Ramdas Pophale) SiO2 
 PCOD8229145
Probable space group: P C C N
;
_chemical_formula_sum "Si O2"
_cell_formula_units_Z 40
_cell_length_a 11.426252
_cell_length_b 13.425444
_cell_length_c 11.485720
_cell_angle_alpha 90.000000
_cell_angle_beta 90.000000
_cell_angle_gamma 90.000000
_cell_volume 1761.938235
_symmetry_space_group_name_H-M "P C C N"
_symmetry_group_IT_number 56
_symmetry_cell_setting 'orthorhombic'
loop_
_space_group_symop_operation_xyz
x,y,z
1/2-x,1/2-y,z
1/2+x,-y,1/2-z
-x,1/2+y,1/2-z
-x,-y,-z
1/2+x,1/2+y,-z
1/2-x,y,1/2+z
x,1/2-y,1/2+z
loop_
_atom_site_type_symbol
_atom_site_label
_atom_site_fract_x
_atom_site_fract_y
_atom_site_fract_z
Si Si1 0.225207 0.135884 0.407290
Si Si2 0.448596 0.331866 0.599729
Si Si3 0.972092 0.574041 0.654659
Si Si4 0.959392 0.633185 0.280071
Si Si5 0.888231 0.263571 0.905819
O O1 0.250000 0.250000 0.377702
O O2 0.161309 0.122102 0.530729
O O3 0.345108 0.076032 0.404576
O O4 0.139982 0.095350 0.307370
O O5 0.470940 0.404536 0.707155
O O6 0.410533 0.221226 0.639058
O O7 0.564586 0.323663 0.518643
O O8 0.011466 0.460196 0.637042
O O9 0.055940 0.653219 0.592179
O O10 0.072650 0.676213 0.209865
O O11 0.750000 0.250000 0.910768
#
# Coordination Sequence:
#
# PCOD8229145 Si02
#       5
#     8   8   8   8   8
#     4  11  21  41  66  95 123 174 220 260 324 383
#     4  10  22  43  67  87 135 168 208 269 322 376
#     4  11  24  42  67  96 129 167 217 269 320 383
#     4  10  24  42  64  95 127 169 216 266 320 380
#     4  10  23  42  60  93 131 169 211 255 329 383
#
# _framework density 22.702272000000001
#
# number of rings (size 3 to 8) (size 9 to 14) (size 15 to 20)
#    0.000    1.600    6.000    0.000    5.600    7.200 
#    3.600    0.000    0.000    0.000    0.000    0.000 
#    0.000    0.000    0.000    0.000    0.000    0.000 
#
# Total GULP energy -496064.365250 kJ/mol
# GULP energy per Si atom -12401.609131 kJ/mol
# Density = 2.265060 g / cm^3
# Si number density = 22.702272 Si / 1000 Ang^3
#
#
#
# Elastic Constant Matrix: (Units=GPa)
#
#
# Indices 1 2 3 4 5 6 
#
# 1 153.2990 1.1312 27.9541 0.0000 0.0000 0.0000
# 2 1.1312 58.3696 -17.7864 0.0000 0.0000 0.0000
# 3 27.9541 -17.7864 56.1930 0.0000 0.0000 0.0000
# 4 0.0000 0.0000 0.0000 16.4118 0.0000 0.0000
# 5 0.0000 0.0000 0.0000 0.0000 17.8423 0.0000
# 6 0.0000 0.0000 0.0000 0.0000 0.0000 21.1169
#
#
#
# Elastic Compliance Matrix: (Units=1/GPa)
#
#
# Indices 1 2 3 4 5 6 
#
# 1 0.007272 -0.001376 -0.004053 0.000000 0.000000 0.000000
# 2 -0.001376 0.019221 0.006769 0.000000 0.000000 0.000000
# 3 -0.004053 0.006769 0.021955 0.000000 0.000000 0.000000
# 4 0.000000 0.000000 0.000000 0.060932 0.000000 0.000000
# 5 0.000000 0.000000 0.000000 0.000000 0.056047 0.000000
# 6 0.000000 0.000000 0.000000 0.000000 0.000000 0.047355
#
#
# Mechanical properties :
#
#
# Convention : Reuss Voigt Hill
#
# Bulk Modulus (GPa) = 19.55925 32.27328 25.91626
# Shear Modulus (GPa) = 22.01223 28.17837 25.09530
#
# Velocity S-wave (km/s) = 3.11723 3.52691 3.32838
# Velocity P-wave (km/s) = 4.64654 5.55267 5.11970
#
# Compressibility (1/GPa) = 0.05112672
#
# Stress axis : x y z
#
# Youngs Moduli (GPa) = 137.50455 52.02535 45.54848
#
# Poissons Ratio (x) = 0.07159 0.18463
# Poissons Ratio (y) = 0.18922 -0.30830
# Poissons Ratio (z) = 0.55736 -0.35214
#
# Static dielectric constant tensor:
#      x y z
#    x 4.280170 0.000000 0.000000 
#    y 0.000000 3.847360 0.000000 
#    z 0.000000 0.000000 4.272810 
# 
# 
# High freq. dielectric constant tensor:
#      x y z
#    x 1.888560 0.000000 0.000000 
#    y 0.000000 1.878340 0.000000 
#    z 0.000000 0.000000 1.909150 
# 
# From -- ./inp_files/6980.got.cif
#   From: 2010.03.12/outbox.cif.g09.slc.cpg/sg56_4_cif.got.tgz:6980.got - 2010.04.16 15:33:40.
