data_PCOD8229846
_publ_section_title
;
Structure prediction by ZEFSAII (Michael W. Deem and Ramdas Pophale) SiO2 
 PCOD8229846
Probable space group: P C C N
;
_chemical_formula_sum "Si O2"
_cell_formula_units_Z 36
_cell_length_a 20.149287
_cell_length_b 6.964190
_cell_length_c 11.533638
_cell_angle_alpha 90.000000
_cell_angle_beta 90.000000
_cell_angle_gamma 90.000000
_cell_volume 1618.440026
_symmetry_space_group_name_H-M "P C C N"
_symmetry_group_IT_number 56
_symmetry_cell_setting 'orthorhombic'
loop_
_space_group_symop_operation_xyz
x,y,z
1/2-x,1/2-y,z
1/2+x,-y,1/2-z
-x,1/2+y,1/2-z
-x,-y,-z
1/2+x,1/2+y,-z
1/2-x,y,1/2+z
x,1/2-y,1/2+z
loop_
_atom_site_type_symbol
_atom_site_label
_atom_site_fract_x
_atom_site_fract_y
_atom_site_fract_z
Si Si1 0.541218 0.899670 0.600517
Si Si2 0.750000 0.750000 0.345446
Si Si3 0.690122 0.396015 0.714347
Si Si4 0.366653 0.415078 0.504543
Si Si5 0.575176 0.336886 0.304093
O O1 0.599990 0.773460 0.548142
O O2 0.493727 0.774168 0.682264
O O3 0.500000 0.000000 0.500000
O O4 0.576015 0.057563 0.680618
O O5 0.785685 0.598398 0.262926
O O6 0.698519 0.640774 0.425736
O O7 0.750000 0.250000 0.693621
O O8 0.653147 0.432762 0.593447
O O9 0.637639 0.307624 0.805392
O O10 0.419151 0.515622 0.589641
#
# Coordination Sequence:
#
# PCOD8229846 Si02
#       5
#     8   4   8   8   8
#     4  12  25  46  74 108 147 192 246 301 371 436
#     4  12  26  48  68 106 146 192 242 310 358 438
#     4  12  27  46  70 106 144 192 243 298 368 431
#     4  12  26  43  75 102 147 192 245 300 366 435
#     4  12  25  47  72 107 148 189 246 305 364 438
#
# _framework density 22.243644
#
# number of rings (size 3 to 8) (size 9 to 14) (size 15 to 20)
#    0.000    0.000    2.222    8.000    6.222    0.000 
#    0.000    0.000    0.000    0.000    0.000    0.000 
#    0.000    0.000    0.000    0.000    0.000    0.000 
#
# Total GULP energy -446816.994646 kJ/mol
# GULP energy per Si atom -12411.583185 kJ/mol
# Density = 2.219302 g / cm^3
# Si number density = 22.243644 Si / 1000 Ang^3
#
#
#
# Elastic Constant Matrix: (Units=GPa)
#
#
# Indices 1 2 3 4 5 6 
#
# 1 74.2340 13.5286 17.0879 0.0000 0.0000 0.0000
# 2 13.5286 90.0070 34.3897 0.0000 0.0000 0.0000
# 3 17.0879 34.3897 107.2022 0.0000 0.0000 0.0000
# 4 0.0000 0.0000 0.0000 48.0631 0.0000 0.0000
# 5 0.0000 0.0000 0.0000 0.0000 45.4808 0.0000
# 6 0.0000 0.0000 0.0000 0.0000 0.0000 54.8051
#
#
#
# Elastic Compliance Matrix: (Units=1/GPa)
#
#
# Indices 1 2 3 4 5 6 
#
# 1 0.014146 -0.001441 -0.001793 0.000000 0.000000 0.000000
# 2 -0.001441 0.012809 -0.003879 0.000000 0.000000 0.000000
# 3 -0.001793 -0.003879 0.010858 0.000000 0.000000 0.000000
# 4 0.000000 0.000000 0.000000 0.020806 0.000000 0.000000
# 5 0.000000 0.000000 0.000000 0.000000 0.021987 0.000000
# 6 0.000000 0.000000 0.000000 0.000000 0.000000 0.018246
#
#
# Mechanical properties :
#
#
# Convention : Reuss Voigt Hill
#
# Bulk Modulus (GPa) = 42.39577 44.60617 43.50097
# Shear Modulus (GPa) = 41.34204 43.43226 42.38715
#
# Velocity S-wave (km/s) = 4.31583 4.42358 4.37004
# Velocity P-wave (km/s) = 6.62844 6.79616 6.71282
#
# Compressibility (1/GPa) = 0.02358726
#
# Stress axis : x y z
#
# Youngs Moduli (GPa) = 70.69026 78.06949 92.09504
#
# Poissons Ratio (x) = 0.11253 0.16508
# Poissons Ratio (y) = 0.10189 0.35727
# Poissons Ratio (z) = 0.12671 0.30286
#
# Static dielectric constant tensor:
#      x y z
#    x 4.053400 0.000000 0.000000 
#    y 0.000000 4.116210 0.000000 
#    z 0.000000 0.000000 4.113210 
# 
# 
# High freq. dielectric constant tensor:
#      x y z
#    x 1.890320 0.000000 0.000000 
#    y 0.000000 1.892950 0.000000 
#    z 0.000000 0.000000 1.888470 
# 
# From -- ./inp_files/5573.got.cif
#   From: 2010.03.12/outbox.cif.g09.slc.cpg/sg56_3_cif.got.tgz:5573.got - 2010.04.16 15:33:40.
