data_PCOD8229731
_publ_section_title
;
Structure prediction by ZEFSAII (Michael W. Deem and Ramdas Pophale) SiO2 
 PCOD8229731
Probable space group: P C C N
;
_chemical_formula_sum "Si O2"
_cell_formula_units_Z 36
_cell_length_a 6.322344
_cell_length_b 19.875189
_cell_length_c 13.030097
_cell_angle_alpha 90.000000
_cell_angle_beta 90.000000
_cell_angle_gamma 90.000000
_cell_volume 1637.333087
_symmetry_space_group_name_H-M "P C C N"
_symmetry_group_IT_number 56
_symmetry_cell_setting 'orthorhombic'
loop_
_space_group_symop_operation_xyz
x,y,z
1/2-x,1/2-y,z
1/2+x,-y,1/2-z
-x,1/2+y,1/2-z
-x,-y,-z
1/2+x,1/2+y,-z
1/2-x,y,1/2+z
x,1/2-y,1/2+z
loop_
_atom_site_type_symbol
_atom_site_label
_atom_site_fract_x
_atom_site_fract_y
_atom_site_fract_z
Si Si1 0.343900 0.907113 0.738625
Si Si2 0.760768 0.649966 0.639073
Si Si3 0.250000 0.250000 0.539639
Si Si4 0.494949 0.979408 0.117070
Si Si5 0.059864 0.794535 0.792396
O O1 0.502870 0.853459 0.685240
O O2 0.165110 0.868693 0.806916
O O3 0.232150 0.948278 0.646673
O O4 0.471636 0.955104 0.813948
O O5 0.740422 0.681750 0.526150
O O6 0.680083 0.573811 0.636797
O O7 0.625154 0.699915 0.709570
O O8 0.463567 0.240193 0.606073
O O9 0.500000 0.000000 0.000000
O O10 0.250000 0.750000 0.748403
#
# Coordination Sequence:
#
# PCOD8229731 Si02
#       5
#     8   8   4   8   8
#     4  11  24  47  69 103 146 180 233 297 352 424
#     4  11  26  47  68 105 142 183 232 293 353 425
#     4  12  26  42  72 102 132 182 240 284 356 426
#     4  11  26  42  72 105 142 187 236 288 361 422
#     4  11  26  45  70  97 139 180 229 292 349 414
#
# _framework density 21.986975000000001
#
# number of rings (size 3 to 8) (size 9 to 14) (size 15 to 20)
#    0.000    0.889    2.222    3.333    9.333    3.556 
#    0.000    0.000    0.000    0.000    0.000    0.000 
#    0.000    0.000    0.000    0.000    0.000    0.000 
#
# Total GULP energy -446407.243932 kJ/mol
# GULP energy per Si atom -12400.201220 kJ/mol
# Density = 2.193693 g / cm^3
# Si number density = 21.986975 Si / 1000 Ang^3
#
#
#
# Elastic Constant Matrix: (Units=GPa)
#
#
# Indices 1 2 3 4 5 6 
#
# 1 149.5217 56.6246 71.7941 0.0000 0.0000 0.0000
# 2 56.6246 94.1458 54.3305 0.0000 0.0000 0.0000
# 3 71.7941 54.3305 140.1217 0.0000 0.0000 0.0000
# 4 0.0000 0.0000 0.0000 47.1386 0.0000 0.0000
# 5 0.0000 0.0000 0.0000 0.0000 26.7046 0.0000
# 6 0.0000 0.0000 0.0000 0.0000 0.0000 56.0367
#
#
#
# Elastic Compliance Matrix: (Units=1/GPa)
#
#
# Indices 1 2 3 4 5 6 
#
# 1 0.009862 -0.003885 -0.003547 0.000000 0.000000 0.000000
# 2 -0.003885 0.015214 -0.003909 0.000000 0.000000 0.000000
# 3 -0.003547 -0.003909 0.010469 0.000000 0.000000 0.000000
# 4 0.000000 0.000000 0.000000 0.021214 0.000000 0.000000
# 5 0.000000 0.000000 0.000000 0.000000 0.037447 0.000000
# 6 0.000000 0.000000 0.000000 0.000000 0.000000 0.017845
#
#
# Mechanical properties :
#
#
# Convention : Reuss Voigt Hill
#
# Bulk Modulus (GPa) = 77.72912 83.25419 80.49165
# Shear Modulus (GPa) = 35.96585 39.37863 37.67224
#
# Velocity S-wave (km/s) = 4.04886 4.23661 4.14380
# Velocity P-wave (km/s) = 7.56881 7.86634 7.71901
#
# Compressibility (1/GPa) = 0.01286519
#
# Stress axis : x y z
#
# Youngs Moduli (GPa) = 101.39680 65.72887 95.51630
#
# Poissons Ratio (x) = 0.25535 0.33878
# Poissons Ratio (y) = 0.39392 0.37333
# Poissons Ratio (z) = 0.35963 0.25690
#
# Static dielectric constant tensor:
#      x y z
#    x 4.148810 0.000000 0.000000 
#    y 0.000000 4.204990 0.000000 
#    z 0.000000 0.000000 3.813660 
# 
# 
# High freq. dielectric constant tensor:
#      x y z
#    x 1.878070 0.000000 0.000000 
#    y 0.000000 1.888620 0.000000 
#    z 0.000000 0.000000 1.849240 
# 
# From -- ./inp_files/5537.got.cif
#   From: 2010.03.12/outbox.cif.g09.slc.cpg/sg56_3_cif.got.tgz:5537.got - 2010.04.16 15:33:40.
