data_PCOD8229550
_publ_section_title
;
Structure prediction by ZEFSAII (Michael W. Deem and Ramdas Pophale) SiO2 
 PCOD8229550
Probable space group: P C C N
;
_chemical_formula_sum "Si O2"
_cell_formula_units_Z 44
_cell_length_a 16.868219
_cell_length_b 9.454735
_cell_length_c 12.237360
_cell_angle_alpha 90.000000
_cell_angle_beta 90.000000
_cell_angle_gamma 90.000000
_cell_volume 1951.669737
_symmetry_space_group_name_H-M "P C C N"
_symmetry_group_IT_number 56
_symmetry_cell_setting 'orthorhombic'
loop_
_space_group_symop_operation_xyz
x,y,z
1/2-x,1/2-y,z
1/2+x,-y,1/2-z
-x,1/2+y,1/2-z
-x,-y,-z
1/2+x,1/2+y,-z
1/2-x,y,1/2+z
x,1/2-y,1/2+z
loop_
_atom_site_type_symbol
_atom_site_label
_atom_site_fract_x
_atom_site_fract_y
_atom_site_fract_z
Si Si1 0.916198 0.120207 0.787239
Si Si2 0.682221 0.981961 0.105737
Si Si3 0.376259 0.258656 0.557948
Si Si4 0.026651 0.637632 0.340070
Si Si5 0.750000 0.750000 0.260958
Si Si6 0.164888 0.950337 0.996512
O O1 0.952381 0.277148 0.771276
O O2 0.875456 0.083571 0.672387
O O3 0.852829 0.118668 0.885425
O O4 0.986659 0.010993 0.811692
O O5 0.731525 0.886104 0.189171
O O6 0.744376 0.080455 0.038768
O O7 0.628719 0.889161 0.024518
O O8 0.467698 0.233755 0.587832
O O9 0.326176 0.291124 0.666771
O O10 0.340555 0.120237 0.500421
O O11 0.105181 0.611438 0.408446
#
# Coordination Sequence:
#
# PCOD8229550 Si02
#       6
#     8   8   8   8   4   8
#     4  11  26  47  69 101 136 185 229 281 357 412
#     4  12  22  39  74 100 137 179 238 274 346 414
#     4  11  21  39  68 104 129 176 232 286 324 418
#     4  11  27  43  70  97 144 178 229 286 354 406
#     4  12  18  36  66 108 128 174 238 278 326 408
#     4  11  23  44  68  98 140 176 227 293 344 402
#
# _framework density 22.544798
#
# number of rings (size 3 to 8) (size 9 to 14) (size 15 to 20)
#    0.000    0.727    7.273    2.182    7.636    1.455 
#    0.000    1.818    0.000    0.000    0.000    0.000 
#    0.000    0.000    0.000    0.000    0.000    0.000 
#
# Total GULP energy -545790.623992 kJ/mol
# GULP energy per Si atom -12404.332363 kJ/mol
# Density = 2.249348 g / cm^3
# Si number density = 22.544798 Si / 1000 Ang^3
#
#
#
# Elastic Constant Matrix: (Units=GPa)
#
#
# Indices 1 2 3 4 5 6 
#
# 1 55.7992 -6.0000 14.7059 0.0000 0.0000 0.0000
# 2 -6.0000 34.0123 25.6544 0.0000 0.0000 0.0000
# 3 14.7059 25.6544 100.4918 0.0000 0.0000 0.0000
# 4 0.0000 0.0000 0.0000 36.9548 0.0000 0.0000
# 5 0.0000 0.0000 0.0000 0.0000 48.6568 0.0000
# 6 0.0000 0.0000 0.0000 0.0000 0.0000 29.0863
#
#
#
# Elastic Compliance Matrix: (Units=1/GPa)
#
#
# Indices 1 2 3 4 5 6 
#
# 1 0.019927 0.007078 -0.004723 0.000000 0.000000 0.000000
# 2 0.007078 0.038926 -0.010973 0.000000 0.000000 0.000000
# 3 -0.004723 -0.010973 0.013444 0.000000 0.000000 0.000000
# 4 0.000000 0.000000 0.000000 0.027060 0.000000 0.000000
# 5 0.000000 0.000000 0.000000 0.000000 0.020552 0.000000
# 6 0.000000 0.000000 0.000000 0.000000 0.000000 0.034380
#
#
# Mechanical properties :
#
#
# Convention : Reuss Voigt Hill
#
# Bulk Modulus (GPa) = 18.16200 28.78044 23.47122
# Shear Modulus (GPa) = 26.33241 33.33576 29.83408
#
# Velocity S-wave (km/s) = 3.42131 3.84949 3.64170
# Velocity P-wave (km/s) = 4.86628 5.70541 5.30247
#
# Compressibility (1/GPa) = 0.05506002
#
# Stress axis : x y z
#
# Youngs Moduli (GPa) = 50.18275 25.68956 74.38518
#
# Poissons Ratio (x) = -0.18182 0.35132
# Poissons Ratio (y) = -0.35517 0.81624
# Poissons Ratio (z) = 0.23701 0.28190
#
# Static dielectric constant tensor:
#      x y z
#    x 4.232150 0.000000 0.000000 
#    y 0.000000 4.001810 0.000000 
#    z 0.000000 0.000000 4.209940 
# 
# 
# High freq. dielectric constant tensor:
#      x y z
#    x 1.893570 0.000000 0.000000 
#    y 0.000000 1.872340 0.000000 
#    z 0.000000 0.000000 1.896720 
# 
# From -- ./inp_files/8246.got.cif
#   From: 2010.03.12/outbox.cif.g09.slc.cpg/sg56_5_cif.got.tgz:8246.got - 2010.04.16 15:33:40.
