data_PCOD8229859
_publ_section_title
;
Structure prediction by ZEFSAII (Michael W. Deem and Ramdas Pophale) SiO2 
 PCOD8229859
Probable space group: P C C N
;
_chemical_formula_sum "Si O2"
_cell_formula_units_Z 32
_cell_length_a 13.095749
_cell_length_b 4.945562
_cell_length_c 21.712533
_cell_angle_alpha 90.000000
_cell_angle_beta 90.000000
_cell_angle_gamma 90.000000
_cell_volume 1406.230408
_symmetry_space_group_name_H-M "P C C N"
_symmetry_group_IT_number 56
_symmetry_cell_setting 'orthorhombic'
loop_
_space_group_symop_operation_xyz
x,y,z
1/2-x,1/2-y,z
1/2+x,-y,1/2-z
-x,1/2+y,1/2-z
-x,-y,-z
1/2+x,1/2+y,-z
1/2-x,y,1/2+z
x,1/2-y,1/2+z
loop_
_atom_site_type_symbol
_atom_site_label
_atom_site_fract_x
_atom_site_fract_y
_atom_site_fract_z
Si Si1 0.925604 0.747311 0.497571
Si Si2 0.250000 0.250000 0.405156
Si Si3 0.750000 0.250000 0.180973
Si Si4 0.814873 0.516455 0.380849
Si Si5 0.062597 0.595964 0.735069
O O1 0.850817 0.789761 0.554617
O O2 0.857627 0.695585 0.437267
O O3 0.000000 0.500000 0.500000
O O4 0.000000 0.000000 0.500000
O O5 0.226500 0.501790 0.362578
O O6 0.845950 0.294964 0.224234
O O7 0.750000 0.250000 0.401973
O O8 0.905043 0.417920 0.336397
O O9 0.750000 0.750000 0.344819
O O10 0.031379 0.302521 0.760187
#
# Coordination Sequence:
#
# PCOD8229859 Si02
#       5
#     8   4   4   8   8
#     4  12  28  48  75 109 144 196 248 301 373 440
#     4  12  28  50  72 106 154 192 240 308 374 438
#     4  12  28  50  72 108 154 192 242 306 374 444
#     4  12  26  50  77 104 150 196 254 310 364 444
#     4  12  28  48  76 111 147 197 249 305 375 439
#
# _framework density 22.755876000000001
#
# number of rings (size 3 to 8) (size 9 to 14) (size 15 to 20)
#    0.000    0.000    2.500    6.000   14.000    0.000 
#    0.000    0.000    0.000    0.000    0.000    0.000 
#    0.000    0.000    0.000    0.000    0.000    0.000 
#
# Total GULP energy -396808.149321 kJ/mol
# GULP energy per Si atom -12400.254666 kJ/mol
# Density = 2.270408 g / cm^3
# Si number density = 22.755876 Si / 1000 Ang^3
#
#
#
# Elastic Constant Matrix: (Units=GPa)
#
#
# Indices 1 2 3 4 5 6 
#
# 1 109.8639 46.3744 42.0564 0.0000 0.0000 0.0000
# 2 46.3744 164.9526 45.1117 0.0000 0.0000 0.0000
# 3 42.0564 45.1117 124.7548 0.0000 0.0000 0.0000
# 4 0.0000 0.0000 0.0000 34.4854 0.0000 0.0000
# 5 0.0000 0.0000 0.0000 0.0000 8.9431 0.0000
# 6 0.0000 0.0000 0.0000 0.0000 0.0000 64.7920
#
#
#
# Elastic Compliance Matrix: (Units=1/GPa)
#
#
# Indices 1 2 3 4 5 6 
#
# 1 0.011217 -0.002352 -0.002931 0.000000 0.000000 0.000000
# 2 -0.002352 0.007221 -0.001818 0.000000 0.000000 0.000000
# 3 -0.002931 -0.001818 0.009661 0.000000 0.000000 0.000000
# 4 0.000000 0.000000 0.000000 0.028998 0.000000 0.000000
# 5 0.000000 0.000000 0.000000 0.000000 0.111819 0.000000
# 6 0.000000 0.000000 0.000000 0.000000 0.000000 0.015434
#
#
# Mechanical properties :
#
#
# Convention : Reuss Voigt Hill
#
# Bulk Modulus (GPa) = 71.95860 74.07294 73.01577
# Shear Modulus (GPa) = 24.60828 39.37934 31.99381
#
# Velocity S-wave (km/s) = 3.29204 4.16446 3.75368
# Velocity P-wave (km/s) = 6.79269 7.46628 7.13744
#
# Compressibility (1/GPa) = 0.01389688
#
# Stress axis : x y z
#
# Youngs Moduli (GPa) = 89.15121 138.48856 103.50654
#
# Poissons Ratio (x) = 0.32572 0.30337
# Poissons Ratio (y) = 0.20968 0.18820
# Poissons Ratio (z) = 0.26129 0.25180
#
# Static dielectric constant tensor:
#      x y z
#    x 4.192350 0.000000 0.000000 
#    y 0.000000 4.387770 0.000000 
#    z 0.000000 0.000000 4.012110 
# 
# 
# High freq. dielectric constant tensor:
#      x y z
#    x 1.920220 0.000000 0.000000 
#    y 0.000000 1.924930 0.000000 
#    z 0.000000 0.000000 1.901540 
# 
# From -- ./inp_files/18535.got.cif
#   From: 2010.03.12/outbox.cif.g09.slc.cpg/sg56_10_cif.got.tgz:18535.got - 2010.04.16 15:33:40.
