data_PCOD8229471
_publ_section_title
;
Structure prediction by ZEFSAII (Michael W. Deem and Ramdas Pophale) SiO2 
 PCOD8229471
Probable space group: P C C N
;
_chemical_formula_sum "Si O2"
_cell_formula_units_Z 60
_cell_length_a 18.047055
_cell_length_b 15.875209
_cell_length_c 9.144215
_cell_angle_alpha 90.000000
_cell_angle_beta 90.000000
_cell_angle_gamma 90.000000
_cell_volume 2619.824638
_symmetry_space_group_name_H-M "P C C N"
_symmetry_group_IT_number 56
_symmetry_cell_setting 'orthorhombic'
loop_
_space_group_symop_operation_xyz
x,y,z
1/2-x,1/2-y,z
1/2+x,-y,1/2-z
-x,1/2+y,1/2-z
-x,-y,-z
1/2+x,1/2+y,-z
1/2-x,y,1/2+z
x,1/2-y,1/2+z
loop_
_atom_site_type_symbol
_atom_site_label
_atom_site_fract_x
_atom_site_fract_y
_atom_site_fract_z
Si Si1 0.250000 0.750000 0.417667
Si Si2 0.033226 0.094174 0.240727
Si Si3 0.313536 0.032105 0.236890
Si Si4 0.059632 0.889724 0.031322
Si Si5 0.667466 0.962251 0.432742
Si Si6 0.822245 0.153765 0.328469
Si Si7 0.976777 0.927924 0.311218
Si Si8 0.532190 0.196164 0.957132
O O1 0.315263 0.779909 0.306551
O O2 0.223566 0.824511 0.524150
O O3 0.034509 0.179767 0.339643
O O4 0.106265 0.096984 0.142744
O O5 0.023974 0.013295 0.351196
O O6 0.962058 0.085717 0.132918
O O7 0.241690 0.064446 0.151838
O O8 0.316935 0.065746 0.401974
O O9 0.296049 0.933266 0.238117
O O10 0.389323 0.061122 0.156562
O O11 0.135770 0.939980 0.073708
O O12 0.992429 0.914857 0.138287
O O13 0.067519 0.788544 0.033446
O O14 0.905381 0.139679 0.381014
O O15 0.009017 0.843967 0.388366
#
# Coordination Sequence:
#
# PCOD8229471 Si02
#       8
#     4   8   8   8   8   8   8   8
#     4  10  26  42  56  94 146 198 206 280 352 424
#     4  11  22  46  67  96 135 183 233 289 347 405
#     4  12  24  42  66 101 133 181 231 279 344 413
#     4  11  23  45  68  97 133 187 226 287 354 415
#     4  11  25  42  72  96 139 180 233 285 349 420
#     4  11  25  40  62  92 142 179 235 265 342 423
#     4  11  23  42  67  97 135 177 238 289 336 416
#     4  12  26  38  69 102 136 177 239 290 346 411
#
# _framework density 22.902296
#
# number of rings (size 3 to 8) (size 9 to 14) (size 15 to 20)
#    0.000    0.800    4.000    2.800   11.200    2.133 
#    0.000    0.000    0.000    4.800    0.000    0.000 
#    0.000    0.000    0.000    0.000    0.000    0.000 
#
# Total GULP energy -743361.139975 kJ/mol
# GULP energy per Si atom -12389.352333 kJ/mol
# Density = 2.285017 g / cm^3
# Si number density = 22.902296 Si / 1000 Ang^3
#
#
#
# Elastic Constant Matrix: (Units=GPa)
#
#
# Indices 1 2 3 4 5 6 
#
# 1 98.4987 -2.8739 34.1588 0.0000 0.0000 0.0000
# 2 -2.8739 40.3861 10.9672 0.0000 0.0000 0.0000
# 3 34.1588 10.9672 97.5073 0.0000 0.0000 0.0000
# 4 0.0000 0.0000 0.0000 25.2479 0.0000 0.0000
# 5 0.0000 0.0000 0.0000 0.0000 37.5096 0.0000
# 6 0.0000 0.0000 0.0000 0.0000 0.0000 26.6809
#
#
#
# Elastic Compliance Matrix: (Units=1/GPa)
#
#
# Indices 1 2 3 4 5 6 
#
# 1 0.011712 0.002009 -0.004329 0.000000 0.000000 0.000000
# 2 0.002009 0.025886 -0.003615 0.000000 0.000000 0.000000
# 3 -0.004329 -0.003615 0.012179 0.000000 0.000000 0.000000
# 4 0.000000 0.000000 0.000000 0.039607 0.000000 0.000000
# 5 0.000000 0.000000 0.000000 0.000000 0.026660 0.000000
# 6 0.000000 0.000000 0.000000 0.000000 0.000000 0.037480
#
#
# Mechanical properties :
#
#
# Convention : Reuss Voigt Hill
#
# Bulk Modulus (GPa) = 26.38088 35.65516 31.01802
# Shear Modulus (GPa) = 28.08514 30.83034 29.45774
#
# Velocity S-wave (km/s) = 3.50566 3.67300 3.59030
# Velocity P-wave (km/s) = 5.28489 5.79569 5.54618
#
# Compressibility (1/GPa) = 0.03790625
#
# Stress axis : x y z
#
# Youngs Moduli (GPa) = 85.38012 38.63131 82.10970
#
# Poissons Ratio (x) = -0.07761 0.35546
# Poissons Ratio (y) = -0.17153 0.29685
# Poissons Ratio (z) = 0.36961 0.13967
#
# Static dielectric constant tensor:
#      x y z
#    x 4.126690 0.000000 0.000000 
#    y 0.000000 3.982490 0.000000 
#    z 0.000000 0.000000 4.332000 
# 
# 
# High freq. dielectric constant tensor:
#      x y z
#    x 1.893270 0.000000 0.000000 
#    y 0.000000 1.870440 0.000000 
#    z 0.000000 0.000000 1.926400 
# 
# From -- ./inp_files/4156.got.cif
#   From: 2010.03.12/outbox.cif.g09.slc.cpg/sg56_3_cif.got.tgz:4156.got - 2010.04.16 15:33:40.
