data_PCOD8229051
_publ_section_title
;
Structure prediction by ZEFSAII (Michael W. Deem and Ramdas Pophale) SiO2 
 PCOD8229051
Probable space group: P C C N
;
_chemical_formula_sum "Si O2"
_cell_formula_units_Z 56
_cell_length_a 20.489622
_cell_length_b 9.063888
_cell_length_c 13.662886
_cell_angle_alpha 90.000000
_cell_angle_beta 90.000000
_cell_angle_gamma 90.000000
_cell_volume 2537.411604
_symmetry_space_group_name_H-M "P C C N"
_symmetry_group_IT_number 56
_symmetry_cell_setting 'orthorhombic'
loop_
_space_group_symop_operation_xyz
x,y,z
1/2-x,1/2-y,z
1/2+x,-y,1/2-z
-x,1/2+y,1/2-z
-x,-y,-z
1/2+x,1/2+y,-z
1/2-x,y,1/2+z
x,1/2-y,1/2+z
loop_
_atom_site_type_symbol
_atom_site_label
_atom_site_fract_x
_atom_site_fract_y
_atom_site_fract_z
Si Si1 0.786011 0.391074 0.461467
Si Si2 0.465329 0.937610 0.853506
Si Si3 0.886777 0.207098 0.809640
Si Si4 0.103499 0.457742 0.226571
Si Si5 0.195056 0.346027 0.071947
Si Si6 0.001982 0.267449 0.957408
Si Si7 0.130625 0.121593 0.936714
O O1 0.750000 0.250000 0.509555
O O2 0.819690 0.352455 0.357183
O O3 0.724130 0.496300 0.451478
O O4 0.842066 0.462997 0.528583
O O5 0.404208 0.896257 0.783923
O O6 0.526125 0.939934 0.779269
O O7 0.458951 0.097083 0.904851
O O8 0.472180 0.815218 0.938421
O O9 0.874571 0.372615 0.772219
O O10 0.943769 0.207647 0.890638
O O11 0.130239 0.368162 0.133975
O O12 0.131815 0.375133 0.320168
O O13 0.250000 0.250000 0.129308
O O14 0.176067 0.254335 0.974844
O O15 0.055917 0.139902 0.974436
#
# Coordination Sequence:
#
# PCOD8229051 Si02
#       7
#     8   8   8   8   8   8   8
#     4  11  25  47  68  96 141 187 231 290 352 407
#     4  10  22  40  68 104 144 181 223 285 357 422
#     4  11  24  42  70 104 143 181 228 293 348 422
#     4  11  22  43  69 103 140 178 236 280 350 422
#     4  10  23  45  70  94 138 183 231 288 342 413
#     4  10  22  41  69 104 143 182 223 290 360 417
#     4  11  24  43  73 104 133 185 234 290 346 426
#
# _framework density 22.069735999999999
#
# number of rings (size 3 to 8) (size 9 to 14) (size 15 to 20)
#    0.000    1.429    4.286    0.000    2.000    6.857 
#    2.571    0.000    0.000    0.000    0.000    0.000 
#    0.000    0.000    0.000    0.000    0.000    0.000 
#
# Total GULP energy -694275.645686 kJ/mol
# GULP energy per Si atom -12397.779387 kJ/mol
# Density = 2.201950 g / cm^3
# Si number density = 22.069736 Si / 1000 Ang^3
#
#
#
# Elastic Constant Matrix: (Units=GPa)
#
#
# Indices 1 2 3 4 5 6 
#
# 1 81.6537 38.7988 29.2659 0.0000 0.0000 0.0000
# 2 38.7988 102.0339 40.5591 0.0000 0.0000 0.0000
# 3 29.2659 40.5591 113.1594 0.0000 0.0000 0.0000
# 4 0.0000 0.0000 0.0000 29.1191 0.0000 0.0000
# 5 0.0000 0.0000 0.0000 0.0000 31.2457 0.0000
# 6 0.0000 0.0000 0.0000 0.0000 0.0000 44.9631
#
#
#
# Elastic Compliance Matrix: (Units=1/GPa)
#
#
# Indices 1 2 3 4 5 6 
#
# 1 0.015402 -0.004983 -0.002197 0.000000 0.000000 0.000000
# 2 -0.004983 0.013041 -0.003386 0.000000 0.000000 0.000000
# 3 -0.002197 -0.003386 0.010619 0.000000 0.000000 0.000000
# 4 0.000000 0.000000 0.000000 0.034342 0.000000 0.000000
# 5 0.000000 0.000000 0.000000 0.000000 0.032004 0.000000
# 6 0.000000 0.000000 0.000000 0.000000 0.000000 0.022240
#
#
# Mechanical properties :
#
#
# Convention : Reuss Voigt Hill
#
# Bulk Modulus (GPa) = 55.77191 57.12164 56.44677
# Shear Modulus (GPa) = 32.30850 33.61380 32.96115
#
# Velocity S-wave (km/s) = 3.83028 3.90689 3.86878
# Velocity P-wave (km/s) = 6.69978 6.80369 6.75194
#
# Compressibility (1/GPa) = 0.01793017
#
# Stress axis : x y z
#
# Youngs Moduli (GPa) = 64.92548 76.67900 94.17247
#
# Poissons Ratio (x) = 0.38212 0.20692
# Poissons Ratio (y) = 0.32355 0.31882
# Poissons Ratio (z) = 0.14266 0.25960
#
# Static dielectric constant tensor:
#      x y z
#    x 3.985490 0.000000 0.000000 
#    y 0.000000 4.076160 0.000000 
#    z 0.000000 0.000000 3.780340 
# 
# 
# High freq. dielectric constant tensor:
#      x y z
#    x 1.870640 0.000000 0.000000 
#    y 0.000000 1.873720 0.000000 
#    z 0.000000 0.000000 1.853030 
# 
# From -- ./inp_files/13069.got.cif
#   From: 2010.03.12/outbox.cif.g09.slc.cpg/sg56_7_cif.got.tgz:13069.got - 2010.04.16 15:33:40.
