data_PCOD8229094
_publ_section_title
;
Structure prediction by ZEFSAII (Michael W. Deem and Ramdas Pophale) SiO2 
 PCOD8229094
Probable space group: P C C N
;
_chemical_formula_sum "Si O2"
_cell_formula_units_Z 48
_cell_length_a 11.718200
_cell_length_b 9.176350
_cell_length_c 22.198871
_cell_angle_alpha 90.000000
_cell_angle_beta 90.000000
_cell_angle_gamma 90.000000
_cell_volume 2387.051360
_symmetry_space_group_name_H-M "P C C N"
_symmetry_group_IT_number 56
_symmetry_cell_setting 'orthorhombic'
loop_
_space_group_symop_operation_xyz
x,y,z
1/2-x,1/2-y,z
1/2+x,-y,1/2-z
-x,1/2+y,1/2-z
-x,-y,-z
1/2+x,1/2+y,-z
1/2-x,y,1/2+z
x,1/2-y,1/2+z
loop_
_atom_site_type_symbol
_atom_site_label
_atom_site_fract_x
_atom_site_fract_y
_atom_site_fract_z
Si Si1 0.258456 0.418307 0.571008
Si Si2 0.626100 0.888198 0.203701
Si Si3 0.145355 0.079595 0.844788
Si Si4 0.061992 0.387542 0.663894
Si Si5 0.233645 0.578066 0.948990
Si Si6 0.005551 0.914440 0.380805
O O1 0.250000 0.250000 0.549718
O O2 0.165392 0.446457 0.622955
O O3 0.237881 0.527920 0.516346
O O4 0.382201 0.460934 0.595948
O O5 0.751023 0.964838 0.200196
O O6 0.628063 0.753830 0.156401
O O7 0.609006 0.833873 0.271707
O O8 0.529889 0.001008 0.181728
O O9 0.176372 0.015684 0.910231
O O10 0.025647 0.016144 0.822826
O O11 0.994023 0.257676 0.631745
O O12 0.250000 0.750000 0.942047
O O13 0.103280 0.543623 0.929327
#
# Coordination Sequence:
#
# PCOD8229094 Si02
#       6
#     8   8   8   8   8   8
#     4  10  25  39  64  91 126 166 211 260 318 369
#     4  10  23  37  68  88 131 161 206 263 306 391
#     4  10  23  40  62  96 119 166 209 249 327 364
#     4  11  22  41  63  94 127 165 206 263 312 374
#     4  11  22  43  63  89 126 164 214 267 308 377
#     4  10  22  42  62  93 123 169 212 255 320 371
#
# _framework density 20.10849
#
# number of rings (size 3 to 8) (size 9 to 14) (size 15 to 20)
#    0.000    1.667    1.667    1.500   14.000    2.000 
#    0.000    0.000    0.000    0.000    0.000    0.000 
#    0.000    0.000    0.000    0.000    0.000    0.000 
#
# Total GULP energy -595119.863471 kJ/mol
# GULP energy per Si atom -12398.330489 kJ/mol
# Density = 2.006272 g / cm^3
# Si number density = 20.108490 Si / 1000 Ang^3
#
#
#
# Elastic Constant Matrix: (Units=GPa)
#
#
# Indices 1 2 3 4 5 6 
#
# 1 113.4301 52.4025 48.4555 0.0000 0.0000 0.0000
# 2 52.4025 65.5024 46.8520 0.0000 0.0000 0.0000
# 3 48.4555 46.8520 118.8813 0.0000 0.0000 0.0000
# 4 0.0000 0.0000 0.0000 29.8577 0.0000 0.0000
# 5 0.0000 0.0000 0.0000 0.0000 24.5973 0.0000
# 6 0.0000 0.0000 0.0000 0.0000 0.0000 29.1167
#
#
#
# Elastic Compliance Matrix: (Units=1/GPa)
#
#
# Indices 1 2 3 4 5 6 
#
# 1 0.014266 -0.010101 -0.001834 0.000000 0.000000 0.000000
# 2 -0.010101 0.028412 -0.007080 0.000000 0.000000 0.000000
# 3 -0.001834 -0.007080 0.011950 0.000000 0.000000 0.000000
# 4 0.000000 0.000000 0.000000 0.033492 0.000000 0.000000
# 5 0.000000 0.000000 0.000000 0.000000 0.040655 0.000000
# 6 0.000000 0.000000 0.000000 0.000000 0.000000 0.034345
#
#
# Mechanical properties :
#
#
# Convention : Reuss Voigt Hill
#
# Bulk Modulus (GPa) = 60.25143 65.91485 63.08314
# Shear Modulus (GPa) = 24.19180 26.72127 25.45654
#
# Velocity S-wave (km/s) = 3.47228 3.64930 3.56189
# Velocity P-wave (km/s) = 6.78999 7.11388 6.95382
#
# Compressibility (1/GPa) = 0.01659712
#
# Stress axis : x y z
#
# Youngs Moduli (GPa) = 70.09716 35.19650 83.68539
#
# Poissons Ratio (x) = 0.35553 0.15346
# Poissons Ratio (y) = 0.70807 0.59250
# Poissons Ratio (z) = 0.12854 0.24920
#
# Static dielectric constant tensor:
#      x y z
#    x 3.794420 0.000000 0.000000 
#    y 0.000000 3.493200 0.000000 
#    z 0.000000 0.000000 3.501140 
# 
# 
# High freq. dielectric constant tensor:
#      x y z
#    x 1.798300 0.000000 0.000000 
#    y 0.000000 1.777760 0.000000 
#    z 0.000000 0.000000 1.776750 
# 
# From -- ./inp_files/20884.got.cif
#   From: 2010.03.12/outbox.cif.g09.slc.cpg/sg56_11_cif.got.tgz:20884.got - 2010.04.16 15:33:40.
