data_PCOD8229336
_publ_section_title
;
Structure prediction by ZEFSAII (Michael W. Deem and Ramdas Pophale) SiO2 
 PCOD8229336
Probable space group: P C C N
;
_chemical_formula_sum "Si O2"
_cell_formula_units_Z 56
_cell_length_a 14.630738
_cell_length_b 19.396346
_cell_length_c 9.065332
_cell_angle_alpha 90.000000
_cell_angle_beta 90.000000
_cell_angle_gamma 90.000000
_cell_volume 2572.585810
_symmetry_space_group_name_H-M "P C C N"
_symmetry_group_IT_number 56
_symmetry_cell_setting 'orthorhombic'
loop_
_space_group_symop_operation_xyz
x,y,z
1/2-x,1/2-y,z
1/2+x,-y,1/2-z
-x,1/2+y,1/2-z
-x,-y,-z
1/2+x,1/2+y,-z
1/2-x,y,1/2+z
x,1/2-y,1/2+z
loop_
_atom_site_type_symbol
_atom_site_label
_atom_site_fract_x
_atom_site_fract_y
_atom_site_fract_z
Si Si1 0.510461 0.514023 0.168658
Si Si2 0.250000 0.750000 0.294660
Si Si3 0.508299 0.075171 0.925081
Si Si4 0.170098 0.338980 0.946390
Si Si5 0.750000 0.750000 0.296348
Si Si6 0.180452 0.552547 0.679715
Si Si7 0.794279 0.967747 0.102474
Si Si8 0.188168 0.840500 0.555956
O O1 0.503019 0.440144 0.250727
O O2 0.427172 0.563885 0.222432
O O3 0.611729 0.545720 0.195143
O O4 0.500000 0.500000 0.000000
O O5 0.200965 0.806964 0.395579
O O6 0.326781 0.783835 0.185724
O O7 0.429902 0.128675 0.970198
O O8 0.605580 0.107358 0.962416
O O9 0.500000 0.000000 0.000000
O O10 0.173533 0.284690 0.810729
O O11 0.240630 0.397292 0.898238
O O12 0.198024 0.304986 0.101180
O O13 0.185136 0.489066 0.565088
O O14 0.237115 0.530334 0.823982
O O15 0.218749 0.621201 0.604928
#
# Coordination Sequence:
#
# PCOD8229336 Si02
#       8
#     8   4   8   8   4   8   8   8
#     4  10  24  38  59 105 127 169 202 254 368 384
#     4  10  26  46  66  90 126 202 220 262 326 382
#     4  12  26  42  69 107 131 165 219 288 352 390
#     4  11  24  45  67  95 136 172 232 268 322 412
#     4  10  26  46  66  90 126 202 220 262 326 382
#     4  11  21  38  65  96 133 166 206 281 340 388
#     4  11  21  38  65  96 133 166 206 281 340 388
#     4  11  24  45  67  95 136 172 232 268 322 412
#
# _framework density 21.767980999999999
#
# number of rings (size 3 to 8) (size 9 to 14) (size 15 to 20)
#    0.000    1.143    2.857    2.571    8.000    1.143 
#    0.000    5.714    0.000    0.000    0.000    0.000 
#    0.000    0.000    0.000    0.000    0.000    0.000 
#
# Total GULP energy -694248.059002 kJ/mol
# GULP energy per Si atom -12397.286768 kJ/mol
# Density = 2.171844 g / cm^3
# Si number density = 21.767981 Si / 1000 Ang^3
#
#
#
# Elastic Constant Matrix: (Units=GPa)
#
#
# Indices 1 2 3 4 5 6 
#
# 1 127.6750 23.2454 -0.9173 0.0000 0.0000 0.0000
# 2 23.2454 81.5532 19.0310 0.0000 0.0000 0.0000
# 3 -0.9173 19.0310 103.2673 0.0000 0.0000 0.0000
# 4 0.0000 0.0000 0.0000 42.9457 0.0000 0.0000
# 5 0.0000 0.0000 0.0000 0.0000 21.3354 0.0000
# 6 0.0000 0.0000 0.0000 0.0000 0.0000 41.5287
#
#
#
# Elastic Compliance Matrix: (Units=1/GPa)
#
#
# Indices 1 2 3 4 5 6 
#
# 1 0.008289 -0.002487 0.000532 0.000000 0.000000 0.000000
# 2 -0.002487 0.013559 -0.002521 0.000000 0.000000 0.000000
# 3 0.000532 -0.002521 0.010153 0.000000 0.000000 0.000000
# 4 0.000000 0.000000 0.000000 0.023285 0.000000 0.000000
# 5 0.000000 0.000000 0.000000 0.000000 0.046870 0.000000
# 6 0.000000 0.000000 0.000000 0.000000 0.000000 0.024080
#
#
# Mechanical properties :
#
#
# Convention : Reuss Voigt Hill
#
# Bulk Modulus (GPa) = 43.38500 43.91266 43.64883
# Shear Modulus (GPa) = 34.99667 39.23773 37.11720
#
# Velocity S-wave (km/s) = 4.01398 4.25024 4.13380
# Velocity P-wave (km/s) = 6.43868 6.65604 6.54827
#
# Compressibility (1/GPa) = 0.02304944
#
# Stress axis : x y z
#
# Youngs Moduli (GPa) = 120.64235 73.75169 98.49402
#
# Poissons Ratio (x) = 0.18340 -0.05239
# Poissons Ratio (y) = 0.30001 0.24829
# Poissons Ratio (z) = -0.06417 0.18592
#
# Static dielectric constant tensor:
#      x y z
#    x 4.612810 0.000000 0.000000 
#    y 0.000000 3.862860 0.000000 
#    z 0.000000 0.000000 4.324740 
# 
# 
# High freq. dielectric constant tensor:
#      x y z
#    x 1.850000 0.000000 0.000000 
#    y 0.000000 1.842420 0.000000 
#    z 0.000000 0.000000 1.884560 
# 
# From -- ./inp_files/3614.got.cif
#   From: 2010.03.12/outbox.cif.g09.slc.cpg/sg56_2_cif.got.tgz:3614.got - 2010.04.16 15:33:40.
