data_PCOD8229332
_publ_section_title
;
Structure prediction by ZEFSAII (Michael W. Deem and Ramdas Pophale) SiO2 
 PCOD8229332
Probable space group: P C C N
;
_chemical_formula_sum "Si O2"
_cell_formula_units_Z 60
_cell_length_a 18.631467
_cell_length_b 18.031181
_cell_length_c 8.019267
_cell_angle_alpha 90.000000
_cell_angle_beta 90.000000
_cell_angle_gamma 90.000000
_cell_volume 2694.051528
_symmetry_space_group_name_H-M "P C C N"
_symmetry_group_IT_number 56
_symmetry_cell_setting 'orthorhombic'
loop_
_space_group_symop_operation_xyz
x,y,z
1/2-x,1/2-y,z
1/2+x,-y,1/2-z
-x,1/2+y,1/2-z
-x,-y,-z
1/2+x,1/2+y,-z
1/2-x,y,1/2+z
x,1/2-y,1/2+z
loop_
_atom_site_type_symbol
_atom_site_label
_atom_site_fract_x
_atom_site_fract_y
_atom_site_fract_z
Si Si1 0.474225 0.976854 0.272316
Si Si2 0.750000 0.750000 0.774198
Si Si3 0.551263 0.645140 0.965818
Si Si4 0.186289 0.489285 0.836844
Si Si5 0.840933 0.665879 0.019667
Si Si6 0.159332 0.037913 0.968123
Si Si7 0.931037 0.089378 0.563497
Si Si8 0.979313 0.709704 0.819349
O O1 0.515607 0.934199 0.421766
O O2 0.401050 0.007109 0.346772
O O3 0.522421 0.042828 0.198427
O O4 0.456387 0.920429 0.124816
O O5 0.778606 0.679198 0.881098
O O6 0.681008 0.720583 0.671198
O O7 0.529155 0.701059 0.817246
O O8 0.636483 0.624473 0.990521
O O9 0.523040 0.682159 0.132158
O O10 0.269796 0.473471 0.860228
O O11 0.170307 0.502983 0.642799
O O12 0.152471 0.562972 0.923090
O O13 0.147797 0.417730 0.916735
O O14 0.917137 0.683119 0.942765
O O15 0.945361 0.176273 0.607749
#
# Coordination Sequence:
#
# PCOD8229332 Si02
#       8
#     8   4   8   8   8   8   8   8
#     4  11  22  45  72  99 132 178 233 302 351 419
#     4  10  24  38  56  78 140 174 220 270 348 410
#     4  12  26  43  66 101 138 184 234 290 355 423
#     4  12  26  41  65  95 137 181 232 284 347 416
#     4  11  24  39  54  88 122 183 217 274 326 412
#     4  12  26  43  66 101 138 184 234 290 355 423
#     4  11  23  44  71  99 134 180 239 290 356 416
#     4  12  26  41  65  95 137 181 232 284 347 416
#
# _framework density 22.271288999999999
#
# number of rings (size 3 to 8) (size 9 to 14) (size 15 to 20)
#    0.000    0.533    2.667    6.000   11.200    0.000 
#    0.000    0.000    0.000    0.800    0.000    5.600 
#    0.000    0.000    0.000    0.000    0.000    0.000 
#
# Total GULP energy -743500.459011 kJ/mol
# GULP energy per Si atom -12391.674317 kJ/mol
# Density = 2.222060 g / cm^3
# Si number density = 22.271289 Si / 1000 Ang^3
#
#
#
# Elastic Constant Matrix: (Units=GPa)
#
#
# Indices 1 2 3 4 5 6 
#
# 1 73.8724 56.2787 27.0093 0.0000 0.0000 0.0000
# 2 56.2787 71.7100 14.6026 0.0000 0.0000 0.0000
# 3 27.0093 14.6026 90.2594 0.0000 0.0000 0.0000
# 4 0.0000 0.0000 0.0000 26.6741 0.0000 0.0000
# 5 0.0000 0.0000 0.0000 0.0000 28.3967 0.0000
# 6 0.0000 0.0000 0.0000 0.0000 0.0000 37.1332
#
#
#
# Elastic Compliance Matrix: (Units=1/GPa)
#
#
# Indices 1 2 3 4 5 6 
#
# 1 0.037127 -0.027791 -0.006614 0.000000 0.000000 0.000000
# 2 -0.027791 0.035223 0.002618 0.000000 0.000000 0.000000
# 3 -0.006614 0.002618 0.012635 0.000000 0.000000 0.000000
# 4 0.000000 0.000000 0.000000 0.037489 0.000000 0.000000
# 5 0.000000 0.000000 0.000000 0.000000 0.035215 0.000000
# 6 0.000000 0.000000 0.000000 0.000000 0.000000 0.026930
#
#
# Mechanical properties :
#
#
# Convention : Reuss Voigt Hill
#
# Bulk Modulus (GPa) = 46.70614 47.95810 47.33212
# Shear Modulus (GPa) = 19.58245 27.63756 23.61001
#
# Velocity S-wave (km/s) = 2.96846 3.52653 3.25946
# Velocity P-wave (km/s) = 5.72416 6.17756 5.95518
#
# Compressibility (1/GPa) = 0.02141046
#
# Stress axis : x y z
#
# Youngs Moduli (GPa) = 26.93440 28.39081 79.14640
#
# Poissons Ratio (x) = 0.78901 0.52346
# Poissons Ratio (y) = 0.74853 -0.20719
# Poissons Ratio (z) = 0.17814 -0.07432
#
# Static dielectric constant tensor:
#      x y z
#    x 4.084310 0.000000 0.000000 
#    y 0.000000 4.363290 0.000000 
#    z 0.000000 0.000000 4.443270 
# 
# 
# High freq. dielectric constant tensor:
#      x y z
#    x 1.855720 0.000000 0.000000 
#    y 0.000000 1.847960 0.000000 
#    z 0.000000 0.000000 1.914110 
# 
# From -- ./inp_files/4117.got.cif
#   From: 2010.03.12/outbox.cif.g09.slc.cpg/sg56_3_cif.got.tgz:4117.got - 2010.04.16 15:33:40.
