data_PCOD8229453
_publ_section_title
;
Structure prediction by ZEFSAII (Michael W. Deem and Ramdas Pophale) SiO2 
 PCOD8229453
Probable space group: P C C N
;
_chemical_formula_sum "Si O2"
_cell_formula_units_Z 24
_cell_length_a 4.786191
_cell_length_b 21.285973
_cell_length_c 8.514302
_cell_angle_alpha 90.000000
_cell_angle_beta 90.000000
_cell_angle_gamma 90.000000
_cell_volume 867.426295
_symmetry_space_group_name_H-M "P C C N"
_symmetry_group_IT_number 56
_symmetry_cell_setting 'orthorhombic'
loop_
_space_group_symop_operation_xyz
x,y,z
1/2-x,1/2-y,z
1/2+x,-y,1/2-z
-x,1/2+y,1/2-z
-x,-y,-z
1/2+x,1/2+y,-z
1/2-x,y,1/2+z
x,1/2-y,1/2+z
loop_
_atom_site_type_symbol
_atom_site_label
_atom_site_fract_x
_atom_site_fract_y
_atom_site_fract_z
Si Si1 0.686045 0.376932 0.493598
Si Si2 0.511764 0.294206 0.228708
Si Si3 0.012127 0.458179 0.263849
O O1 0.474299 0.348081 0.362532
O O2 0.882513 0.431885 0.424837
O O3 0.488756 0.403900 0.631587
O O4 0.893454 0.324609 0.564386
O O5 0.250000 0.250000 0.193821
O O6 0.750000 0.250000 0.298220
O O7 0.827402 0.518395 0.207158
#
# Coordination Sequence:
#
# PCOD8229453 Si02
#       3
#     8   8   8
#     4  10  25  44  70 102 140 186 237 290 352 422
#     4  11  26  45  68 100 140 186 236 290 349 416
#     4  11  24  43  69 102 139 182 232 290 352 420
#
# _framework density 27.668057999999998
#
# number of rings (size 3 to 8) (size 9 to 14) (size 15 to 20)
#    0.000    1.333    0.000    3.000    0.000   21.333 
#    0.000    5.000    0.000    0.000    0.000    0.000 
#    0.000    0.000    0.000    0.000    0.000    0.000 
#
# Total GULP energy -297795.513124 kJ/mol
# GULP energy per Si atom -12408.146380 kJ/mol
# Density = 2.760508 g / cm^3
# Si number density = 27.668058 Si / 1000 Ang^3
#
#
#
# Elastic Constant Matrix: (Units=GPa)
#
#
# Indices 1 2 3 4 5 6 
#
# 1 79.3401 11.5293 -6.0460 0.0000 0.0000 0.0000
# 2 11.5293 99.6096 12.1629 0.0000 0.0000 0.0000
# 3 -6.0460 12.1629 107.3580 0.0000 0.0000 0.0000
# 4 0.0000 0.0000 0.0000 55.1921 0.0000 0.0000
# 5 0.0000 0.0000 0.0000 0.0000 13.0429 0.0000
# 6 0.0000 0.0000 0.0000 0.0000 0.0000 35.7104
#
#
#
# Elastic Compliance Matrix: (Units=1/GPa)
#
#
# Indices 1 2 3 4 5 6 
#
# 1 0.012906 -0.001605 0.000909 0.000000 0.000000 0.000000
# 2 -0.001605 0.010380 -0.001266 0.000000 0.000000 0.000000
# 3 0.000909 -0.001266 0.009509 0.000000 0.000000 0.000000
# 4 0.000000 0.000000 0.000000 0.018119 0.000000 0.000000
# 5 0.000000 0.000000 0.000000 0.000000 0.076670 0.000000
# 6 0.000000 0.000000 0.000000 0.000000 0.000000 0.028003
#
#
# Mechanical properties :
#
#
# Convention : Reuss Voigt Hill
#
# Bulk Modulus (GPa) = 34.63764 35.73335 35.18549
# Shear Modulus (GPa) = 29.56216 38.69985 34.13101
#
# Velocity S-wave (km/s) = 3.27227 3.74400 3.51606
# Velocity P-wave (km/s) = 5.17911 5.62433 5.40631
#
# Compressibility (1/GPa) = 0.02887032
#
# Stress axis : x y z
#
# Youngs Moduli (GPa) = 77.48091 96.34318 105.16059
#
# Poissons Ratio (x) = 0.15461 -0.09555
# Poissons Ratio (y) = 0.12434 0.13317
# Poissons Ratio (z) = -0.07040 0.12200
#
# Static dielectric constant tensor:
#      x y z
#    x 4.419490 0.000000 0.000000 
#    y 0.000000 5.321710 0.000000 
#    z 0.000000 0.000000 4.813520 
# 
# 
# High freq. dielectric constant tensor:
#      x y z
#    x 2.095820 0.000000 0.000000 
#    y 0.000000 2.140390 0.000000 
#    z 0.000000 0.000000 2.122700 
# 
# From -- ./inp_files/1488.got.cif
#   From: 2010.03.12/outbox.cif.g09.slc.cpg/sg56_1_cif.got.tgz:1488.got - 2010.04.16 15:33:40.
