data_PCOD8229467
_publ_section_title
;
Structure prediction by ZEFSAII (Michael W. Deem and Ramdas Pophale) SiO2 
 PCOD8229467
Probable space group: P C C N
;
_chemical_formula_sum "Si O2"
_cell_formula_units_Z 60
_cell_length_a 22.343795
_cell_length_b 10.982080
_cell_length_c 11.285313
_cell_angle_alpha 90.000000
_cell_angle_beta 90.000000
_cell_angle_gamma 90.000000
_cell_volume 2769.205274
_symmetry_space_group_name_H-M "P C C N"
_symmetry_group_IT_number 56
_symmetry_cell_setting 'orthorhombic'
loop_
_space_group_symop_operation_xyz
x,y,z
1/2-x,1/2-y,z
1/2+x,-y,1/2-z
-x,1/2+y,1/2-z
-x,-y,-z
1/2+x,1/2+y,-z
1/2-x,y,1/2+z
x,1/2-y,1/2+z
loop_
_atom_site_type_symbol
_atom_site_label
_atom_site_fract_x
_atom_site_fract_y
_atom_site_fract_z
Si Si1 0.163967 0.033067 0.454555
Si Si2 0.600168 0.061575 0.494451
Si Si3 0.287972 0.500563 0.858840
Si Si4 0.750000 0.250000 0.260805
Si Si5 0.585395 0.590731 0.759877
Si Si6 0.872481 0.644019 0.816752
Si Si7 0.048127 0.943561 0.760704
Si Si8 0.362722 0.799026 0.106542
O O1 0.119779 0.019982 0.343307
O O2 0.143057 0.140557 0.543424
O O3 0.230361 0.068463 0.411078
O O4 0.162235 0.905608 0.523638
O O5 0.665298 0.018048 0.535880
O O6 0.551296 0.041892 0.597282
O O7 0.597792 0.205510 0.468425
O O8 0.583310 0.986006 0.379260
O O9 0.264377 0.631362 0.815836
O O10 0.318124 0.421055 0.754488
O O11 0.807337 0.278164 0.342015
O O12 0.618935 0.718224 0.776765
O O13 0.516428 0.604147 0.719185
O O14 0.935654 0.574556 0.796438
O O15 0.098755 0.849807 0.716276
#
# Coordination Sequence:
#
# PCOD8229467 Si02
#       8
#     8   8   8   4   8   8   8   8
#     4  11  25  44  69 104 136 183 233 287 355 410
#     4  11  24  42  70 106 135 184 233 287 358 413
#     4  11  23  44  70 102 145 176 228 293 349 424
#     4  12  18  42  72 104 138 174 226 284 356 410
#     4  12  28  43  75 100 140 194 237 282 358 425
#     4  10  26  49  66 103 140 185 234 288 353 415
#     4  10  25  48  67 101 139 186 233 296 349 414
#     4  11  23  41  72 106 139 175 234 296 349 414
#
# _framework density 21.666865999999999
#
# number of rings (size 3 to 8) (size 9 to 14) (size 15 to 20)
#    0.000    1.067    4.000    2.800    9.333    3.733 
#    0.000    0.000    0.000    0.000    0.000    0.000 
#    0.000    0.000    0.000    0.000    0.000    0.000 
#
# Total GULP energy -744138.863132 kJ/mol
# GULP energy per Si atom -12402.314386 kJ/mol
# Density = 2.161755 g / cm^3
# Si number density = 21.666866 Si / 1000 Ang^3
#
#
#
# Elastic Constant Matrix: (Units=GPa)
#
#
# Indices 1 2 3 4 5 6 
#
# 1 118.1870 30.6905 39.5063 0.0000 0.0000 0.0000
# 2 30.6905 56.1275 13.2730 0.0000 0.0000 0.0000
# 3 39.5063 13.2730 107.1449 0.0000 0.0000 0.0000
# 4 0.0000 0.0000 0.0000 17.2395 0.0000 0.0000
# 5 0.0000 0.0000 0.0000 0.0000 20.8916 0.0000
# 6 0.0000 0.0000 0.0000 0.0000 0.0000 29.3323
#
#
#
# Elastic Compliance Matrix: (Units=1/GPa)
#
#
# Indices 1 2 3 4 5 6 
#
# 1 0.010940 -0.005180 -0.003392 0.000000 0.000000 0.000000
# 2 -0.005180 0.020807 -0.000668 0.000000 0.000000 0.000000
# 3 -0.003392 -0.000668 0.010667 0.000000 0.000000 0.000000
# 4 0.000000 0.000000 0.000000 0.058006 0.000000 0.000000
# 5 0.000000 0.000000 0.000000 0.000000 0.047866 0.000000
# 6 0.000000 0.000000 0.000000 0.000000 0.000000 0.034092
#
#
# Mechanical properties :
#
#
# Convention : Reuss Voigt Hill
#
# Bulk Modulus (GPa) = 41.78110 49.82211 45.80160
# Shear Modulus (GPa) = 23.94230 26.69200 25.31715
#
# Velocity S-wave (km/s) = 3.32779 3.51369 3.42200
# Velocity P-wave (km/s) = 5.83874 6.28537 6.06617
#
# Compressibility (1/GPa) = 0.02393427
#
# Stress axis : x y z
#
# Youngs Moduli (GPa) = 91.40633 48.06119 93.75046
#
# Poissons Ratio (x) = 0.24895 0.31802
# Poissons Ratio (y) = 0.47347 0.06259
# Poissons Ratio (z) = 0.31007 0.03209
#
# Static dielectric constant tensor:
#      x y z
#    x 4.016610 0.000000 0.000000 
#    y 0.000000 3.790870 0.000000 
#    z 0.000000 0.000000 4.049110 
# 
# 
# High freq. dielectric constant tensor:
#      x y z
#    x 1.854630 0.000000 0.000000 
#    y 0.000000 1.839840 0.000000 
#    z 0.000000 0.000000 1.864200 
# 
# From -- ./inp_files/8689.got.cif
#   From: 2010.03.12/outbox.cif.g09.slc.cpg/sg56_5_cif.got.tgz:8689.got - 2010.04.16 15:33:40.
