data_PCOD8229192
_publ_section_title
;
Structure prediction by ZEFSAII (Michael W. Deem and Ramdas Pophale) SiO2 
 PCOD8229192
Probable space group: P C C N
;
_chemical_formula_sum "Si O2"
_cell_formula_units_Z 48
_cell_length_a 17.194137
_cell_length_b 8.643713
_cell_length_c 14.455627
_cell_angle_alpha 90.000000
_cell_angle_beta 90.000000
_cell_angle_gamma 90.000000
_cell_volume 2148.412422
_symmetry_space_group_name_H-M "P C C N"
_symmetry_group_IT_number 56
_symmetry_cell_setting 'orthorhombic'
loop_
_space_group_symop_operation_xyz
x,y,z
1/2-x,1/2-y,z
1/2+x,-y,1/2-z
-x,1/2+y,1/2-z
-x,-y,-z
1/2+x,1/2+y,-z
1/2-x,y,1/2+z
x,1/2-y,1/2+z
loop_
_atom_site_type_symbol
_atom_site_label
_atom_site_fract_x
_atom_site_fract_y
_atom_site_fract_z
Si Si1 0.182126 0.873456 0.939764
Si Si2 0.726353 0.915278 0.727231
Si Si3 0.988737 0.325207 0.536376
Si Si4 0.977418 0.304853 0.844957
Si Si5 0.068457 0.145052 0.691567
Si Si6 0.681755 0.129116 0.349969
O O1 0.250000 0.750000 0.928079
O O2 0.096901 0.802689 0.918447
O O3 0.196581 0.004167 0.865222
O O4 0.179650 0.937734 0.045268
O O5 0.750000 0.750000 0.689607
O O6 0.659233 0.899178 0.805042
O O7 0.801173 0.993434 0.776448
O O8 0.998690 0.207607 0.452209
O O9 0.000000 0.500000 0.500000
O O10 0.051872 0.273454 0.612399
O O11 0.978109 0.486198 0.822982
O O12 0.896646 0.217899 0.822554
O O13 0.044802 0.219821 0.788675
O O14 0.750000 0.250000 0.337857
#
# Coordination Sequence:
#
# PCOD8229192 Si02
#       6
#     8   8   8   8   8   8
#     4  10  24  45  71  98 134 190 232 279 358 424
#     4  12  27  42  66 104 140 177 231 292 342 417
#     4  11  25  46  71 101 142 183 232 300 351 423
#     4  11  24  44  70  98 138 181 234 284 355 423
#     4  12  26  44  70 105 135 188 232 289 357 421
#     4  10  22  46  70  94 134 185 229 284 347 423
#
# _framework density 22.342078999999998
#
# number of rings (size 3 to 8) (size 9 to 14) (size 15 to 20)
#    0.000    1.000    1.667    4.000    9.333    0.667 
#    3.000    0.000    0.000    0.000    0.000    0.000 
#    0.000    0.000    0.000    0.000    0.000    0.000 
#
# Total GULP energy -595291.913898 kJ/mol
# GULP energy per Si atom -12401.914873 kJ/mol
# Density = 2.229123 g / cm^3
# Si number density = 22.342079 Si / 1000 Ang^3
#
#
#
# Elastic Constant Matrix: (Units=GPa)
#
#
# Indices 1 2 3 4 5 6 
#
# 1 74.6333 14.0914 19.9971 0.0000 0.0000 0.0000
# 2 14.0914 117.9427 56.3916 0.0000 0.0000 0.0000
# 3 19.9971 56.3916 107.1228 0.0000 0.0000 0.0000
# 4 0.0000 0.0000 0.0000 29.6743 0.0000 0.0000
# 5 0.0000 0.0000 0.0000 0.0000 29.4386 0.0000
# 6 0.0000 0.0000 0.0000 0.0000 0.0000 30.1202
#
#
#
# Elastic Compliance Matrix: (Units=1/GPa)
#
#
# Indices 1 2 3 4 5 6 
#
# 1 0.014133 -0.000571 -0.002338 0.000000 0.000000 0.000000
# 2 -0.000571 0.011354 -0.005870 0.000000 0.000000 0.000000
# 3 -0.002338 -0.005870 0.012862 0.000000 0.000000 0.000000
# 4 0.000000 0.000000 0.000000 0.033699 0.000000 0.000000
# 5 0.000000 0.000000 0.000000 0.000000 0.033969 0.000000
# 6 0.000000 0.000000 0.000000 0.000000 0.000000 0.033200
#
#
# Mechanical properties :
#
#
# Convention : Reuss Voigt Hill
#
# Bulk Modulus (GPa) = 48.09849 53.40656 50.75253
# Shear Modulus (GPa) = 30.54281 31.79452 31.16866
#
# Velocity S-wave (km/s) = 3.70138 3.77646 3.73911
# Velocity P-wave (km/s) = 6.31204 6.55526 6.43480
#
# Compressibility (1/GPa) = 0.02079067
#
# Stress axis : x y z
#
# Youngs Moduli (GPa) = 70.75643 88.07775 77.75028
#
# Poissons Ratio (x) = 0.05027 0.18176
# Poissons Ratio (y) = 0.04039 0.45641
# Poissons Ratio (z) = 0.16541 0.51704
#
# Static dielectric constant tensor:
#      x y z
#    x 4.588870 0.000000 0.000000 
#    y 0.000000 4.013140 0.000000 
#    z 0.000000 0.000000 4.110990 
# 
# 
# High freq. dielectric constant tensor:
#      x y z
#    x 1.886340 0.000000 0.000000 
#    y 0.000000 1.880020 0.000000 
#    z 0.000000 0.000000 1.887080 
# 
# From -- ./inp_files/12696.got.cif
#   From: 2010.03.12/outbox.cif.g09.slc.cpg/sg56_7_cif.got.tgz:12696.got - 2010.04.16 15:33:40.
