data_PCOD8229050
_publ_section_title
;
Structure prediction by ZEFSAII (Michael W. Deem and Ramdas Pophale) SiO2 
 PCOD8229050
Probable space group: P C C N
;
_chemical_formula_sum "Si O2"
_cell_formula_units_Z 32
_cell_length_a 9.316309
_cell_length_b 13.604763
_cell_length_c 8.619400
_cell_angle_alpha 90.000000
_cell_angle_beta 90.000000
_cell_angle_gamma 90.000000
_cell_volume 1092.475989
_symmetry_space_group_name_H-M "P C C N"
_symmetry_group_IT_number 56
_symmetry_cell_setting 'orthorhombic'
loop_
_space_group_symop_operation_xyz
x,y,z
1/2-x,1/2-y,z
1/2+x,-y,1/2-z
-x,1/2+y,1/2-z
-x,-y,-z
1/2+x,1/2+y,-z
1/2-x,y,1/2+z
x,1/2-y,1/2+z
loop_
_atom_site_type_symbol
_atom_site_label
_atom_site_fract_x
_atom_site_fract_y
_atom_site_fract_z
Si Si1 0.750000 0.750000 0.016177
Si Si2 0.614539 0.618336 0.259273
Si Si3 0.896861 0.129390 0.373114
Si Si4 0.250000 0.750000 0.383988
Si Si5 0.356358 0.500122 0.356760
O O1 0.627693 0.697782 0.121784
O O2 0.828425 0.665647 0.918073
O O3 0.446795 0.587505 0.271148
O O4 0.699866 0.516884 0.215942
O O5 0.808549 0.158640 0.218149
O O6 0.878361 0.213389 0.504499
O O7 0.845053 0.026411 0.458429
O O8 0.063462 0.106723 0.332261
#
# Coordination Sequence:
#
# PCOD8229050 Si02
#       5
#     4   8   8   4   8
#     4  10  24  46  70 100 140 188 230 288 360 418
#     4  11  25  46  71  99 140 186 236 287 351 418
#     4  10  22  40  67  99 134 169 223 283 342 403
#     4  10  22  42  70 100 132 176 224 284 346 414
#     4  11  24  43  68 101 138 179 232 289 340 415
#
# _framework density 29.291260999999999
#
# number of rings (size 3 to 8) (size 9 to 14) (size 15 to 20)
#    0.000    1.500    0.000    4.500    0.000    9.000 
#    0.000    2.500    0.000   18.000    0.000    0.000 
#    0.000    0.000    0.000    0.000    0.000    0.000 
#
# Total GULP energy -396763.951029 kJ/mol
# GULP energy per Si atom -12398.873470 kJ/mol
# Density = 2.922459 g / cm^3
# Si number density = 29.291261 Si / 1000 Ang^3
#
#
#
# Elastic Constant Matrix: (Units=GPa)
#
#
# Indices 1 2 3 4 5 6 
#
# 1 60.5230 1.7017 7.1163 0.0000 0.0000 0.0000
# 2 1.7017 138.6048 12.7986 0.0000 0.0000 0.0000
# 3 7.1163 12.7986 116.5518 0.0000 0.0000 0.0000
# 4 0.0000 0.0000 0.0000 39.9134 0.0000 0.0000
# 5 0.0000 0.0000 0.0000 0.0000 43.1870 0.0000
# 6 0.0000 0.0000 0.0000 0.0000 0.0000 48.1274
#
#
#
# Elastic Compliance Matrix: (Units=1/GPa)
#
#
# Indices 1 2 3 4 5 6 
#
# 1 0.016644 -0.000112 -0.001004 0.000000 0.000000 0.000000
# 2 -0.000112 0.007289 -0.000794 0.000000 0.000000 0.000000
# 3 -0.001004 -0.000794 0.008728 0.000000 0.000000 0.000000
# 4 0.000000 0.000000 0.000000 0.025054 0.000000 0.000000
# 5 0.000000 0.000000 0.000000 0.000000 0.023155 0.000000
# 6 0.000000 0.000000 0.000000 0.000000 0.000000 0.020778
#
#
# Mechanical properties :
#
#
# Convention : Reuss Voigt Hill
#
# Bulk Modulus (GPa) = 34.67033 39.87918 37.27475
# Shear Modulus (GPa) = 43.44731 45.84977 44.64854
#
# Velocity S-wave (km/s) = 3.85552 3.96069 3.90846
# Velocity P-wave (km/s) = 5.62869 5.87880 5.75511
#
# Compressibility (1/GPa) = 0.02884311
#
# Stress axis : x y z
#
# Youngs Moduli (GPa) = 60.08235 137.18529 114.56951
#
# Poissons Ratio (x) = 0.01531 0.11502
# Poissons Ratio (y) = 0.00671 0.09093
# Poissons Ratio (z) = 0.06032 0.10888
#
# Static dielectric constant tensor:
#      x y z
#    x 5.044000 0.000000 0.000000 
#    y 0.000000 6.211170 0.000000 
#    z 0.000000 0.000000 5.418830 
# 
# 
# High freq. dielectric constant tensor:
#      x y z
#    x 2.174410 0.000000 0.000000 
#    y 0.000000 2.240870 0.000000 
#    z 0.000000 0.000000 2.207080 
# 
# From -- ./inp_files/2468.got.cif
#   From: 2010.03.12/outbox.cif.g09.slc.cpg/sg56_2_cif.got.tgz:2468.got - 2010.04.16 15:33:40.
