data_PCOD8229352
_publ_section_title
;
Structure prediction by ZEFSAII (Michael W. Deem and Ramdas Pophale) SiO2 
 PCOD8229352
Probable space group: P C C N
;
_chemical_formula_sum "Si O2"
_cell_formula_units_Z 64
_cell_length_a 18.859320
_cell_length_b 10.471292
_cell_length_c 14.414215
_cell_angle_alpha 90.000000
_cell_angle_beta 90.000000
_cell_angle_gamma 90.000000
_cell_volume 2846.540030
_symmetry_space_group_name_H-M "P C C N"
_symmetry_group_IT_number 56
_symmetry_cell_setting 'orthorhombic'
loop_
_space_group_symop_operation_xyz
x,y,z
1/2-x,1/2-y,z
1/2+x,-y,1/2-z
-x,1/2+y,1/2-z
-x,-y,-z
1/2+x,1/2+y,-z
1/2-x,y,1/2+z
x,1/2-y,1/2+z
loop_
_atom_site_type_symbol
_atom_site_label
_atom_site_fract_x
_atom_site_fract_y
_atom_site_fract_z
Si Si1 0.824123 0.039195 0.706455
Si Si2 0.065971 0.538126 0.163010
Si Si3 0.966352 0.713232 0.935215
Si Si4 0.869213 0.250352 0.078993
Si Si5 0.110412 0.820829 0.117297
Si Si6 0.456615 0.348517 0.881421
Si Si7 0.835119 0.486492 0.684801
Si Si8 0.559733 0.855963 0.263702
O O1 0.839075 0.111314 0.608958
O O2 0.839765 0.129856 0.798368
O O3 0.746848 0.976438 0.693754
O O4 0.871058 0.914251 0.717078
O O5 0.047835 0.436956 0.082666
O O6 0.077388 0.678418 0.122649
O O7 0.137347 0.490451 0.211330
O O8 0.005534 0.545884 0.244024
O O9 0.925996 0.816868 0.870211
O O10 0.047218 0.744942 0.914390
O O11 0.943797 0.741176 0.039943
O O12 0.837501 0.162005 0.159390
O O13 0.844705 0.191527 0.978762
O O14 0.037741 0.908786 0.108159
O O15 0.388451 0.442823 0.888128
O O16 0.455790 0.281479 0.781751
#
# Coordination Sequence:
#
# PCOD8229352 Si02
#       8
#     8   8   8   8   8   8   8   8
#     4  12  25  43  62  95 136 181 214 268 341 406
#     4  11  21  42  68  94 131 172 219 275 336 394
#     4  11  22  40  72 100 126 167 228 288 330 391
#     4  11  23  41  66  99 130 169 221 281 336 392
#     4  10  24  41  69  99 129 169 227 275 332 409
#     4  10  24  41  68 100 128 173 227 281 335 393
#     4  12  24  43  63  90 139 177 215 276 331 397
#     4  11  22  40  69  92 130 172 223 274 331 406
#
# _framework density 22.483435
#
# number of rings (size 3 to 8) (size 9 to 14) (size 15 to 20)
#    0.000    1.000    5.000    1.875    3.500    3.000 
#    4.500    0.000    2.750    0.000    0.000    0.000 
#    0.000    0.000    0.000    0.000    0.000    0.000 
#
# Total GULP energy -792891.814065 kJ/mol
# GULP energy per Si atom -12388.934595 kJ/mol
# Density = 2.243226 g / cm^3
# Si number density = 22.483435 Si / 1000 Ang^3
#
#
#
# Elastic Constant Matrix: (Units=GPa)
#
#
# Indices 1 2 3 4 5 6 
#
# 1 129.4909 16.4498 14.9815 0.0000 0.0000 0.0000
# 2 16.4498 43.1015 -4.1208 0.0000 0.0000 0.0000
# 3 14.9815 -4.1208 84.4136 0.0000 0.0000 0.0000
# 4 0.0000 0.0000 0.0000 27.5542 0.0000 0.0000
# 5 0.0000 0.0000 0.0000 0.0000 21.4939 0.0000
# 6 0.0000 0.0000 0.0000 0.0000 0.0000 19.2893
#
#
#
# Elastic Compliance Matrix: (Units=1/GPa)
#
#
# Indices 1 2 3 4 5 6 
#
# 1 0.008337 -0.003339 -0.001643 0.000000 0.000000 0.000000
# 2 -0.003339 0.024647 0.001796 0.000000 0.000000 0.000000
# 3 -0.001643 0.001796 0.012226 0.000000 0.000000 0.000000
# 4 0.000000 0.000000 0.000000 0.036292 0.000000 0.000000
# 5 0.000000 0.000000 0.000000 0.000000 0.046525 0.000000
# 6 0.000000 0.000000 0.000000 0.000000 0.000000 0.051842
#
#
# Mechanical properties :
#
#
# Convention : Reuss Voigt Hill
#
# Bulk Modulus (GPa) = 25.74790 34.62523 30.18656
# Shear Modulus (GPa) = 25.10220 28.98051 27.04136
#
# Velocity S-wave (km/s) = 3.34500 3.59412 3.47179
# Velocity P-wave (km/s) = 5.13765 5.71466 5.43382
#
# Compressibility (1/GPa) = 0.03883812
#
# Stress axis : x y z
#
# Youngs Moduli (GPa) = 119.95115 40.57291 81.79549
#
# Poissons Ratio (x) = 0.13546 0.13435
# Poissons Ratio (y) = 0.40049 -0.14688
# Poissons Ratio (z) = 0.19703 -0.07286
#
# Static dielectric constant tensor:
#      x y z
#    x 3.897260 0.000000 0.000000 
#    y 0.000000 4.012640 0.000000 
#    z 0.000000 0.000000 4.207050 
# 
# 
# High freq. dielectric constant tensor:
#      x y z
#    x 1.857790 0.000000 0.000000 
#    y 0.000000 1.885630 0.000000 
#    z 0.000000 0.000000 1.890480 
# 
# From -- ./inp_files/12871.got.cif
#   From: 2010.03.12/outbox.cif.g09.slc.cpg/sg56_7_cif.got.tgz:12871.got - 2010.04.16 15:33:40.
