data_PCOD8229952
_publ_section_title
;
Structure prediction by ZEFSAII (Michael W. Deem and Ramdas Pophale) SiO2 
 PCOD8229952
Probable space group: P B C M
;
_chemical_formula_sum "Si O2"
_cell_formula_units_Z 56
_cell_length_a 14.337221
_cell_length_b 26.426365
_cell_length_c 9.482704
_cell_angle_alpha 90.000000
_cell_angle_beta 90.000000
_cell_angle_gamma 90.000000
_cell_volume 3592.812915
_symmetry_space_group_name_H-M "P B C M"
_symmetry_group_IT_number 57
_symmetry_cell_setting 'orthorhombic'
loop_
_space_group_symop_operation_xyz
x,y,z
-x,-y,1/2+z
x,1/2-y,-z
-x,1/2+y,1/2-z
-x,-y,-z
x,y,1/2-z
-x,1/2+y,z
x,1/2-y,1/2+z
loop_
_atom_site_type_symbol
_atom_site_label
_atom_site_fract_x
_atom_site_fract_y
_atom_site_fract_z
Si Si1 0.490156 0.116884 0.914435
Si Si2 0.684378 0.560056 0.586542
Si Si3 0.627644 0.466005 0.090471
Si Si4 0.933147 0.430511 0.586512
Si Si5 0.627613 0.301105 0.415220
Si Si6 0.108208 0.453595 0.412348
Si Si7 0.218904 0.883274 0.407994
O O1 0.515891 0.116615 0.750000
O O2 0.378916 0.110546 0.942389
O O3 0.544640 0.068102 0.976100
O O4 0.533854 0.169552 0.971151
O O5 0.681326 0.544880 0.750000
O O6 0.636570 0.515056 0.503812
O O7 0.791359 0.569270 0.541912
O O8 0.605648 0.483306 0.250000
O O9 0.722826 0.434651 0.085468
O O10 0.945638 0.417307 0.750000
O O11 0.890070 0.486150 0.563673
O O12 0.866308 0.388451 0.517166
O O13 0.033531 0.426770 0.512225
O O14 0.637645 0.250000 0.500000
O O15 0.621302 0.288503 0.250000
O O16 0.717540 0.335465 0.449610
O O17 0.084204 0.441096 0.250000
O O18 0.178814 0.876052 0.250000
#
# Coordination Sequence:
#
# PCOD8229952 Si02
#       7
#     8   8   8   8   8   8   8
#     4   8  16  29  44  62  87 117 146 176 218 264
#     4  10  17  27  42  61  87 119 152 184 211 252
#     4   9  16  26  40  60  87 119 148 176 211 254
#     4  10  18  28  42  62  86 116 154 190 220 253
#     4   9  18  33  50  69  90 115 145 180 225 272
#     4   9  18  28  39  59  88 121 154 185 217 253
#     4   9  17  29  45  63  89 120 147 178 222 271
#
# _framework density 15.586672999999999
#
# number of rings (size 3 to 8) (size 9 to 14) (size 15 to 20)
#    0.000    2.857    1.429    2.571    0.000    1.714 
#    0.000    2.857    0.000    0.000    0.000    1.000 
#    0.000    2.286    0.000    0.000    0.000    0.000 
#
# Total GULP energy -694058.208388 kJ/mol
# GULP energy per Si atom -12393.896578 kJ/mol
# Density = 1.555120 g / cm^3
# Si number density = 15.586673 Si / 1000 Ang^3
#
#
#
# Elastic Constant Matrix: (Units=GPa)
#
#
# Indices 1 2 3 4 5 6 
#
# 1 117.3224 45.0209 53.5330 0.0000 0.0000 0.0000
# 2 45.0209 72.1425 38.3037 0.0000 0.0000 0.0000
# 3 53.5330 38.3037 64.2375 0.0000 0.0000 0.0000
# 4 0.0000 0.0000 0.0000 21.0621 0.0000 0.0000
# 5 0.0000 0.0000 0.0000 0.0000 20.0108 0.0000
# 6 0.0000 0.0000 0.0000 0.0000 0.0000 13.9063
#
#
#
# Elastic Compliance Matrix: (Units=1/GPa)
#
#
# Indices 1 2 3 4 5 6 
#
# 1 0.014445 -0.003838 -0.009749 0.000000 0.000000 0.000000
# 2 -0.003838 0.021303 -0.009504 0.000000 0.000000 0.000000
# 3 -0.009749 -0.009504 0.029359 0.000000 0.000000 0.000000
# 4 0.000000 0.000000 0.000000 0.047479 0.000000 0.000000
# 5 0.000000 0.000000 0.000000 0.000000 0.049973 0.000000
# 6 0.000000 0.000000 0.000000 0.000000 0.000000 0.071910
#
#
# Mechanical properties :
#
#
# Convention : Reuss Voigt Hill
#
# Bulk Modulus (GPa) = 52.84293 58.60195 55.72244
# Shear Modulus (GPa) = 17.42417 18.78550 18.10484
#
# Velocity S-wave (km/s) = 3.34711 3.47541 3.41186
# Velocity P-wave (km/s) = 6.99384 7.33374 7.16580
#
# Compressibility (1/GPa) = 0.01892401
#
# Stress axis : x y z
#
# Youngs Moduli (GPa) = 69.22933 46.94246 34.06146
#
# Poissons Ratio (x) = 0.18017 0.33207
# Poissons Ratio (y) = 0.26571 0.32372
# Poissons Ratio (z) = 0.67492 0.44614
#
# Static dielectric constant tensor:
#      x y z
#    x 3.068940 0.000000 0.000000 
#    y 0.000000 2.639290 0.000000 
#    z 0.000000 0.000000 2.887200 
# 
# 
# High freq. dielectric constant tensor:
#      x y z
#    x 1.601910 0.000000 0.000000 
#    y 0.000000 1.551610 0.000000 
#    z 0.000000 0.000000 1.590650 
# 
# From -- ./inp_files/5892.got.cif
#   From: 2010.03.12/outbox.cif.g09.slc.cpg/sg57_3_cif.got.tgz:5892.got - 2010.04.16 15:48:40.
