data_PCOD8229380
_publ_section_title
;
Structure prediction by ZEFSAII (Michael W. Deem and Ramdas Pophale) SiO2 
 PCOD8229380
Probable space group: P C C N
;
_chemical_formula_sum "Si O2"
_cell_formula_units_Z 40
_cell_length_a 10.734355
_cell_length_b 18.384048
_cell_length_c 8.864924
_cell_angle_alpha 90.000000
_cell_angle_beta 90.000000
_cell_angle_gamma 90.000000
_cell_volume 1749.412059
_symmetry_space_group_name_H-M "P C C N"
_symmetry_group_IT_number 56
_symmetry_cell_setting 'orthorhombic'
loop_
_space_group_symop_operation_xyz
x,y,z
1/2-x,1/2-y,z
1/2+x,-y,1/2-z
-x,1/2+y,1/2-z
-x,-y,-z
1/2+x,1/2+y,-z
1/2-x,y,1/2+z
x,1/2-y,1/2+z
loop_
_atom_site_type_symbol
_atom_site_label
_atom_site_fract_x
_atom_site_fract_y
_atom_site_fract_z
Si Si1 0.874204 0.709348 0.296005
Si Si2 0.052362 0.919898 0.324920
Si Si3 0.008522 0.689943 0.588497
Si Si4 0.981601 0.912649 0.656084
Si Si5 0.300826 0.671287 0.831415
O O1 0.750000 0.750000 0.255517
O O2 0.894907 0.704306 0.474421
O O3 0.997152 0.747428 0.217572
O O4 0.862549 0.629431 0.224363
O O5 0.988196 0.885327 0.177655
O O6 0.976491 0.902444 0.476594
O O7 0.188604 0.885783 0.349284
O O8 0.044013 0.005304 0.294488
O O9 0.138681 0.687797 0.496670
O O10 0.104253 0.874560 0.726858
O O11 0.250000 0.750000 0.766926
#
# Coordination Sequence:
#
# PCOD8229380 Si02
#       5
#     8   8   8   8   8
#     4  11  23  42  65  92 130 173 218 275 332 394
#     4  11  23  42  66  97 137 173 216 282 334 389
#     4  11  24  40  65  96 126 170 228 272 327 404
#     4  10  24  43  67 100 134 175 226 270 333 407
#     4  11  23  42  69  97 131 178 227 281 336 394
#
# _framework density 22.864825
#
# number of rings (size 3 to 8) (size 9 to 14) (size 15 to 20)
#    0.000    1.200    0.000    6.600    0.000    8.000 
#    0.000   11.000    0.000    0.000    0.000    0.000 
#    0.000    0.000    0.000    0.000    0.000    0.000 
#
# Total GULP energy -495579.918487 kJ/mol
# GULP energy per Si atom -12389.497962 kJ/mol
# Density = 2.281278 g / cm^3
# Si number density = 22.864825 Si / 1000 Ang^3
#
#
#
# Elastic Constant Matrix: (Units=GPa)
#
#
# Indices 1 2 3 4 5 6 
#
# 1 78.8072 58.9210 26.7860 0.0000 0.0000 0.0000
# 2 58.9210 173.7312 85.4994 0.0000 0.0000 0.0000
# 3 26.7860 85.4994 141.6158 0.0000 0.0000 0.0000
# 4 0.0000 0.0000 0.0000 47.2144 0.0000 0.0000
# 5 0.0000 0.0000 0.0000 0.0000 -39.6695 0.0000
# 6 0.0000 0.0000 0.0000 0.0000 0.0000 41.7378
#
#
#
# Elastic Compliance Matrix: (Units=1/GPa)
#
#
# Indices 1 2 3 4 5 6 
#
# 1 0.017014 -0.005956 0.000378 0.000000 0.000000 0.000000
# 2 -0.005956 0.010274 -0.005076 0.000000 0.000000 0.000000
# 3 0.000378 -0.005076 0.010055 0.000000 0.000000 0.000000
# 4 0.000000 0.000000 0.000000 0.021180 0.000000 0.000000
# 5 0.000000 0.000000 0.000000 0.000000 -0.025208 0.000000
# 6 0.000000 0.000000 0.000000 0.000000 0.000000 0.023959
#
#
# Mechanical properties :
#
#
# Convention : Reuss Voigt Hill
#
# Bulk Modulus (GPa) = 62.36939 81.84076 72.10507
# Shear Modulus (GPa) = 59.57473 24.71973 42.14723
#
# Velocity S-wave (km/s) = 5.10997 3.29161 4.29805
# Velocity P-wave (km/s) = 7.88367 7.09347 7.49899
#
# Compressibility (1/GPa) = 0.01603351
#
# Stress axis : x y z
#
# Youngs Moduli (GPa) = 58.77506 97.32907 99.45536
#
# Poissons Ratio (x) = 0.57972 -0.03759
# Poissons Ratio (y) = 0.35008 0.50488
# Poissons Ratio (z) = -0.02221 0.49409
#
# Static dielectric constant tensor:
#      x y z
#    x 3.932230 0.000000 0.000000 
#    y 0.000000 4.486860 0.000000 
#    z 0.000000 0.000000 4.302560 
# 
# 
# High freq. dielectric constant tensor:
#      x y z
#    x 1.889320 0.000000 0.000000 
#    y 0.000000 1.913770 0.000000 
#    z 0.000000 0.000000 1.921940 
# 
# From -- ./inp_files/2574.got.cif
#   From: 2010.03.12/outbox.cif.g09.slc.cpg/sg56_2_cif.got.tgz:2574.got - 2010.04.16 15:33:40.
