data_PCOD8229302
_publ_section_title
;
Structure prediction by ZEFSAII (Michael W. Deem and Ramdas Pophale) SiO2 
 PCOD8229302
Probable space group: P C C N
;
_chemical_formula_sum "Si O2"
_cell_formula_units_Z 64
_cell_length_a 11.922296
_cell_length_b 13.028045
_cell_length_c 17.860668
_cell_angle_alpha 90.000000
_cell_angle_beta 90.000000
_cell_angle_gamma 90.000000
_cell_volume 2774.194126
_symmetry_space_group_name_H-M "P C C N"
_symmetry_group_IT_number 56
_symmetry_cell_setting 'orthorhombic'
loop_
_space_group_symop_operation_xyz
x,y,z
1/2-x,1/2-y,z
1/2+x,-y,1/2-z
-x,1/2+y,1/2-z
-x,-y,-z
1/2+x,1/2+y,-z
1/2-x,y,1/2+z
x,1/2-y,1/2+z
loop_
_atom_site_type_symbol
_atom_site_label
_atom_site_fract_x
_atom_site_fract_y
_atom_site_fract_z
Si Si1 0.447358 0.379647 0.068230
Si Si2 0.130150 0.967710 0.421417
Si Si3 0.124515 0.719772 0.684634
Si Si4 0.686557 0.644732 0.234353
Si Si5 0.991906 0.303999 0.168049
Si Si6 0.585515 0.103518 0.919532
Si Si7 0.876613 0.555543 0.587163
Si Si8 0.786945 0.495581 0.334724
O O1 0.486619 0.269689 0.097786
O O2 0.552350 0.452727 0.082918
O O3 0.337037 0.419489 0.109957
O O4 0.412815 0.370777 0.981207
O O5 0.136399 0.900636 0.497345
O O6 0.099046 0.889811 0.354571
O O7 0.246843 0.024515 0.411171
O O8 0.038102 0.057059 0.422955
O O9 0.250000 0.750000 0.704551
O O10 0.079835 0.779316 0.610817
O O11 0.122863 0.597200 0.669562
O O12 0.052388 0.753103 0.757208
O O13 0.750000 0.750000 0.216896
O O14 0.612365 0.650162 0.309721
O O15 0.605474 0.619168 0.163952
O O16 0.772417 0.551018 0.253399
O O17 0.666327 0.041277 0.863882
#
# Coordination Sequence:
#
# PCOD8229302 Si02
#       8
#     8   8   8   8   8   8   8   8
#     4  11  26  48  71  99 147 188 237 299 366 430
#     4  11  24  45  73 106 146 185 246 298 364 432
#     4  10  25  42  71 107 139 187 241 292 365 440
#     4  12  26  46  72 108 142 190 244 299 372 442
#     4  12  26  42  70 107 143 191 232 307 366 436
#     4  10  23  44  74 104 138 190 239 300 361 430
#     4  11  27  47  71 103 142 193 242 301 357 436
#     4  11  21  48  73  99 147 188 236 303 362 431
#
# _framework density 23.069762000000001
#
# number of rings (size 3 to 8) (size 9 to 14) (size 15 to 20)
#    0.000    1.000    3.750    1.500    7.000    4.000 
#    6.750    0.000    0.000    0.000    0.000    0.000 
#    0.000    0.000    0.000    0.000    0.000    0.000 
#
# Total GULP energy -793723.522210 kJ/mol
# GULP energy per Si atom -12401.930035 kJ/mol
# Density = 2.301725 g / cm^3
# Si number density = 23.069762 Si / 1000 Ang^3
#
#
#
# Elastic Constant Matrix: (Units=GPa)
#
#
# Indices 1 2 3 4 5 6 
#
# 1 86.6038 21.5998 19.5321 0.0000 0.0000 0.0000
# 2 21.5998 100.1980 47.6093 0.0000 0.0000 0.0000
# 3 19.5321 47.6093 122.4499 0.0000 0.0000 0.0000
# 4 0.0000 0.0000 0.0000 41.1592 0.0000 0.0000
# 5 0.0000 0.0000 0.0000 0.0000 40.9385 0.0000
# 6 0.0000 0.0000 0.0000 0.0000 0.0000 24.0543
#
#
#
# Elastic Compliance Matrix: (Units=1/GPa)
#
#
# Indices 1 2 3 4 5 6 
#
# 1 0.012332 -0.002114 -0.001145 0.000000 0.000000 0.000000
# 2 -0.002114 0.012604 -0.004563 0.000000 0.000000 0.000000
# 3 -0.001145 -0.004563 0.010124 0.000000 0.000000 0.000000
# 4 0.000000 0.000000 0.000000 0.024296 0.000000 0.000000
# 5 0.000000 0.000000 0.000000 0.000000 0.024427 0.000000
# 6 0.000000 0.000000 0.000000 0.000000 0.000000 0.041573
#
#
# Mechanical properties :
#
#
# Convention : Reuss Voigt Hill
#
# Bulk Modulus (GPa) = 51.50769 54.08156 52.79462
# Shear Modulus (GPa) = 33.90452 35.93111 34.91782
#
# Velocity S-wave (km/s) = 3.83776 3.95080 3.89469
# Velocity P-wave (km/s) = 6.48177 6.65622 6.56957
#
# Compressibility (1/GPa) = 0.01941458
#
# Stress axis : x y z
#
# Youngs Moduli (GPa) = 81.08695 79.33768 98.77986
#
# Poissons Ratio (x) = 0.16776 0.11311
# Poissons Ratio (y) = 0.17145 0.45077
# Poissons Ratio (z) = 0.09285 0.36205
#
# Static dielectric constant tensor:
#      x y z
#    x 4.104600 0.000000 0.000000 
#    y 0.000000 4.150700 0.000000 
#    z 0.000000 0.000000 4.265240 
# 
# 
# High freq. dielectric constant tensor:
#      x y z
#    x 1.924050 0.000000 0.000000 
#    y 0.000000 1.905150 0.000000 
#    z 0.000000 0.000000 1.917940 
# 
# From -- ./inp_files/15794.got.cif
#   From: 2010.03.12/outbox.cif.g09.slc.cpg/sg56_8_cif.got.tgz:15794.got - 2010.04.16 15:33:40.
