data_PCOD8229021
_publ_section_title
;
Structure prediction by ZEFSAII (Michael W. Deem and Ramdas Pophale) SiO2 
 PCOD8229021
Probable space group: P C C N
;
_chemical_formula_sum "Si O2"
_cell_formula_units_Z 40
_cell_length_a 7.722496
_cell_length_b 25.944186
_cell_length_c 10.332563
_cell_angle_alpha 90.000000
_cell_angle_beta 90.000000
_cell_angle_gamma 90.000000
_cell_volume 2070.169011
_symmetry_space_group_name_H-M "P C C N"
_symmetry_group_IT_number 56
_symmetry_cell_setting 'orthorhombic'
loop_
_space_group_symop_operation_xyz
x,y,z
1/2-x,1/2-y,z
1/2+x,-y,1/2-z
-x,1/2+y,1/2-z
-x,-y,-z
1/2+x,1/2+y,-z
1/2-x,y,1/2+z
x,1/2-y,1/2+z
loop_
_atom_site_type_symbol
_atom_site_label
_atom_site_fract_x
_atom_site_fract_y
_atom_site_fract_z
Si Si1 0.443282 0.126099 0.272053
Si Si2 0.945427 0.874523 0.746604
Si Si3 0.602160 0.395941 0.518804
Si Si4 0.264113 0.689855 0.323755
Si Si5 0.538886 0.059374 0.513176
O O1 0.249293 0.147967 0.252813
O O2 0.490098 0.090498 0.147070
O O3 0.582852 0.173493 0.278384
O O4 0.448901 0.091862 0.399790
O O5 0.981301 0.898159 0.605705
O O6 0.077222 0.828146 0.773196
O O7 0.968588 0.920087 0.850017
O O8 0.690297 0.338982 0.540650
O O9 0.754030 0.437211 0.503141
O O10 0.250000 0.750000 0.348097
O O11 0.500000 0.000000 0.500000
#
# Coordination Sequence:
#
# PCOD8229021 Si02
#       5
#     8   8   8   8   8
#     4  10  22  40  62  92 128 165 210 262 318 380
#     4  11  21  40  65  90 132 161 208 273 306 384
#     4   9  20  42  61  88 131 159 212 264 314 373
#     4   9  21  40  67  88 128 164 210 258 325 370
#     4  11  22  40  64  92 124 172 213 259 325 381
#
# _framework density 19.322092999999999
#
# number of rings (size 3 to 8) (size 9 to 14) (size 15 to 20)
#    1.200    0.800    2.000    1.200    0.000    4.800 
#    0.000    3.000    4.400    0.000    0.000    0.000 
#    0.000    0.000    0.000    0.000    0.000    0.000 
#
# Total GULP energy -495692.726882 kJ/mol
# GULP energy per Si atom -12392.318172 kJ/mol
# Density = 1.927812 g / cm^3
# Si number density = 19.322093 Si / 1000 Ang^3
#
#
#
# Elastic Constant Matrix: (Units=GPa)
#
#
# Indices 1 2 3 4 5 6 
#
# 1 175.3093 42.8564 30.3876 0.0000 0.0000 0.0000
# 2 42.8564 110.7888 24.6587 0.0000 0.0000 0.0000
# 3 30.3876 24.6587 121.5587 0.0000 0.0000 0.0000
# 4 0.0000 0.0000 0.0000 16.8007 0.0000 0.0000
# 5 0.0000 0.0000 0.0000 0.0000 28.6750 0.0000
# 6 0.0000 0.0000 0.0000 0.0000 0.0000 12.2433
#
#
#
# Elastic Compliance Matrix: (Units=1/GPa)
#
#
# Indices 1 2 3 4 5 6 
#
# 1 0.006452 -0.002238 -0.001159 0.000000 0.000000 0.000000
# 2 -0.002238 0.010229 -0.001516 0.000000 0.000000 0.000000
# 3 -0.001159 -0.001516 0.008824 0.000000 0.000000 0.000000
# 4 0.000000 0.000000 0.000000 0.059521 0.000000 0.000000
# 5 0.000000 0.000000 0.000000 0.000000 0.034874 0.000000
# 6 0.000000 0.000000 0.000000 0.000000 0.000000 0.081677
#
#
# Mechanical properties :
#
#
# Convention : Reuss Voigt Hill
#
# Bulk Modulus (GPa) = 63.77528 67.05135 65.41332
# Shear Modulus (GPa) = 23.08092 32.19407 27.63749
#
# Velocity S-wave (km/s) = 3.45995 4.08631 3.78611
# Velocity P-wave (km/s) = 7.00284 7.55256 7.28289
#
# Compressibility (1/GPa) = 0.01568006
#
# Stress axis : x y z
#
# Youngs Moduli (GPa) = 154.98627 97.75919 113.33191
#
# Poissons Ratio (x) = 0.21878 0.13135
# Poissons Ratio (y) = 0.34685 0.17176
# Poissons Ratio (z) = 0.17962 0.14816
#
# Static dielectric constant tensor:
#      x y z
#    x 3.713570 0.000000 0.000000 
#    y 0.000000 3.047510 0.000000 
#    z 0.000000 0.000000 3.592540 
# 
# 
# High freq. dielectric constant tensor:
#      x y z
#    x 1.767570 0.000000 0.000000 
#    y 0.000000 1.707730 0.000000 
#    z 0.000000 0.000000 1.761920 
# 
# From -- ./inp_files/2123.got.cif
#   From: 2010.03.12/outbox.cif.g09.slc.cpg/sg56_2_cif.got.tgz:2123.got - 2010.04.16 15:33:40.
