data_PCOD8229104
_publ_section_title
;
Structure prediction by ZEFSAII (Michael W. Deem and Ramdas Pophale) SiO2 
 PCOD8229104
Probable space group: P C C N
;
_chemical_formula_sum "Si O2"
_cell_formula_units_Z 64
_cell_length_a 8.655337
_cell_length_b 11.769842
_cell_length_c 28.506923
_cell_angle_alpha 90.000000
_cell_angle_beta 90.000000
_cell_angle_gamma 90.000000
_cell_volume 2904.055804
_symmetry_space_group_name_H-M "P C C N"
_symmetry_group_IT_number 56
_symmetry_cell_setting 'orthorhombic'
loop_
_space_group_symop_operation_xyz
x,y,z
1/2-x,1/2-y,z
1/2+x,-y,1/2-z
-x,1/2+y,1/2-z
-x,-y,-z
1/2+x,1/2+y,-z
1/2-x,y,1/2+z
x,1/2-y,1/2+z
loop_
_atom_site_type_symbol
_atom_site_label
_atom_site_fract_x
_atom_site_fract_y
_atom_site_fract_z
Si Si1 0.074143 0.781491 0.832623
Si Si2 0.072490 0.757189 0.517794
Si Si3 0.905237 0.121654 0.388192
Si Si4 0.854041 0.497366 0.719542
Si Si5 0.004832 0.958781 0.311559
Si Si6 0.072839 0.557111 0.580823
Si Si7 0.091802 0.316448 0.347632
Si Si8 0.087611 0.299252 0.572542
O O1 0.250000 0.750000 0.826455
O O2 0.042278 0.897954 0.804471
O O3 0.974158 0.676259 0.812964
O O4 0.038704 0.794326 0.887114
O O5 0.250000 0.750000 0.502151
O O6 0.036228 0.852555 0.558071
O O7 0.030712 0.632666 0.536232
O O8 0.966771 0.776100 0.472007
O O9 0.721975 0.107096 0.391474
O O10 0.951153 0.227682 0.354578
O O11 0.980623 0.010062 0.364049
O O12 0.675007 0.487100 0.706967
O O13 0.910707 0.623256 0.703223
O O14 0.880042 0.488800 0.775458
O O15 0.103900 0.432298 0.561310
O O16 0.929025 0.575982 0.616595
O O17 0.250000 0.250000 0.358032
O O18 0.250000 0.250000 0.590170
#
# Coordination Sequence:
#
# PCOD8229104 Si02
#       8
#     8   8   8   8   8   8   8   8
#     4  10  24  46  64  92 136 184 221 276 350 413
#     4   9  21  42  64  95 133 180 231 281 342 409
#     4  10  22  43  68  99 137 178 227 282 347 410
#     4  11  25  43  64  99 135 177 232 283 346 406
#     4  11  25  43  67  99 136 179 231 279 346 416
#     4  10  22  42  65  97 135 179 225 277 349 407
#     4  11  21  40  68  98 131 172 234 283 334 406
#     4  12  23  40  67 100 136 179 229 283 350 414
#
# _framework density 22.038146000000001
#
# number of rings (size 3 to 8) (size 9 to 14) (size 15 to 20)
#    0.000    1.500    2.500    2.625    3.500    3.000 
#    0.000    6.875    0.000    0.000    0.000    0.000 
#    0.000    0.000    0.000    0.000    0.000    0.000 
#
# Total GULP energy -793146.984419 kJ/mol
# GULP energy per Si atom -12392.921632 kJ/mol
# Density = 2.198799 g / cm^3
# Si number density = 22.038146 Si / 1000 Ang^3
#
#
#
# Elastic Constant Matrix: (Units=GPa)
#
#
# Indices 1 2 3 4 5 6 
#
# 1 46.4856 34.7641 38.5447 0.0000 0.0000 0.0000
# 2 34.7641 98.3638 40.7198 0.0000 0.0000 0.0000
# 3 38.5447 40.7198 107.0318 0.0000 0.0000 0.0000
# 4 0.0000 0.0000 0.0000 27.9326 0.0000 0.0000
# 5 0.0000 0.0000 0.0000 0.0000 29.5274 0.0000
# 6 0.0000 0.0000 0.0000 0.0000 0.0000 30.3641
#
#
#
# Elastic Compliance Matrix: (Units=1/GPa)
#
#
# Indices 1 2 3 4 5 6 
#
# 1 0.036062 -0.008747 -0.009659 0.000000 0.000000 0.000000
# 2 -0.008747 0.014188 -0.002248 0.000000 0.000000 0.000000
# 3 -0.009659 -0.002248 0.013677 0.000000 0.000000 0.000000
# 4 0.000000 0.000000 0.000000 0.035800 0.000000 0.000000
# 5 0.000000 0.000000 0.000000 0.000000 0.033867 0.000000
# 6 0.000000 0.000000 0.000000 0.000000 0.000000 0.032934
#
#
# Mechanical properties :
#
#
# Convention : Reuss Voigt Hill
#
# Bulk Modulus (GPa) = 44.20944 53.32648 48.76796
# Shear Modulus (GPa) = 23.21518 26.75498 24.98508
#
# Velocity S-wave (km/s) = 3.24915 3.48807 3.37073
# Velocity P-wave (km/s) = 5.84636 6.36177 6.10950
#
# Compressibility (1/GPa) = 0.02261960
#
# Stress axis : x y z
#
# Youngs Moduli (GPa) = 27.72964 70.48099 73.11648
#
# Poissons Ratio (x) = 0.61647 0.70626
# Poissons Ratio (y) = 0.24254 0.16436
# Poissons Ratio (z) = 0.26785 0.15844
#
# Static dielectric constant tensor:
#      x y z
#    x 3.799350 0.000000 0.000000 
#    y 0.000000 4.363480 0.000000 
#    z 0.000000 0.000000 3.802450 
# 
# 
# High freq. dielectric constant tensor:
#      x y z
#    x 1.853960 0.000000 0.000000 
#    y 0.000000 1.875080 0.000000 
#    z 0.000000 0.000000 1.857970 
# 
# From -- ./inp_files/23395.got.cif
#   From: 2010.03.12/outbox.cif.g09.slc.cpg/sg56_12_cif.got.tgz:23395.got - 2010.04.16 15:33:40.
