data_PCOD8229492
_publ_section_title
;
Structure prediction by ZEFSAII (Michael W. Deem and Ramdas Pophale) SiO2 
 PCOD8229492
Probable space group: P C C N
;
_chemical_formula_sum "Si O2"
_cell_formula_units_Z 56
_cell_length_a 5.839999
_cell_length_b 30.932591
_cell_length_c 13.782446
_cell_angle_alpha 90.000000
_cell_angle_beta 90.000000
_cell_angle_gamma 90.000000
_cell_volume 2489.747882
_symmetry_space_group_name_H-M "P C C N"
_symmetry_group_IT_number 56
_symmetry_cell_setting 'orthorhombic'
loop_
_space_group_symop_operation_xyz
x,y,z
1/2-x,1/2-y,z
1/2+x,-y,1/2-z
-x,1/2+y,1/2-z
-x,-y,-z
1/2+x,1/2+y,-z
1/2-x,y,1/2+z
x,1/2-y,1/2+z
loop_
_atom_site_type_symbol
_atom_site_label
_atom_site_fract_x
_atom_site_fract_y
_atom_site_fract_z
Si Si1 0.718438 0.171483 0.855919
Si Si2 0.046335 0.444630 0.095574
Si Si3 0.002420 0.771901 0.791562
Si Si4 0.695554 0.472472 0.953273
Si Si5 0.491460 0.405747 0.805465
Si Si6 0.573280 0.711662 0.012669
Si Si7 0.838627 0.625516 0.046760
O O1 0.516231 0.188338 0.784052
O O2 0.880951 0.140190 0.793423
O O3 0.597004 0.142654 0.939403
O O4 0.864330 0.209766 0.909500
O O5 0.033507 0.427793 0.203208
O O6 0.133954 0.493740 0.097899
O O7 0.802913 0.445356 0.041704
O O8 0.199005 0.410790 0.035088
O O9 0.750000 0.750000 0.771700
O O10 0.021681 0.782508 0.904588
O O11 0.250000 0.750000 0.766899
O O12 0.628153 0.438754 0.872097
O O13 0.500000 0.500000 0.000000
O O14 0.244716 0.395895 0.852381
O O15 0.750000 0.750000 0.042215
O O16 0.687895 0.665294 0.012310
#
# Coordination Sequence:
#
# PCOD8229492 Si02
#       7
#     8   8   8   8   8   8   8
#     4  11  27  45  72 102 149 184 245 301 370 445
#     4  11  26  43  73  98 142 185 236 300 368 438
#     4  11  29  48  74 109 146 194 255 305 375 451
#     4  11  24  46  65 102 140 183 242 298 357 449
#     4  11  26  44  69 105 140 193 236 299 372 442
#     4  10  27  48  74 103 143 196 240 306 371 443
#     4  11  25  45  69 104 140 184 244 291 369 439
#
# _framework density 22.492238
#
# number of rings (size 3 to 8) (size 9 to 14) (size 15 to 20)
#    0.000    1.143    2.857    0.000   16.000    1.143 
#    0.000    0.000    0.000    0.000    0.000    0.000 
#    0.000    0.000    0.000    0.000    0.000    0.000 
#
# Total GULP energy -693982.435900 kJ/mol
# GULP energy per Si atom -12392.543498 kJ/mol
# Density = 2.244104 g / cm^3
# Si number density = 22.492238 Si / 1000 Ang^3
#
#
#
# Elastic Constant Matrix: (Units=GPa)
#
#
# Indices 1 2 3 4 5 6 
#
# 1 114.8858 45.1909 55.8005 0.0000 0.0000 0.0000
# 2 45.1909 113.7595 60.6827 0.0000 0.0000 0.0000
# 3 55.8005 60.6827 137.7039 0.0000 0.0000 0.0000
# 4 0.0000 0.0000 0.0000 41.2041 0.0000 0.0000
# 5 0.0000 0.0000 0.0000 0.0000 33.5767 0.0000
# 6 0.0000 0.0000 0.0000 0.0000 0.0000 5.9684
#
#
#
# Elastic Compliance Matrix: (Units=1/GPa)
#
#
# Indices 1 2 3 4 5 6 
#
# 1 0.011442 -0.002709 -0.003443 0.000000 0.000000 0.000000
# 2 -0.002709 0.012133 -0.004249 0.000000 0.000000 0.000000
# 3 -0.003443 -0.004249 0.010530 0.000000 0.000000 0.000000
# 4 0.000000 0.000000 0.000000 0.024269 0.000000 0.000000
# 5 0.000000 0.000000 0.000000 0.000000 0.029783 0.000000
# 6 0.000000 0.000000 0.000000 0.000000 0.000000 0.167549
#
#
# Mechanical properties :
#
#
# Convention : Reuss Voigt Hill
#
# Bulk Modulus (GPa) = 75.17001 76.63308 75.90154
# Shear Modulus (GPa) = 17.79728 29.79484 23.79606
#
# Velocity S-wave (km/s) = 2.81599 3.64355 3.25617
# Velocity P-wave (km/s) = 6.63823 7.20038 6.92501
#
# Compressibility (1/GPa) = 0.01330318
#
# Stress axis : x y z
#
# Youngs Moduli (GPa) = 87.39712 82.41881 94.97087
#
# Poissons Ratio (x) = 0.22326 0.32697
# Poissons Ratio (y) = 0.23674 0.40354
# Poissons Ratio (z) = 0.30089 0.35021
#
# Static dielectric constant tensor:
#      x y z
#    x 4.097810 0.000000 0.000000 
#    y 0.000000 5.003770 0.000000 
#    z 0.000000 0.000000 3.957450 
# 
# 
# High freq. dielectric constant tensor:
#      x y z
#    x 1.892470 0.000000 0.000000 
#    y 0.000000 1.904290 0.000000 
#    z 0.000000 0.000000 1.886790 
# 
# From -- ./inp_files/9799.got.cif
#   From: 2010.03.12/outbox.cif.g09.slc.cpg/sg56_5_cif.got.tgz:9799.got - 2010.04.16 15:33:40.
