data_PCOD8229270
_publ_section_title
;
Structure prediction by ZEFSAII (Michael W. Deem and Ramdas Pophale) SiO2 
 PCOD8229270
Probable space group: P C C N
;
_chemical_formula_sum "Si O2"
_cell_formula_units_Z 48
_cell_length_a 17.233873
_cell_length_b 14.502410
_cell_length_c 9.458770
_cell_angle_alpha 90.000000
_cell_angle_beta 90.000000
_cell_angle_gamma 90.000000
_cell_volume 2364.055850
_symmetry_space_group_name_H-M "P C C N"
_symmetry_group_IT_number 56
_symmetry_cell_setting 'orthorhombic'
loop_
_space_group_symop_operation_xyz
x,y,z
1/2-x,1/2-y,z
1/2+x,-y,1/2-z
-x,1/2+y,1/2-z
-x,-y,-z
1/2+x,1/2+y,-z
1/2-x,y,1/2+z
x,1/2-y,1/2+z
loop_
_atom_site_type_symbol
_atom_site_label
_atom_site_fract_x
_atom_site_fract_y
_atom_site_fract_z
Si Si1 0.445613 0.255802 0.151287
Si Si2 0.686686 0.890327 0.274983
Si Si3 0.164156 0.105350 0.549368
Si Si4 0.679647 0.104106 0.285484
Si Si5 0.830601 0.391173 0.958859
Si Si6 0.052030 0.734907 0.595375
O O1 0.378811 0.331885 0.146584
O O2 0.413957 0.158938 0.090334
O O3 0.475410 0.242972 0.309617
O O4 0.519811 0.288261 0.060151
O O5 0.769217 0.863435 0.341788
O O6 0.666692 0.995955 0.306327
O O7 0.691379 0.869497 0.108584
O O8 0.145962 0.997174 0.563484
O O9 0.756216 0.137410 0.366846
O O10 0.605281 0.151686 0.353548
O O11 0.688769 0.130977 0.121702
O O12 0.902229 0.331197 0.904612
#
# Coordination Sequence:
#
# PCOD8229270 Si02
#       6
#     8   8   8   8   8   8
#     4  12  25  40  62  93 126 163 201 250 309 364
#     4  10  23  43  65  90 121 162 208 252 301 362
#     4  10  23  43  66  89 121 164 207 251 301 362
#     4  10  23  43  65  90 121 162 208 252 301 362
#     4  10  23  43  66  89 121 164 207 251 301 362
#     4  12  25  40  62  93 126 163 201 250 309 364
#
# _framework density 20.304088
#
# number of rings (size 3 to 8) (size 9 to 14) (size 15 to 20)
#    0.000    1.333    3.333    1.000    4.667    5.333 
#    0.000    0.000    0.000    0.000    0.000    0.000 
#    0.000    0.000    0.000    0.000    0.000    0.000 
#
# Total GULP energy -595547.658804 kJ/mol
# GULP energy per Si atom -12407.242892 kJ/mol
# Density = 2.025787 g / cm^3
# Si number density = 20.304088 Si / 1000 Ang^3
#
#
#
# Elastic Constant Matrix: (Units=GPa)
#
#
# Indices 1 2 3 4 5 6 
#
# 1 97.8344 46.2371 38.4976 0.0000 0.0000 0.0000
# 2 46.2371 70.0726 38.6243 0.0000 0.0000 0.0000
# 3 38.4976 38.6243 84.2475 0.0000 0.0000 0.0000
# 4 0.0000 0.0000 0.0000 28.4692 0.0000 0.0000
# 5 0.0000 0.0000 0.0000 0.0000 53.0908 0.0000
# 6 0.0000 0.0000 0.0000 0.0000 0.0000 33.7068
#
#
#
# Elastic Compliance Matrix: (Units=1/GPa)
#
#
# Indices 1 2 3 4 5 6 
#
# 1 0.015471 -0.008446 -0.003197 0.000000 0.000000 0.000000
# 2 -0.008446 0.023708 -0.007010 0.000000 0.000000 0.000000
# 3 -0.003197 -0.007010 0.016545 0.000000 0.000000 0.000000
# 4 0.000000 0.000000 0.000000 0.035126 0.000000 0.000000
# 5 0.000000 0.000000 0.000000 0.000000 0.018836 0.000000
# 6 0.000000 0.000000 0.000000 0.000000 0.000000 0.029668
#
#
# Mechanical properties :
#
#
# Convention : Reuss Voigt Hill
#
# Bulk Modulus (GPa) = 54.29729 55.43029 54.86379
# Shear Modulus (GPa) = 27.35258 31.63971 29.49614
#
# Velocity S-wave (km/s) = 3.67433 3.95180 3.81559
# Velocity P-wave (km/s) = 6.69336 6.94130 6.81846
#
# Compressibility (1/GPa) = 0.01841712
#
# Stress axis : x y z
#
# Youngs Moduli (GPa) = 64.63595 42.18017 60.44294
#
# Poissons Ratio (x) = 0.35626 0.19326
# Poissons Ratio (y) = 0.54593 0.42368
# Poissons Ratio (z) = 0.20667 0.29567
#
# Static dielectric constant tensor:
#      x y z
#    x 3.643960 0.000000 0.000000 
#    y 0.000000 3.662420 0.000000 
#    z 0.000000 0.000000 3.843780 
# 
# 
# High freq. dielectric constant tensor:
#      x y z
#    x 1.795760 0.000000 0.000000 
#    y 0.000000 1.797540 0.000000 
#    z 0.000000 0.000000 1.807260 
# 
# From -- ./inp_files/3402.got.cif
#   From: 2010.03.12/outbox.cif.g09.slc.cpg/sg56_2_cif.got.tgz:3402.got - 2010.04.16 15:33:40.
