data_PCOD8229402
_publ_section_title
;
Structure prediction by ZEFSAII (Michael W. Deem and Ramdas Pophale) SiO2 
 PCOD8229402
Probable space group: P C C N
;
_chemical_formula_sum "Si O2"
_cell_formula_units_Z 60
_cell_length_a 21.080935
_cell_length_b 10.807410
_cell_length_c 13.096537
_cell_angle_alpha 90.000000
_cell_angle_beta 90.000000
_cell_angle_gamma 90.000000
_cell_volume 2983.788055
_symmetry_space_group_name_H-M "P C C N"
_symmetry_group_IT_number 56
_symmetry_cell_setting 'orthorhombic'
loop_
_space_group_symop_operation_xyz
x,y,z
1/2-x,1/2-y,z
1/2+x,-y,1/2-z
-x,1/2+y,1/2-z
-x,-y,-z
1/2+x,1/2+y,-z
1/2-x,y,1/2+z
x,1/2-y,1/2+z
loop_
_atom_site_type_symbol
_atom_site_label
_atom_site_fract_x
_atom_site_fract_y
_atom_site_fract_z
Si Si1 0.843417 0.484485 0.146239
Si Si2 0.782513 0.582231 0.732521
Si Si3 0.174801 0.754216 0.982883
Si Si4 0.856281 0.751127 0.577374
Si Si5 0.398145 0.826230 0.680695
Si Si6 0.525711 0.918166 0.590158
Si Si7 0.615365 0.095651 0.689477
Si Si8 0.250000 0.250000 0.589551
O O1 0.770038 0.520434 0.160390
O O2 0.851096 0.375512 0.062827
O O3 0.877277 0.608407 0.104061
O O4 0.872233 0.444273 0.256099
O O5 0.816769 0.694951 0.672480
O O6 0.833407 0.476074 0.758938
O O7 0.753497 0.628693 0.839018
O O8 0.250000 0.750000 0.979791
O O9 0.148617 0.870090 0.918010
O O10 0.152449 0.779766 0.097726
O O11 0.920485 0.677208 0.552565
O O12 0.813490 0.742758 0.476634
O O13 0.466721 0.845779 0.634582
O O14 0.410016 0.717065 0.758915
O O15 0.500000 0.000000 0.500000
O O16 0.554998 0.007901 0.674901
#
# Coordination Sequence:
#
# PCOD8229402 Si02
#       8
#     8   8   8   8   8   8   8   4
#     4  11  23  42  65  97 137 168 217 287 329 396
#     4  11  22  40  65  99 139 164 219 268 343 402
#     4  11  23  41  67  98 136 175 217 278 341 402
#     4  11  25  44  65 100 139 168 221 289 327 403
#     4  11  27  41  68  95 128 184 231 262 341 405
#     4  11  25  48  69  89 134 184 228 272 334 405
#     4  10  24  45  63  98 132 174 221 285 323 403
#     4  12  22  38  68 106 128 174 212 268 354 394
#
# _framework density 20.108668000000002
#
# number of rings (size 3 to 8) (size 9 to 14) (size 15 to 20)
#    0.000    1.067    5.333    0.000    7.467    0.000 
#    2.400    0.667    0.000    0.000    0.000    0.000 
#    0.000    0.000    0.000    0.000    0.000    0.000 
#
# Total GULP energy -744065.321841 kJ/mol
# GULP energy per Si atom -12401.088697 kJ/mol
# Density = 2.006290 g / cm^3
# Si number density = 20.108668 Si / 1000 Ang^3
#
#
#
# Elastic Constant Matrix: (Units=GPa)
#
#
# Indices 1 2 3 4 5 6 
#
# 1 86.9523 40.0086 30.9222 0.0000 0.0000 0.0000
# 2 40.0086 118.5177 43.1880 0.0000 0.0000 0.0000
# 3 30.9222 43.1880 94.2531 0.0000 0.0000 0.0000
# 4 0.0000 0.0000 0.0000 34.0646 0.0000 0.0000
# 5 0.0000 0.0000 0.0000 0.0000 28.0556 0.0000
# 6 0.0000 0.0000 0.0000 0.0000 0.0000 28.1301
#
#
#
# Elastic Compliance Matrix: (Units=1/GPa)
#
#
# Indices 1 2 3 4 5 6 
#
# 1 0.014277 -0.003737 -0.002972 0.000000 0.000000 0.000000
# 2 -0.003737 0.011107 -0.003863 0.000000 0.000000 0.000000
# 3 -0.002972 -0.003863 0.013355 0.000000 0.000000 0.000000
# 4 0.000000 0.000000 0.000000 0.029356 0.000000 0.000000
# 5 0.000000 0.000000 0.000000 0.000000 0.035644 0.000000
# 6 0.000000 0.000000 0.000000 0.000000 0.000000 0.035549
#
#
# Mechanical properties :
#
#
# Convention : Reuss Voigt Hill
#
# Bulk Modulus (GPa) = 56.83415 58.66232 57.74823
# Shear Modulus (GPa) = 30.06702 30.42368 30.24535
#
# Velocity S-wave (km/s) = 3.87101 3.89390 3.88247
# Velocity P-wave (km/s) = 6.95014 7.03226 6.99132
#
# Compressibility (1/GPa) = 0.01759506
#
# Stress axis : x y z
#
# Youngs Moduli (GPa) = 70.04465 90.03544 74.87875
#
# Poissons Ratio (x) = 0.33642 0.22252
# Poissons Ratio (y) = 0.26172 0.28929
# Poissons Ratio (z) = 0.20815 0.34784
#
# Static dielectric constant tensor:
#      x y z
#    x 3.567570 0.000000 0.000000 
#    y 0.000000 3.918570 0.000000 
#    z 0.000000 0.000000 3.066500 
# 
# 
# High freq. dielectric constant tensor:
#      x y z
#    x 1.780540 0.000000 0.000000 
#    y 0.000000 1.803030 0.000000 
#    z 0.000000 0.000000 1.779860 
# 
# From -- ./inp_files/8676.got.cif
#   From: 2010.03.12/outbox.cif.g09.slc.cpg/sg56_5_cif.got.tgz:8676.got - 2010.04.16 15:33:40.
