data_PCOD8229369
_publ_section_title
;
Structure prediction by ZEFSAII (Michael W. Deem and Ramdas Pophale) SiO2 
 PCOD8229369
Probable space group: P C C N
;
_chemical_formula_sum "Si O2"
_cell_formula_units_Z 40
_cell_length_a 10.887969
_cell_length_b 19.810580
_cell_length_c 8.376603
_cell_angle_alpha 90.000000
_cell_angle_beta 90.000000
_cell_angle_gamma 90.000000
_cell_volume 1806.807977
_symmetry_space_group_name_H-M "P C C N"
_symmetry_group_IT_number 56
_symmetry_cell_setting 'orthorhombic'
loop_
_space_group_symop_operation_xyz
x,y,z
1/2-x,1/2-y,z
1/2+x,-y,1/2-z
-x,1/2+y,1/2-z
-x,-y,-z
1/2+x,1/2+y,-z
1/2-x,y,1/2+z
x,1/2-y,1/2+z
loop_
_atom_site_type_symbol
_atom_site_label
_atom_site_fract_x
_atom_site_fract_y
_atom_site_fract_z
Si Si1 0.619529 0.671115 0.282801
Si Si2 0.876542 0.518403 0.902220
Si Si3 0.750000 0.250000 0.159551
Si Si4 0.629819 0.029220 0.557991
Si Si5 0.750000 0.750000 0.037584
Si Si6 0.877421 0.174614 0.907638
O O1 0.616793 0.594658 0.340395
O O2 0.723138 0.684639 0.148258
O O3 0.637370 0.723856 0.427910
O O4 0.500212 0.689568 0.185032
O O5 0.870852 0.468838 0.749856
O O6 0.751194 0.512174 0.004037
O O7 0.000000 0.500000 0.000000
O O8 0.725236 0.184829 0.270461
O O9 0.865073 0.230439 0.047143
O O10 0.640504 0.102283 0.483326
O O11 0.500000 0.000000 0.500000
#
# Coordination Sequence:
#
# PCOD8229369 Si02
#       6
#     8   8   4   8   4   8
#     4  11  23  45  68 100 136 179 235 284 347 416
#     4  12  27  47  73 104 142 187 235 291 355 420
#     4  10  24  42  70  96 136 182 232 286 348 406
#     4  12  25  46  72 103 142 186 232 290 349 421
#     4  10  24  44  70  96 136 182 232 286 346 406
#     4  11  23  44  67 100 136 180 234 285 347 415
#
# _framework density 22.138489
#
# number of rings (size 3 to 8) (size 9 to 14) (size 15 to 20)
#    0.000    0.800    2.000    4.800    2.800    0.000 
#    7.200    0.000    0.000    0.000    0.000    0.000 
#    0.000    0.000    0.000    0.000    0.000    0.000 
#
# Total GULP energy -495618.472907 kJ/mol
# GULP energy per Si atom -12390.461823 kJ/mol
# Density = 2.208810 g / cm^3
# Si number density = 22.138489 Si / 1000 Ang^3
#
#
#
# Elastic Constant Matrix: (Units=GPa)
#
#
# Indices 1 2 3 4 5 6 
#
# 1 149.2704 48.2200 81.8851 0.0000 0.0000 0.0000
# 2 48.2200 142.8659 79.8355 0.0000 0.0000 0.0000
# 3 81.8851 79.8355 183.5523 0.0000 0.0000 0.0000
# 4 0.0000 0.0000 0.0000 150.0888 0.0000 0.0000
# 5 0.0000 0.0000 0.0000 0.0000 20.9852 0.0000
# 6 0.0000 0.0000 0.0000 0.0000 0.0000 29.8276
#
#
#
# Elastic Compliance Matrix: (Units=1/GPa)
#
#
# Indices 1 2 3 4 5 6 
#
# 1 0.008987 -0.001047 -0.003554 0.000000 0.000000 0.000000
# 2 -0.001047 0.009369 -0.003608 0.000000 0.000000 0.000000
# 3 -0.003554 -0.003608 0.008603 0.000000 0.000000 0.000000
# 4 0.000000 0.000000 0.000000 0.006663 0.000000 0.000000
# 5 0.000000 0.000000 0.000000 0.000000 0.047653 0.000000
# 6 0.000000 0.000000 0.000000 0.000000 0.000000 0.033526
#
#
# Mechanical properties :
#
#
# Convention : Reuss Voigt Hill
#
# Bulk Modulus (GPa) = 94.86803 99.50777 97.18790
# Shear Modulus (GPa) = 37.11076 57.89685 47.50381
#
# Velocity S-wave (km/s) = 4.09871 5.11946 4.63726
# Velocity P-wave (km/s) = 8.08358 8.94375 8.52452
#
# Compressibility (1/GPa) = 0.01054096
#
# Stress axis : x y z
#
# Youngs Moduli (GPa) = 111.27129 106.73256 116.24433
#
# Poissons Ratio (x) = 0.11180 0.41309
# Poissons Ratio (y) = 0.11655 0.41939
# Poissons Ratio (z) = 0.39542 0.38507
#
# Static dielectric constant tensor:
#      x y z
#    x 4.455740 0.000000 0.000000 
#    y 0.000000 3.795080 0.000000 
#    z 0.000000 0.000000 4.602990 
# 
# 
# High freq. dielectric constant tensor:
#      x y z
#    x 1.872470 0.000000 0.000000 
#    y 0.000000 1.866350 0.000000 
#    z 0.000000 0.000000 1.902730 
# 
# From -- ./inp_files/2613.got.cif
#   From: 2010.03.12/outbox.cif.g09.slc.cpg/sg56_2_cif.got.tgz:2613.got - 2010.04.16 15:33:40.
