data_PCOD8229994
_publ_section_title
;
Structure prediction by ZEFSAII (Michael W. Deem and Ramdas Pophale) SiO2 
 PCOD8229994
Probable space group: P B C M
;
_chemical_formula_sum "Si O2"
_cell_formula_units_Z 64
_cell_length_a 18.813486
_cell_length_b 23.210222
_cell_length_c 9.426661
_cell_angle_alpha 90.000000
_cell_angle_beta 90.000000
_cell_angle_gamma 90.000000
_cell_volume 4116.294685
_symmetry_space_group_name_H-M "P B C M"
_symmetry_group_IT_number 57
_symmetry_cell_setting 'orthorhombic'
loop_
_space_group_symop_operation_xyz
x,y,z
-x,-y,1/2+z
x,1/2-y,-z
-x,1/2+y,1/2-z
-x,-y,-z
x,y,1/2-z
-x,1/2+y,z
x,1/2-y,1/2+z
loop_
_atom_site_type_symbol
_atom_site_label
_atom_site_fract_x
_atom_site_fract_y
_atom_site_fract_z
Si Si1 0.892590 0.807463 0.917170
Si Si2 0.390137 0.513301 0.085431
Si Si3 0.012620 0.085367 0.414071
Si Si4 0.747953 0.864476 0.581879
Si Si5 0.100035 0.973609 0.413903
Si Si6 0.256958 0.004593 0.416744
Si Si7 0.471971 0.079568 0.411222
Si Si8 0.396614 0.194053 0.086331
O O1 0.888599 0.794948 0.750000
O O2 0.953809 0.853337 0.953296
O O3 0.817340 0.831409 0.975341
O O4 0.912834 0.750000 0.000000
O O5 0.373864 0.501955 0.250000
O O6 0.444888 0.566282 0.064498
O O7 0.317939 0.529179 0.003000
O O8 0.423532 0.455710 0.019383
O O9 0.993104 0.081889 0.250000
O O10 0.939532 0.076567 0.499518
O O11 0.069556 0.036289 0.455444
O O12 0.751368 0.867605 0.750000
O O13 0.746411 0.929874 0.525427
O O14 0.678174 0.830917 0.528623
O O15 0.086870 0.960756 0.250000
O O16 0.183236 0.972640 0.450879
O O17 0.274244 0.002829 0.250000
O O18 0.449125 0.062853 0.250000
O O19 0.458619 0.147074 0.437049
O O20 0.389113 0.211300 0.250000
O O21 0.419186 0.250000 0.000000
#
# Coordination Sequence:
#
# PCOD8229994 Si02
#       8
#     8   8   8   8   8   8   8   8
#     4  10  19  31  46  65  90 125 161 191 223 265
#     4  10  19  29  46  71  93 115 154 198 229 269
#     4   9  17  30  46  65  91 120 151 190 233 270
#     4   9  16  29  46  62  89 127 160 181 213 268
#     4   9  17  29  48  68  88 118 155 188 225 280
#     4  10  17  30  49  67  92 128 155 178 228 287
#     4   9  18  33  48  63  90 127 154 183 235 281
#     4  10  19  31  47  64  88 124 159 189 222 263
#
# _framework density 15.547962
#
# number of rings (size 3 to 8) (size 9 to 14) (size 15 to 20)
#    0.000    2.500    2.500    0.750    0.000    2.000 
#    0.000    0.625    0.000    0.000    0.000    0.875 
#    0.000    2.000    0.000    0.000    0.000    0.000 
#
# Total GULP energy -793596.126899 kJ/mol
# GULP energy per Si atom -12399.939483 kJ/mol
# Density = 1.551257 g / cm^3
# Si number density = 15.547962 Si / 1000 Ang^3
#
#
#
# Elastic Constant Matrix: (Units=GPa)
#
#
# Indices 1 2 3 4 5 6 
#
# 1 116.6657 58.5420 57.8950 0.0000 0.0000 0.0000
# 2 58.5420 89.1446 42.9595 0.0000 0.0000 0.0000
# 3 57.8950 42.9595 62.1533 0.0000 0.0000 0.0000
# 4 0.0000 0.0000 0.0000 25.2041 0.0000 0.0000
# 5 0.0000 0.0000 0.0000 0.0000 27.6216 0.0000
# 6 0.0000 0.0000 0.0000 0.0000 0.0000 22.3080
#
#
#
# Elastic Compliance Matrix: (Units=1/GPa)
#
#
# Indices 1 2 3 4 5 6 
#
# 1 0.017555 -0.005470 -0.012571 0.000000 0.000000 0.000000
# 2 -0.005470 0.018525 -0.007709 0.000000 0.000000 0.000000
# 3 -0.012571 -0.007709 0.033127 0.000000 0.000000 0.000000
# 4 0.000000 0.000000 0.000000 0.039676 0.000000 0.000000
# 5 0.000000 0.000000 0.000000 0.000000 0.036204 0.000000
# 6 0.000000 0.000000 0.000000 0.000000 0.000000 0.044827
#
#
# Mechanical properties :
#
#
# Convention : Reuss Voigt Hill
#
# Bulk Modulus (GPa) = 56.47540 65.19516 60.83528
# Shear Modulus (GPa) = 20.21704 22.26455 21.24080
#
# Velocity S-wave (km/s) = 3.60988 3.78827 3.70015
# Velocity P-wave (km/s) = 7.33329 7.82032 7.58072
#
# Compressibility (1/GPa) = 0.01770683
#
# Stress axis : x y z
#
# Youngs Moduli (GPa) = 56.96451 53.98112 30.18667
#
# Poissons Ratio (x) = 0.29529 0.37948
# Poissons Ratio (y) = 0.31161 0.23270
# Poissons Ratio (z) = 0.71611 0.41613
#
# Static dielectric constant tensor:
#      x y z
#    x 3.071870 0.000000 0.000000 
#    y 0.000000 2.788580 0.000000 
#    z 0.000000 0.000000 2.871990 
# 
# 
# High freq. dielectric constant tensor:
#      x y z
#    x 1.593220 0.000000 0.000000 
#    y 0.000000 1.569700 0.000000 
#    z 0.000000 0.000000 1.587930 
# 
# From -- ./inp_files/7460.got.cif
#   From: 2010.03.12/outbox.cif.g09.slc.cpg/sg57_4_cif.got.tgz:7460.got - 2010.04.16 15:48:40.
