data_PCOD8229148
_publ_section_title
;
Structure prediction by ZEFSAII (Michael W. Deem and Ramdas Pophale) SiO2 
 PCOD8229148
Probable space group: P C C N
;
_chemical_formula_sum "Si O2"
_cell_formula_units_Z 44
_cell_length_a 18.248066
_cell_length_b 7.821444
_cell_length_c 13.688020
_cell_angle_alpha 90.000000
_cell_angle_beta 90.000000
_cell_angle_gamma 90.000000
_cell_volume 1953.639440
_symmetry_space_group_name_H-M "P C C N"
_symmetry_group_IT_number 56
_symmetry_cell_setting 'orthorhombic'
loop_
_space_group_symop_operation_xyz
x,y,z
1/2-x,1/2-y,z
1/2+x,-y,1/2-z
-x,1/2+y,1/2-z
-x,-y,-z
1/2+x,1/2+y,-z
1/2-x,y,1/2+z
x,1/2-y,1/2+z
loop_
_atom_site_type_symbol
_atom_site_label
_atom_site_fract_x
_atom_site_fract_y
_atom_site_fract_z
Si Si1 0.008740 0.043881 0.861698
Si Si2 0.309389 0.606291 0.384007
Si Si3 0.395966 0.167039 0.526937
Si Si4 0.081493 0.737503 0.250253
Si Si5 0.250000 0.250000 0.933130
Si Si6 0.077523 0.532211 0.050058
O O1 0.986491 0.130132 0.758773
O O2 0.930655 0.985849 0.909501
O O3 0.063668 0.889634 0.838995
O O4 0.051857 0.176963 0.930356
O O5 0.250000 0.750000 0.411313
O O6 0.344701 0.663232 0.280110
O O7 0.282194 0.408512 0.369475
O O8 0.369135 0.611975 0.469141
O O9 0.310848 0.147940 0.497264
O O10 0.397117 0.345123 0.585197
O O11 0.084352 0.653819 0.143319
O O12 0.000000 0.500000 0.000000
#
# Coordination Sequence:
#
# PCOD8229148 Si02
#       6
#     8   8   8   8   4   8
#     4  11  23  39  70 102 139 175 248 297 366 413
#     4  11  26  47  70 100 152 189 240 303 364 442
#     4  10  22  43  68  96 134 187 230 299 351 443
#     4  12  25  40  72 107 139 187 242 309 359 435
#     4  10  24  44  72  96 140 198 236 284 378 442
#     4  11  22  45  73 102 136 189 241 299 369 426
#
# _framework density 22.522065999999999
#
# number of rings (size 3 to 8) (size 9 to 14) (size 15 to 20)
#    0.000    1.091    1.818    4.364    7.636    0.727 
#    6.545    0.000    0.000    0.000    0.000    0.000 
#    0.000    0.000    0.000    0.000    0.000    0.000 
#
# Total GULP energy -545134.130085 kJ/mol
# GULP energy per Si atom -12389.412047 kJ/mol
# Density = 2.247080 g / cm^3
# Si number density = 22.522066 Si / 1000 Ang^3
#
#
#
# Elastic Constant Matrix: (Units=GPa)
#
#
# Indices 1 2 3 4 5 6 
#
# 1 135.9124 54.4506 53.5377 0.0000 0.0000 0.0000
# 2 54.4506 125.9772 42.5730 0.0000 0.0000 0.0000
# 3 53.5377 42.5730 87.3762 0.0000 0.0000 0.0000
# 4 0.0000 0.0000 0.0000 31.8867 0.0000 0.0000
# 5 0.0000 0.0000 0.0000 0.0000 27.4759 0.0000
# 6 0.0000 0.0000 0.0000 0.0000 0.0000 49.9407
#
#
#
# Elastic Compliance Matrix: (Units=1/GPa)
#
#
# Indices 1 2 3 4 5 6 
#
# 1 0.010475 -0.002824 -0.005043 0.000000 0.000000 0.000000
# 2 -0.002824 0.010264 -0.003271 0.000000 0.000000 0.000000
# 3 -0.005043 -0.003271 0.016128 0.000000 0.000000 0.000000
# 4 0.000000 0.000000 0.000000 0.031361 0.000000 0.000000
# 5 0.000000 0.000000 0.000000 0.000000 0.036396 0.000000
# 6 0.000000 0.000000 0.000000 0.000000 0.000000 0.020024
#
#
# Mechanical properties :
#
#
# Convention : Reuss Voigt Hill
#
# Bulk Modulus (GPa) = 68.52578 72.26539 70.39558
# Shear Modulus (GPa) = 32.94111 35.10762 34.02436
#
# Velocity S-wave (km/s) = 3.82856 3.95246 3.89101
# Velocity P-wave (km/s) = 7.07361 7.27911 7.17709
#
# Compressibility (1/GPa) = 0.01459305
#
# Stress axis : x y z
#
# Youngs Moduli (GPa) = 95.46294 97.43079 62.00301
#
# Poissons Ratio (x) = 0.27510 0.31266
# Poissons Ratio (y) = 0.26954 0.20280
# Poissons Ratio (z) = 0.48139 0.31868
#
# Static dielectric constant tensor:
#      x y z
#    x 4.167230 0.000000 0.000000 
#    y 0.000000 4.068840 0.000000 
#    z 0.000000 0.000000 3.756320 
# 
# 
# High freq. dielectric constant tensor:
#      x y z
#    x 1.888250 0.000000 0.000000 
#    y 0.000000 1.913420 0.000000 
#    z 0.000000 0.000000 1.865330 
# 
# From -- ./inp_files/12639.got.cif
#   From: 2010.03.12/outbox.cif.g09.slc.cpg/sg56_7_cif.got.tgz:12639.got - 2010.04.16 15:33:40.
