data_PCOD8229808
_publ_section_title
;
Structure prediction by ZEFSAII (Michael W. Deem and Ramdas Pophale) SiO2 
 PCOD8229808
Probable space group: P C C N
;
_chemical_formula_sum "Si O2"
_cell_formula_units_Z 40
_cell_length_a 22.239880
_cell_length_b 7.832190
_cell_length_c 9.281500
_cell_angle_alpha 90.000000
_cell_angle_beta 90.000000
_cell_angle_gamma 90.000000
_cell_volume 1616.716322
_symmetry_space_group_name_H-M "P C C N"
_symmetry_group_IT_number 56
_symmetry_cell_setting 'orthorhombic'
loop_
_space_group_symop_operation_xyz
x,y,z
1/2-x,1/2-y,z
1/2+x,-y,1/2-z
-x,1/2+y,1/2-z
-x,-y,-z
1/2+x,1/2+y,-z
1/2-x,y,1/2+z
x,1/2-y,1/2+z
loop_
_atom_site_type_symbol
_atom_site_label
_atom_site_fract_x
_atom_site_fract_y
_atom_site_fract_z
Si Si1 0.296073 0.886411 0.353548
Si Si2 0.778704 0.931186 0.428587
Si Si3 0.090913 0.060484 0.481320
Si Si4 0.950773 0.874555 0.835327
Si Si5 0.424448 0.821176 0.463884
O O1 0.250000 0.750000 0.286680
O O2 0.363353 0.817101 0.371771
O O3 0.297194 0.037207 0.236537
O O4 0.271465 0.940806 0.509802
O O5 0.750000 0.750000 0.441087
O O6 0.837005 0.948294 0.530631
O O7 0.074729 0.198141 0.602511
O O8 0.063244 0.126388 0.332570
O O9 0.064403 0.872521 0.521157
O O10 0.920335 0.043343 0.905330
O O11 0.022384 0.880173 0.857771
#
# Coordination Sequence:
#
# PCOD8229808 Si02
#       5
#     8   8   8   8   8
#     4  12  27  49  77 110 150 205 259 320 391 476
#     4  12  29  47  77 112 153 201 259 324 394 472
#     4  12  29  49  83 113 162 210 263 335 400 473
#     4  11  30  50  79 121 154 213 271 332 399 477
#     4  11  28  52  81 112 164 208 269 326 404 475
#
# _framework density 24.741510000000002
#
# number of rings (size 3 to 8) (size 9 to 14) (size 15 to 20)
#    0.000    0.400    2.000    3.000   19.600    0.000 
#    0.000    0.000    0.000    0.000    0.000    0.000 
#    0.000    0.000    0.000    0.000    0.000    0.000 
#
# Total GULP energy -496187.048689 kJ/mol
# GULP energy per Si atom -12404.676217 kJ/mol
# Density = 2.468520 g / cm^3
# Si number density = 24.741510 Si / 1000 Ang^3
#
#
#
# Elastic Constant Matrix: (Units=GPa)
#
#
# Indices 1 2 3 4 5 6 
#
# 1 141.5876 32.8656 29.7496 0.0000 0.0000 0.0000
# 2 32.8656 155.2716 38.3399 0.0000 0.0000 0.0000
# 3 29.7496 38.3399 78.6881 0.0000 0.0000 0.0000
# 4 0.0000 0.0000 0.0000 31.7693 0.0000 0.0000
# 5 0.0000 0.0000 0.0000 0.0000 25.0326 0.0000
# 6 0.0000 0.0000 0.0000 0.0000 0.0000 43.9043
#
#
#
# Elastic Compliance Matrix: (Units=1/GPa)
#
#
# Indices 1 2 3 4 5 6 
#
# 1 0.007820 -0.001052 -0.002444 0.000000 0.000000 0.000000
# 2 -0.001052 0.007463 -0.003238 0.000000 0.000000 0.000000
# 3 -0.002444 -0.003238 0.015210 0.000000 0.000000 0.000000
# 4 0.000000 0.000000 0.000000 0.031477 0.000000 0.000000
# 5 0.000000 0.000000 0.000000 0.000000 0.039948 0.000000
# 6 0.000000 0.000000 0.000000 0.000000 0.000000 0.022777
#
#
# Mechanical properties :
#
#
# Convention : Reuss Voigt Hill
#
# Bulk Modulus (GPa) = 58.73857 64.16195 61.45026
# Shear Modulus (GPa) = 34.76114 38.44740 36.60427
#
# Velocity S-wave (km/s) = 3.75236 3.94631 3.85056
# Velocity P-wave (km/s) = 6.52427 6.83767 6.68281
#
# Compressibility (1/GPa) = 0.01702459
#
# Stress axis : x y z
#
# Youngs Moduli (GPa) = 127.86955 134.00176 65.74468
#
# Poissons Ratio (x) = 0.14094 0.16069
# Poissons Ratio (y) = 0.13449 0.21291
# Poissons Ratio (z) = 0.31254 0.43395
#
# Static dielectric constant tensor:
#      x y z
#    x 4.731720 0.000000 0.000000 
#    y 0.000000 4.608230 0.000000 
#    z 0.000000 0.000000 4.183870 
# 
# 
# High freq. dielectric constant tensor:
#      x y z
#    x 2.004060 0.000000 0.000000 
#    y 0.000000 2.001280 0.000000 
#    z 0.000000 0.000000 1.974410 
# 
# From -- ./inp_files/4685.got.cif
#   From: 2010.03.12/outbox.cif.g09.slc.cpg/sg56_3_cif.got.tgz:4685.got - 2010.04.16 15:33:40.
