data_PCOD8229511
_publ_section_title
;
Structure prediction by ZEFSAII (Michael W. Deem and Ramdas Pophale) SiO2 
 PCOD8229511
Probable space group: P C C N
;
_chemical_formula_sum "Si O2"
_cell_formula_units_Z 64
_cell_length_a 28.753886
_cell_length_b 13.462876
_cell_length_c 8.727109
_cell_angle_alpha 90.000000
_cell_angle_beta 90.000000
_cell_angle_gamma 90.000000
_cell_volume 3378.351180
_symmetry_space_group_name_H-M "P C C N"
_symmetry_group_IT_number 56
_symmetry_cell_setting 'orthorhombic'
loop_
_space_group_symop_operation_xyz
x,y,z
1/2-x,1/2-y,z
1/2+x,-y,1/2-z
-x,1/2+y,1/2-z
-x,-y,-z
1/2+x,1/2+y,-z
1/2-x,y,1/2+z
x,1/2-y,1/2+z
loop_
_atom_site_type_symbol
_atom_site_label
_atom_site_fract_x
_atom_site_fract_y
_atom_site_fract_z
Si Si1 0.935320 0.333317 0.463934
Si Si2 0.463893 0.167435 0.369465
Si Si3 0.436414 0.139663 0.711986
Si Si4 0.196728 0.840593 0.735759
Si Si5 0.032622 0.951217 0.741037
Si Si6 0.289640 0.871938 0.595170
Si Si7 0.889669 0.372341 0.950632
Si Si8 0.872532 0.468750 0.262035
O O1 0.945804 0.385716 0.623491
O O2 0.899932 0.242781 0.490447
O O3 0.913721 0.412499 0.349479
O O4 0.983290 0.293279 0.389893
O O5 0.440138 0.144981 0.530027
O O6 0.434234 0.250008 0.280819
O O7 0.463995 0.067668 0.271134
O O8 0.479198 0.078300 0.785440
O O9 0.388233 0.083620 0.752017
O O10 0.236604 0.899092 0.639447
O O11 0.196804 0.725004 0.692335
O O12 0.146454 0.883781 0.690197
O O13 0.205471 0.852500 0.915386
O O14 0.062499 0.928531 0.589480
O O15 0.324049 0.960798 0.645467
O O16 0.865490 0.421919 0.095698
#
# Coordination Sequence:
#
# PCOD8229511 Si02
#       8
#     8   8   8   8   8   8   8   8
#     4  11  20  37  54  81 118 165 199 246 294 346
#     4  11  23  39  57  79 117 159 204 253 298 342
#     4  11  24  39  60  81 118 159 206 254 306 347
#     4  11  22  37  59  88 119 165 187 241 293 368
#     4  11  22  39  55  84 119 162 204 252 295 354
#     4  11  22  38  58  84 126 151 199 235 300 359
#     4  12  24  33  59  87 121 159 206 235 299 358
#     4  12  23  37  56  86 120 158 199 246 294 361
#
# _framework density 18.944153
#
# number of rings (size 3 to 8) (size 9 to 14) (size 15 to 20)
#    0.000    0.750    5.000    5.250    3.500    0.500 
#    0.000    0.000    0.000    0.000    0.000    0.875 
#    0.000    0.000    0.000    0.000    0.000    0.000 
#
# Total GULP energy -793865.690372 kJ/mol
# GULP energy per Si atom -12404.151412 kJ/mol
# Density = 1.890104 g / cm^3
# Si number density = 18.944153 Si / 1000 Ang^3
#
#
#
# Elastic Constant Matrix: (Units=GPa)
#
#
# Indices 1 2 3 4 5 6 
#
# 1 91.5087 36.6074 20.6945 0.0000 0.0000 0.0000
# 2 36.6074 92.8622 16.9011 0.0000 0.0000 0.0000
# 3 20.6945 16.9011 68.1399 0.0000 0.0000 0.0000
# 4 0.0000 0.0000 0.0000 14.6346 0.0000 0.0000
# 5 0.0000 0.0000 0.0000 0.0000 29.0263 0.0000
# 6 0.0000 0.0000 0.0000 0.0000 0.0000 28.4879
#
#
#
# Elastic Compliance Matrix: (Units=1/GPa)
#
#
# Indices 1 2 3 4 5 6 
#
# 1 0.013504 -0.004793 -0.002912 0.000000 0.000000 0.000000
# 2 -0.004793 0.012979 -0.001764 0.000000 0.000000 0.000000
# 3 -0.002912 -0.001764 0.015998 0.000000 0.000000 0.000000
# 4 0.000000 0.000000 0.000000 0.068331 0.000000 0.000000
# 5 0.000000 0.000000 0.000000 0.000000 0.034452 0.000000
# 6 0.000000 0.000000 0.000000 0.000000 0.000000 0.035103
#
#
# Mechanical properties :
#
#
# Convention : Reuss Voigt Hill
#
# Bulk Modulus (GPa) = 42.47663 44.54634 43.51148
# Shear Modulus (GPa) = 24.13681 26.31694 25.22687
#
# Velocity S-wave (km/s) = 3.57333 3.73122 3.65313
# Velocity P-wave (km/s) = 6.28455 6.49063 6.38842
#
# Compressibility (1/GPa) = 0.02354236
#
# Stress axis : x y z
#
# Youngs Moduli (GPa) = 74.05139 77.04607 62.50941
#
# Poissons Ratio (x) = 0.36932 0.18205
# Poissons Ratio (y) = 0.35496 0.11024
# Poissons Ratio (z) = 0.21566 0.13587
#
# Static dielectric constant tensor:
#      x y z
#    x 3.630830 0.000000 0.000000 
#    y 0.000000 3.364330 0.000000 
#    z 0.000000 0.000000 3.526790 
# 
# 
# High freq. dielectric constant tensor:
#      x y z
#    x 1.725630 0.000000 0.000000 
#    y 0.000000 1.704940 0.000000 
#    z 0.000000 0.000000 1.749470 
# 
# From -- ./inp_files/5237.got.cif
#   From: 2010.03.12/outbox.cif.g09.slc.cpg/sg56_3_cif.got.tgz:5237.got - 2010.04.16 15:33:40.
