data_PCOD8229084
_publ_section_title
;
Structure prediction by ZEFSAII (Michael W. Deem and Ramdas Pophale) SiO2 
 PCOD8229084
Probable space group: P C C N
;
_chemical_formula_sum "Si O2"
_cell_formula_units_Z 64
_cell_length_a 8.035515
_cell_length_b 22.756226
_cell_length_c 14.402513
_cell_angle_alpha 90.000000
_cell_angle_beta 90.000000
_cell_angle_gamma 90.000000
_cell_volume 2633.614655
_symmetry_space_group_name_H-M "P C C N"
_symmetry_group_IT_number 56
_symmetry_cell_setting 'orthorhombic'
loop_
_space_group_symop_operation_xyz
x,y,z
1/2-x,1/2-y,z
1/2+x,-y,1/2-z
-x,1/2+y,1/2-z
-x,-y,-z
1/2+x,1/2+y,-z
1/2-x,y,1/2+z
x,1/2-y,1/2+z
loop_
_atom_site_type_symbol
_atom_site_label
_atom_site_fract_x
_atom_site_fract_y
_atom_site_fract_z
Si Si1 0.437304 0.765353 0.529104
Si Si2 0.409499 0.116055 0.540361
Si Si3 0.804486 0.070128 0.830338
Si Si4 0.485506 0.180743 0.293637
Si Si5 0.938270 0.835048 0.410069
Si Si6 0.933736 0.066308 0.484777
Si Si7 0.271917 0.097064 0.863799
Si Si8 0.979403 0.541021 0.285892
O O1 0.250000 0.750000 0.503484
O O2 0.472586 0.830175 0.488962
O O3 0.471172 0.764145 0.640505
O O4 0.553262 0.714997 0.487697
O O5 0.359759 0.078426 0.446591
O O6 0.495680 0.075812 0.617437
O O7 0.247740 0.141426 0.591320
O O8 0.865084 0.134804 0.809220
O O9 0.749538 0.064349 0.939151
O O10 0.646454 0.052042 0.769625
O O11 0.961474 0.027703 0.810656
O O12 0.483886 0.197663 0.185950
O O13 0.301994 0.156908 0.321354
O O14 0.061914 0.892477 0.423259
O O15 0.052411 0.104793 0.416353
O O16 0.000000 0.000000 0.500000
O O17 0.313343 0.054309 0.776931
#
# Coordination Sequence:
#
# PCOD8229084 Si02
#       8
#     8   8   8   8   8   8   8   8
#     4  11  26  47  67  99 138 179 242 303 349 417
#     4  10  22  44  69 101 138 183 238 287 349 422
#     4  11  24  40  65 102 144 186 232 287 345 421
#     4  11  24  45  68  99 139 184 235 294 357 420
#     4  11  23  45  73  99 139 186 239 286 359 428
#     4  10  22  41  68 103 144 188 230 287 351 418
#     4   9  20  39  66  95 136 179 223 283 332 415
#     4  11  22  41  68 104 146 184 233 282 352 423
#
# _framework density 24.301202
#
# number of rings (size 3 to 8) (size 9 to 14) (size 15 to 20)
#    0.000    1.500    1.250    3.375    5.250    0.500 
#    6.750    5.000    0.000    0.000    0.000    0.000 
#    0.000    0.000    0.000    0.000    0.000    0.000 
#
# Total GULP energy -793057.362324 kJ/mol
# GULP energy per Si atom -12391.521286 kJ/mol
# Density = 2.424589 g / cm^3
# Si number density = 24.301202 Si / 1000 Ang^3
#
#
#
# Elastic Constant Matrix: (Units=GPa)
#
#
# Indices 1 2 3 4 5 6 
#
# 1 62.4299 16.7188 13.1053 0.0000 0.0000 0.0000
# 2 16.7188 89.5910 51.2644 0.0000 0.0000 0.0000
# 3 13.1053 51.2644 153.8639 0.0000 0.0000 0.0000
# 4 0.0000 0.0000 0.0000 38.3380 0.0000 0.0000
# 5 0.0000 0.0000 0.0000 0.0000 33.0776 0.0000
# 6 0.0000 0.0000 0.0000 0.0000 0.0000 30.3476
#
#
#
# Elastic Compliance Matrix: (Units=1/GPa)
#
#
# Indices 1 2 3 4 5 6 
#
# 1 0.016889 -0.002877 -0.000480 0.000000 0.000000 0.000000
# 2 -0.002877 0.014281 -0.004513 0.000000 0.000000 0.000000
# 3 -0.000480 -0.004513 0.008044 0.000000 0.000000 0.000000
# 4 0.000000 0.000000 0.000000 0.026084 0.000000 0.000000
# 5 0.000000 0.000000 0.000000 0.000000 0.030232 0.000000
# 6 0.000000 0.000000 0.000000 0.000000 0.000000 0.032952
#
#
# Mechanical properties :
#
#
# Convention : Reuss Voigt Hill
#
# Bulk Modulus (GPa) = 42.60065 52.00687 47.30376
# Shear Modulus (GPa) = 32.88468 35.33906 34.11187
#
# Velocity S-wave (km/s) = 3.68259 3.81755 3.75068
# Velocity P-wave (km/s) = 5.97079 6.39367 6.18584
#
# Compressibility (1/GPa) = 0.02347382
#
# Stress axis : x y z
#
# Youngs Moduli (GPa) = 59.20942 70.02222 124.31905
#
# Poissons Ratio (x) = 0.20146 0.05966
# Poissons Ratio (y) = 0.17035 0.56107
# Poissons Ratio (z) = 0.02842 0.31602
#
# Static dielectric constant tensor:
#      x y z
#    x 4.438670 0.000000 0.000000 
#    y 0.000000 4.231440 0.000000 
#    z 0.000000 0.000000 4.849560 
# 
# 
# High freq. dielectric constant tensor:
#      x y z
#    x 1.967000 0.000000 0.000000 
#    y 0.000000 1.941870 0.000000 
#    z 0.000000 0.000000 1.980820 
# 
# From -- ./inp_files/11046.got.cif
#   From: 2010.03.12/outbox.cif.g09.slc.cpg/sg56_6_cif.got.tgz:11046.got - 2010.04.16 15:33:40.
