data_PCOD8229822
_publ_section_title
;
Structure prediction by ZEFSAII (Michael W. Deem and Ramdas Pophale) SiO2 
 PCOD8229822
Probable space group: P C C N
;
_chemical_formula_sum "Si O2"
_cell_formula_units_Z 28
_cell_length_a 7.730010
_cell_length_b 14.038311
_cell_length_c 11.659146
_cell_angle_alpha 90.000000
_cell_angle_beta 90.000000
_cell_angle_gamma 90.000000
_cell_volume 1265.207203
_symmetry_space_group_name_H-M "P C C N"
_symmetry_group_IT_number 56
_symmetry_cell_setting 'orthorhombic'
loop_
_space_group_symop_operation_xyz
x,y,z
1/2-x,1/2-y,z
1/2+x,-y,1/2-z
-x,1/2+y,1/2-z
-x,-y,-z
1/2+x,1/2+y,-z
1/2-x,y,1/2+z
x,1/2-y,1/2+z
loop_
_atom_site_type_symbol
_atom_site_label
_atom_site_fract_x
_atom_site_fract_y
_atom_site_fract_z
Si Si1 0.395467 0.401991 0.786175
Si Si2 0.555332 0.251362 0.941422
Si Si3 0.250000 0.250000 0.119656
Si Si4 0.555011 0.951831 0.117317
O O1 0.535710 0.335676 0.848890
O O2 0.279110 0.343157 0.696087
O O3 0.263516 0.445259 0.879922
O O4 0.494913 0.487385 0.725764
O O5 0.750000 0.250000 0.991579
O O6 0.523507 0.153342 0.874260
O O7 0.420314 0.266451 0.043672
O O8 0.500000 0.000000 0.000000
#
# Coordination Sequence:
#
# PCOD8229822 Si02
#       4
#     8   8   4   8
#     4  12  24  46  73 102 151 191 235 304 365 425
#     4  12  25  45  71 105 142 189 241 297 367 425
#     4  12  22  48  72  96 148 192 234 298 364 432
#     4  12  24  44  71 106 141 188 247 293 358 439
#
# _framework density 22.130761
#
# number of rings (size 3 to 8) (size 9 to 14) (size 15 to 20)
#    0.000    0.000    8.571    1.714    0.000    3.429 
#    0.000    5.714    0.000    0.000    0.000    0.000 
#    0.000    0.000    0.000    0.000    0.000    0.000 
#
# Total GULP energy -347348.504463 kJ/mol
# GULP energy per Si atom -12405.303731 kJ/mol
# Density = 2.208039 g / cm^3
# Si number density = 22.130761 Si / 1000 Ang^3
#
#
#
# Elastic Constant Matrix: (Units=GPa)
#
#
# Indices 1 2 3 4 5 6 
#
# 1 161.3310 21.8759 45.4815 0.0000 0.0000 0.0000
# 2 21.8759 78.6445 20.8638 0.0000 0.0000 0.0000
# 3 45.4815 20.8638 92.8143 0.0000 0.0000 0.0000
# 4 0.0000 0.0000 0.0000 24.9274 0.0000 0.0000
# 5 0.0000 0.0000 0.0000 0.0000 33.1480 0.0000
# 6 0.0000 0.0000 0.0000 0.0000 0.0000 36.5463
#
#
#
# Elastic Compliance Matrix: (Units=1/GPa)
#
#
# Indices 1 2 3 4 5 6 
#
# 1 0.007288 -0.001148 -0.003313 0.000000 0.000000 0.000000
# 2 -0.001148 0.013703 -0.002518 0.000000 0.000000 0.000000
# 3 -0.003313 -0.002518 0.012964 0.000000 0.000000 0.000000
# 4 0.000000 0.000000 0.000000 0.040116 0.000000 0.000000
# 5 0.000000 0.000000 0.000000 0.000000 0.030168 0.000000
# 6 0.000000 0.000000 0.000000 0.000000 0.000000 0.027363
#
#
# Mechanical properties :
#
#
# Convention : Reuss Voigt Hill
#
# Bulk Modulus (GPa) = 50.00904 56.58136 53.29520
# Shear Modulus (GPa) = 32.84609 35.22893 34.03751
#
# Velocity S-wave (km/s) = 3.85669 3.99413 3.92601
# Velocity P-wave (km/s) = 6.51753 6.84786 6.68473
#
# Compressibility (1/GPa) = 0.01999638
#
# Stress axis : x y z
#
# Youngs Moduli (GPa) = 137.20806 72.97807 77.13838
#
# Poissons Ratio (x) = 0.08380 0.25558
# Poissons Ratio (y) = 0.15756 0.19420
# Poissons Ratio (z) = 0.45461 0.18373
#
# Static dielectric constant tensor:
#      x y z
#    x 4.511740 0.000000 0.000000 
#    y 0.000000 4.437240 0.000000 
#    z 0.000000 0.000000 3.953870 
# 
# 
# High freq. dielectric constant tensor:
#      x y z
#    x 1.875990 0.000000 0.000000 
#    y 0.000000 1.886380 0.000000 
#    z 0.000000 0.000000 1.869860 
# 
# From -- ./inp_files/5889.got.cif
#   From: 2010.03.12/outbox.cif.g09.slc.cpg/sg56_3_cif.got.tgz:5889.got - 2010.04.16 15:33:40.
