data_PCOD8229778
_publ_section_title
;
Structure prediction by ZEFSAII (Michael W. Deem and Ramdas Pophale) SiO2 
 PCOD8229778
Probable space group: P C C N
;
_chemical_formula_sum "Si O2"
_cell_formula_units_Z 48
_cell_length_a 8.973952
_cell_length_b 21.066764
_cell_length_c 10.845768
_cell_angle_alpha 90.000000
_cell_angle_beta 90.000000
_cell_angle_gamma 90.000000
_cell_volume 2050.415530
_symmetry_space_group_name_H-M "P C C N"
_symmetry_group_IT_number 56
_symmetry_cell_setting 'orthorhombic'
loop_
_space_group_symop_operation_xyz
x,y,z
1/2-x,1/2-y,z
1/2+x,-y,1/2-z
-x,1/2+y,1/2-z
-x,-y,-z
1/2+x,1/2+y,-z
1/2-x,y,1/2+z
x,1/2-y,1/2+z
loop_
_atom_site_type_symbol
_atom_site_label
_atom_site_fract_x
_atom_site_fract_y
_atom_site_fract_z
Si Si1 0.056015 0.534185 0.621470
Si Si2 0.584645 0.235345 0.380253
Si Si3 0.564617 0.586946 0.739787
Si Si4 0.334224 0.869666 0.445872
Si Si5 0.486026 0.863631 0.000461
Si Si6 0.374652 0.136945 0.245108
O O1 0.925357 0.571399 0.691781
O O2 0.000000 0.500000 0.500000
O O3 0.125669 0.481802 0.714391
O O4 0.170578 0.586132 0.569410
O O5 0.750000 0.250000 0.319726
O O6 0.606910 0.198425 0.509363
O O7 0.507900 0.301189 0.414486
O O8 0.469167 0.197647 0.292351
O O9 0.501646 0.579555 0.600563
O O10 0.696762 0.639436 0.732884
O O11 0.430814 0.607875 0.830631
O O12 0.159999 0.867294 0.411800
O O13 0.619341 0.866118 0.903432
#
# Coordination Sequence:
#
# PCOD8229778 Si02
#       6
#     8   8   8   8   8   8
#     4   9  22  44  71  92 144 188 231 295 356 420
#     4   9  22  45  71  95 138 186 238 288 352 429
#     4  11  26  43  68 107 144 183 240 297 361 427
#     4   9  22  45  70  96 134 187 237 290 359 427
#     4  11  26  41  71 102 132 187 237 291 361 431
#     4  11  26  44  70 107 143 184 244 301 362 426
#
# _framework density 23.409889
#
# number of rings (size 3 to 8) (size 9 to 14) (size 15 to 20)
#    0.000    2.000    0.000    0.000   18.667    3.333 
#    0.000    0.000    0.000    0.000    0.000    0.000 
#    0.000    0.000    0.000    0.000    0.000    0.000 
#
# Total GULP energy -594743.507394 kJ/mol
# GULP energy per Si atom -12390.489737 kJ/mol
# Density = 2.335661 g / cm^3
# Si number density = 23.409889 Si / 1000 Ang^3
#
#
#
# Elastic Constant Matrix: (Units=GPa)
#
#
# Indices 1 2 3 4 5 6 
#
# 1 110.9978 22.9569 41.5663 0.0000 0.0000 0.0000
# 2 22.9569 79.6036 24.8391 0.0000 0.0000 0.0000
# 3 41.5663 24.8391 119.8575 0.0000 0.0000 0.0000
# 4 0.0000 0.0000 0.0000 19.9925 0.0000 0.0000
# 5 0.0000 0.0000 0.0000 0.0000 33.3412 0.0000
# 6 0.0000 0.0000 0.0000 0.0000 0.0000 25.2696
#
#
#
# Elastic Compliance Matrix: (Units=1/GPa)
#
#
# Indices 1 2 3 4 5 6 
#
# 1 0.010659 -0.002053 -0.003271 0.000000 0.000000 0.000000
# 2 -0.002053 0.013826 -0.002153 0.000000 0.000000 0.000000
# 3 -0.003271 -0.002153 0.009924 0.000000 0.000000 0.000000
# 4 0.000000 0.000000 0.000000 0.050019 0.000000 0.000000
# 5 0.000000 0.000000 0.000000 0.000000 0.029993 0.000000
# 6 0.000000 0.000000 0.000000 0.000000 0.000000 0.039573
#
#
# Mechanical properties :
#
#
# Convention : Reuss Voigt Hill
#
# Bulk Modulus (GPa) = 51.40334 54.35370 52.87852
# Shear Modulus (GPa) = 28.50086 30.46044 29.48065
#
# Velocity S-wave (km/s) = 3.49301 3.61110 3.55255
# Velocity P-wave (km/s) = 6.18658 6.37616 6.28209
#
# Compressibility (1/GPa) = 0.01945399
#
# Stress axis : x y z
#
# Youngs Moduli (GPa) = 93.81979 72.32604 100.76761
#
# Poissons Ratio (x) = 0.14850 0.32960
# Poissons Ratio (y) = 0.19263 0.21698
# Poissons Ratio (z) = 0.30688 0.15574
#
# Static dielectric constant tensor:
#      x y z
#    x 3.984700 0.000000 0.000000 
#    y 0.000000 5.247470 0.000000 
#    z 0.000000 0.000000 4.147970 
# 
# 
# High freq. dielectric constant tensor:
#      x y z
#    x 1.914630 0.000000 0.000000 
#    y 0.000000 1.927170 0.000000 
#    z 0.000000 0.000000 1.929920 
# 
# From -- ./inp_files/6432.got.cif
#   From: 2010.03.12/outbox.cif.g09.slc.cpg/sg56_4_cif.got.tgz:6432.got - 2010.04.16 15:33:40.
