data_PCOD8229007
_publ_section_title
;
Structure prediction by ZEFSAII (Michael W. Deem and Ramdas Pophale) SiO2 
 PCOD8229007
Probable space group: P C C N
;
_chemical_formula_sum "Si O2"
_cell_formula_units_Z 40
_cell_length_a 14.885526
_cell_length_b 16.890215
_cell_length_c 7.591562
_cell_angle_alpha 90.000000
_cell_angle_beta 90.000000
_cell_angle_gamma 90.000000
_cell_volume 1908.668503
_symmetry_space_group_name_H-M "P C C N"
_symmetry_group_IT_number 56
_symmetry_cell_setting 'orthorhombic'
loop_
_space_group_symop_operation_xyz
x,y,z
1/2-x,1/2-y,z
1/2+x,-y,1/2-z
-x,1/2+y,1/2-z
-x,-y,-z
1/2+x,1/2+y,-z
1/2-x,y,1/2+z
x,1/2-y,1/2+z
loop_
_atom_site_type_symbol
_atom_site_label
_atom_site_fract_x
_atom_site_fract_y
_atom_site_fract_z
Si Si1 0.311660 0.671901 0.313204
Si Si2 0.418582 0.440867 0.517587
Si Si3 0.507619 0.676302 0.191502
Si Si4 0.841774 0.412582 0.842808
Si Si5 0.025015 0.145979 0.202614
O O1 0.250000 0.750000 0.303573
O O2 0.398727 0.673339 0.187835
O O3 0.346915 0.656070 0.508961
O O4 0.250484 0.596828 0.263036
O O5 0.500000 0.500000 0.500000
O O6 0.444268 0.374093 0.657971
O O7 0.337465 0.496989 0.582914
O O8 0.403017 0.402996 0.322679
O O9 0.532506 0.766510 0.221362
O O10 0.546920 0.645404 0.004967
O O11 0.927300 0.394604 0.720578
#
# Coordination Sequence:
#
# PCOD8229007 Si02
#       5
#     8   8   8   8   8
#     4  12  22  35  57  89 128 163 192 231 303 374
#     4  10  22  40  55  86 127 154 205 251 286 360
#     4  12  21  38  64  88 119 164 200 244 301 360
#     4  11  23  37  54  89 128 157 196 247 291 363
#     4  11  21  37  61  86 118 156 202 244 293 354
#
# _framework density 20.957018000000001
#
# number of rings (size 3 to 8) (size 9 to 14) (size 15 to 20)
#    0.000    0.800    8.000    1.800    0.000    3.200 
#    3.600    0.000    0.000    0.000    0.000    4.200 
#    0.000    0.000    0.000    0.000    0.000    0.000 
#
# Total GULP energy -495685.707564 kJ/mol
# GULP energy per Si atom -12392.142689 kJ/mol
# Density = 2.090932 g / cm^3
# Si number density = 20.957018 Si / 1000 Ang^3
#
#
#
# Elastic Constant Matrix: (Units=GPa)
#
#
# Indices 1 2 3 4 5 6 
#
# 1 29.9757 14.5133 -1.0118 0.0000 0.0000 0.0000
# 2 14.5133 79.0061 7.3128 0.0000 0.0000 0.0000
# 3 -1.0118 7.3128 110.3019 0.0000 0.0000 0.0000
# 4 0.0000 0.0000 0.0000 37.4793 0.0000 0.0000
# 5 0.0000 0.0000 0.0000 0.0000 12.0963 0.0000
# 6 0.0000 0.0000 0.0000 0.0000 0.0000 27.1355
#
#
#
# Elastic Compliance Matrix: (Units=1/GPa)
#
#
# Indices 1 2 3 4 5 6 
#
# 1 0.036685 -0.006812 0.000788 0.000000 0.000000 0.000000
# 2 -0.006812 0.014000 -0.000991 0.000000 0.000000 0.000000
# 3 0.000788 -0.000991 0.009139 0.000000 0.000000 0.000000
# 4 0.000000 0.000000 0.000000 0.026681 0.000000 0.000000
# 5 0.000000 0.000000 0.000000 0.000000 0.082670 0.000000
# 6 0.000000 0.000000 0.000000 0.000000 0.000000 0.036852
#
#
# Mechanical properties :
#
#
# Convention : Reuss Voigt Hill
#
# Bulk Modulus (GPa) = 21.83628 28.99025 25.41327
# Shear Modulus (GPa) = 21.24749 28.57351 24.91050
#
# Velocity S-wave (km/s) = 3.18757 3.69648 3.45142
# Velocity P-wave (km/s) = 4.89792 5.66408 5.29488
#
# Compressibility (1/GPa) = 0.04579534
#
# Stress axis : x y z
#
# Youngs Moduli (GPa) = 27.25905 71.42714 109.42197
#
# Poissons Ratio (x) = 0.48656 -0.08624
# Poissons Ratio (y) = 0.18569 0.10840
# Poissons Ratio (z) = -0.02148 0.07076
#
# Static dielectric constant tensor:
#      x y z
#    x 3.594750 0.000000 0.000000 
#    y 0.000000 3.558750 0.000000 
#    z 0.000000 0.000000 4.039370 
# 
# 
# High freq. dielectric constant tensor:
#      x y z
#    x 1.763080 0.000000 0.000000 
#    y 0.000000 1.830420 0.000000 
#    z 0.000000 0.000000 1.836190 
# 
# From -- ./inp_files/3220.got.cif
#   From: 2010.03.12/outbox.cif.g09.slc.cpg/sg56_2_cif.got.tgz:3220.got - 2010.04.16 15:33:40.
