data_PCOD8229988
_publ_section_title
;
Structure prediction by ZEFSAII (Michael W. Deem and Ramdas Pophale) SiO2 
 PCOD8229988
Probable space group: P B C M
;
_chemical_formula_sum "Si O2"
_cell_formula_units_Z 64
_cell_length_a 18.971179
_cell_length_b 9.026144
_cell_length_c 19.144717
_cell_angle_alpha 90.000000
_cell_angle_beta 90.000000
_cell_angle_gamma 90.000000
_cell_volume 3278.276123
_symmetry_space_group_name_H-M "P B C M"
_symmetry_group_IT_number 57
_symmetry_cell_setting 'orthorhombic'
loop_
_space_group_symop_operation_xyz
x,y,z
-x,-y,1/2+z
x,1/2-y,-z
-x,1/2+y,1/2-z
-x,-y,-z
x,y,1/2-z
-x,1/2+y,z
x,1/2-y,1/2+z
loop_
_atom_site_type_symbol
_atom_site_label
_atom_site_fract_x
_atom_site_fract_y
_atom_site_fract_z
Si Si1 0.051264 0.546910 0.331116
Si Si2 0.296931 0.329763 0.428466
Si Si3 0.851289 0.253465 0.582661
Si Si4 0.430982 0.323955 0.576701
Si Si5 0.298478 0.664059 0.428825
Si Si6 0.431142 0.680492 0.922443
Si Si7 0.168571 0.181505 0.673497
Si Si8 0.891679 0.001266 0.672200
O O1 0.054258 0.595298 0.250000
O O2 0.081411 0.676324 0.379362
O O3 0.096943 0.401619 0.347400
O O4 0.971551 0.517852 0.354132
O O5 0.274118 0.250000 0.500000
O O6 0.358119 0.233931 0.388463
O O7 0.325035 0.496712 0.443498
O O8 0.229643 0.348871 0.380823
O O9 0.863655 0.250000 0.500000
O O10 0.778590 0.334860 0.607553
O O11 0.847762 0.089338 0.613976
O O12 0.426701 0.250000 0.500000
O O13 0.499581 0.251936 0.614769
O O14 0.435423 0.502265 0.576952
O O15 0.283497 0.750000 0.500000
O O16 0.359426 0.756310 0.386121
O O17 0.428318 0.750000 0.000000
O O18 0.194532 0.127664 0.750000
O O19 0.150551 0.351290 0.675778
O O20 0.891494 0.074612 0.750000
#
# Coordination Sequence:
#
# PCOD8229988 Si02
#       8
#     8   8   8   8   8   8   8   8
#     4  10  20  41  62  81 106 147 193 236 280 331
#     4  11  21  34  56  81 112 150 184 227 283 331
#     4  11  23  35  55  86 119 149 180 228 291 339
#     4  10  18  28  49  78 109 148 186 227 271 321
#     4  10  20  33  49  78 116 152 180 224 278 336
#     4  10  17  29  47  74 115 147 185 226 268 328
#     4  10  22  37  57  83 109 142 186 234 282 331
#     4  10  22  39  62  81 106 145 193 238 278 333
#
# _framework density 19.522455999999998
#
# number of rings (size 3 to 8) (size 9 to 14) (size 15 to 20)
#    0.000    1.750    1.250    6.375    5.250    2.500 
#    0.000    1.250    0.000    0.000    0.000    5.250 
#    0.000    0.000    0.000    0.000    0.000    0.000 
#
# Total GULP energy -793037.918016 kJ/mol
# GULP energy per Si atom -12391.217469 kJ/mol
# Density = 1.947802 g / cm^3
# Si number density = 19.522456 Si / 1000 Ang^3
#
#
#
# Elastic Constant Matrix: (Units=GPa)
#
#
# Indices 1 2 3 4 5 6 
#
# 1 96.7655 32.2115 26.7505 0.0000 0.0000 0.0000
# 2 32.2115 139.0908 20.7895 0.0000 0.0000 0.0000
# 3 26.7505 20.7895 48.6897 0.0000 0.0000 0.0000
# 4 0.0000 0.0000 0.0000 21.2656 0.0000 0.0000
# 5 0.0000 0.0000 0.0000 0.0000 8.9936 0.0000
# 6 0.0000 0.0000 0.0000 0.0000 0.0000 35.8343
#
#
#
# Elastic Compliance Matrix: (Units=1/GPa)
#
#
# Indices 1 2 3 4 5 6 
#
# 1 0.012699 -0.002027 -0.006111 0.000000 0.000000 0.000000
# 2 -0.002027 0.008003 -0.002303 0.000000 0.000000 0.000000
# 3 -0.006111 -0.002303 0.024879 0.000000 0.000000 0.000000
# 4 0.000000 0.000000 0.000000 0.047024 0.000000 0.000000
# 5 0.000000 0.000000 0.000000 0.000000 0.111190 0.000000
# 6 0.000000 0.000000 0.000000 0.000000 0.000000 0.027906
#
#
# Mechanical properties :
#
#
# Convention : Reuss Voigt Hill
#
# Bulk Modulus (GPa) = 40.49007 49.33879 44.91443
# Shear Modulus (GPa) = 19.17046 26.87166 23.02106
#
# Velocity S-wave (km/s) = 3.13704 3.71408 3.43769
# Velocity P-wave (km/s) = 5.82294 6.61212 6.23004
#
# Compressibility (1/GPa) = 0.02469742
#
# Stress axis : x y z
#
# Youngs Moduli (GPa) = 78.74931 124.94769 40.19426
#
# Poissons Ratio (x) = 0.25332 0.24563
# Poissons Ratio (y) = 0.15966 0.09258
# Poissons Ratio (z) = 0.48124 0.28780
#
# Static dielectric constant tensor:
#      x y z
#    x 4.511220 0.000000 0.000000 
#    y 0.000000 3.754490 0.000000 
#    z 0.000000 0.000000 3.316620 
# 
# 
# High freq. dielectric constant tensor:
#      x y z
#    x 1.784380 0.000000 0.000000 
#    y 0.000000 1.780070 0.000000 
#    z 0.000000 0.000000 1.695670 
# 
# From -- ./inp_files/25598.got.cif
#   From: 2010.03.12/outbox.cif.g09.slc.cpg/sg57_13_cif.got.tgz:25598.got - 2010.04.16 15:48:40.
