data_PCOD8229384
_publ_section_title
;
Structure prediction by ZEFSAII (Michael W. Deem and Ramdas Pophale) SiO2 
 PCOD8229384
Probable space group: P C C N
;
_chemical_formula_sum "Si O2"
_cell_formula_units_Z 40
_cell_length_a 4.839684
_cell_length_b 13.243903
_cell_length_c 24.733377
_cell_angle_alpha 90.000000
_cell_angle_beta 90.000000
_cell_angle_gamma 90.000000
_cell_volume 1585.318087
_symmetry_space_group_name_H-M "P C C N"
_symmetry_group_IT_number 56
_symmetry_cell_setting 'orthorhombic'
loop_
_space_group_symop_operation_xyz
x,y,z
1/2-x,1/2-y,z
1/2+x,-y,1/2-z
-x,1/2+y,1/2-z
-x,-y,-z
1/2+x,1/2+y,-z
1/2-x,y,1/2+z
x,1/2-y,1/2+z
loop_
_atom_site_type_symbol
_atom_site_label
_atom_site_fract_x
_atom_site_fract_y
_atom_site_fract_z
Si Si1 0.283687 0.866432 0.886893
Si Si2 0.503462 0.183250 0.841984
Si Si3 0.618236 0.356975 0.460337
Si Si4 0.738146 0.504745 0.215963
Si Si5 0.710122 0.924961 0.456998
O O1 0.250000 0.750000 0.869946
O O2 0.588192 0.898881 0.906122
O O3 0.090290 0.886920 0.938929
O O4 0.196518 0.931688 0.834905
O O5 0.250000 0.250000 0.861463
O O6 0.597376 0.128061 0.896309
O O7 0.407116 0.105635 0.797151
O O8 0.750000 0.250000 0.816914
O O9 0.750000 0.250000 0.476845
O O10 0.805709 0.455988 0.474228
O O11 0.322795 0.364167 0.490582
O O12 0.437815 0.540958 0.237314
#
# Coordination Sequence:
#
# PCOD8229384 Si02
#       5
#     8   8   8   8   8
#     4  12  27  48  73 103 148 195 243 295 367 435
#     4  11  25  44  73 107 146 187 239 300 367 433
#     4  10  24  43  76 111 152 195 237 292 363 439
#     4  12  27  48  75 103 143 186 252 314 368 428
#     4  11  25  46  72 109 151 193 240 292 352 446
#
# _framework density 25.231531
#
# number of rings (size 3 to 8) (size 9 to 14) (size 15 to 20)
#    0.000    0.800    2.000    3.600    5.600   10.400 
#    0.000    0.000    0.000    0.000    0.000    0.000 
#    0.000    0.000    0.000    0.000    0.000    0.000 
#
# Total GULP energy -496118.131621 kJ/mol
# GULP energy per Si atom -12402.953291 kJ/mol
# Density = 2.517410 g / cm^3
# Si number density = 25.231531 Si / 1000 Ang^3
#
#
#
# Elastic Constant Matrix: (Units=GPa)
#
#
# Indices 1 2 3 4 5 6 
#
# 1 89.4917 28.4795 -0.5984 0.0000 0.0000 0.0000
# 2 28.4795 148.3190 21.7114 0.0000 0.0000 0.0000
# 3 -0.5984 21.7114 62.2926 0.0000 0.0000 0.0000
# 4 0.0000 0.0000 0.0000 29.0859 0.0000 0.0000
# 5 0.0000 0.0000 0.0000 0.0000 46.3915 0.0000
# 6 0.0000 0.0000 0.0000 0.0000 0.0000 38.0703
#
#
#
# Elastic Compliance Matrix: (Units=1/GPa)
#
#
# Indices 1 2 3 4 5 6 
#
# 1 0.011956 -0.002437 0.000964 0.000000 0.000000 0.000000
# 2 -0.002437 0.007601 -0.002673 0.000000 0.000000 0.000000
# 3 0.000964 -0.002673 0.016994 0.000000 0.000000 0.000000
# 4 0.000000 0.000000 0.000000 0.034381 0.000000 0.000000
# 5 0.000000 0.000000 0.000000 0.000000 0.021556 0.000000
# 6 0.000000 0.000000 0.000000 0.000000 0.000000 0.026267
#
#
# Mechanical properties :
#
#
# Convention : Reuss Voigt Hill
#
# Bulk Modulus (GPa) = 35.38483 44.36537 39.87510
# Shear Modulus (GPa) = 36.63898 39.41026 38.02462
#
# Velocity S-wave (km/s) = 3.81479 3.95643 3.88626
# Velocity P-wave (km/s) = 5.78429 6.20424 5.99794
#
# Compressibility (1/GPa) = 0.02826070
#
# Stress axis : x y z
#
# Youngs Moduli (GPa) = 83.63869 131.55473 58.84393
#
# Poissons Ratio (x) = 0.32059 -0.05674
# Poissons Ratio (y) = 0.20382 0.15728
# Poissons Ratio (z) = -0.08065 0.35162
#
# Static dielectric constant tensor:
#      x y z
#    x 4.708740 0.000000 0.000000 
#    y 0.000000 4.628370 0.000000 
#    z 0.000000 0.000000 4.332920 
# 
# 
# High freq. dielectric constant tensor:
#      x y z
#    x 2.018460 0.000000 0.000000 
#    y 0.000000 2.016640 0.000000 
#    z 0.000000 0.000000 2.011040 
# 
# From -- ./inp_files/21505.got.cif
#   From: 2010.03.12/outbox.cif.g09.slc.cpg/sg56_11_cif.got.tgz:21505.got - 2010.04.16 15:33:40.
