data_PCOD8229983
_publ_section_title
;
Structure prediction by ZEFSAII (Michael W. Deem and Ramdas Pophale) SiO2 
 PCOD8229983
Probable space group: P B C M
;
_chemical_formula_sum "Si O2"
_cell_formula_units_Z 52
_cell_length_a 8.737840
_cell_length_b 21.451529
_cell_length_c 14.139544
_cell_angle_alpha 90.000000
_cell_angle_beta 90.000000
_cell_angle_gamma 90.000000
_cell_volume 2650.316525
_symmetry_space_group_name_H-M "P B C M"
_symmetry_group_IT_number 57
_symmetry_cell_setting 'orthorhombic'
loop_
_space_group_symop_operation_xyz
x,y,z
-x,-y,1/2+z
x,1/2-y,-z
-x,1/2+y,1/2-z
-x,-y,-z
x,y,1/2-z
-x,1/2+y,z
x,1/2-y,1/2+z
loop_
_atom_site_type_symbol
_atom_site_label
_atom_site_fract_x
_atom_site_fract_y
_atom_site_fract_z
Si Si1 0.392085 0.549210 0.144113
Si Si2 0.081852 0.168529 0.640321
Si Si3 0.239484 0.442291 0.043829
Si Si4 0.269228 0.000397 0.354903
Si Si5 0.259692 0.855704 0.356443
Si Si6 0.499953 0.855022 0.994815
Si Si7 0.272351 0.250000 0.500000
O O1 0.341612 0.564489 0.250000
O O2 0.258157 0.507854 0.097592
O O3 0.549694 0.511240 0.139621
O O4 0.406014 0.615734 0.092002
O O5 0.133810 0.169127 0.750000
O O6 0.115341 0.100668 0.595431
O O7 0.168900 0.223443 0.584857
O O8 0.900956 0.179967 0.630849
O O9 0.403826 0.408616 0.047275
O O10 0.188075 0.456652 0.934955
O O11 0.207058 0.018323 0.250000
O O12 0.236190 0.928662 0.377975
O O13 0.321830 0.846393 0.250000
O O14 0.382214 0.826048 0.428665
O O15 0.618264 0.803290 0.956526
#
# Coordination Sequence:
#
# PCOD8229983 Si02
#       7
#     8   8   8   8   8   8   4
#     4  10  17  28  51  82 117 147 177 230 284 331
#     4  10  23  39  57  82 112 149 188 229 286 345
#     4  10  17  32  55  84 116 148 181 224 278 337
#     4   9  16  28  50  83 117 148 181 221 272 327
#     4  10  19  34  57  84 112 143 184 231 280 336
#     4  10  19  35  54  82 106 145 193 236 276 330
#     4  10  24  40  60  78 106 146 196 244 286 332
#
# _framework density 19.620297999999998
#
# number of rings (size 3 to 8) (size 9 to 14) (size 15 to 20)
#    0.000    2.154    3.077    1.385    0.000    4.308 
#    0.000    2.308    0.000    0.923    0.000    0.000 
#    0.000    0.000    0.000    0.000    0.000    0.000 
#
# Total GULP energy -644677.990996 kJ/mol
# GULP energy per Si atom -12397.653673 kJ/mol
# Density = 1.957564 g / cm^3
# Si number density = 19.620298 Si / 1000 Ang^3
#
#
#
# Elastic Constant Matrix: (Units=GPa)
#
#
# Indices 1 2 3 4 5 6 
#
# 1 59.0534 27.9115 47.1725 0.0000 0.0000 0.0000
# 2 27.9115 71.3604 44.7042 0.0000 0.0000 0.0000
# 3 47.1725 44.7042 137.3515 0.0000 0.0000 0.0000
# 4 0.0000 0.0000 0.0000 25.5468 0.0000 0.0000
# 5 0.0000 0.0000 0.0000 0.0000 27.4268 0.0000
# 6 0.0000 0.0000 0.0000 0.0000 0.0000 24.2381
#
#
#
# Elastic Compliance Matrix: (Units=1/GPa)
#
#
# Indices 1 2 3 4 5 6 
#
# 1 0.024952 -0.005516 -0.006775 0.000000 0.000000 0.000000
# 2 -0.005516 0.018822 -0.004232 0.000000 0.000000 0.000000
# 3 -0.006775 -0.004232 0.010985 0.000000 0.000000 0.000000
# 4 0.000000 0.000000 0.000000 0.039144 0.000000 0.000000
# 5 0.000000 0.000000 0.000000 0.000000 0.036461 0.000000
# 6 0.000000 0.000000 0.000000 0.000000 0.000000 0.041257
#
#
# Mechanical properties :
#
#
# Convention : Reuss Voigt Hill
#
# Bulk Modulus (GPa) = 46.05148 56.37131 51.21139
# Shear Modulus (GPa) = 23.59575 25.30748 24.45161
#
# Velocity S-wave (km/s) = 3.47164 3.59536 3.53404
# Velocity P-wave (km/s) = 6.29222 6.78447 6.54297
#
# Compressibility (1/GPa) = 0.02171483
#
# Stress axis : x y z
#
# Youngs Moduli (GPa) = 40.07630 53.13020 91.03724
#
# Poissons Ratio (x) = 0.29306 0.61673
# Poissons Ratio (y) = 0.22105 0.38523
# Poissons Ratio (z) = 0.27150 0.22482
#
# Static dielectric constant tensor:
#      x y z
#    x 3.333490 0.000000 0.000000 
#    y 0.000000 3.373160 0.000000 
#    z 0.000000 0.000000 3.795970 
# 
# 
# High freq. dielectric constant tensor:
#      x y z
#    x 1.741740 0.000000 0.000000 
#    y 0.000000 1.739160 0.000000 
#    z 0.000000 0.000000 1.771400 
# 
# From -- ./inp_files/16835.got.cif
#   From: 2010.03.12/outbox.cif.g09.slc.cpg/sg57_9_cif.got.tgz:16835.got - 2010.04.16 15:48:40.
