data_PCOD8229966
_publ_section_title
;
Structure prediction by ZEFSAII (Michael W. Deem and Ramdas Pophale) SiO2 
 PCOD8229966
Probable space group: P B C M
;
_chemical_formula_sum "Si O2"
_cell_formula_units_Z 64
_cell_length_a 21.777923
_cell_length_b 18.018523
_cell_length_c 8.925809
_cell_angle_alpha 90.000000
_cell_angle_beta 90.000000
_cell_angle_gamma 90.000000
_cell_volume 3502.541064
_symmetry_space_group_name_H-M "P B C M"
_symmetry_group_IT_number 57
_symmetry_cell_setting 'orthorhombic'
loop_
_space_group_symop_operation_xyz
x,y,z
-x,-y,1/2+z
x,1/2-y,-z
-x,1/2+y,1/2-z
-x,-y,-z
x,y,1/2-z
-x,1/2+y,z
x,1/2-y,1/2+z
loop_
_atom_site_type_symbol
_atom_site_label
_atom_site_fract_x
_atom_site_fract_y
_atom_site_fract_z
Si Si1 0.180570 0.963902 0.076912
Si Si2 0.629533 0.087639 0.426501
Si Si3 0.503461 0.577278 0.421841
Si Si4 0.063850 0.021348 0.572221
Si Si5 0.245296 0.097550 0.926857
Si Si6 0.122848 0.325187 0.075872
Si Si7 0.736584 0.325379 0.422992
Si Si8 0.364379 0.073968 0.073462
O O1 0.172230 0.986449 0.250000
O O2 0.206862 0.881580 0.059410
O O3 0.115264 0.966481 0.993606
O O4 0.228799 0.018667 0.999273
O O5 0.642014 0.076946 0.250000
O O6 0.560064 0.121061 0.456082
O O7 0.675547 0.147011 0.494384
O O8 0.637418 0.009005 0.507844
O O9 0.500000 0.500000 0.500000
O O10 0.506671 0.556677 0.250000
O O11 0.569675 0.614259 0.464335
O O12 0.061652 0.011665 0.750000
O O13 0.080276 0.105914 0.526359
O O14 0.000000 0.000000 0.500000
O O15 0.249174 0.086844 0.750000
O O16 0.193422 0.157742 0.969749
O O17 0.310937 0.122614 0.994381
O O18 0.116973 0.312041 0.250000
O O19 0.099526 0.250000 0.000000
O O20 0.758860 0.250000 0.500000
O O21 0.720211 0.312123 0.250000
O O22 0.351240 0.070202 0.250000
#
# Coordination Sequence:
#
# PCOD8229966 Si02
#       8
#     8   8   8   8   8   8   8   8
#     4  10  20  35  55  79 107 138 176 220 265 315
#     4  10  18  30  48  68  97 134 172 222 277 326
#     4   8  16  27  41  65  95 127 164 210 264 320
#     4  10  21  38  61  89 117 146 182 218 258 309
#     4  10  19  31  50  77 107 139 176 218 267 319
#     4   9  20  36  55  82 113 143 178 218 259 312
#     4  11  23  36  52  75 103 138 183 229 278 333
#     4  10  17  27  45  72 102 132 172 218 268 325
#
# _framework density 18.272449000000002
#
# number of rings (size 3 to 8) (size 9 to 14) (size 15 to 20)
#    0.000    2.250    1.250    3.000    0.000    5.500 
#    0.000    0.625    0.000    0.750    0.000    1.750 
#    0.000    0.000    0.000    0.000    0.000    0.000 
#
# Total GULP energy -793162.146307 kJ/mol
# GULP energy per Si atom -12393.158536 kJ/mol
# Density = 1.823086 g / cm^3
# Si number density = 18.272449 Si / 1000 Ang^3
#
#
#
# Elastic Constant Matrix: (Units=GPa)
#
#
# Indices 1 2 3 4 5 6 
#
# 1 155.1057 41.4096 60.2363 0.0000 0.0000 0.0000
# 2 41.4096 74.5667 37.6735 0.0000 0.0000 0.0000
# 3 60.2363 37.6735 95.4539 0.0000 0.0000 0.0000
# 4 0.0000 0.0000 0.0000 25.7071 0.0000 0.0000
# 5 0.0000 0.0000 0.0000 0.0000 32.9793 0.0000
# 6 0.0000 0.0000 0.0000 0.0000 0.0000 14.5786
#
#
#
# Elastic Compliance Matrix: (Units=1/GPa)
#
#
# Indices 1 2 3 4 5 6 
#
# 1 0.008938 -0.002640 -0.004598 0.000000 0.000000 0.000000
# 2 -0.002640 0.017531 -0.005253 0.000000 0.000000 0.000000
# 3 -0.004598 -0.005253 0.015451 0.000000 0.000000 0.000000
# 4 0.000000 0.000000 0.000000 0.038900 0.000000 0.000000
# 5 0.000000 0.000000 0.000000 0.000000 0.030322 0.000000
# 6 0.000000 0.000000 0.000000 0.000000 0.000000 0.068594
#
#
# Mechanical properties :
#
#
# Convention : Reuss Voigt Hill
#
# Bulk Modulus (GPa) = 59.04169 67.08500 63.06335
# Shear Modulus (GPa) = 23.76833 27.04014 25.40424
#
# Velocity S-wave (km/s) = 3.61054 3.85103 3.73272
# Velocity P-wave (km/s) = 7.05431 7.52113 7.29146
#
# Compressibility (1/GPa) = 0.01693718
#
# Stress axis : x y z
#
# Youngs Moduli (GPa) = 111.88366 57.04169 64.72021
#
# Poissons Ratio (x) = 0.15061 0.29759
# Poissons Ratio (y) = 0.29542 0.33997
# Poissons Ratio (z) = 0.51446 0.29963
#
# Static dielectric constant tensor:
#      x y z
#    x 3.899210 0.000000 0.000000 
#    y 0.000000 3.005950 0.000000 
#    z 0.000000 0.000000 3.489920 
# 
# 
# High freq. dielectric constant tensor:
#      x y z
#    x 1.721270 0.000000 0.000000 
#    y 0.000000 1.662220 0.000000 
#    z 0.000000 0.000000 1.724240 
# 
# From -- ./inp_files/8507.got.cif
#   From: 2010.03.12/outbox.cif.g09.slc.cpg/sg57_5_cif.got.tgz:8507.got - 2010.04.16 15:48:40.
