data_PCOD8229831
_publ_section_title
;
Structure prediction by ZEFSAII (Michael W. Deem and Ramdas Pophale) SiO2 
 PCOD8229831
Probable space group: P C C N
;
_chemical_formula_sum "Si O2"
_cell_formula_units_Z 36
_cell_length_a 6.650142
_cell_length_b 23.854014
_cell_length_c 10.080153
_cell_angle_alpha 90.000000
_cell_angle_beta 90.000000
_cell_angle_gamma 90.000000
_cell_volume 1599.040681
_symmetry_space_group_name_H-M "P C C N"
_symmetry_group_IT_number 56
_symmetry_cell_setting 'orthorhombic'
loop_
_space_group_symop_operation_xyz
x,y,z
1/2-x,1/2-y,z
1/2+x,-y,1/2-z
-x,1/2+y,1/2-z
-x,-y,-z
1/2+x,1/2+y,-z
1/2-x,y,1/2+z
x,1/2-y,1/2+z
loop_
_atom_site_type_symbol
_atom_site_label
_atom_site_fract_x
_atom_site_fract_y
_atom_site_fract_z
Si Si1 0.038656 0.565167 0.007992
Si Si2 0.750000 0.750000 0.204329
Si Si3 0.309402 0.890427 0.737565
Si Si4 0.840752 0.639910 0.561058
Si Si5 0.399190 0.706833 0.860908
O O1 0.155293 0.575562 0.145345
O O2 0.827241 0.598487 0.003389
O O3 0.176407 0.582327 0.883308
O O4 0.000000 0.500000 0.000000
O O5 0.767641 0.695042 0.115026
O O6 0.555316 0.750037 0.296261
O O7 0.532735 0.891114 0.675174
O O8 0.226930 0.826890 0.749564
O O9 0.997491 0.659345 0.449227
O O10 0.250000 0.750000 0.939292
#
# Coordination Sequence:
#
# PCOD8229831 Si02
#       5
#     8   4   8   8   8
#     4  12  31  52  81 109 152 208 265 328 390 453
#     4  12  24  42  72 106 156 200 250 312 386 470
#     4  12  27  51  75 113 154 197 257 322 380 471
#     4  12  27  45  74 112 156 195 261 313 387 461
#     4  12  26  43  71 114 154 205 245 312 395 467
#
# _framework density 22.513497999999998
#
# number of rings (size 3 to 8) (size 9 to 14) (size 15 to 20)
#    0.000    0.000    6.667    2.000    9.333    0.889 
#    0.000    0.000    0.000    0.000    0.000    0.000 
#    0.000    0.000    0.000    0.000    0.000    0.000 
#
# Total GULP energy -446458.593087 kJ/mol
# GULP energy per Si atom -12401.627586 kJ/mol
# Density = 2.246226 g / cm^3
# Si number density = 22.513498 Si / 1000 Ang^3
#
#
#
# Elastic Constant Matrix: (Units=GPa)
#
#
# Indices 1 2 3 4 5 6 
#
# 1 136.4295 71.7289 58.4053 0.0000 0.0000 0.0000
# 2 71.7289 146.7005 41.9273 0.0000 0.0000 0.0000
# 3 58.4053 41.9273 110.6035 0.0000 0.0000 0.0000
# 4 0.0000 0.0000 0.0000 28.5308 0.0000 0.0000
# 5 0.0000 0.0000 0.0000 0.0000 46.6653 0.0000
# 6 0.0000 0.0000 0.0000 0.0000 0.0000 41.9592
#
#
#
# Elastic Compliance Matrix: (Units=1/GPa)
#
#
# Indices 1 2 3 4 5 6 
#
# 1 0.011522 -0.004368 -0.004429 0.000000 0.000000 0.000000
# 2 -0.004368 0.009301 -0.001219 0.000000 0.000000 0.000000
# 3 -0.004429 -0.001219 0.011842 0.000000 0.000000 0.000000
# 4 0.000000 0.000000 0.000000 0.035050 0.000000 0.000000
# 5 0.000000 0.000000 0.000000 0.000000 0.021429 0.000000
# 6 0.000000 0.000000 0.000000 0.000000 0.000000 0.023833
#
#
# Mechanical properties :
#
#
# Convention : Reuss Voigt Hill
#
# Bulk Modulus (GPa) = 79.15482 81.98405 80.56944
# Shear Modulus (GPa) = 36.43800 38.20920 37.32360
#
# Velocity S-wave (km/s) = 4.02742 4.12414 4.07607
# Velocity P-wave (km/s) = 7.54069 7.69237 7.61691
#
# Compressibility (1/GPa) = 0.01263347
#
# Stress axis : x y z
#
# Youngs Moduli (GPa) = 86.78897 107.51773 84.44513
#
# Poissons Ratio (x) = 0.46964 0.37397
# Poissons Ratio (y) = 0.37910 0.10295
# Poissons Ratio (z) = 0.38435 0.13108
#
# Static dielectric constant tensor:
#      x y z
#    x -0.633830 0.000000 0.000000 
#    y 0.000000 3.872790 0.000000 
#    z 0.000000 0.000000 4.129540 
# 
# 
# High freq. dielectric constant tensor:
#      x y z
#    x 1.908140 0.000000 0.000000 
#    y 0.000000 1.881220 0.000000 
#    z 0.000000 0.000000 1.887810 
# 
# From -- ./inp_files/5553.got.cif
#   From: 2010.03.12/outbox.cif.g09.slc.cpg/sg56_3_cif.got.tgz:5553.got - 2010.04.16 15:33:40.
