data_PCOD8229709
_publ_section_title
;
Structure prediction by ZEFSAII (Michael W. Deem and Ramdas Pophale) SiO2 
 PCOD8229709
Probable space group: P C C N
;
_chemical_formula_sum "Si O2"
_cell_formula_units_Z 48
_cell_length_a 22.479479
_cell_length_b 9.091930
_cell_length_c 9.959443
_cell_angle_alpha 90.000000
_cell_angle_beta 90.000000
_cell_angle_gamma 90.000000
_cell_volume 2035.529380
_symmetry_space_group_name_H-M "P C C N"
_symmetry_group_IT_number 56
_symmetry_cell_setting 'orthorhombic'
loop_
_space_group_symop_operation_xyz
x,y,z
1/2-x,1/2-y,z
1/2+x,-y,1/2-z
-x,1/2+y,1/2-z
-x,-y,-z
1/2+x,1/2+y,-z
1/2-x,y,1/2+z
x,1/2-y,1/2+z
loop_
_atom_site_type_symbol
_atom_site_label
_atom_site_fract_x
_atom_site_fract_y
_atom_site_fract_z
Si Si1 0.545494 0.698007 0.062238
Si Si2 0.088148 0.998673 0.492595
Si Si3 0.742204 0.926488 0.796527
Si Si4 0.529106 0.267317 0.675423
Si Si5 0.217821 0.909349 0.446345
Si Si6 0.111492 0.976643 0.781418
O O1 0.494744 0.705803 0.175929
O O2 0.589133 0.563358 0.088424
O O3 0.589602 0.838890 0.069750
O O4 0.516087 0.669823 0.915759
O O5 0.036175 0.914071 0.414026
O O6 0.149177 0.903621 0.491363
O O7 0.072777 0.023190 0.650230
O O8 0.750000 0.750000 0.796580
O O9 0.753466 0.989621 0.945759
O O10 0.787474 0.005131 0.695237
O O11 0.679877 0.986391 0.739344
O O12 0.594927 0.193514 0.689897
O O13 0.250000 0.750000 0.435746
#
# Coordination Sequence:
#
# PCOD8229709 Si02
#       6
#     8   8   8   8   8   8
#     4  12  23  42  68  95 137 179 220 270 333 399
#     4  11  24  44  64  97 138 172 217 286 334 394
#     4  11  24  45  70  99 138 178 230 293 350 412
#     4  12  23  42  68  95 137 178 221 271 331 399
#     4  11  24  45  71  99 136 179 232 292 349 413
#     4  11  24  43  65  98 132 176 225 271 335 410
#
# _framework density 23.581091000000001
#
# number of rings (size 3 to 8) (size 9 to 14) (size 15 to 20)
#    0.000    0.667    3.333    5.000    0.000    2.667 
#    6.000    0.000    0.000    0.000    0.000    0.000 
#    0.000    0.000    0.000    0.000    0.000    0.000 
#
# Total GULP energy -594912.552927 kJ/mol
# GULP energy per Si atom -12394.011519 kJ/mol
# Density = 2.352742 g / cm^3
# Si number density = 23.581091 Si / 1000 Ang^3
#
#
#
# Elastic Constant Matrix: (Units=GPa)
#
#
# Indices 1 2 3 4 5 6 
#
# 1 47.9187 -7.3252 -12.4644 0.0000 0.0000 0.0000
# 2 -7.3252 97.3458 6.9118 0.0000 0.0000 0.0000
# 3 -12.4644 6.9118 94.3584 0.0000 0.0000 0.0000
# 4 0.0000 0.0000 0.0000 37.2723 0.0000 0.0000
# 5 0.0000 0.0000 0.0000 0.0000 34.0644 0.0000
# 6 0.0000 0.0000 0.0000 0.0000 0.0000 37.1959
#
#
#
# Elastic Compliance Matrix: (Units=1/GPa)
#
#
# Indices 1 2 3 4 5 6 
#
# 1 0.021811 0.001444 0.002775 0.000000 0.000000 0.000000
# 2 0.001444 0.010422 -0.000573 0.000000 0.000000 0.000000
# 3 0.002775 -0.000573 0.011006 0.000000 0.000000 0.000000
# 4 0.000000 0.000000 0.000000 0.026830 0.000000 0.000000
# 5 0.000000 0.000000 0.000000 0.000000 0.029356 0.000000
# 6 0.000000 0.000000 0.000000 0.000000 0.000000 0.026885
#
#
# Mechanical properties :
#
#
# Convention : Reuss Voigt Hill
#
# Bulk Modulus (GPa) = 19.78873 23.76304 21.77588
# Shear Modulus (GPa) = 36.80237 38.53991 37.67114
#
# Velocity S-wave (km/s) = 3.95482 4.04710 4.00123
# Velocity P-wave (km/s) = 5.40963 5.65135 5.53181
#
# Compressibility (1/GPa) = 0.05053382
#
# Stress axis : x y z
#
# Youngs Moduli (GPa) = 45.84765 95.95097 90.85573
#
# Poissons Ratio (x) = -0.13858 -0.25216
# Poissons Ratio (y) = -0.06621 0.05203
# Poissons Ratio (z) = -0.12725 0.05495
#
# Static dielectric constant tensor:
#      x y z
#    x 3.985020 0.000000 0.000000 
#    y 0.000000 4.202420 0.000000 
#    z 0.000000 0.000000 4.631170 
# 
# 
# High freq. dielectric constant tensor:
#      x y z
#    x 1.926810 0.000000 0.000000 
#    y 0.000000 1.934540 0.000000 
#    z 0.000000 0.000000 1.949270 
# 
# From -- ./inp_files/5137.got.cif
#   From: 2010.03.12/outbox.cif.g09.slc.cpg/sg56_3_cif.got.tgz:5137.got - 2010.04.16 15:33:40.
