data_PCOD8229866
_publ_section_title
;
Structure prediction by ZEFSAII (Michael W. Deem and Ramdas Pophale) SiO2 
 PCOD8229866
Probable space group: P C C N
;
_chemical_formula_sum "Si O2"
_cell_formula_units_Z 32
_cell_length_a 13.094903
_cell_length_b 9.956526
_cell_length_c 9.410278
_cell_angle_alpha 90.000000
_cell_angle_beta 90.000000
_cell_angle_gamma 90.000000
_cell_volume 1226.909620
_symmetry_space_group_name_H-M "P C C N"
_symmetry_group_IT_number 56
_symmetry_cell_setting 'orthorhombic'
loop_
_space_group_symop_operation_xyz
x,y,z
1/2-x,1/2-y,z
1/2+x,-y,1/2-z
-x,1/2+y,1/2-z
-x,-y,-z
1/2+x,1/2+y,-z
1/2-x,y,1/2+z
x,1/2-y,1/2+z
loop_
_atom_site_type_symbol
_atom_site_label
_atom_site_fract_x
_atom_site_fract_y
_atom_site_fract_z
Si Si1 0.181798 0.487942 0.374891
Si Si2 0.935300 0.326817 0.796181
Si Si3 0.063734 0.228580 0.035325
Si Si4 0.250000 0.250000 0.720068
Si Si5 0.750000 0.250000 0.469708
O O1 0.113944 0.527791 0.235206
O O2 0.103079 0.419222 0.486355
O O3 0.265996 0.378726 0.323084
O O4 0.245544 0.614843 0.435118
O O5 0.964489 0.276741 0.637188
O O6 0.848793 0.235998 0.868849
O O7 0.034524 0.322204 0.899404
O O8 0.154928 0.292605 0.124170
#
# Coordination Sequence:
#
# PCOD8229866 Si02
#       5
#     8   8   8   4   4
#     4  12  27  55  84 120 168 217 275 346 415 499
#     4  12  27  50  82 119 165 213 270 344 407 490
#     4  12  27  52  81 121 166 217 274 340 417 488
#     4  12  28  56  82 124 170 216 276 346 412 500
#     4  12  28  54  82 126 168 216 278 348 416 492
#
# _framework density 26.081790999999999
#
# number of rings (size 3 to 8) (size 9 to 14) (size 15 to 20)
#    0.000    0.000    5.000    3.750    0.000    1.000 
#    4.500    0.000    0.000    0.000    0.000    0.000 
#    0.000    0.000    0.000    0.000    0.000    0.000 
#
# Total GULP energy -396497.279249 kJ/mol
# GULP energy per Si atom -12390.539977 kJ/mol
# Density = 2.602243 g / cm^3
# Si number density = 26.081791 Si / 1000 Ang^3
#
#
#
# Elastic Constant Matrix: (Units=GPa)
#
#
# Indices 1 2 3 4 5 6 
#
# 1 93.0726 27.9549 51.2264 0.0000 0.0000 0.0000
# 2 27.9549 133.4568 64.2840 0.0000 0.0000 0.0000
# 3 51.2264 64.2840 163.4230 0.0000 0.0000 0.0000
# 4 0.0000 0.0000 0.0000 39.8558 0.0000 0.0000
# 5 0.0000 0.0000 0.0000 0.0000 51.4753 0.0000
# 6 0.0000 0.0000 0.0000 0.0000 0.0000 42.4611
#
#
#
# Elastic Compliance Matrix: (Units=1/GPa)
#
#
# Indices 1 2 3 4 5 6 
#
# 1 0.013080 -0.000944 -0.003729 0.000000 0.000000 0.000000
# 2 -0.000944 0.009313 -0.003367 0.000000 0.000000 0.000000
# 3 -0.003729 -0.003367 0.008613 0.000000 0.000000 0.000000
# 4 0.000000 0.000000 0.000000 0.025090 0.000000 0.000000
# 5 0.000000 0.000000 0.000000 0.000000 0.019427 0.000000
# 6 0.000000 0.000000 0.000000 0.000000 0.000000 0.023551
#
#
# Mechanical properties :
#
#
# Convention : Reuss Voigt Hill
#
# Bulk Modulus (GPa) = 67.00005 75.20923 71.10464
# Shear Modulus (GPa) = 41.62199 43.19092 42.40645
#
# Velocity S-wave (km/s) = 3.99911 4.07379 4.03662
# Velocity P-wave (km/s) = 6.86062 7.14326 7.00337
#
# Compressibility (1/GPa) = 0.01492536
#
# Stress axis : x y z
#
# Youngs Moduli (GPa) = 76.45211 107.37920 116.10958
#
# Poissons Ratio (x) = 0.10134 0.43296
# Poissons Ratio (y) = 0.07215 0.39099
# Poissons Ratio (z) = 0.28508 0.36159
#
# Static dielectric constant tensor:
#      x y z
#    x 5.015260 0.000000 0.000000 
#    y 0.000000 4.364390 0.000000 
#    z 0.000000 0.000000 5.125250 
# 
# 
# High freq. dielectric constant tensor:
#      x y z
#    x 2.050950 0.000000 0.000000 
#    y 0.000000 2.019640 0.000000 
#    z 0.000000 0.000000 2.069410 
# 
# From -- ./inp_files/2463.got.cif
#   From: 2010.03.12/outbox.cif.g09.slc.cpg/sg56_2_cif.got.tgz:2463.got - 2010.04.16 15:33:40.
