data_PCOD8229695
_publ_section_title
;
Structure prediction by ZEFSAII (Michael W. Deem and Ramdas Pophale) SiO2 
 PCOD8229695
Probable space group: P C C N
;
_chemical_formula_sum "Si O2"
_cell_formula_units_Z 48
_cell_length_a 10.730104
_cell_length_b 23.909199
_cell_length_c 8.892495
_cell_angle_alpha 90.000000
_cell_angle_beta 90.000000
_cell_angle_gamma 90.000000
_cell_volume 2281.353513
_symmetry_space_group_name_H-M "P C C N"
_symmetry_group_IT_number 56
_symmetry_cell_setting 'orthorhombic'
loop_
_space_group_symop_operation_xyz
x,y,z
1/2-x,1/2-y,z
1/2+x,-y,1/2-z
-x,1/2+y,1/2-z
-x,-y,-z
1/2+x,1/2+y,-z
1/2-x,y,1/2+z
x,1/2-y,1/2+z
loop_
_atom_site_type_symbol
_atom_site_label
_atom_site_fract_x
_atom_site_fract_y
_atom_site_fract_z
Si Si1 0.308018 0.190270 0.725758
Si Si2 0.931850 0.309097 0.884054
Si Si3 0.601439 0.844149 0.588337
Si Si4 0.075809 0.556979 0.504708
Si Si5 0.608171 0.206307 0.216658
Si Si6 0.729533 0.100975 0.773052
O O1 0.250000 0.250000 0.765917
O O2 0.434762 0.180937 0.813685
O O3 0.208552 0.143668 0.786438
O O4 0.328997 0.185617 0.549046
O O5 0.845925 0.267358 0.778463
O O6 0.865928 0.370204 0.890526
O O7 0.945165 0.283538 0.050325
O O8 0.533121 0.898589 0.527376
O O9 0.500966 0.803522 0.663154
O O10 0.174905 0.559250 0.642412
O O11 0.152953 0.566700 0.351630
O O12 0.000000 0.500000 0.500000
O O13 0.699410 0.153885 0.201778
#
# Coordination Sequence:
#
# PCOD8229695 Si02
#       6
#     8   8   8   8   8   8
#     4  12  23  37  62  97 148 185 226 263 328 414
#     4  12  23  39  65 100 148 186 223 270 337 408
#     4  11  24  41  64  98 138 187 230 283 334 404
#     4  11  26  50  74  99 131 173 240 301 361 403
#     4  11  24  38  65 102 139 185 223 267 339 414
#     4  11  24  46  72 100 134 175 226 290 342 422
#
# _framework density 21.040143
#
# number of rings (size 3 to 8) (size 9 to 14) (size 15 to 20)
#    0.000    0.667    5.000    3.000    2.333    2.667 
#    0.000    0.833    0.000    0.000    0.000    0.000 
#    0.000    0.000    0.000    0.000    0.000    0.000 
#
# Total GULP energy -594906.536522 kJ/mol
# GULP energy per Si atom -12393.886178 kJ/mol
# Density = 2.099225 g / cm^3
# Si number density = 21.040143 Si / 1000 Ang^3
#
#
#
# Elastic Constant Matrix: (Units=GPa)
#
#
# Indices 1 2 3 4 5 6 
#
# 1 120.3044 57.2824 43.2578 0.0000 0.0000 0.0000
# 2 57.2824 91.7627 52.0810 0.0000 0.0000 0.0000
# 3 43.2578 52.0810 135.4362 0.0000 0.0000 0.0000
# 4 0.0000 0.0000 0.0000 23.0382 0.0000 0.0000
# 5 0.0000 0.0000 0.0000 0.0000 31.2809 0.0000
# 6 0.0000 0.0000 0.0000 0.0000 0.0000 45.4910
#
#
#
# Elastic Compliance Matrix: (Units=1/GPa)
#
#
# Indices 1 2 3 4 5 6 
#
# 1 0.011982 -0.006790 -0.001216 0.000000 0.000000 0.000000
# 2 -0.006790 0.017787 -0.004671 0.000000 0.000000 0.000000
# 3 -0.001216 -0.004671 0.009568 0.000000 0.000000 0.000000
# 4 0.000000 0.000000 0.000000 0.043406 0.000000 0.000000
# 5 0.000000 0.000000 0.000000 0.000000 0.031968 0.000000
# 6 0.000000 0.000000 0.000000 0.000000 0.000000 0.021982
#
#
# Mechanical properties :
#
#
# Convention : Reuss Voigt Hill
#
# Bulk Modulus (GPa) = 71.51256 72.52732 72.01994
# Shear Modulus (GPa) = 29.99201 32.95415 31.47308
#
# Velocity S-wave (km/s) = 3.77963 3.96188 3.87183
# Velocity P-wave (km/s) = 7.28765 7.44812 7.36832
#
# Compressibility (1/GPa) = 0.01398356
#
# Stress axis : x y z
#
# Youngs Moduli (GPa) = 83.45539 56.21944 104.51101
#
# Poissons Ratio (x) = 0.38171 0.12711
# Poissons Ratio (y) = 0.56664 0.48822
# Poissons Ratio (z) = 0.10150 0.26262
#
# Static dielectric constant tensor:
#      x y z
#    x 4.194320 0.000000 0.000000 
#    y 0.000000 3.821370 0.000000 
#    z 0.000000 0.000000 3.855760 
# 
# 
# High freq. dielectric constant tensor:
#      x y z
#    x 1.851470 0.000000 0.000000 
#    y 0.000000 1.785290 0.000000 
#    z 0.000000 0.000000 1.836130 
# 
# From -- ./inp_files/2791.got.cif
#   From: 2010.03.12/outbox.cif.g09.slc.cpg/sg56_2_cif.got.tgz:2791.got - 2010.04.16 15:33:40.
