data_PCOD8229899
_publ_section_title
;
Structure prediction by ZEFSAII (Michael W. Deem and Ramdas Pophale) SiO2 
 PCOD8229899
Probable space group: P B C M
;
_chemical_formula_sum "Si O2"
_cell_formula_units_Z 56
_cell_length_a 26.596057
_cell_length_b 5.246473
_cell_length_c 27.583822
_cell_angle_alpha 90.000000
_cell_angle_beta 90.000000
_cell_angle_gamma 90.000000
_cell_volume 3848.922256
_symmetry_space_group_name_H-M "P B C M"
_symmetry_group_IT_number 57
_symmetry_cell_setting 'orthorhombic'
loop_
_space_group_symop_operation_xyz
x,y,z
-x,-y,1/2+z
x,1/2-y,-z
-x,1/2+y,1/2-z
-x,-y,-z
x,y,1/2-z
-x,1/2+y,z
x,1/2-y,1/2+z
loop_
_atom_site_type_symbol
_atom_site_label
_atom_site_fract_x
_atom_site_fract_y
_atom_site_fract_z
Si Si1 0.967572 0.515806 0.868861
Si Si2 0.528315 0.486793 0.807792
Si Si3 0.812108 0.511810 0.307625
Si Si4 0.357996 0.513398 0.307782
Si Si5 0.301287 0.013384 0.192173
Si Si6 0.943687 0.499952 0.979043
Si Si7 0.130082 0.511473 0.307615
O O1 0.942221 0.496757 0.921345
O O2 0.925805 0.483393 0.828125
O O3 0.992283 0.791678 0.862012
O O4 0.528215 0.486783 0.750000
O O5 0.500005 0.736807 0.827689
O O6 0.585161 0.486774 0.827659
O O7 0.810654 0.513587 0.250000
O O8 0.755458 0.513286 0.328149
O O9 0.840175 0.259507 0.326539
O O10 0.840915 0.761639 0.326848
O O11 0.357946 0.513365 0.250000
O O12 0.329646 0.263435 0.327632
O O13 0.329710 0.763521 0.327640
O O14 0.301112 0.013219 0.250000
O O15 0.915538 0.750000 0.000000
O O16 0.000000 0.500000 0.000000
O O17 0.915526 0.250000 0.000000
O O18 0.125838 0.511007 0.250000
#
# Coordination Sequence:
#
# PCOD8229899 Si02
#       7
#     8   8   8   8   8   8   8
#     4  12  21  31  48  65  81 104 127 149 180 217
#     4   9  15  21  27  36  57  85 102 122 167 222
#     4   9  17  31  44  53  70  96 121 150 191 223
#     4   9  15  21  30  47  61  73 106 145 173 212
#     4   9  15  23  37  50  59  76 107 149 183 207
#     4  10  16  30  47  65  83  99 120 150 181 211
#     4  10  21  33  43  58  80 103 127 151 179 228
#
# _framework density 14.549526
#
# number of rings (size 3 to 8) (size 9 to 14) (size 15 to 20)
#    0.000    2.286    2.857    2.571    0.000    7.429 
#    0.000    0.000    0.000    0.000    0.000    0.000 
#    0.000    0.000    0.000    0.000    0.000    0.000 
#
# Total GULP energy -694270.539036 kJ/mol
# GULP energy per Si atom -12397.688197 kJ/mol
# Density = 1.451641 g / cm^3
# Si number density = 14.549526 Si / 1000 Ang^3
#
#
#
# Elastic Constant Matrix: (Units=GPa)
#
#
# Indices 1 2 3 4 5 6 
#
# 1 89.0936 48.3908 18.0636 0.0000 0.0000 0.0000
# 2 48.3908 146.0227 15.1957 0.0000 0.0000 0.0000
# 3 18.0636 15.1957 17.4062 0.0000 0.0000 0.0000
# 4 0.0000 0.0000 0.0000 8.9635 0.0000 0.0000
# 5 0.0000 0.0000 0.0000 0.0000 0.2576 0.0000
# 6 0.0000 0.0000 0.0000 0.0000 0.0000 10.8817
#
#
#
# Elastic Compliance Matrix: (Units=1/GPa)
#
#
# Indices 1 2 3 4 5 6 
#
# 1 0.016043 -0.003942 -0.013207 0.000000 0.000000 0.000000
# 2 -0.003942 0.008501 -0.003331 0.000000 0.000000 0.000000
# 3 -0.013207 -0.003331 0.074065 0.000000 0.000000 0.000000
# 4 0.000000 0.000000 0.000000 0.111563 0.000000 0.000000
# 5 0.000000 0.000000 0.000000 0.000000 3.881911 0.000000
# 6 0.000000 0.000000 0.000000 0.000000 0.000000 0.091898
#
#
# Mechanical properties :
#
#
# Convention : Reuss Voigt Hill
#
# Bulk Modulus (GPa) = 17.34650 46.20252 31.77451
# Shear Modulus (GPa) = 1.17809 15.41206 8.29508
#
# Velocity S-wave (km/s) = 0.90082 3.25819 2.39032
# Velocity P-wave (km/s) = 3.60974 6.78076 5.43180
#
# Compressibility (1/GPa) = 0.05764852
#
# Stress axis : x y z
#
# Youngs Moduli (GPa) = 62.33210 117.62995 13.50172
#
# Poissons Ratio (x) = 0.46371 0.17832
# Poissons Ratio (y) = 0.24572 0.04497
# Poissons Ratio (z) = 0.82325 0.39178
#
# Static dielectric constant tensor:
#      x y z
#    x 2.941790 0.000000 0.000000 
#    y 0.000000 1.488170 0.000000 
#    z 0.000000 0.000000 2.230340 
# 
# 
# High freq. dielectric constant tensor:
#      x y z
#    x 1.547700 0.000000 0.000000 
#    y 0.000000 1.588980 0.000000 
#    z 0.000000 0.000000 1.470520 
# 
# From -- ./inp_files/27643.got.cif
#   From: 2010.03.12/outbox.cif.g09.slc.cpg/sg57_14_cif.got.tgz:27643.got - 2010.04.16 15:48:40.
