data_PCOD8229375
_publ_section_title
;
Structure prediction by ZEFSAII (Michael W. Deem and Ramdas Pophale) SiO2 
 PCOD8229375
Probable space group: P C C N
;
_chemical_formula_sum "Si O2"
_cell_formula_units_Z 52
_cell_length_a 15.154108
_cell_length_b 7.859000
_cell_length_c 20.833063
_cell_angle_alpha 90.000000
_cell_angle_beta 90.000000
_cell_angle_gamma 90.000000
_cell_volume 2481.137279
_symmetry_space_group_name_H-M "P C C N"
_symmetry_group_IT_number 56
_symmetry_cell_setting 'orthorhombic'
loop_
_space_group_symop_operation_xyz
x,y,z
1/2-x,1/2-y,z
1/2+x,-y,1/2-z
-x,1/2+y,1/2-z
-x,-y,-z
1/2+x,1/2+y,-z
1/2-x,y,1/2+z
x,1/2-y,1/2+z
loop_
_atom_site_type_symbol
_atom_site_label
_atom_site_fract_x
_atom_site_fract_y
_atom_site_fract_z
Si Si1 0.721956 0.429335 0.360084
Si Si2 0.338185 0.864271 0.404108
Si Si3 0.430076 0.549608 0.446429
Si Si4 0.750000 0.750000 0.274491
Si Si5 0.746524 0.939889 0.994323
Si Si6 0.975836 0.402343 0.830205
Si Si7 0.415558 0.093022 0.293177
O O1 0.750000 0.250000 0.328518
O O2 0.762689 0.581926 0.317963
O O3 0.756644 0.438620 0.432849
O O4 0.616933 0.425466 0.365579
O O5 0.250000 0.750000 0.390455
O O6 0.413232 0.751120 0.438721
O O7 0.322608 0.014433 0.455273
O O8 0.373523 0.951145 0.339518
O O9 0.500000 0.500000 0.500000
O O10 0.342807 0.453705 0.466539
O O11 0.453527 0.494538 0.374589
O O12 0.837555 0.781373 0.231879
O O13 0.750000 0.750000 0.967651
O O14 0.967419 0.490291 0.761346
O O15 0.008144 0.206986 0.825270
#
# Coordination Sequence:
#
# PCOD8229375 Si02
#       7
#     8   8   8   4   8   8   8
#     4  11  23  44  67  98 135 179 222 284 347 404
#     4  10  24  42  72  97 131 179 225 276 345 412
#     4  11  22  42  66  95 135 170 220 283 344 405
#     4  10  26  42  68  96 134 184 232 276 338 412
#     4  11  22  42  70  96 129 171 225 283 341 409
#     4  11  25  42  66  95 137 175 222 282 337 402
#     4  11  25  45  65 100 133 181 230 279 340 413
#
# _framework density 20.958129
#
# number of rings (size 3 to 8) (size 9 to 14) (size 15 to 20)
#    0.000    1.231    2.308    3.231    7.538    2.462 
#    2.769    1.538    0.000    0.000    0.000    0.000 
#    0.000    0.000    0.000    0.000    0.000    0.000 
#
# Total GULP energy -644629.340111 kJ/mol
# GULP energy per Si atom -12396.718079 kJ/mol
# Density = 2.091043 g / cm^3
# Si number density = 20.958129 Si / 1000 Ang^3
#
#
#
# Elastic Constant Matrix: (Units=GPa)
#
#
# Indices 1 2 3 4 5 6 
#
# 1 54.9737 41.1174 39.7107 0.0000 0.0000 0.0000
# 2 41.1174 148.3525 54.0606 0.0000 0.0000 0.0000
# 3 39.7107 54.0606 123.6662 0.0000 0.0000 0.0000
# 4 0.0000 0.0000 0.0000 31.1862 0.0000 0.0000
# 5 0.0000 0.0000 0.0000 0.0000 31.9835 0.0000
# 6 0.0000 0.0000 0.0000 0.0000 0.0000 36.8784
#
#
#
# Elastic Compliance Matrix: (Units=1/GPa)
#
#
# Indices 1 2 3 4 5 6 
#
# 1 0.026528 -0.005053 -0.006309 0.000000 0.000000 0.000000
# 2 -0.005053 0.008981 -0.002303 0.000000 0.000000 0.000000
# 3 -0.006309 -0.002303 0.011119 0.000000 0.000000 0.000000
# 4 0.000000 0.000000 0.000000 0.032065 0.000000 0.000000
# 5 0.000000 0.000000 0.000000 0.000000 0.031266 0.000000
# 6 0.000000 0.000000 0.000000 0.000000 0.000000 0.027116
#
#
# Mechanical properties :
#
#
# Convention : Reuss Voigt Hill
#
# Bulk Modulus (GPa) = 51.82470 66.30776 59.06623
# Shear Modulus (GPa) = 29.26741 32.81655 31.04198
#
# Velocity S-wave (km/s) = 3.74099 3.96133 3.85274
# Velocity P-wave (km/s) = 6.59101 7.25464 6.93077
#
# Compressibility (1/GPa) = 0.01929582
#
# Stress axis : x y z
#
# Youngs Moduli (GPa) = 37.69647 111.35169 89.93523
#
# Poissons Ratio (x) = 0.56269 0.56743
# Poissons Ratio (y) = 0.19049 0.20714
# Poissons Ratio (z) = 0.23784 0.25646
#
# Static dielectric constant tensor:
#      x y z
#    x 3.606340 0.000000 0.000000 
#    y 0.000000 3.649190 0.000000 
#    z 0.000000 0.000000 3.996960 
# 
# 
# High freq. dielectric constant tensor:
#      x y z
#    x 1.816710 0.000000 0.000000 
#    y 0.000000 1.829430 0.000000 
#    z 0.000000 0.000000 1.832170 
# 
# From -- ./inp_files/19040.got.cif
#   From: 2010.03.12/outbox.cif.g09.slc.cpg/sg56_10_cif.got.tgz:19040.got - 2010.04.16 15:33:40.
