data_PCOD8229450
_publ_section_title
;
Structure prediction by ZEFSAII (Michael W. Deem and Ramdas Pophale) SiO2 
 PCOD8229450
Probable space group: P C C N
;
_chemical_formula_sum "Si O2"
_cell_formula_units_Z 40
_cell_length_a 16.143834
_cell_length_b 18.974291
_cell_length_c 5.106537
_cell_angle_alpha 90.000000
_cell_angle_beta 90.000000
_cell_angle_gamma 90.000000
_cell_volume 1564.223201
_symmetry_space_group_name_H-M "P C C N"
_symmetry_group_IT_number 56
_symmetry_cell_setting 'orthorhombic'
loop_
_space_group_symop_operation_xyz
x,y,z
1/2-x,1/2-y,z
1/2+x,-y,1/2-z
-x,1/2+y,1/2-z
-x,-y,-z
1/2+x,1/2+y,-z
1/2-x,y,1/2+z
x,1/2-y,1/2+z
loop_
_atom_site_type_symbol
_atom_site_label
_atom_site_fract_x
_atom_site_fract_y
_atom_site_fract_z
Si Si1 0.545530 0.390893 0.926906
Si Si2 0.803618 0.873306 0.453615
Si Si3 0.787372 0.328977 0.566410
Si Si4 0.038482 0.207434 0.545563
Si Si5 0.565706 0.531889 0.692304
O O1 0.506526 0.363889 0.649147
O O2 0.589581 0.467075 0.886647
O O3 0.613716 0.334077 0.026658
O O4 0.471590 0.401583 0.140646
O O5 0.727652 0.872265 0.655508
O O6 0.862804 0.805018 0.468931
O O7 0.855438 0.943255 0.526620
O O8 0.750000 0.250000 0.604066
O O9 0.738392 0.368377 0.333107
O O10 0.011775 0.232475 0.256392
O O11 0.500000 0.500000 0.500000
#
# Coordination Sequence:
#
# PCOD8229450 Si02
#       5
#     8   8   8   8   8
#     4  11  26  46  78 108 163 205 272 318 390 483
#     4  12  27  49  76 111 154 194 257 333 398 457
#     4  10  25  44  68 108 156 201 244 313 385 458
#     4  12  27  45  76 112 146 206 251 314 397 472
#     4  11  25  49  77 110 152 210 270 324 385 481
#
# _framework density 25.5718
#
# number of rings (size 3 to 8) (size 9 to 14) (size 15 to 20)
#    0.000    0.800    2.000    3.600   11.200    4.000 
#    0.000    0.000    0.000    0.000    0.000    0.000 
#    0.000    0.000    0.000    0.000    0.000    0.000 
#
# Total GULP energy -495761.745471 kJ/mol
# GULP energy per Si atom -12394.043637 kJ/mol
# Density = 2.551360 g / cm^3
# Si number density = 25.571800 Si / 1000 Ang^3
#
#
#
# Elastic Constant Matrix: (Units=GPa)
#
#
# Indices 1 2 3 4 5 6 
#
# 1 99.4909 29.2516 6.2642 0.0000 0.0000 0.0000
# 2 29.2516 106.2554 1.5068 0.0000 0.0000 0.0000
# 3 6.2642 1.5068 87.0060 0.0000 0.0000 0.0000
# 4 0.0000 0.0000 0.0000 36.0044 0.0000 0.0000
# 5 0.0000 0.0000 0.0000 0.0000 50.0702 0.0000
# 6 0.0000 0.0000 0.0000 0.0000 0.0000 52.1696
#
#
#
# Elastic Compliance Matrix: (Units=1/GPa)
#
#
# Indices 1 2 3 4 5 6 
#
# 1 0.010984 -0.003013 -0.000739 0.000000 0.000000 0.000000
# 2 -0.003013 0.010240 0.000040 0.000000 0.000000 0.000000
# 3 -0.000739 0.000040 0.011546 0.000000 0.000000 0.000000
# 4 0.000000 0.000000 0.000000 0.027774 0.000000 0.000000
# 5 0.000000 0.000000 0.000000 0.000000 0.019972 0.000000
# 6 0.000000 0.000000 0.000000 0.000000 0.000000 0.019168
#
#
# Mechanical properties :
#
#
# Convention : Reuss Voigt Hill
#
# Bulk Modulus (GPa) = 39.45506 40.75529 40.10518
# Shear Modulus (GPa) = 43.26855 44.69749 43.98302
#
# Velocity S-wave (km/s) = 4.11791 4.18535 4.15176
# Velocity P-wave (km/s) = 6.17026 6.27124 6.22095
#
# Compressibility (1/GPa) = 0.02534529
#
# Stress axis : x y z
#
# Youngs Moduli (GPa) = 91.04469 97.65379 86.61041
#
# Poissons Ratio (x) = 0.29426 0.06397
# Poissons Ratio (y) = 0.27434 -0.00343
# Poissons Ratio (z) = 0.06725 -0.00387
#
# Static dielectric constant tensor:
#      x y z
#    x 4.597540 0.000000 0.000000 
#    y 0.000000 5.375490 0.000000 
#    z 0.000000 0.000000 5.826640 
# 
# 
# High freq. dielectric constant tensor:
#      x y z
#    x 2.005570 0.000000 0.000000 
#    y 0.000000 2.016460 0.000000 
#    z 0.000000 0.000000 2.047890 
# 
# From -- ./inp_files/627.got.cif
#   From: 2010.03.12/outbox.cif.g09.slc.cpg/sg56_1_cif.got.tgz:627.got - 2010.04.16 15:33:40.
