data_PCOD8229251
_publ_section_title
;
Structure prediction by ZEFSAII (Michael W. Deem and Ramdas Pophale) SiO2 
 PCOD8229251
Probable space group: P C C N
;
_chemical_formula_sum "Si O2"
_cell_formula_units_Z 60
_cell_length_a 26.577123
_cell_length_b 11.665750
_cell_length_c 8.502408
_cell_angle_alpha 90.000000
_cell_angle_beta 90.000000
_cell_angle_gamma 90.000000
_cell_volume 2636.104199
_symmetry_space_group_name_H-M "P C C N"
_symmetry_group_IT_number 56
_symmetry_cell_setting 'orthorhombic'
loop_
_space_group_symop_operation_xyz
x,y,z
1/2-x,1/2-y,z
1/2+x,-y,1/2-z
-x,1/2+y,1/2-z
-x,-y,-z
1/2+x,1/2+y,-z
1/2-x,y,1/2+z
x,1/2-y,1/2+z
loop_
_atom_site_type_symbol
_atom_site_label
_atom_site_fract_x
_atom_site_fract_y
_atom_site_fract_z
Si Si1 0.291041 0.332263 0.675417
Si Si2 0.121974 0.412615 0.607079
Si Si3 0.454729 0.909998 0.489750
Si Si4 0.639942 0.795946 0.090336
Si Si5 0.216573 0.518178 0.715110
Si Si6 0.750000 0.250000 0.935432
Si Si7 0.582423 0.285314 0.306937
Si Si8 0.346493 0.654406 0.426634
O O1 0.250000 0.250000 0.591746
O O2 0.334079 0.369047 0.549833
O O3 0.314802 0.256050 0.810573
O O4 0.265705 0.443813 0.753789
O O5 0.093619 0.525240 0.553863
O O6 0.108272 0.308168 0.488529
O O7 0.107167 0.373477 0.787468
O O8 0.181029 0.449050 0.592239
O O9 0.448061 0.870068 0.308780
O O10 0.458013 0.795923 0.599869
O O11 0.500000 0.000000 0.500000
O O12 0.240220 0.638441 0.667687
O O13 0.179765 0.535933 0.867504
O O14 0.800522 0.260381 0.037191
O O15 0.622513 0.207781 0.216709
O O16 0.614881 0.363052 0.428693
#
# Coordination Sequence:
#
# PCOD8229251 Si02
#       8
#     8   8   8   8   8   4   8   8
#     4  11  22  36  61  88 127 187 238 282 337 392
#     4  11  24  44  65  94 132 178 225 295 361 425
#     4  11  25  49  79 107 135 176 228 292 382 447
#     4  10  23  42  60  93 135 180 239 290 343 406
#     4  12  24  37  60  88 136 181 244 284 334 410
#     4  12  26  36  56 100 138 190 250 290 316 410
#     4  10  23  48  73 100 149 179 224 300 366 432
#     4  11  22  42  61  97 141 194 231 286 346 401
#
# _framework density 22.760859
#
# number of rings (size 3 to 8) (size 9 to 14) (size 15 to 20)
#    0.000    1.067    5.333    1.600    3.733    2.133 
#    2.400    2.667    0.000    0.000    0.000    0.000 
#    0.000    0.000    0.000    0.000    0.000    0.000 
#
# Total GULP energy -743290.783988 kJ/mol
# GULP energy per Si atom -12388.179733 kJ/mol
# Density = 2.270905 g / cm^3
# Si number density = 22.760859 Si / 1000 Ang^3
#
#
#
# Elastic Constant Matrix: (Units=GPa)
#
#
# Indices 1 2 3 4 5 6 
#
# 1 69.7328 28.8513 32.7399 0.0000 0.0000 0.0000
# 2 28.8513 92.8941 40.7780 0.0000 0.0000 0.0000
# 3 32.7399 40.7780 117.8472 0.0000 0.0000 0.0000
# 4 0.0000 0.0000 0.0000 33.7336 0.0000 0.0000
# 5 0.0000 0.0000 0.0000 0.0000 20.3756 0.0000
# 6 0.0000 0.0000 0.0000 0.0000 0.0000 45.3979
#
#
#
# Elastic Compliance Matrix: (Units=1/GPa)
#
#
# Indices 1 2 3 4 5 6 
#
# 1 0.017624 -0.003920 -0.003540 0.000000 0.000000 0.000000
# 2 -0.003920 0.013565 -0.003605 0.000000 0.000000 0.000000
# 3 -0.003540 -0.003605 0.010716 0.000000 0.000000 0.000000
# 4 0.000000 0.000000 0.000000 0.029644 0.000000 0.000000
# 5 0.000000 0.000000 0.000000 0.000000 0.049078 0.000000
# 6 0.000000 0.000000 0.000000 0.000000 0.000000 0.022027
#
#
# Mechanical properties :
#
#
# Convention : Reuss Voigt Hill
#
# Bulk Modulus (GPa) = 50.56555 53.91248 52.23901
# Shear Modulus (GPa) = 29.17556 31.77508 30.47532
#
# Velocity S-wave (km/s) = 3.58415 3.74042 3.66312
# Velocity P-wave (km/s) = 6.27634 6.51093 6.39471
#
# Compressibility (1/GPa) = 0.01977631
#
# Stress axis : x y z
#
# Youngs Moduli (GPa) = 56.73992 73.72039 93.31530
#
# Poissons Ratio (x) = 0.28897 0.33033
# Poissons Ratio (y) = 0.22241 0.33638
# Poissons Ratio (z) = 0.20086 0.26574
#
# Static dielectric constant tensor:
#      x y z
#    x 3.786750 0.000000 0.000000 
#    y 0.000000 6.530040 0.000000 
#    z 0.000000 0.000000 4.464830 
# 
# 
# High freq. dielectric constant tensor:
#      x y z
#    x 1.852660 0.000000 0.000000 
#    y 0.000000 1.910870 0.000000 
#    z 0.000000 0.000000 1.904380 
# 
# From -- ./inp_files/5187.got.cif
#   From: 2010.03.12/outbox.cif.g09.slc.cpg/sg56_3_cif.got.tgz:5187.got - 2010.04.16 15:33:40.
