data_PCOD8229566
_publ_section_title
;
Structure prediction by ZEFSAII (Michael W. Deem and Ramdas Pophale) SiO2 
 PCOD8229566
Probable space group: P C C N
;
_chemical_formula_sum "Si O2"
_cell_formula_units_Z 56
_cell_length_a 21.978457
_cell_length_b 8.725814
_cell_length_c 14.095054
_cell_angle_alpha 90.000000
_cell_angle_beta 90.000000
_cell_angle_gamma 90.000000
_cell_volume 2703.148438
_symmetry_space_group_name_H-M "P C C N"
_symmetry_group_IT_number 56
_symmetry_cell_setting 'orthorhombic'
loop_
_space_group_symop_operation_xyz
x,y,z
1/2-x,1/2-y,z
1/2+x,-y,1/2-z
-x,1/2+y,1/2-z
-x,-y,-z
1/2+x,1/2+y,-z
1/2-x,y,1/2+z
x,1/2-y,1/2+z
loop_
_atom_site_type_symbol
_atom_site_label
_atom_site_fract_x
_atom_site_fract_y
_atom_site_fract_z
Si Si1 0.084606 0.864297 0.980551
Si Si2 0.998136 0.060526 0.859774
Si Si3 0.435387 0.526437 0.452131
Si Si4 0.181599 0.391146 0.035805
Si Si5 0.810692 0.665098 0.751081
Si Si6 0.565702 0.676452 0.733393
Si Si7 0.694547 0.944861 0.548128
O O1 0.077374 0.703567 0.925713
O O2 0.052846 0.005076 0.926377
O O3 0.154784 0.915262 0.994578
O O4 0.051884 0.842450 0.082116
O O5 0.026495 0.169333 0.779905
O O6 0.965602 0.912110 0.818449
O O7 0.500000 0.500000 0.500000
O O8 0.382848 0.472691 0.523616
O O9 0.431966 0.427408 0.358564
O O10 0.198779 0.413774 0.146758
O O11 0.176186 0.214675 0.002878
O O12 0.234242 0.475338 0.974128
O O13 0.750000 0.750000 0.720099
O O14 0.865994 0.783443 0.762853
O O15 0.820797 0.552367 0.661377
#
# Coordination Sequence:
#
# PCOD8229566 Si02
#       7
#     8   8   8   8   8   8   8
#     4  11  24  42  66  92 137 174 223 274 345 392
#     4  11  24  40  64  99 129 176 217 279 333 407
#     4  12  25  43  64  95 137 179 221 279 336 404
#     4  11  24  41  70  96 132 173 225 277 339 398
#     4  12  22  40  69 100 126 170 224 275 327 402
#     4  12  24  41  66  97 137 170 229 274 341 399
#     4  11  21  44  69  96 128 172 228 272 337 399
#
# _framework density 20.716584000000001
#
# number of rings (size 3 to 8) (size 9 to 14) (size 15 to 20)
#    0.000    0.571    7.143    1.714    6.000    0.571 
#    2.571    0.000    0.000    1.714    0.000    0.000 
#    0.000    0.000    0.000    0.000    0.000    0.000 
#
# Total GULP energy -694513.264278 kJ/mol
# GULP energy per Si atom -12402.022576 kJ/mol
# Density = 2.066943 g / cm^3
# Si number density = 20.716584 Si / 1000 Ang^3
#
#
#
# Elastic Constant Matrix: (Units=GPa)
#
#
# Indices 1 2 3 4 5 6 
#
# 1 148.4120 43.2913 17.7299 0.0000 0.0000 0.0000
# 2 43.2913 72.4768 2.8123 0.0000 0.0000 0.0000
# 3 17.7299 2.8123 90.7618 0.0000 0.0000 0.0000
# 4 0.0000 0.0000 0.0000 -11.9898 0.0000 0.0000
# 5 0.0000 0.0000 0.0000 0.0000 27.9062 0.0000
# 6 0.0000 0.0000 0.0000 0.0000 0.0000 36.0090
#
#
#
# Elastic Compliance Matrix: (Units=1/GPa)
#
#
# Indices 1 2 3 4 5 6 
#
# 1 0.008353 -0.004932 -0.001479 0.000000 0.000000 0.000000
# 2 -0.004932 0.016726 0.000445 0.000000 0.000000 0.000000
# 3 -0.001479 0.000445 0.011293 0.000000 0.000000 0.000000
# 4 0.000000 0.000000 0.000000 -0.083404 0.000000 0.000000
# 5 0.000000 0.000000 0.000000 0.000000 0.035834 0.000000
# 6 0.000000 0.000000 0.000000 0.000000 0.000000 0.027771
#
#
# Mechanical properties :
#
#
# Convention : Reuss Voigt Hill
#
# Bulk Modulus (GPa) = 40.91528 48.81305 44.86416
# Shear Modulus (GPa) = 136.41554 26.90620 81.66087
#
# Velocity S-wave (km/s) = 8.12351 3.60776 6.28520
# Velocity P-wave (km/s) = 10.38178 6.40063 8.62408
#
# Compressibility (1/GPa) = 0.02444075
#
# Stress axis : x y z
#
# Youngs Moduli (GPa) = 119.71194 59.78606 88.55069
#
# Poissons Ratio (x) = 0.29488 0.13096
# Poissons Ratio (y) = 0.59044 -0.03942
# Poissons Ratio (z) = 0.17705 -0.02662
#
# Static dielectric constant tensor:
#      x y z
#    x 4.281650 0.000000 0.000000 
#    y 0.000000 3.505230 0.000000 
#    z 0.000000 0.000000 4.292130 
# 
# 
# High freq. dielectric constant tensor:
#      x y z
#    x 1.830920 0.000000 0.000000 
#    y 0.000000 1.785330 0.000000 
#    z 0.000000 0.000000 1.813300 
# 
# From -- ./inp_files/13061.got.cif
#   From: 2010.03.12/outbox.cif.g09.slc.cpg/sg56_7_cif.got.tgz:13061.got - 2010.04.16 15:33:40.
