data_PCOD8229704
_publ_section_title
;
Structure prediction by ZEFSAII (Michael W. Deem and Ramdas Pophale) SiO2 
 PCOD8229704
Probable space group: P C C N
;
_chemical_formula_sum "Si O2"
_cell_formula_units_Z 60
_cell_length_a 8.981106
_cell_length_b 16.583925
_cell_length_c 18.709268
_cell_angle_alpha 90.000000
_cell_angle_beta 90.000000
_cell_angle_gamma 90.000000
_cell_volume 2786.595576
_symmetry_space_group_name_H-M "P C C N"
_symmetry_group_IT_number 56
_symmetry_cell_setting 'orthorhombic'
loop_
_space_group_symop_operation_xyz
x,y,z
1/2-x,1/2-y,z
1/2+x,-y,1/2-z
-x,1/2+y,1/2-z
-x,-y,-z
1/2+x,1/2+y,-z
1/2-x,y,1/2+z
x,1/2-y,1/2+z
loop_
_atom_site_type_symbol
_atom_site_label
_atom_site_fract_x
_atom_site_fract_y
_atom_site_fract_z
Si Si1 0.590178 0.725564 0.254252
Si Si2 0.250000 0.250000 0.003628
Si Si3 0.020887 0.767722 0.899547
Si Si4 0.051261 0.930624 0.209142
Si Si5 0.264085 0.653000 0.596331
Si Si6 0.750619 0.509273 0.171747
Si Si7 0.719016 0.122917 0.061129
Si Si8 0.593903 0.835805 0.123635
O O1 0.750000 0.750000 0.284680
O O2 0.486035 0.765340 0.313700
O O3 0.549387 0.631124 0.255205
O O4 0.575427 0.757075 0.173194
O O5 0.334876 0.185798 0.953068
O O6 0.371720 0.290838 0.056163
O O7 0.135606 0.839044 0.905293
O O8 0.078057 0.682330 0.931045
O O9 0.140000 0.881234 0.149001
O O10 0.173293 0.974924 0.257103
O O11 0.930263 0.993973 0.177527
O O12 0.250000 0.750000 0.588397
O O13 0.241764 0.608221 0.521280
O O14 0.429622 0.627044 0.618999
O O15 0.808423 0.460950 0.102184
O O16 0.798074 0.602056 0.163162
#
# Coordination Sequence:
#
# PCOD8229704 Si02
#       8
#     8   4   8   8   8   8   8   8
#     4  12  23  42  72 104 130 180 239 288 338 407
#     4  12  22  46  72 102 136 182 232 292 334 410
#     4  11  24  42  70 101 135 176 235 285 341 408
#     4  12  27  45  70 100 142 185 234 289 352 418
#     4  12  24  45  74 101 130 183 241 285 339 414
#     4  12  28  46  65 103 147 180 225 290 361 422
#     4  11  25  44  66  99 140 177 226 286 348 417
#     4  12  25  43  72 101 138 181 232 288 343 415
#
# _framework density 21.531649999999999
#
# number of rings (size 3 to 8) (size 9 to 14) (size 15 to 20)
#    0.000    0.267    8.000    0.800    5.600    1.067 
#    0.000    0.000    0.000    0.000    0.000    0.000 
#    0.000    0.000    0.000    0.000    0.000    0.000 
#
# Total GULP energy -743829.762287 kJ/mol
# GULP energy per Si atom -12397.162705 kJ/mol
# Density = 2.148264 g / cm^3
# Si number density = 21.531650 Si / 1000 Ang^3
#
#
#
# Elastic Constant Matrix: (Units=GPa)
#
#
# Indices 1 2 3 4 5 6 
#
# 1 123.6589 17.9710 22.2401 0.0000 0.0000 0.0000
# 2 17.9710 62.1461 18.1509 0.0000 0.0000 0.0000
# 3 22.2401 18.1509 97.7182 0.0000 0.0000 0.0000
# 4 0.0000 0.0000 0.0000 20.8466 0.0000 0.0000
# 5 0.0000 0.0000 0.0000 0.0000 31.6970 0.0000
# 6 0.0000 0.0000 0.0000 0.0000 0.0000 30.5272
#
#
#
# Elastic Compliance Matrix: (Units=1/GPa)
#
#
# Indices 1 2 3 4 5 6 
#
# 1 0.008670 -0.002042 -0.001594 0.000000 0.000000 0.000000
# 2 -0.002042 0.017495 -0.002785 0.000000 0.000000 0.000000
# 3 -0.001594 -0.002785 0.011114 0.000000 0.000000 0.000000
# 4 0.000000 0.000000 0.000000 0.047969 0.000000 0.000000
# 5 0.000000 0.000000 0.000000 0.000000 0.031549 0.000000
# 6 0.000000 0.000000 0.000000 0.000000 0.000000 0.032758
#
#
# Mechanical properties :
#
#
# Convention : Reuss Voigt Hill
#
# Bulk Modulus (GPa) = 40.92092 44.47193 42.69642
# Shear Modulus (GPa) = 29.31838 31.62492 30.47165
#
# Velocity S-wave (km/s) = 3.69405 3.83660 3.76600
# Velocity P-wave (km/s) = 6.10253 6.35020 6.22760
#
# Compressibility (1/GPa) = 0.02443738
#
# Stress axis : x y z
#
# Youngs Moduli (GPa) = 115.33817 57.15950 89.97977
#
# Poissons Ratio (x) = 0.11670 0.14343
# Poissons Ratio (y) = 0.23548 0.25059
# Poissons Ratio (z) = 0.18386 0.15919
#
# Static dielectric constant tensor:
#      x y z
#    x 3.861520 0.000000 0.000000 
#    y 0.000000 3.615520 0.000000 
#    z 0.000000 0.000000 3.923190 
# 
# 
# High freq. dielectric constant tensor:
#      x y z
#    x 1.864830 0.000000 0.000000 
#    y 0.000000 1.819640 0.000000 
#    z 0.000000 0.000000 1.857120 
# 
# From -- ./inp_files/15096.got.cif
#   From: 2010.03.12/outbox.cif.g09.slc.cpg/sg56_8_cif.got.tgz:15096.got - 2010.04.16 15:33:40.
