data_PCOD8229356
_publ_section_title
;
Structure prediction by ZEFSAII (Michael W. Deem and Ramdas Pophale) SiO2 
 PCOD8229356
Probable space group: P C C N
;
_chemical_formula_sum "Si O2"
_cell_formula_units_Z 16
_cell_length_a 6.678764
_cell_length_b 6.677199
_cell_length_c 14.100208
_cell_angle_alpha 90.000000
_cell_angle_beta 90.000000
_cell_angle_gamma 90.000000
_cell_volume 628.804928
_symmetry_space_group_name_H-M "P C C N"
_symmetry_group_IT_number 56
_symmetry_cell_setting 'orthorhombic'
loop_
_space_group_symop_operation_xyz
x,y,z
1/2-x,1/2-y,z
1/2+x,-y,1/2-z
-x,1/2+y,1/2-z
-x,-y,-z
1/2+x,1/2+y,-z
1/2-x,y,1/2+z
x,1/2-y,1/2+z
loop_
_atom_site_type_symbol
_atom_site_label
_atom_site_fract_x
_atom_site_fract_y
_atom_site_fract_z
Si Si1 0.048801 0.451102 0.123709
Si Si2 0.250000 0.750000 0.500019
Si Si3 0.750000 0.750000 0.705372
O O1 0.880289 0.619560 0.134126
O O2 0.236571 0.549932 0.066514
O O3 0.112962 0.386893 0.227853
O O4 0.950035 0.263318 0.066475
#
# Coordination Sequence:
#
# PCOD8229356 Si02
#       3
#     8   4   4
#     4  11  24  40  64  91 124 162 204 251 304 360
#     4  10  24  42  64  92 124 162 204 252 304 362
#     4  12  24  42  64  92 124 162 204 252 304 362
#
# _framework density 25.445091000000001
#
# number of rings (size 3 to 8) (size 9 to 14) (size 15 to 20)
#    0.000    1.000    0.000    6.000    0.000   12.000 
#    0.000    0.000    0.000    0.000    0.000    0.000 
#    0.000    0.000    0.000    0.000    0.000    0.000 
#
# Total GULP energy -198257.527089 kJ/mol
# GULP energy per Si atom -12391.095443 kJ/mol
# Density = 2.538718 g / cm^3
# Si number density = 25.445091 Si / 1000 Ang^3
#
#
#
# Elastic Constant Matrix: (Units=GPa)
#
#
# Indices 1 2 3 4 5 6 
#
# 1 137.7423 54.7680 41.2078 0.0000 0.0000 0.0000
# 2 54.7680 138.8585 41.5706 0.0000 0.0000 0.0000
# 3 41.2078 41.5706 116.3709 0.0000 0.0000 0.0000
# 4 0.0000 0.0000 0.0000 -20.2632 0.0000 0.0000
# 5 0.0000 0.0000 0.0000 0.0000 -20.2470 0.0000
# 6 0.0000 0.0000 0.0000 0.0000 0.0000 85.2751
#
#
#
# Elastic Compliance Matrix: (Units=1/GPa)
#
#
# Indices 1 2 3 4 5 6 
#
# 1 0.009073 -0.002930 -0.002166 0.000000 0.000000 0.000000
# 2 -0.002930 0.009010 -0.002181 0.000000 0.000000 0.000000
# 3 -0.002166 -0.002181 0.010139 0.000000 0.000000 0.000000
# 4 0.000000 0.000000 0.000000 -0.049351 0.000000 0.000000
# 5 0.000000 0.000000 0.000000 0.000000 -0.049390 0.000000
# 6 0.000000 0.000000 0.000000 0.000000 0.000000 0.011727
#
#
# Mechanical properties :
#
#
# Convention : Reuss Voigt Hill
#
# Bulk Modulus (GPa) = 73.16353 74.22938 73.69645
# Shear Modulus (GPa) = -126.00581 25.98134 -50.01223
#
# Velocity S-wave (km/s) = -7.04473 3.19889 -4.43820
# Velocity P-wave (km/s) = 6.11187 6.54825 1.66202
#
# Compressibility (1/GPa) = 0.01366801
#
# Stress axis : x y z
#
# Youngs Moduli (GPa) = 110.21727 110.98534 98.62509
#
# Poissons Ratio (x) = 0.32519 0.21363
# Poissons Ratio (y) = 0.32294 0.21511
# Poissons Ratio (z) = 0.23874 0.24207
#
# Static dielectric constant tensor:
#      x y z
#    x 4.476540 0.000000 0.000000 
#    y 0.000000 4.476470 0.000000 
#    z 0.000000 0.000000 4.546730 
# 
# 
# High freq. dielectric constant tensor:
#      x y z
#    x 2.003910 0.000000 0.000000 
#    y 0.000000 2.003850 0.000000 
#    z 0.000000 0.000000 2.042550 
# 
# From -- ./inp_files/5714.got.cif
#   From: 2010.03.12/outbox.cif.g09.slc.cpg/sg56_3_cif.got.tgz:5714.got - 2010.04.16 15:33:40.
