data_PCOD8229180
_publ_section_title
;
Structure prediction by ZEFSAII (Michael W. Deem and Ramdas Pophale) SiO2 
 PCOD8229180
Probable space group: P C C N
;
_chemical_formula_sum "Si O2"
_cell_formula_units_Z 40
_cell_length_a 8.185888
_cell_length_b 22.171152
_cell_length_c 9.342603
_cell_angle_alpha 90.000000
_cell_angle_beta 90.000000
_cell_angle_gamma 90.000000
_cell_volume 1695.594317
_symmetry_space_group_name_H-M "P C C N"
_symmetry_group_IT_number 56
_symmetry_cell_setting 'orthorhombic'
loop_
_space_group_symop_operation_xyz
x,y,z
1/2-x,1/2-y,z
1/2+x,-y,1/2-z
-x,1/2+y,1/2-z
-x,-y,-z
1/2+x,1/2+y,-z
1/2-x,y,1/2+z
x,1/2-y,1/2+z
loop_
_atom_site_type_symbol
_atom_site_label
_atom_site_fract_x
_atom_site_fract_y
_atom_site_fract_z
Si Si1 0.636583 0.368484 0.940083
Si Si2 0.042397 0.203524 0.738560
Si Si3 0.250000 0.750000 0.417758
Si Si4 0.750000 0.750000 0.500578
Si Si5 0.056338 0.049453 0.110776
Si Si6 0.864323 0.480624 0.889821
O O1 0.554877 0.358137 0.780929
O O2 0.759127 0.424347 0.944798
O O3 0.739422 0.309564 0.984467
O O4 0.485703 0.384257 0.047851
O O5 0.177510 0.198766 0.610772
O O6 0.910075 0.251212 0.682008
O O7 0.110321 0.224632 0.894479
O O8 0.953095 0.041548 0.251132
O O9 0.248964 0.039000 0.141225
O O10 0.000000 0.000000 0.000000
O O11 0.000000 0.500000 0.000000
#
# Coordination Sequence:
#
# PCOD8229180 Si02
#       6
#     8   8   4   4   8   8
#     4  11  24  45  73 113 144 202 248 307 375 448
#     4  11  23  46  69 104 150 203 251 297 369 452
#     4  12  24  46  74 108 158 196 254 300 374 468
#     4  10  24  46  68  98 156 204 244 302 358 448
#     4  10  22  44  71 103 141 186 246 304 372 437
#     4  11  24  49  76 104 144 190 254 317 375 446
#
# _framework density 23.590547999999998
#
# number of rings (size 3 to 8) (size 9 to 14) (size 15 to 20)
#    0.000    1.200    2.000    4.200    0.000    1.600 
#   14.400    0.000    0.000    0.000    0.000    0.000 
#    0.000    0.000    0.000    0.000    0.000    0.000 
#
# Total GULP energy -495578.022575 kJ/mol
# GULP energy per Si atom -12389.450564 kJ/mol
# Density = 2.353685 g / cm^3
# Si number density = 23.590548 Si / 1000 Ang^3
#
#
#
# Elastic Constant Matrix: (Units=GPa)
#
#
# Indices 1 2 3 4 5 6 
#
# 1 138.5451 43.8891 42.8099 0.0000 0.0000 0.0000
# 2 43.8891 97.0033 26.7994 0.0000 0.0000 0.0000
# 3 42.8099 26.7994 123.1978 0.0000 0.0000 0.0000
# 4 0.0000 0.0000 0.0000 33.3480 0.0000 0.0000
# 5 0.0000 0.0000 0.0000 0.0000 59.4418 0.0000
# 6 0.0000 0.0000 0.0000 0.0000 0.0000 34.7463
#
#
#
# Elastic Compliance Matrix: (Units=1/GPa)
#
#
# Indices 1 2 3 4 5 6 
#
# 1 0.009045 -0.003430 -0.002397 0.000000 0.000000 0.000000
# 2 -0.003430 0.012269 -0.001477 0.000000 0.000000 0.000000
# 3 -0.002397 -0.001477 0.009271 0.000000 0.000000 0.000000
# 4 0.000000 0.000000 0.000000 0.029987 0.000000 0.000000
# 5 0.000000 0.000000 0.000000 0.000000 0.016823 0.000000
# 6 0.000000 0.000000 0.000000 0.000000 0.000000 0.028780
#
#
# Mechanical properties :
#
#
# Convention : Reuss Voigt Hill
#
# Bulk Modulus (GPa) = 62.58931 65.08257 63.83594
# Shear Modulus (GPa) = 39.64814 41.85706 40.75260
#
# Velocity S-wave (km/s) = 4.10406 4.21683 4.16083
# Velocity P-wave (km/s) = 7.00334 7.16639 7.08534
#
# Compressibility (1/GPa) = 0.01597717
#
# Stress axis : x y z
#
# Youngs Moduli (GPa) = 110.55635 81.50640 107.86092
#
# Poissons Ratio (x) = 0.27959 0.25853
# Poissons Ratio (y) = 0.37924 0.15930
# Poissons Ratio (z) = 0.26499 0.12038
#
# Static dielectric constant tensor:
#      x y z
#    x 4.980610 0.000000 0.000000 
#    y 0.000000 4.340770 0.000000 
#    z 0.000000 0.000000 4.186070 
# 
# 
# High freq. dielectric constant tensor:
#      x y z
#    x 1.955920 0.000000 0.000000 
#    y 0.000000 1.908270 0.000000 
#    z 0.000000 0.000000 1.947750 
# 
# From -- ./inp_files/2074.got.cif
#   From: 2010.03.12/outbox.cif.g09.slc.cpg/sg56_2_cif.got.tgz:2074.got - 2010.04.16 15:33:40.
