data_PCOD8229557
_publ_section_title
;
Structure prediction by ZEFSAII (Michael W. Deem and Ramdas Pophale) SiO2 
 PCOD8229557
Probable space group: P C C N
;
_chemical_formula_sum "Si O2"
_cell_formula_units_Z 44
_cell_length_a 8.792945
_cell_length_b 13.303611
_cell_length_c 17.190177
_cell_angle_alpha 90.000000
_cell_angle_beta 90.000000
_cell_angle_gamma 90.000000
_cell_volume 2010.871147
_symmetry_space_group_name_H-M "P C C N"
_symmetry_group_IT_number 56
_symmetry_cell_setting 'orthorhombic'
loop_
_space_group_symop_operation_xyz
x,y,z
1/2-x,1/2-y,z
1/2+x,-y,1/2-z
-x,1/2+y,1/2-z
-x,-y,-z
1/2+x,1/2+y,-z
1/2-x,y,1/2+z
x,1/2-y,1/2+z
loop_
_atom_site_type_symbol
_atom_site_label
_atom_site_fract_x
_atom_site_fract_y
_atom_site_fract_z
Si Si1 0.262725 0.099068 0.914786
Si Si2 0.059483 0.616142 0.664927
Si Si3 0.750000 0.250000 0.068865
Si Si4 0.701132 0.999104 0.924287
Si Si5 0.952047 0.212490 0.435831
Si Si6 0.579113 0.419298 0.655495
O O1 0.364667 0.199906 0.929349
O O2 0.101319 0.119605 0.878099
O O3 0.353101 0.030641 0.852175
O O4 0.232345 0.043058 0.996044
O O5 0.163304 0.523318 0.635998
O O6 0.120361 0.726071 0.637461
O O7 0.043194 0.609426 0.756378
O O8 0.793654 0.343431 0.123128
O O9 0.602968 0.273468 0.013475
O O10 0.613384 0.100988 0.944427
O O11 0.583503 0.917150 0.888830
#
# Coordination Sequence:
#
# PCOD8229557 Si02
#       6
#     8   8   4   8   8   8
#     4  11  22  44  66  92 134 174 223 278 331 413
#     4  12  24  38  66  99 136 171 218 282 353 390
#     4  12  20  40  70  96 124 174 236 262 328 404
#     4  11  21  42  67  92 128 178 223 268 330 414
#     4  11  21  41  67  93 123 176 225 267 322 406
#     4  11  24  40  65  98 134 170 222 283 337 409
#
# _framework density 21.881065
#
# number of rings (size 3 to 8) (size 9 to 14) (size 15 to 20)
#    0.000    0.727    5.455    3.273    2.545    0.000 
#    0.000    0.000    8.000    0.000    0.000    0.000 
#    0.000    0.000    0.000    0.000    0.000    0.000 
#
# Total GULP energy -545304.986775 kJ/mol
# GULP energy per Si atom -12393.295154 kJ/mol
# Density = 2.183126 g / cm^3
# Si number density = 21.881065 Si / 1000 Ang^3
#
#
#
# Elastic Constant Matrix: (Units=GPa)
#
#
# Indices 1 2 3 4 5 6 
#
# 1 144.4085 40.2846 48.9811 0.0000 0.0000 0.0000
# 2 40.2846 69.6285 51.0971 0.0000 0.0000 0.0000
# 3 48.9811 51.0971 160.8996 0.0000 0.0000 0.0000
# 4 0.0000 0.0000 0.0000 29.0651 0.0000 0.0000
# 5 0.0000 0.0000 0.0000 0.0000 52.6001 0.0000
# 6 0.0000 0.0000 0.0000 0.0000 0.0000 36.3799
#
#
#
# Elastic Compliance Matrix: (Units=1/GPa)
#
#
# Indices 1 2 3 4 5 6 
#
# 1 0.008471 -0.003923 -0.001333 0.000000 0.000000 0.000000
# 2 -0.003923 0.020543 -0.005330 0.000000 0.000000 0.000000
# 3 -0.001333 -0.005330 0.008313 0.000000 0.000000 0.000000
# 4 0.000000 0.000000 0.000000 0.034405 0.000000 0.000000
# 5 0.000000 0.000000 0.000000 0.000000 0.019011 0.000000
# 6 0.000000 0.000000 0.000000 0.000000 0.000000 0.027488
#
#
# Mechanical properties :
#
#
# Convention : Reuss Voigt Hill
#
# Bulk Modulus (GPa) = 61.89517 72.85135 67.37326
# Shear Modulus (GPa) = 34.53314 39.24728 36.89021
#
# Velocity S-wave (km/s) = 3.97699 4.23976 4.11048
# Velocity P-wave (km/s) = 7.03115 7.57192 7.30654
#
# Compressibility (1/GPa) = 0.01615635
#
# Stress axis : x y z
#
# Youngs Moduli (GPa) = 118.04565 48.67901 120.28824
#
# Poissons Ratio (x) = 0.19097 0.16035
# Poissons Ratio (y) = 0.46309 0.64108
# Poissons Ratio (z) = 0.15736 0.25944
#
# Static dielectric constant tensor:
#      x y z
#    x 4.272290 0.000000 0.000000 
#    y 0.000000 4.110980 0.000000 
#    z 0.000000 0.000000 3.968440 
# 
# 
# High freq. dielectric constant tensor:
#      x y z
#    x 1.875020 0.000000 0.000000 
#    y 0.000000 1.856750 0.000000 
#    z 0.000000 0.000000 1.849940 
# 
# From -- ./inp_files/14691.got.cif
#   From: 2010.03.12/outbox.cif.g09.slc.cpg/sg56_8_cif.got.tgz:14691.got - 2010.04.16 15:33:40.
