data_PCOD8229869
_publ_section_title
;
Structure prediction by ZEFSAII (Michael W. Deem and Ramdas Pophale) SiO2 
 PCOD8229869
Probable space group: P C C N
;
_chemical_formula_sum "Si O2"
_cell_formula_units_Z 40
_cell_length_a 17.645033
_cell_length_b 9.095645
_cell_length_c 9.921868
_cell_angle_alpha 90.000000
_cell_angle_beta 90.000000
_cell_angle_gamma 90.000000
_cell_volume 1592.389926
_symmetry_space_group_name_H-M "P C C N"
_symmetry_group_IT_number 56
_symmetry_cell_setting 'orthorhombic'
loop_
_space_group_symop_operation_xyz
x,y,z
1/2-x,1/2-y,z
1/2+x,-y,1/2-z
-x,1/2+y,1/2-z
-x,-y,-z
1/2+x,1/2+y,-z
1/2-x,y,1/2+z
x,1/2-y,1/2+z
loop_
_atom_site_type_symbol
_atom_site_label
_atom_site_fract_x
_atom_site_fract_y
_atom_site_fract_z
Si Si1 0.782503 0.910250 0.349992
Si Si2 0.353107 0.614264 0.108384
Si Si3 0.466478 0.381572 0.203148
Si Si4 0.362982 0.868802 0.309014
Si Si5 0.435445 0.374741 0.497085
O O1 0.750000 0.750000 0.316632
O O2 0.851789 0.922299 0.455589
O O3 0.713052 0.997996 0.412442
O O4 0.809851 0.987977 0.211343
O O5 0.430193 0.534145 0.153407
O O6 0.331456 0.738230 0.215557
O O7 0.364338 0.688085 0.962260
O O8 0.553342 0.416179 0.238122
O O9 0.426006 0.325636 0.340519
O O10 0.461992 0.260856 0.087172
O O11 0.500000 0.500000 0.500000
#
# Coordination Sequence:
#
# PCOD8229869 Si02
#       5
#     8   8   8   8   8
#     4  12  29  52  83 120 165 215 274 342 413 492
#     4  12  30  51  83 119 170 212 275 337 423 490
#     4  12  27  51  86 117 158 215 277 342 414 494
#     4  12  29  52  81 121 163 215 268 338 411 499
#     4  12  27  52  81 122 163 212 276 344 411 497
#
# _framework density 25.119475000000001
#
# number of rings (size 3 to 8) (size 9 to 14) (size 15 to 20)
#    0.000    0.000    4.000    3.600    8.400    2.400 
#    0.000    0.000    0.000    0.000    0.000    0.000 
#    0.000    0.000    0.000    0.000    0.000    0.000 
#
# Total GULP energy -496166.507993 kJ/mol
# GULP energy per Si atom -12404.162700 kJ/mol
# Density = 2.506230 g / cm^3
# Si number density = 25.119475 Si / 1000 Ang^3
#
#
#
# Elastic Constant Matrix: (Units=GPa)
#
#
# Indices 1 2 3 4 5 6 
#
# 1 117.2157 56.5736 9.9645 0.0000 0.0000 0.0000
# 2 56.5736 156.2772 74.4928 0.0000 0.0000 0.0000
# 3 9.9645 74.4928 198.4056 0.0000 0.0000 0.0000
# 4 0.0000 0.0000 0.0000 31.3010 0.0000 0.0000
# 5 0.0000 0.0000 0.0000 0.0000 15.4854 0.0000
# 6 0.0000 0.0000 0.0000 0.0000 0.0000 50.5544
#
#
#
# Elastic Compliance Matrix: (Units=1/GPa)
#
#
# Indices 1 2 3 4 5 6 
#
# 1 0.010531 -0.004336 0.001099 0.000000 0.000000 0.000000
# 2 -0.004336 0.009579 -0.003379 0.000000 0.000000 0.000000
# 3 0.001099 -0.003379 0.006254 0.000000 0.000000 0.000000
# 4 0.000000 0.000000 0.000000 0.031948 0.000000 0.000000
# 5 0.000000 0.000000 0.000000 0.000000 0.064577 0.000000
# 6 0.000000 0.000000 0.000000 0.000000 0.000000 0.019781
#
#
# Mechanical properties :
#
#
# Convention : Reuss Voigt Hill
#
# Bulk Modulus (GPa) = 76.15065 83.77336 79.96200
# Shear Modulus (GPa) = 31.19590 41.52601 36.36095
#
# Velocity S-wave (km/s) = 3.52788 4.07029 3.80876
# Velocity P-wave (km/s) = 6.85389 7.45064 7.15849
#
# Compressibility (1/GPa) = 0.01313186
#
# Stress axis : x y z
#
# Youngs Moduli (GPa) = 94.96093 104.39323 159.90864
#
# Poissons Ratio (x) = 0.45266 -0.17576
# Poissons Ratio (y) = 0.41176 0.54030
# Poissons Ratio (z) = -0.10438 0.35272
#
# Static dielectric constant tensor:
#      x y z
#    x 4.931990 0.000000 0.000000 
#    y 0.000000 4.638550 0.000000 
#    z 0.000000 0.000000 4.673660 
# 
# 
# High freq. dielectric constant tensor:
#      x y z
#    x 2.023050 0.000000 0.000000 
#    y 0.000000 1.998960 0.000000 
#    z 0.000000 0.000000 2.009950 
# 
# From -- ./inp_files/8166.got.cif
#   From: 2010.03.12/outbox.cif.g09.slc.cpg/sg56_5_cif.got.tgz:8166.got - 2010.04.16 15:33:40.
