data_PCOD8229941
_publ_section_title
;
Structure prediction by ZEFSAII (Michael W. Deem and Ramdas Pophale) SiO2 
 PCOD8229941
Probable space group: P B C M
;
_chemical_formula_sum "Si O2"
_cell_formula_units_Z 48
_cell_length_a 12.158018
_cell_length_b 25.639644
_cell_length_c 9.322075
_cell_angle_alpha 90.000000
_cell_angle_beta 90.000000
_cell_angle_gamma 90.000000
_cell_volume 2905.944834
_symmetry_space_group_name_H-M "P B C M"
_symmetry_group_IT_number 57
_symmetry_cell_setting 'orthorhombic'
loop_
_space_group_symop_operation_xyz
x,y,z
-x,-y,1/2+z
x,1/2-y,-z
-x,1/2+y,1/2-z
-x,-y,-z
x,y,1/2-z
-x,1/2+y,z
x,1/2-y,1/2+z
loop_
_atom_site_type_symbol
_atom_site_label
_atom_site_fract_x
_atom_site_fract_y
_atom_site_fract_z
Si Si1 0.156643 0.043058 0.087033
Si Si2 0.779073 0.426725 0.088661
Si Si3 0.674806 0.603563 0.913537
Si Si4 0.174463 0.197095 0.915391
Si Si5 0.457020 0.550347 0.583011
Si Si6 0.001663 0.613805 0.920214
O O1 0.148490 0.063317 0.250000
O O2 0.155937 0.980997 0.080280
O O3 0.271476 0.061939 0.019701
O O4 0.055388 0.064984 0.996765
O O5 0.751713 0.410312 0.250000
O O6 0.659128 0.429874 0.012654
O O7 0.869301 0.384785 0.028331
O O8 0.710232 0.590224 0.750000
O O9 0.718526 0.661543 0.950467
O O10 0.543298 0.598213 0.932172
O O11 0.169366 0.212049 0.750000
O O12 0.062621 0.166772 0.961847
O O13 0.185601 0.250000 0.000000
O O14 0.500000 0.500000 0.500000
O O15 0.441027 0.534323 0.750000
O O16 0.994790 0.603982 0.750000
#
# Coordination Sequence:
#
# PCOD8229941 Si02
#       6
#     8   8   8   8   8   8
#     4  10  17  26  43  68  95 122 155 189 222 261
#     4   9  17  28  44  66  94 126 156 184 217 267
#     4   9  18  31  47  68  95 125 156 188 227 276
#     4   9  18  32  50  69  86 113 152 196 243 281
#     4  10  18  30  47  68  96 129 160 187 219 267
#     4   9  18  32  46  64  92 122 153 186 230 282
#
# _framework density 16.517863999999999
#
# number of rings (size 3 to 8) (size 9 to 14) (size 15 to 20)
#    0.000    2.667    1.667    2.000    0.000    2.667 
#    0.000    1.667    0.000    1.000    0.000    0.000 
#    0.000    0.000    0.000    0.000    0.000    0.667 
#
# Total GULP energy -594690.702218 kJ/mol
# GULP energy per Si atom -12389.389630 kJ/mol
# Density = 1.648027 g / cm^3
# Si number density = 16.517864 Si / 1000 Ang^3
#
#
#
# Elastic Constant Matrix: (Units=GPa)
#
#
# Indices 1 2 3 4 5 6 
#
# 1 149.9521 52.3171 26.7794 0.0000 0.0000 0.0000
# 2 52.3171 73.8307 25.0274 0.0000 0.0000 0.0000
# 3 26.7794 25.0274 42.9446 0.0000 0.0000 0.0000
# 4 0.0000 0.0000 0.0000 23.9288 0.0000 0.0000
# 5 0.0000 0.0000 0.0000 0.0000 17.0321 0.0000
# 6 0.0000 0.0000 0.0000 0.0000 0.0000 15.8359
#
#
#
# Elastic Compliance Matrix: (Units=1/GPa)
#
#
# Indices 1 2 3 4 5 6 
#
# 1 0.009049 -0.005607 -0.002375 0.000000 0.000000 0.000000
# 2 -0.005607 0.020353 -0.008365 0.000000 0.000000 0.000000
# 3 -0.002375 -0.008365 0.029642 0.000000 0.000000 0.000000
# 4 0.000000 0.000000 0.000000 0.041791 0.000000 0.000000
# 5 0.000000 0.000000 0.000000 0.000000 0.058713 0.000000
# 6 0.000000 0.000000 0.000000 0.000000 0.000000 0.063148
#
#
# Mechanical properties :
#
#
# Convention : Reuss Voigt Hill
#
# Bulk Modulus (GPa) = 37.95108 52.77503 45.36306
# Shear Modulus (GPa) = 18.92692 22.19959 20.56325
#
# Velocity S-wave (km/s) = 3.38871 3.67000 3.53216
# Velocity P-wave (km/s) = 6.19167 7.06953 6.64511
#
# Compressibility (1/GPa) = 0.02634971
#
# Stress axis : x y z
#
# Youngs Moduli (GPa) = 110.50578 49.13161 33.73605
#
# Poissons Ratio (x) = 0.27550 0.08013
# Poissons Ratio (y) = 0.61964 0.28220
# Poissons Ratio (z) = 0.26247 0.41099
#
# Static dielectric constant tensor:
#      x y z
#    x 3.550430 0.000000 0.000000 
#    y 0.000000 2.793350 0.000000 
#    z 0.000000 0.000000 3.040250 
# 
# 
# High freq. dielectric constant tensor:
#      x y z
#    x 1.648650 0.000000 0.000000 
#    y 0.000000 1.596110 0.000000 
#    z 0.000000 0.000000 1.622470 
# 
# From -- ./inp_files/3268.got.cif
#   From: 2010.03.12/outbox.cif.g09.slc.cpg/sg57_2_cif.got.tgz:3268.got - 2010.04.16 15:48:40.
