data_PCOD8229545
_publ_section_title
;
Structure prediction by ZEFSAII (Michael W. Deem and Ramdas Pophale) SiO2 
 PCOD8229545
Probable space group: P C C N
;
_chemical_formula_sum "Si O2"
_cell_formula_units_Z 48
_cell_length_a 5.073162
_cell_length_b 17.117400
_cell_length_c 26.276456
_cell_angle_alpha 90.000000
_cell_angle_beta 90.000000
_cell_angle_gamma 90.000000
_cell_volume 2281.830181
_symmetry_space_group_name_H-M "P C C N"
_symmetry_group_IT_number 56
_symmetry_cell_setting 'orthorhombic'
loop_
_space_group_symop_operation_xyz
x,y,z
1/2-x,1/2-y,z
1/2+x,-y,1/2-z
-x,1/2+y,1/2-z
-x,-y,-z
1/2+x,1/2+y,-z
1/2-x,y,1/2+z
x,1/2-y,1/2+z
loop_
_atom_site_type_symbol
_atom_site_label
_atom_site_fract_x
_atom_site_fract_y
_atom_site_fract_z
Si Si1 0.460529 0.542478 0.112416
Si Si2 0.506339 0.801926 0.554880
Si Si3 0.024885 0.948625 0.405738
Si Si4 0.710449 0.659379 0.845035
Si Si5 0.622725 0.333066 0.052998
Si Si6 0.433490 0.020304 0.718697
O O1 0.459389 0.631845 0.096302
O O2 0.757447 0.511892 0.109432
O O3 0.364083 0.534877 0.170600
O O4 0.246706 0.493124 0.078786
O O5 0.750000 0.750000 0.572775
O O6 0.555050 0.836814 0.498092
O O7 0.250000 0.750000 0.551853
O O8 0.143449 0.897544 0.452381
O O9 0.982144 0.886810 0.358491
O O10 0.750000 0.750000 0.829738
O O11 0.549962 0.648535 0.897466
O O12 0.573572 0.612210 0.798592
O O13 0.750000 0.250000 0.061845
O O14 0.723457 0.999102 0.737932
#
# Coordination Sequence:
#
# PCOD8229545 Si02
#       6
#     8   8   8   8   8   8
#     4  11  24  44  66  91 130 174 215 271 331 393
#     4  11  26  44  65  94 133 184 224 262 318 396
#     4  11  21  38  63  98 128 164 207 264 331 386
#     4  11  22  40  68  98 131 169 210 273 335 398
#     4  11  22  37  67  98 140 167 213 268 327 385
#     4  11  24  43  66  92 128 164 215 278 334 380
#
# _framework density 21.035746
#
# number of rings (size 3 to 8) (size 9 to 14) (size 15 to 20)
#    0.000    1.000    5.000    3.500    2.333    1.333 
#    0.000    2.500    0.000    0.000    0.000    0.000 
#    0.000    0.000    0.000    0.000    0.000    0.000 
#
# Total GULP energy -594964.175435 kJ/mol
# GULP energy per Si atom -12395.086988 kJ/mol
# Density = 2.098787 g / cm^3
# Si number density = 21.035746 Si / 1000 Ang^3
#
#
#
# Elastic Constant Matrix: (Units=GPa)
#
#
# Indices 1 2 3 4 5 6 
#
# 1 102.2159 40.8829 17.1429 0.0000 0.0000 0.0000
# 2 40.8829 142.0202 54.5545 0.0000 0.0000 0.0000
# 3 17.1429 54.5545 69.5717 0.0000 0.0000 0.0000
# 4 0.0000 0.0000 0.0000 42.0483 0.0000 0.0000
# 5 0.0000 0.0000 0.0000 0.0000 178.4585 0.0000
# 6 0.0000 0.0000 0.0000 0.0000 0.0000 42.7023
#
#
#
# Elastic Compliance Matrix: (Units=1/GPa)
#
#
# Indices 1 2 3 4 5 6 
#
# 1 0.011061 -0.003058 -0.000327 0.000000 0.000000 0.000000
# 2 -0.003058 0.010922 -0.007811 0.000000 0.000000 0.000000
# 3 -0.000327 -0.007811 0.020579 0.000000 0.000000 0.000000
# 4 0.000000 0.000000 0.000000 0.023782 0.000000 0.000000
# 5 0.000000 0.000000 0.000000 0.000000 0.005604 0.000000
# 6 0.000000 0.000000 0.000000 0.000000 0.000000 0.023418
#
#
# Mechanical properties :
#
#
# Convention : Reuss Voigt Hill
#
# Bulk Modulus (GPa) = 49.58018 59.88537 54.73277
# Shear Modulus (GPa) = 40.16614 66.05697 53.11156
#
# Velocity S-wave (km/s) = 4.37443 5.60985 5.03021
# Velocity P-wave (km/s) = 7.00963 8.39588 7.73388
#
# Compressibility (1/GPa) = 0.02016935
#
# Stress axis : x y z
#
# Youngs Moduli (GPa) = 90.40447 91.55726 48.59265
#
# Poissons Ratio (x) = 0.28003 0.01590
# Poissons Ratio (y) = 0.27650 0.37955
# Poissons Ratio (z) = 0.02959 0.71515
#
# Static dielectric constant tensor:
#      x y z
#    x 3.960980 0.000000 0.000000 
#    y 0.000000 3.948570 0.000000 
#    z 0.000000 0.000000 3.697390 
# 
# 
# High freq. dielectric constant tensor:
#      x y z
#    x 1.840840 0.000000 0.000000 
#    y 0.000000 1.829240 0.000000 
#    z 0.000000 0.000000 1.788490 
# 
# From -- ./inp_files/21675.got.cif
#   From: 2010.03.12/outbox.cif.g09.slc.cpg/sg56_11_cif.got.tgz:21675.got - 2010.04.16 15:33:40.
