data_PCOD8229621
_publ_section_title
;
Structure prediction by ZEFSAII (Michael W. Deem and Ramdas Pophale) SiO2 
 PCOD8229621
Probable space group: P C C N
;
_chemical_formula_sum "Si O2"
_cell_formula_units_Z 40
_cell_length_a 14.840102
_cell_length_b 10.674993
_cell_length_c 10.467000
_cell_angle_alpha 90.000000
_cell_angle_beta 90.000000
_cell_angle_gamma 90.000000
_cell_volume 1658.161049
_symmetry_space_group_name_H-M "P C C N"
_symmetry_group_IT_number 56
_symmetry_cell_setting 'orthorhombic'
loop_
_space_group_symop_operation_xyz
x,y,z
1/2-x,1/2-y,z
1/2+x,-y,1/2-z
-x,1/2+y,1/2-z
-x,-y,-z
1/2+x,1/2+y,-z
1/2-x,y,1/2+z
x,1/2-y,1/2+z
loop_
_atom_site_type_symbol
_atom_site_label
_atom_site_fract_x
_atom_site_fract_y
_atom_site_fract_z
Si Si1 0.688216 0.631777 0.992639
Si Si2 0.061085 0.846888 0.751223
Si Si3 0.009837 0.837737 0.036045
Si Si4 0.744973 0.108814 0.638877
Si Si5 0.102635 0.007562 0.212992
O O1 0.750000 0.750000 0.018854
O O2 0.596043 0.663112 0.068358
O O3 0.736980 0.502430 0.036473
O O4 0.669444 0.617469 0.838924
O O5 0.161672 0.903755 0.761320
O O6 0.061466 0.744148 0.642146
O O7 0.984074 0.946902 0.705945
O O8 0.033143 0.794146 0.892327
O O9 0.059003 0.969485 0.072717
O O10 0.750000 0.250000 0.578343
O O11 0.840964 0.095574 0.710689
#
# Coordination Sequence:
#
# PCOD8229621 Si02
#       5
#     8   8   8   8   8
#     4  11  24  45  70 101 144 194 242 298 362 437
#     4  11  23  45  71 101 142 189 236 300 363 432
#     4  11  22  45  71  99 146 190 235 298 372 425
#     4  12  24  40  71 105 138 185 244 299 355 433
#     4  11  23  43  69 100 143 193 237 296 366 430
#
# _framework density 24.12311
#
# number of rings (size 3 to 8) (size 9 to 14) (size 15 to 20)
#    0.000    0.800    6.000    2.400    0.000    6.400 
#    0.000    1.000    0.000    0.000    0.000    0.000 
#    0.000    0.000    0.000    0.000    0.000    0.000 
#
# Total GULP energy -495598.882331 kJ/mol
# GULP energy per Si atom -12389.972058 kJ/mol
# Density = 2.406820 g / cm^3
# Si number density = 24.123110 Si / 1000 Ang^3
#
#
#
# Elastic Constant Matrix: (Units=GPa)
#
#
# Indices 1 2 3 4 5 6 
#
# 1 149.7935 46.6518 15.8720 0.0000 0.0000 0.0000
# 2 46.6518 96.4039 5.8365 0.0000 0.0000 0.0000
# 3 15.8720 5.8365 53.1584 0.0000 0.0000 0.0000
# 4 0.0000 0.0000 0.0000 18.9136 0.0000 0.0000
# 5 0.0000 0.0000 0.0000 0.0000 127.3005 0.0000
# 6 0.0000 0.0000 0.0000 0.0000 0.0000 46.1572
#
#
#
# Elastic Compliance Matrix: (Units=1/GPa)
#
#
# Indices 1 2 3 4 5 6 
#
# 1 0.008065 -0.003782 -0.001993 0.000000 0.000000 0.000000
# 2 -0.003782 0.012216 -0.000212 0.000000 0.000000 0.000000
# 3 -0.001993 -0.000212 0.019430 0.000000 0.000000 0.000000
# 4 0.000000 0.000000 0.000000 0.052872 0.000000 0.000000
# 5 0.000000 0.000000 0.000000 0.000000 0.007855 0.000000
# 6 0.000000 0.000000 0.000000 0.000000 0.000000 0.021665
#
#
# Mechanical properties :
#
#
# Convention : Reuss Voigt Hill
#
# Bulk Modulus (GPa) = 36.05261 48.45292 42.25276
# Shear Modulus (GPa) = 34.88626 53.87397 44.38012
#
# Velocity S-wave (km/s) = 3.80699 4.73090 4.29387
# Velocity P-wave (km/s) = 5.85678 7.06903 6.49127
#
# Compressibility (1/GPa) = 0.02773724
#
# Stress axis : x y z
#
# Youngs Moduli (GPa) = 123.99387 81.85917 51.46685
#
# Poissons Ratio (x) = 0.30960 0.10256
# Poissons Ratio (y) = 0.46896 0.01091
# Poissons Ratio (z) = 0.24709 0.01735
#
# Static dielectric constant tensor:
#      x y z
#    x 4.784610 0.000000 0.000000 
#    y 0.000000 4.313020 0.000000 
#    z 0.000000 0.000000 3.838480 
# 
# 
# High freq. dielectric constant tensor:
#      x y z
#    x 1.987610 0.000000 0.000000 
#    y 0.000000 1.952400 0.000000 
#    z 0.000000 0.000000 1.924270 
# 
# From -- ./inp_files/6993.got.cif
#   From: 2010.03.12/outbox.cif.g09.slc.cpg/sg56_4_cif.got.tgz:6993.got - 2010.04.16 15:33:40.
