data_PCOD8229412
_publ_section_title
;
Structure prediction by ZEFSAII (Michael W. Deem and Ramdas Pophale) SiO2 
 PCOD8229412
Probable space group: P C C N
;
_chemical_formula_sum "Si O2"
_cell_formula_units_Z 60
_cell_length_a 22.704397
_cell_length_b 8.524206
_cell_length_c 14.022610
_cell_angle_alpha 90.000000
_cell_angle_beta 90.000000
_cell_angle_gamma 90.000000
_cell_volume 2713.893270
_symmetry_space_group_name_H-M "P C C N"
_symmetry_group_IT_number 56
_symmetry_cell_setting 'orthorhombic'
loop_
_space_group_symop_operation_xyz
x,y,z
1/2-x,1/2-y,z
1/2+x,-y,1/2-z
-x,1/2+y,1/2-z
-x,-y,-z
1/2+x,1/2+y,-z
1/2-x,y,1/2+z
x,1/2-y,1/2+z
loop_
_atom_site_type_symbol
_atom_site_label
_atom_site_fract_x
_atom_site_fract_y
_atom_site_fract_z
Si Si1 0.345599 0.484374 0.466220
Si Si2 0.503558 0.294553 0.167969
Si Si3 0.136133 0.692333 0.787983
Si Si4 0.031473 0.339759 0.981458
Si Si5 0.458049 0.120665 0.323513
Si Si6 0.181715 0.789422 0.077353
Si Si7 0.250000 0.250000 0.426971
Si Si8 0.163799 0.508274 0.392948
O O1 0.345155 0.546768 0.356187
O O2 0.399187 0.367753 0.484538
O O3 0.349341 0.631635 0.537812
O O4 0.289392 0.372744 0.487948
O O5 0.566732 0.223797 0.199344
O O6 0.491945 0.284667 0.056880
O O7 0.450527 0.198424 0.219362
O O8 0.497640 0.476923 0.192395
O O9 0.152762 0.658878 0.677939
O O10 0.173241 0.846260 0.821160
O O11 0.011533 0.261386 0.882594
O O12 0.000000 0.500000 0.000000
O O13 0.400926 0.061534 0.378523
O O14 0.250000 0.750000 0.090650
O O15 0.172150 0.931483 0.001936
O O16 0.207983 0.365991 0.365427
#
# Coordination Sequence:
#
# PCOD8229412 Si02
#       8
#     8   8   8   8   8   8   4   8
#     4  11  25  45  70 100 138 182 232 290 347 422
#     4  11  25  43  70  99 143 180 235 289 353 431
#     4  10  25  44  70 103 135 180 233 285 352 421
#     4  12  24  44  69  99 140 189 227 286 359 418
#     4  11  25  45  67 105 138 181 234 295 346 420
#     4  11  24  44  73  98 136 183 232 284 355 420
#     4  12  22  46  68  94 142 174 228 292 340 414
#     4  10  24  46  68 100 138 182 227 288 346 413
#
# _framework density 22.108459
#
# number of rings (size 3 to 8) (size 9 to 14) (size 15 to 20)
#    0.000    1.067    4.000    1.200    7.467    1.067 
#    0.000    2.667    0.000    0.000    0.000    0.000 
#    0.000    0.000    0.000    0.000    0.000    0.000 
#
# Total GULP energy -743582.124934 kJ/mol
# GULP energy per Si atom -12393.035416 kJ/mol
# Density = 2.205814 g / cm^3
# Si number density = 22.108459 Si / 1000 Ang^3
#
#
#
# Elastic Constant Matrix: (Units=GPa)
#
#
# Indices 1 2 3 4 5 6 
#
# 1 69.5588 39.4471 28.2802 0.0000 0.0000 0.0000
# 2 39.4471 124.0929 23.5479 0.0000 0.0000 0.0000
# 3 28.2802 23.5479 95.4892 0.0000 0.0000 0.0000
# 4 0.0000 0.0000 0.0000 33.4200 0.0000 0.0000
# 5 0.0000 0.0000 0.0000 0.0000 27.2016 0.0000
# 6 0.0000 0.0000 0.0000 0.0000 0.0000 44.1919
#
#
#
# Elastic Compliance Matrix: (Units=1/GPa)
#
#
# Indices 1 2 3 4 5 6 
#
# 1 0.019132 -0.005252 -0.004371 0.000000 0.000000 0.000000
# 2 -0.005252 0.009896 -0.000885 0.000000 0.000000 0.000000
# 3 -0.004371 -0.000885 0.011985 0.000000 0.000000 0.000000
# 4 0.000000 0.000000 0.000000 0.029922 0.000000 0.000000
# 5 0.000000 0.000000 0.000000 0.000000 0.036762 0.000000
# 6 0.000000 0.000000 0.000000 0.000000 0.000000 0.022629
#
#
# Mechanical properties :
#
#
# Convention : Reuss Voigt Hill
#
# Bulk Modulus (GPa) = 50.00769 52.41014 51.20891
# Shear Modulus (GPa) = 31.64392 34.15375 32.89884
#
# Velocity S-wave (km/s) = 3.78736 3.93469 3.86173
# Velocity P-wave (km/s) = 6.46482 6.66332 6.56482
#
# Compressibility (1/GPa) = 0.01999693
#
# Stress axis : x y z
#
# Youngs Moduli (GPa) = 52.26840 101.05072 83.43696
#
# Poissons Ratio (x) = 0.53075 0.36470
# Poissons Ratio (y) = 0.27453 0.07383
# Poissons Ratio (z) = 0.22846 0.08941
#
# Static dielectric constant tensor:
#      x y z
#    x 4.214040 0.000000 0.000000 
#    y 0.000000 4.264790 0.000000 
#    z 0.000000 0.000000 3.776290 
# 
# 
# High freq. dielectric constant tensor:
#      x y z
#    x 1.866800 0.000000 0.000000 
#    y 0.000000 1.891960 0.000000 
#    z 0.000000 0.000000 1.854630 
# 
# From -- ./inp_files/13259.got.cif
#   From: 2010.03.12/outbox.cif.g09.slc.cpg/sg56_7_cif.got.tgz:13259.got - 2010.04.16 15:33:40.
