data_PCOD8229927
_publ_section_title
;
Structure prediction by ZEFSAII (Michael W. Deem and Ramdas Pophale) SiO2 
 PCOD8229927
Probable space group: P B C M
;
_chemical_formula_sum "Si O2"
_cell_formula_units_Z 48
_cell_length_a 15.233038
_cell_length_b 21.421538
_cell_length_c 8.928534
_cell_angle_alpha 90.000000
_cell_angle_beta 90.000000
_cell_angle_gamma 90.000000
_cell_volume 2913.515486
_symmetry_space_group_name_H-M "P B C M"
_symmetry_group_IT_number 57
_symmetry_cell_setting 'orthorhombic'
loop_
_space_group_symop_operation_xyz
x,y,z
-x,-y,1/2+z
x,1/2-y,-z
-x,1/2+y,1/2-z
-x,-y,-z
x,y,1/2-z
-x,1/2+y,z
x,1/2-y,1/2+z
loop_
_atom_site_type_symbol
_atom_site_label
_atom_site_fract_x
_atom_site_fract_y
_atom_site_fract_z
Si Si1 0.334020 0.912122 0.924234
Si Si2 0.479433 0.063712 0.077635
Si Si3 0.121845 0.038061 0.923837
Si Si4 0.064677 0.587620 0.924486
Si Si5 0.293415 0.042642 0.425792
Si Si6 0.184714 0.683319 0.426047
O O1 0.320821 0.930407 0.750000
O O2 0.436746 0.891051 0.954191
O O3 0.272792 0.854396 0.968451
O O4 0.308273 0.971076 0.024820
O O5 0.473246 0.047126 0.250000
O O6 0.380260 0.084757 0.030323
O O7 0.500000 0.000000 0.000000
O O8 0.131383 0.021756 0.750000
O O9 0.039854 0.083674 0.953201
O O10 0.209928 0.071206 0.985910
O O11 0.111825 0.973281 0.011132
O O12 0.087004 0.592372 0.750000
O O13 0.099330 0.648704 0.008528
O O14 0.273149 0.044921 0.250000
O O15 0.194023 0.750000 0.500000
O O16 0.172221 0.690852 0.250000
#
# Coordination Sequence:
#
# PCOD8229927 Si02
#       6
#     8   8   8   8   8   8
#     4   9  17  30  45  62  90 124 156 191 231 275
#     4   8  15  26  40  62  90 119 150 183 223 268
#     4  10  19  30  46  68  96 127 154 189 241 292
#     4  10  20  33  48  67  92 122 159 200 238 283
#     4  10  17  25  43  69  95 123 153 188 228 279
#     4  11  22  34  50  69  93 126 161 197 237 281
#
# _framework density 16.474943
#
# number of rings (size 3 to 8) (size 9 to 14) (size 15 to 20)
#    0.000    2.333    1.667    2.000    0.000    3.333 
#    0.000    0.000    0.000    0.000    0.000    1.167 
#    0.000    5.333    0.000    0.000    0.000    0.000 
#
# Total GULP energy -594712.329814 kJ/mol
# GULP energy per Si atom -12389.840204 kJ/mol
# Density = 1.643745 g / cm^3
# Si number density = 16.474943 Si / 1000 Ang^3
#
#
#
# Elastic Constant Matrix: (Units=GPa)
#
#
# Indices 1 2 3 4 5 6 
#
# 1 160.7407 40.0818 52.2412 0.0000 0.0000 0.0000
# 2 40.0818 56.1632 27.1906 0.0000 0.0000 0.0000
# 3 52.2412 27.1906 70.9591 0.0000 0.0000 0.0000
# 4 0.0000 0.0000 0.0000 19.0870 0.0000 0.0000
# 5 0.0000 0.0000 0.0000 0.0000 27.0798 0.0000
# 6 0.0000 0.0000 0.0000 0.0000 0.0000 14.4242
#
#
#
# Elastic Compliance Matrix: (Units=1/GPa)
#
#
# Indices 1 2 3 4 5 6 
#
# 1 0.008812 -0.003865 -0.005007 0.000000 0.000000 0.000000
# 2 -0.003865 0.023556 -0.006181 0.000000 0.000000 0.000000
# 3 -0.005007 -0.006181 0.020147 0.000000 0.000000 0.000000
# 4 0.000000 0.000000 0.000000 0.052392 0.000000 0.000000
# 5 0.000000 0.000000 0.000000 0.000000 0.036928 0.000000
# 6 0.000000 0.000000 0.000000 0.000000 0.000000 0.069328
#
#
# Mechanical properties :
#
#
# Convention : Reuss Voigt Hill
#
# Bulk Modulus (GPa) = 44.62269 58.54335 51.58302
# Shear Modulus (GPa) = 20.10150 23.34149 21.72149
#
# Velocity S-wave (km/s) = 3.49682 3.76811 3.63499
# Velocity P-wave (km/s) = 6.59148 7.38535 6.99968
#
# Compressibility (1/GPa) = 0.02241012
#
# Stress axis : x y z
#
# Youngs Moduli (GPa) = 113.47997 42.45204 49.63527
#
# Poissons Ratio (x) = 0.16408 0.24850
# Poissons Ratio (y) = 0.43861 0.30679
# Poissons Ratio (z) = 0.56815 0.26239
#
# Static dielectric constant tensor:
#      x y z
#    x 3.939560 0.000000 0.000000 
#    y 0.000000 2.583820 0.000000 
#    z 0.000000 0.000000 3.220270 
# 
# 
# High freq. dielectric constant tensor:
#      x y z
#    x 1.664110 0.000000 0.000000 
#    y 0.000000 1.559230 0.000000 
#    z 0.000000 0.000000 1.649480 
# 
# From -- ./inp_files/4884.got.cif
#   From: 2010.03.12/outbox.cif.g09.slc.cpg/sg57_3_cif.got.tgz:4884.got - 2010.04.16 15:48:40.
