data_PCOD8229752
_publ_section_title
;
Structure prediction by ZEFSAII (Michael W. Deem and Ramdas Pophale) SiO2 
 PCOD8229752
Probable space group: P C C N
;
_chemical_formula_sum "Si O2"
_cell_formula_units_Z 60
_cell_length_a 6.110528
_cell_length_b 17.128404
_cell_length_c 26.285340
_cell_angle_alpha 90.000000
_cell_angle_beta 90.000000
_cell_angle_gamma 90.000000
_cell_volume 2751.118108
_symmetry_space_group_name_H-M "P C C N"
_symmetry_group_IT_number 56
_symmetry_cell_setting 'orthorhombic'
loop_
_space_group_symop_operation_xyz
x,y,z
1/2-x,1/2-y,z
1/2+x,-y,1/2-z
-x,1/2+y,1/2-z
-x,-y,-z
1/2+x,1/2+y,-z
1/2-x,y,1/2+z
x,1/2-y,1/2+z
loop_
_atom_site_type_symbol
_atom_site_label
_atom_site_fract_x
_atom_site_fract_y
_atom_site_fract_z
Si Si1 0.186998 0.577802 0.807989
Si Si2 0.511876 0.580600 0.716166
Si Si3 0.467743 0.875274 0.029015
Si Si4 0.210038 0.332497 0.210639
Si Si5 0.799590 0.971685 0.967663
Si Si6 0.250000 0.750000 0.955540
Si Si7 0.501167 0.710165 0.632650
Si Si8 0.990920 0.636860 0.385827
O O1 0.316064 0.572034 0.755595
O O2 0.312949 0.588097 0.860585
O O3 0.045266 0.499406 0.814557
O O4 0.040462 0.655141 0.803533
O O5 0.725683 0.600114 0.749694
O O6 0.461660 0.647423 0.676133
O O7 0.539325 0.827084 0.077842
O O8 0.332843 0.950899 0.046699
O O9 0.680747 0.906787 0.001192
O O10 0.342219 0.819443 0.989906
O O11 0.250000 0.250000 0.238592
O O12 0.349225 0.328235 0.159318
O O13 0.860072 0.929169 0.915709
O O14 0.000000 0.000000 0.000000
O O15 0.434458 0.709669 0.920494
O O16 0.250000 0.750000 0.631622
O O17 0.750000 0.750000 0.642324
#
# Coordination Sequence:
#
# PCOD8229752 Si02
#       8
#     8   8   8   8   8   4   8   8
#     4  11  25  47  71 111 140 196 248 308 386 459
#     4  11  26  45  76 103 151 192 251 310 381 461
#     4  11  28  47  74 105 151 197 261 313 387 465
#     4  11  25  45  71 105 141 187 237 309 379 453
#     4  11  26  47  71 104 145 203 248 315 380 456
#     4  12  24  50  70 110 148 194 246 326 382 452
#     4  12  31  50  78 116 153 209 256 324 387 471
#     4  11  27  41  76 105 145 188 250 311 382 458
#
# _framework density 21.809315999999999
#
# number of rings (size 3 to 8) (size 9 to 14) (size 15 to 20)
#    0.000    0.800    3.333    1.200   14.933    1.067 
#    0.000    0.000    0.000    0.000    0.000    0.000 
#    0.000    0.000    0.000    0.000    0.000    0.000 
#
# Total GULP energy -743359.315923 kJ/mol
# GULP energy per Si atom -12389.321932 kJ/mol
# Density = 2.175968 g / cm^3
# Si number density = 21.809316 Si / 1000 Ang^3
#
#
#
# Elastic Constant Matrix: (Units=GPa)
#
#
# Indices 1 2 3 4 5 6 
#
# 1 107.1977 43.2353 16.3927 0.0000 0.0000 0.0000
# 2 43.2353 116.2127 39.2872 0.0000 0.0000 0.0000
# 3 16.3927 39.2872 86.2367 0.0000 0.0000 0.0000
# 4 0.0000 0.0000 0.0000 84.9661 0.0000 0.0000
# 5 0.0000 0.0000 0.0000 0.0000 -23.8389 0.0000
# 6 0.0000 0.0000 0.0000 0.0000 0.0000 33.3798
#
#
#
# Elastic Compliance Matrix: (Units=1/GPa)
#
#
# Indices 1 2 3 4 5 6 
#
# 1 0.010981 -0.003995 -0.000267 0.000000 0.000000 0.000000
# 2 -0.003995 0.011625 -0.004537 0.000000 0.000000 0.000000
# 3 -0.000267 -0.004537 0.013714 0.000000 0.000000 0.000000
# 4 0.000000 0.000000 0.000000 0.011769 0.000000 0.000000
# 5 0.000000 0.000000 0.000000 0.000000 -0.041948 0.000000
# 6 0.000000 0.000000 0.000000 0.000000 0.000000 0.029958
#
#
# Mechanical properties :
#
#
# Convention : Reuss Voigt Hill
#
# Bulk Modulus (GPa) = 53.41461 56.38639 54.90050
# Shear Modulus (GPa) = 83.42189 32.95021 58.18605
#
# Velocity S-wave (km/s) = 6.19141 3.89116 5.17082
# Velocity P-wave (km/s) = 8.69806 6.78959 7.80240
#
# Compressibility (1/GPa) = 0.01872147
#
# Stress axis : x y z
#
# Youngs Moduli (GPa) = 91.06940 86.02319 72.92053
#
# Poissons Ratio (x) = 0.34365 0.01950
# Poissons Ratio (y) = 0.36380 0.33081
# Poissons Ratio (z) = 0.02435 0.39025
#
# Static dielectric constant tensor:
#      x y z
#    x 4.433650 0.000000 0.000000 
#    y 0.000000 3.538700 0.000000 
#    z 0.000000 0.000000 3.993970 
# 
# 
# High freq. dielectric constant tensor:
#      x y z
#    x 1.866480 0.000000 0.000000 
#    y 0.000000 1.872900 0.000000 
#    z 0.000000 0.000000 1.870760 
# 
# From -- ./inp_files/21796.got.cif
#   From: 2010.03.12/outbox.cif.g09.slc.cpg/sg56_11_cif.got.tgz:21796.got - 2010.04.16 15:33:40.
