data_PCOD8229146
_publ_section_title
;
Structure prediction by ZEFSAII (Michael W. Deem and Ramdas Pophale) SiO2 
 PCOD8229146
Probable space group: P C C N
;
_chemical_formula_sum "Si O2"
_cell_formula_units_Z 40
_cell_length_a 9.105285
_cell_length_b 8.782949
_cell_length_c 22.082561
_cell_angle_alpha 90.000000
_cell_angle_beta 90.000000
_cell_angle_gamma 90.000000
_cell_volume 1765.970090
_symmetry_space_group_name_H-M "P C C N"
_symmetry_group_IT_number 56
_symmetry_cell_setting 'orthorhombic'
loop_
_space_group_symop_operation_xyz
x,y,z
1/2-x,1/2-y,z
1/2+x,-y,1/2-z
-x,1/2+y,1/2-z
-x,-y,-z
1/2+x,1/2+y,-z
1/2-x,y,1/2+z
x,1/2-y,1/2+z
loop_
_atom_site_type_symbol
_atom_site_label
_atom_site_fract_x
_atom_site_fract_y
_atom_site_fract_z
Si Si1 0.577605 0.497347 0.275578
Si Si2 0.231735 0.071052 0.326803
Si Si3 0.128438 0.004667 0.073892
Si Si4 0.750000 0.250000 0.852217
Si Si5 0.750000 0.750000 0.837202
Si Si6 0.794418 0.075278 0.051255
O O1 0.403439 0.477254 0.283060
O O2 0.624330 0.492920 0.204380
O O3 0.655825 0.363400 0.311785
O O4 0.626764 0.667474 0.296207
O O5 0.250000 0.250000 0.331862
O O6 0.206947 0.007341 0.394531
O O7 0.133371 0.838660 0.105360
O O8 0.183454 0.123713 0.121238
O O9 0.236242 0.000725 0.014581
O O10 0.966700 0.055857 0.058303
O O11 0.750000 0.250000 0.050975
#
# Coordination Sequence:
#
# PCOD8229146 Si02
#       6
#     8   8   8   4   4   8
#     4  11  26  43  71  98 139 180 230 286 341 415
#     4  12  28  44  68 103 139 181 231 282 346 416
#     4  10  22  43  67  94 132 176 224 282 339 413
#     4  10  22  44  68  96 134 180 224 286 352 400
#     4  10  22  44  66  96 132 174 226 278 346 398
#     4  11  24  42  66  97 134 176 226 275 342 408
#
# _framework density 22.65044
#
# number of rings (size 3 to 8) (size 9 to 14) (size 15 to 20)
#    0.000    1.200    2.000    2.400   11.200    0.000 
#    0.000    3.000    0.000    0.000    0.000    0.000 
#    0.000    0.000    0.000    0.000    0.000    0.000 
#
# Total GULP energy -495896.022135 kJ/mol
# GULP energy per Si atom -12397.400553 kJ/mol
# Density = 2.259889 g / cm^3
# Si number density = 22.650440 Si / 1000 Ang^3
#
#
#
# Elastic Constant Matrix: (Units=GPa)
#
#
# Indices 1 2 3 4 5 6 
#
# 1 63.5226 31.5219 -2.9966 0.0000 0.0000 0.0000
# 2 31.5219 124.7084 35.3214 0.0000 0.0000 0.0000
# 3 -2.9966 35.3214 96.8170 0.0000 0.0000 0.0000
# 4 0.0000 0.0000 0.0000 42.3042 0.0000 0.0000
# 5 0.0000 0.0000 0.0000 0.0000 37.8709 0.0000
# 6 0.0000 0.0000 0.0000 0.0000 0.0000 28.6078
#
#
#
# Elastic Compliance Matrix: (Units=1/GPa)
#
#
# Indices 1 2 3 4 5 6 
#
# 1 0.018547 -0.005410 0.002548 0.000000 0.000000 0.000000
# 2 -0.005410 0.010521 -0.004006 0.000000 0.000000 0.000000
# 3 0.002548 -0.004006 0.011869 0.000000 0.000000 0.000000
# 4 0.000000 0.000000 0.000000 0.023638 0.000000 0.000000
# 5 0.000000 0.000000 0.000000 0.000000 0.026405 0.000000
# 6 0.000000 0.000000 0.000000 0.000000 0.000000 0.034956
#
#
# Mechanical properties :
#
#
# Convention : Reuss Voigt Hill
#
# Bulk Modulus (GPa) = 36.76285 45.86015 41.31150
# Shear Modulus (GPa) = 33.61609 36.50332 35.05971
#
# Velocity S-wave (km/s) = 3.85661 4.01882 3.93855
# Velocity P-wave (km/s) = 6.00808 6.46726 6.24189
#
# Compressibility (1/GPa) = 0.02720137
#
# Stress axis : x y z
#
# Youngs Moduli (GPa) = 53.91700 95.05175 84.25325
#
# Poissons Ratio (x) = 0.51419 -0.21464
# Poissons Ratio (y) = 0.29167 0.33749
# Poissons Ratio (z) = -0.13736 0.38074
#
# Static dielectric constant tensor:
#      x y z
#    x 3.908790 0.000000 0.000000 
#    y 0.000000 3.735580 0.000000 
#    z 0.000000 0.000000 5.086090 
# 
# 
# High freq. dielectric constant tensor:
#      x y z
#    x 1.875790 0.000000 0.000000 
#    y 0.000000 1.907790 0.000000 
#    z 0.000000 0.000000 1.918890 
# 
# From -- ./inp_files/20359.got.cif
#   From: 2010.03.12/outbox.cif.g09.slc.cpg/sg56_11_cif.got.tgz:20359.got - 2010.04.16 15:33:40.
