data_PCOD8229732
_publ_section_title
;
Structure prediction by ZEFSAII (Michael W. Deem and Ramdas Pophale) SiO2 
 PCOD8229732
Probable space group: P C C N
;
_chemical_formula_sum "Si O2"
_cell_formula_units_Z 28
_cell_length_a 5.318305
_cell_length_b 10.839251
_cell_length_c 18.800810
_cell_angle_alpha 90.000000
_cell_angle_beta 90.000000
_cell_angle_gamma 90.000000
_cell_volume 1083.799818
_symmetry_space_group_name_H-M "P C C N"
_symmetry_group_IT_number 56
_symmetry_cell_setting 'orthorhombic'
loop_
_space_group_symop_operation_xyz
x,y,z
1/2-x,1/2-y,z
1/2+x,-y,1/2-z
-x,1/2+y,1/2-z
-x,-y,-z
1/2+x,1/2+y,-z
1/2-x,y,1/2+z
x,1/2-y,1/2+z
loop_
_atom_site_type_symbol
_atom_site_label
_atom_site_fract_x
_atom_site_fract_y
_atom_site_fract_z
Si Si1 0.381744 0.873520 0.441021
Si Si2 0.086755 0.368469 0.409171
Si Si3 0.518852 0.420166 0.756248
Si Si4 0.750000 0.750000 0.349117
O O1 0.250000 0.750000 0.414345
O O2 0.386627 0.878435 0.526701
O O3 0.649768 0.860838 0.399990
O O4 0.255305 0.001568 0.413456
O O5 0.250000 0.250000 0.426129
O O6 0.952058 0.354988 0.333355
O O7 0.782119 0.486046 0.739221
O O8 0.465734 0.311468 0.700120
#
# Coordination Sequence:
#
# PCOD8229732 Si02
#       4
#     8   8   8   4
#     4  11  25  47  74 104 151 200 250 320 386 453
#     4  11  24  47  70 112 142 195 258 311 371 467
#     4  12  27  47  73 109 152 198 254 316 390 457
#     4  12  24  46  72 104 154 200 250 320 394 460
#
# _framework density 25.835032999999999
#
# number of rings (size 3 to 8) (size 9 to 14) (size 15 to 20)
#    0.000    0.571    5.714    1.714    0.000    3.429 
#    0.000    0.000    0.000    0.000    0.000    0.000 
#    0.000    0.000    0.000    0.000    0.000    0.000 
#
# Total GULP energy -346975.230022 kJ/mol
# GULP energy per Si atom -12391.972501 kJ/mol
# Density = 2.577623 g / cm^3
# Si number density = 25.835033 Si / 1000 Ang^3
#
#
#
# Elastic Constant Matrix: (Units=GPa)
#
#
# Indices 1 2 3 4 5 6 
#
# 1 48.5488 22.3402 7.4478 0.0000 0.0000 0.0000
# 2 22.3402 199.1065 19.5952 0.0000 0.0000 0.0000
# 3 7.4478 19.5952 184.8824 0.0000 0.0000 0.0000
# 4 0.0000 0.0000 0.0000 22.1872 0.0000 0.0000
# 5 0.0000 0.0000 0.0000 0.0000 15.9751 0.0000
# 6 0.0000 0.0000 0.0000 0.0000 0.0000 41.0034
#
#
#
# Elastic Compliance Matrix: (Units=1/GPa)
#
#
# Indices 1 2 3 4 5 6 
#
# 1 0.021790 -0.002383 -0.000625 0.000000 0.000000 0.000000
# 2 -0.002383 0.005336 -0.000470 0.000000 0.000000 0.000000
# 3 -0.000625 -0.000470 0.005484 0.000000 0.000000 0.000000
# 4 0.000000 0.000000 0.000000 0.045071 0.000000 0.000000
# 5 0.000000 0.000000 0.000000 0.000000 0.062598 0.000000
# 6 0.000000 0.000000 0.000000 0.000000 0.000000 0.024388
#
#
# Mechanical properties :
#
#
# Convention : Reuss Voigt Hill
#
# Bulk Modulus (GPa) = 38.98021 59.03379 49.00700
# Shear Modulus (GPa) = 27.75083 41.37676 34.56379
#
# Velocity S-wave (km/s) = 3.28099 4.00631 3.66165
# Velocity P-wave (km/s) = 5.42900 6.65587 6.07349
#
# Compressibility (1/GPa) = 0.02565404
#
# Stress axis : x y z
#
# Youngs Moduli (GPa) = 45.89159 187.40369 182.35550
#
# Poissons Ratio (x) = 0.44666 0.11401
# Poissons Ratio (y) = 0.10938 0.08562
# Poissons Ratio (z) = 0.02869 0.08799
#
# Static dielectric constant tensor:
#      x y z
#    x 4.096490 0.000000 0.000000 
#    y 0.000000 5.102670 0.000000 
#    z 0.000000 0.000000 5.014430 
# 
# 
# High freq. dielectric constant tensor:
#      x y z
#    x 1.977920 0.000000 0.000000 
#    y 0.000000 2.056240 0.000000 
#    z 0.000000 0.000000 2.071860 
# 
# From -- ./inp_files/15309.got.cif
#   From: 2010.03.12/outbox.cif.g09.slc.cpg/sg56_8_cif.got.tgz:15309.got - 2010.04.16 15:33:40.
