data_PCOD8229914
_publ_section_title
;
Structure prediction by ZEFSAII (Michael W. Deem and Ramdas Pophale) SiO2 
 PCOD8229914
Probable space group: P B C M
;
_chemical_formula_sum "Si O2"
_cell_formula_units_Z 56
_cell_length_a 10.275454
_cell_length_b 19.722333
_cell_length_c 13.998878
_cell_angle_alpha 90.000000
_cell_angle_beta 90.000000
_cell_angle_gamma 90.000000
_cell_volume 2836.955577
_symmetry_space_group_name_H-M "P B C M"
_symmetry_group_IT_number 57
_symmetry_cell_setting 'orthorhombic'
loop_
_space_group_symop_operation_xyz
x,y,z
-x,-y,1/2+z
x,1/2-y,-z
-x,1/2+y,1/2-z
-x,-y,-z
x,y,1/2-z
-x,1/2+y,z
x,1/2-y,1/2+z
loop_
_atom_site_type_symbol
_atom_site_label
_atom_site_fract_x
_atom_site_fract_y
_atom_site_fract_z
Si Si1 0.536473 0.915454 0.952536
Si Si2 0.412998 0.141586 0.648073
Si Si3 0.278893 0.981275 0.981240
Si Si4 0.861657 0.913525 0.360371
Si Si5 0.464225 0.776454 0.604531
Si Si6 0.174965 0.724108 0.143860
Si Si7 0.111273 0.857831 0.036971
O O1 0.405015 0.954535 0.922175
O O2 0.551011 0.845325 0.894783
O O3 0.512349 0.897680 0.064921
O O4 0.666492 0.961685 0.943414
O O5 0.447268 0.106758 0.750000
O O6 0.257884 0.138693 0.631365
O O7 0.451080 0.220404 0.657554
O O8 0.180350 0.013656 0.904094
O O9 0.209023 0.921510 0.038948
O O10 0.907052 0.923159 0.250000
O O11 0.972128 0.882528 0.427398
O O12 0.428586 0.750000 0.500000
O O13 0.327431 0.793232 0.653849
O O14 0.112908 0.716148 0.250000
O O15 0.164140 0.801723 0.109829
O O16 0.102642 0.673155 0.070440
#
# Coordination Sequence:
#
# PCOD8229914 Si02
#       7
#     8   8   8   8   8   8   8
#     4   9  18  33  57  84 118 149 193 243 304 354
#     4   9  18  33  57  87 117 152 196 242 297 357
#     4  10  19  36  59  83 112 158 198 238 295 355
#     4  10  22  39  59  85 119 165 207 241 288 352
#     4  10  16  33  55  87 117 147 186 244 307 353
#     4  11  22  37  62  89 113 149 196 248 303 356
#     4  11  21  40  59  85 121 156 202 244 293 345
#
# _framework density 19.739469
#
# number of rings (size 3 to 8) (size 9 to 14) (size 15 to 20)
#    0.000    2.000    2.857    2.143    0.000    0.571 
#   12.857    0.714    0.000    5.143    0.000    3.000 
#    0.000    0.000    0.000    0.000    0.000    0.000 
#
# Total GULP energy -694014.903483 kJ/mol
# GULP energy per Si atom -12393.123276 kJ/mol
# Density = 1.969454 g / cm^3
# Si number density = 19.739469 Si / 1000 Ang^3
#
#
#
# Elastic Constant Matrix: (Units=GPa)
#
#
# Indices 1 2 3 4 5 6 
#
# 1 79.6450 43.1288 40.8072 0.0000 0.0000 0.0000
# 2 43.1288 117.9120 40.0646 0.0000 0.0000 0.0000
# 3 40.8072 40.0646 111.1340 0.0000 0.0000 0.0000
# 4 0.0000 0.0000 0.0000 17.2516 0.0000 0.0000
# 5 0.0000 0.0000 0.0000 0.0000 18.1289 0.0000
# 6 0.0000 0.0000 0.0000 0.0000 0.0000 41.4348
#
#
#
# Elastic Compliance Matrix: (Units=1/GPa)
#
#
# Indices 1 2 3 4 5 6 
#
# 1 0.017588 -0.004831 -0.004717 0.000000 0.000000 0.000000
# 2 -0.004831 0.010992 -0.002189 0.000000 0.000000 0.000000
# 3 -0.004717 -0.002189 0.011519 0.000000 0.000000 0.000000
# 4 0.000000 0.000000 0.000000 0.057966 0.000000 0.000000
# 5 0.000000 0.000000 0.000000 0.000000 0.055160 0.000000
# 6 0.000000 0.000000 0.000000 0.000000 0.000000 0.024134
#
#
# Mechanical properties :
#
#
# Convention : Reuss Voigt Hill
#
# Bulk Modulus (GPa) = 60.14436 61.85470 60.99953
# Shear Modulus (GPa) = 24.22790 27.67576 25.95183
#
# Velocity S-wave (km/s) = 3.50720 3.74846 3.62984
# Velocity P-wave (km/s) = 6.85098 7.08083 6.96685
#
# Compressibility (1/GPa) = 0.01662666
#
# Stress axis : x y z
#
# Youngs Moduli (GPa) = 56.85621 90.97932 86.81201
#
# Poissons Ratio (x) = 0.43948 0.40947
# Poissons Ratio (y) = 0.27465 0.19001
# Poissons Ratio (z) = 0.26818 0.19913
#
# Static dielectric constant tensor:
#      x y z
#    x 3.431420 0.000000 0.000000 
#    y 0.000000 3.864450 0.000000 
#    z 0.000000 0.000000 3.548380 
# 
# 
# High freq. dielectric constant tensor:
#      x y z
#    x 1.750090 0.000000 0.000000 
#    y 0.000000 1.779170 0.000000 
#    z 0.000000 0.000000 1.751430 
# 
# From -- ./inp_files/16756.got.cif
#   From: 2010.03.12/outbox.cif.g09.slc.cpg/sg57_9_cif.got.tgz:16756.got - 2010.04.16 15:48:40.
