data_PCOD8229660
_publ_section_title
;
Structure prediction by ZEFSAII (Michael W. Deem and Ramdas Pophale) SiO2 
 PCOD8229660
Probable space group: P C C N
;
_chemical_formula_sum "Si O2"
_cell_formula_units_Z 48
_cell_length_a 8.639983
_cell_length_b 28.260881
_cell_length_c 8.870644
_cell_angle_alpha 90.000000
_cell_angle_beta 90.000000
_cell_angle_gamma 90.000000
_cell_volume 2165.976471
_symmetry_space_group_name_H-M "P C C N"
_symmetry_group_IT_number 56
_symmetry_cell_setting 'orthorhombic'
loop_
_space_group_symop_operation_xyz
x,y,z
1/2-x,1/2-y,z
1/2+x,-y,1/2-z
-x,1/2+y,1/2-z
-x,-y,-z
1/2+x,1/2+y,-z
1/2-x,y,1/2+z
x,1/2-y,1/2+z
loop_
_atom_site_type_symbol
_atom_site_label
_atom_site_fract_x
_atom_site_fract_y
_atom_site_fract_z
Si Si1 0.068056 0.707814 0.676832
Si Si2 0.077073 0.517426 0.148591
Si Si3 0.435996 0.538249 0.110820
Si Si4 0.101480 0.127476 0.974418
Si Si5 0.912910 0.614072 0.184404
Si Si6 0.103553 0.695429 0.036125
O O1 0.218477 0.691097 0.584277
O O2 0.026818 0.761464 0.629780
O O3 0.927819 0.675596 0.618107
O O4 0.092267 0.703785 0.856331
O O5 0.256738 0.529020 0.140416
O O6 0.044002 0.470561 0.245474
O O7 0.993263 0.563819 0.213910
O O8 0.000000 0.500000 0.000000
O O9 0.458740 0.591598 0.053339
O O10 0.500000 0.500000 0.000000
O O11 0.257186 0.104772 0.908893
O O12 0.118320 0.137781 0.152578
O O13 0.019322 0.647286 0.080794
#
# Coordination Sequence:
#
# PCOD8229660 Si02
#       6
#     8   8   8   8   8   8
#     4  11  23  43  71 102 136 181 225 289 342 422
#     4  12  27  43  73  98 140 182 233 286 351 416
#     4  12  25  47  67 102 136 184 231 288 346 417
#     4  12  26  44  69  97 141 177 235 285 353 415
#     4  12  26  45  67 101 135 183 229 291 348 421
#     4  11  23  43  71 101 138 177 231 280 354 408
#
# _framework density 22.160905
#
# number of rings (size 3 to 8) (size 9 to 14) (size 15 to 20)
#    0.000    0.333    1.667    9.000    4.667    0.667 
#    0.000    3.333    0.000    0.000    0.000    0.000 
#    0.000    0.000    0.000    0.000    0.000    0.000 
#
# Total GULP energy -595188.451848 kJ/mol
# GULP energy per Si atom -12399.759414 kJ/mol
# Density = 2.211047 g / cm^3
# Si number density = 22.160905 Si / 1000 Ang^3
#
#
#
# Elastic Constant Matrix: (Units=GPa)
#
#
# Indices 1 2 3 4 5 6 
#
# 1 103.1182 9.5609 9.2649 0.0000 0.0000 0.0000
# 2 9.5609 80.3719 11.0710 0.0000 0.0000 0.0000
# 3 9.2649 11.0710 162.2143 0.0000 0.0000 0.0000
# 4 0.0000 0.0000 0.0000 41.6972 0.0000 0.0000
# 5 0.0000 0.0000 0.0000 0.0000 35.5938 0.0000
# 6 0.0000 0.0000 0.0000 0.0000 0.0000 41.4447
#
#
#
# Elastic Compliance Matrix: (Units=1/GPa)
#
#
# Indices 1 2 3 4 5 6 
#
# 1 0.009844 -0.001104 -0.000487 0.000000 0.000000 0.000000
# 2 -0.001104 0.012684 -0.000803 0.000000 0.000000 0.000000
# 3 -0.000487 -0.000803 0.006247 0.000000 0.000000 0.000000
# 4 0.000000 0.000000 0.000000 0.023982 0.000000 0.000000
# 5 0.000000 0.000000 0.000000 0.000000 0.028095 0.000000
# 6 0.000000 0.000000 0.000000 0.000000 0.000000 0.024129
#
#
# Mechanical properties :
#
#
# Convention : Reuss Voigt Hill
#
# Bulk Modulus (GPa) = 41.68723 45.05532 43.37128
# Shear Modulus (GPa) = 42.45793 44.80099 43.62946
#
# Velocity S-wave (km/s) = 4.38184 4.50112 4.44188
# Velocity P-wave (km/s) = 6.66729 6.88394 6.77648
#
# Compressibility (1/GPa) = 0.02398816
#
# Stress axis : x y z
#
# Youngs Moduli (GPa) = 101.58771 78.83927 160.06984
#
# Poissons Ratio (x) = 0.08703 0.07794
# Poissons Ratio (y) = 0.11214 0.12848
# Poissons Ratio (z) = 0.04946 0.06328
#
# Static dielectric constant tensor:
#      x y z
#    x 4.034270 0.000000 0.000000 
#    y 0.000000 3.827320 0.000000 
#    z 0.000000 0.000000 0.717810 
# 
# 
# High freq. dielectric constant tensor:
#      x y z
#    x 1.871620 0.000000 0.000000 
#    y 0.000000 1.880240 0.000000 
#    z 0.000000 0.000000 1.895470 
# 
# From -- ./inp_files/2223.got.cif
#   From: 2010.03.12/outbox.cif.g09.slc.cpg/sg56_2_cif.got.tgz:2223.got - 2010.04.16 15:33:40.
