data_PCOD8229058
_publ_section_title
;
Structure prediction by ZEFSAII (Michael W. Deem and Ramdas Pophale) SiO2 
 PCOD8229058
Probable space group: P C C N
;
_chemical_formula_sum "Si O2"
_cell_formula_units_Z 40
_cell_length_a 13.986220
_cell_length_b 7.428548
_cell_length_c 14.901738
_cell_angle_alpha 90.000000
_cell_angle_beta 90.000000
_cell_angle_gamma 90.000000
_cell_volume 1548.250442
_symmetry_space_group_name_H-M "P C C N"
_symmetry_group_IT_number 56
_symmetry_cell_setting 'orthorhombic'
loop_
_space_group_symop_operation_xyz
x,y,z
1/2-x,1/2-y,z
1/2+x,-y,1/2-z
-x,1/2+y,1/2-z
-x,-y,-z
1/2+x,1/2+y,-z
1/2-x,y,1/2+z
x,1/2-y,1/2+z
loop_
_atom_site_type_symbol
_atom_site_label
_atom_site_fract_x
_atom_site_fract_y
_atom_site_fract_z
Si Si1 0.869917 0.148890 0.995508
Si Si2 0.917484 0.767609 0.048682
Si Si3 0.102382 0.167927 0.645626
Si Si4 0.888061 0.420634 0.150653
Si Si5 0.211355 0.973860 0.176624
O O1 0.972025 0.178500 0.948955
O O2 0.796776 0.151101 0.911734
O O3 0.848182 0.308519 0.065470
O O4 0.859939 0.956618 0.048287
O O5 0.887394 0.637280 0.130851
O O6 0.895723 0.645834 0.961631
O O7 0.178352 0.030869 0.688132
O O8 0.134004 0.368442 0.668331
O O9 0.995367 0.134854 0.680296
O O10 0.818301 0.370606 0.232763
#
# Coordination Sequence:
#
# PCOD8229058 Si02
#       5
#     8   8   8   8   8
#     4   9  19  40  68 103 135 179 232 287 352 414
#     4   9  19  40  70  94 129 184 231 285 349 422
#     4   9  20  43  68  98 141 186 231 290 353 408
#     4  11  22  41  77 100 136 189 232 284 356 423
#     4  10  22  40  72 106 143 183 235 293 346 422
#
# _framework density 25.835612999999999
#
# number of rings (size 3 to 8) (size 9 to 14) (size 15 to 20)
#    0.000    2.400    0.000    3.600    2.800    0.000 
#    0.000   14.000   13.200    9.600    0.000    0.000 
#    0.000    0.000    0.000    0.000    0.000    0.000 
#
# Total GULP energy -495861.370742 kJ/mol
# GULP energy per Si atom -12396.534269 kJ/mol
# Density = 2.577681 g / cm^3
# Si number density = 25.835613 Si / 1000 Ang^3
#
#
#
# Elastic Constant Matrix: (Units=GPa)
#
#
# Indices 1 2 3 4 5 6 
#
# 1 91.1656 46.2892 50.9958 0.0000 0.0000 0.0000
# 2 46.2892 136.7361 41.2236 0.0000 0.0000 0.0000
# 3 50.9958 41.2236 110.4528 0.0000 0.0000 0.0000
# 4 0.0000 0.0000 0.0000 19.3545 0.0000 0.0000
# 5 0.0000 0.0000 0.0000 0.0000 -49.5717 0.0000
# 6 0.0000 0.0000 0.0000 0.0000 0.0000 34.2835
#
#
#
# Elastic Compliance Matrix: (Units=1/GPa)
#
#
# Indices 1 2 3 4 5 6 
#
# 1 0.016260 -0.003652 -0.006144 0.000000 0.000000 0.000000
# 2 -0.003652 0.009061 -0.001696 0.000000 0.000000 0.000000
# 3 -0.006144 -0.001696 0.012523 0.000000 0.000000 0.000000
# 4 0.000000 0.000000 0.000000 0.051668 0.000000 0.000000
# 5 0.000000 0.000000 0.000000 0.000000 -0.020173 0.000000
# 6 0.000000 0.000000 0.000000 0.000000 0.000000 0.029169
#
#
# Mechanical properties :
#
#
# Convention : Reuss Voigt Hill
#
# Bulk Modulus (GPa) = 67.29253 68.37465 67.83359
# Shear Modulus (GPa) = 39.54270 14.13632 26.83951
#
# Velocity S-wave (km/s) = 3.91647 2.34169 3.22663
# Velocity P-wave (km/s) = 6.82309 5.81671 6.33990
#
# Compressibility (1/GPa) = 0.01486049
#
# Stress axis : x y z
#
# Youngs Moduli (GPa) = 61.49895 110.36406 79.85135
#
# Poissons Ratio (x) = 0.40308 0.49063
# Poissons Ratio (y) = 0.22461 0.13539
# Poissons Ratio (z) = 0.37787 0.18712
#
# Static dielectric constant tensor:
#      x y z
#    x 4.453410 0.000000 0.000000 
#    y 0.000000 4.700750 0.000000 
#    z 0.000000 0.000000 4.547610 
# 
# 
# High freq. dielectric constant tensor:
#      x y z
#    x 2.036060 0.000000 0.000000 
#    y 0.000000 2.045480 0.000000 
#    z 0.000000 0.000000 2.014280 
# 
# From -- ./inp_files/12068.got.cif
#   From: 2010.03.12/outbox.cif.g09.slc.cpg/sg56_7_cif.got.tgz:12068.got - 2010.04.16 15:33:40.
