data_PCOD8229060
_publ_section_title
;
Structure prediction by ZEFSAII (Michael W. Deem and Ramdas Pophale) SiO2 
 PCOD8229060
Probable space group: P C C N
;
_chemical_formula_sum "Si O2"
_cell_formula_units_Z 64
_cell_length_a 14.682707
_cell_length_b 10.951245
_cell_length_c 18.048294
_cell_angle_alpha 90.000000
_cell_angle_beta 90.000000
_cell_angle_gamma 90.000000
_cell_volume 2902.055971
_symmetry_space_group_name_H-M "P C C N"
_symmetry_group_IT_number 56
_symmetry_cell_setting 'orthorhombic'
loop_
_space_group_symop_operation_xyz
x,y,z
1/2-x,1/2-y,z
1/2+x,-y,1/2-z
-x,1/2+y,1/2-z
-x,-y,-z
1/2+x,1/2+y,-z
1/2-x,y,1/2+z
x,1/2-y,1/2+z
loop_
_atom_site_type_symbol
_atom_site_label
_atom_site_fract_x
_atom_site_fract_y
_atom_site_fract_z
Si Si1 0.751265 0.609669 0.960791
Si Si2 0.542948 0.878462 0.973926
Si Si3 0.211749 0.072018 0.702291
Si Si4 0.349732 0.700632 0.710501
Si Si5 0.914710 0.505076 0.553837
Si Si6 0.483325 0.265119 0.881573
Si Si7 0.041396 0.786512 0.853124
Si Si8 0.882501 0.679818 0.254475
O O1 0.750000 0.750000 0.984260
O O2 0.855189 0.570656 0.968525
O O3 0.731614 0.587071 0.874543
O O4 0.679331 0.536249 0.011304
O O5 0.500421 0.830437 0.896512
O O6 0.529370 0.772220 0.033313
O O7 0.500000 0.000000 0.000000
O O8 0.145357 0.184657 0.717978
O O9 0.299329 0.084647 0.756486
O O10 0.155398 0.947280 0.711140
O O11 0.250000 0.750000 0.695819
O O12 0.411222 0.752713 0.643113
O O13 0.389413 0.754000 0.787735
O O14 0.940764 0.599001 0.619919
O O15 0.902438 0.373109 0.591336
O O16 0.000000 0.500000 0.500000
O O17 0.425273 0.180908 0.827011
O O18 0.958664 0.861447 0.814239
#
# Coordination Sequence:
#
# PCOD8229060 Si02
#       8
#     8   8   8   8   8   8   8   8
#     4  12  22  42  71 103 141 186 246 291 355 429
#     4  12  25  45  70 100 142 187 232 301 364 425
#     4  11  21  42  69 101 132 182 236 292 349 430
#     4  11  28  45  67 100 144 190 235 287 371 445
#     4  12  24  42  74 105 141 183 237 302 353 422
#     4  11  25  43  65 104 138 177 234 299 351 426
#     4  11  24  47  67  99 140 185 232 296 366 423
#     4  10  22  40  72  94 133 177 237 295 352 416
#
# _framework density 22.053329000000002
#
# number of rings (size 3 to 8) (size 9 to 14) (size 15 to 20)
#    0.000    0.750    5.000    2.250    3.500    5.000 
#    0.000    0.625    0.000    0.000    0.000    0.000 
#    0.000    0.000    0.000    0.000    0.000    0.000 
#
# Total GULP energy -793174.589984 kJ/mol
# GULP energy per Si atom -12393.352968 kJ/mol
# Density = 2.200313 g / cm^3
# Si number density = 22.053329 Si / 1000 Ang^3
#
#
#
# Elastic Constant Matrix: (Units=GPa)
#
#
# Indices 1 2 3 4 5 6 
#
# 1 122.8455 16.3202 10.0775 0.0000 0.0000 0.0000
# 2 16.3202 58.7752 -2.0633 0.0000 0.0000 0.0000
# 3 10.0775 -2.0633 59.4768 0.0000 0.0000 0.0000
# 4 0.0000 0.0000 0.0000 26.2641 0.0000 0.0000
# 5 0.0000 0.0000 0.0000 0.0000 30.9216 0.0000
# 6 0.0000 0.0000 0.0000 0.0000 0.0000 33.5500
#
#
#
# Elastic Compliance Matrix: (Units=1/GPa)
#
#
# Indices 1 2 3 4 5 6 
#
# 1 0.008591 -0.002439 -0.001540 0.000000 0.000000 0.000000
# 2 -0.002439 0.017727 0.001028 0.000000 0.000000 0.000000
# 3 -0.001540 0.001028 0.017110 0.000000 0.000000 0.000000
# 4 0.000000 0.000000 0.000000 0.038075 0.000000 0.000000
# 5 0.000000 0.000000 0.000000 0.000000 0.032340 0.000000
# 6 0.000000 0.000000 0.000000 0.000000 0.000000 0.029806
#
#
# Mechanical properties :
#
#
# Convention : Reuss Voigt Hill
#
# Bulk Modulus (GPa) = 26.64862 32.19625 29.42244
# Shear Modulus (GPa) = 30.85273 32.59801 31.72537
#
# Velocity S-wave (km/s) = 3.74439 3.84884 3.79697
# Velocity P-wave (km/s) = 5.55012 5.86365 5.70904
#
# Compressibility (1/GPa) = 0.03752539
#
# Stress axis : x y z
#
# Youngs Moduli (GPa) = 116.40435 56.40970 58.44565
#
# Poissons Ratio (x) = 0.13761 0.09002
# Poissons Ratio (y) = 0.28396 -0.06010
# Poissons Ratio (z) = 0.17929 -0.05801
#
# Static dielectric constant tensor:
#      x y z
#    x 3.945920 0.000000 0.000000 
#    y 0.000000 3.760110 0.000000 
#    z 0.000000 0.000000 4.176120 
# 
# 
# High freq. dielectric constant tensor:
#      x y z
#    x 1.880770 0.000000 0.000000 
#    y 0.000000 1.850860 0.000000 
#    z 0.000000 0.000000 1.872670 
# 
# From -- ./inp_files/16348.got.cif
#   From: 2010.03.12/outbox.cif.g09.slc.cpg/sg56_9_cif.got.tgz:16348.got - 2010.04.16 15:33:40.
