data_PCOD8229410
_publ_section_title
;
Structure prediction by ZEFSAII (Michael W. Deem and Ramdas Pophale) SiO2 
 PCOD8229410
Probable space group: P C C N
;
_chemical_formula_sum "Si O2"
_cell_formula_units_Z 60
_cell_length_a 10.694635
_cell_length_b 23.819809
_cell_length_c 10.626823
_cell_angle_alpha 90.000000
_cell_angle_beta 90.000000
_cell_angle_gamma 90.000000
_cell_volume 2707.121131
_symmetry_space_group_name_H-M "P C C N"
_symmetry_group_IT_number 56
_symmetry_cell_setting 'orthorhombic'
loop_
_space_group_symop_operation_xyz
x,y,z
1/2-x,1/2-y,z
1/2+x,-y,1/2-z
-x,1/2+y,1/2-z
-x,-y,-z
1/2+x,1/2+y,-z
1/2-x,y,1/2+z
x,1/2-y,1/2+z
loop_
_atom_site_type_symbol
_atom_site_label
_atom_site_fract_x
_atom_site_fract_y
_atom_site_fract_z
Si Si1 0.248409 0.444238 0.055034
Si Si2 0.250000 0.250000 0.855515
Si Si3 0.536558 0.084377 0.573783
Si Si4 0.266878 0.513071 0.810113
Si Si5 0.153311 0.613613 0.680159
Si Si6 0.902004 0.838340 0.513175
Si Si7 0.591192 0.330021 0.274708
Si Si8 0.502609 0.712076 0.275525
O O1 0.391939 0.425271 0.045374
O O2 0.223761 0.476167 0.184790
O O3 0.153851 0.391968 0.057957
O O4 0.213747 0.479641 0.930230
O O5 0.360639 0.270504 0.767350
O O6 0.284553 0.198157 0.943485
O O7 0.620492 0.081672 0.448221
O O8 0.559408 0.144418 0.638330
O O9 0.591848 0.034888 0.662239
O O10 0.175125 0.566320 0.787140
O O11 0.276879 0.651549 0.668227
O O12 0.038674 0.654632 0.709214
O O13 0.991273 0.800931 0.423742
O O14 0.984872 0.854357 0.633300
O O15 0.591941 0.262750 0.256383
#
# Coordination Sequence:
#
# PCOD8229410 Si02
#       8
#     8   4   8   8   8   8   8   8
#     4  12  26  46  75 107 145 195 244 303 372 430
#     4  10  24  46  66 110 144 178 238 296 364 450
#     4  11  25  46  75 100 147 192 239 302 369 439
#     4  11  26  46  70 107 141 189 249 297 355 441
#     4  11  25  47  71 103 143 193 239 299 365 430
#     4  11  26  42  73 104 139 187 236 299 366 430
#     4  10  26  46  68 110 142 183 246 297 361 451
#     4  11  25  43  74 103 144 187 233 301 369 433
#
# _framework density 22.163765000000001
#
# number of rings (size 3 to 8) (size 9 to 14) (size 15 to 20)
#    0.000    1.067    1.333    2.800   16.800    0.000 
#    0.000    2.667    0.000    0.000    0.000    0.000 
#    0.000    0.000    0.000    0.000    0.000    0.000 
#
# Total GULP energy -744185.673853 kJ/mol
# GULP energy per Si atom -12403.094564 kJ/mol
# Density = 2.211332 g / cm^3
# Si number density = 22.163765 Si / 1000 Ang^3
#
#
#
# Elastic Constant Matrix: (Units=GPa)
#
#
# Indices 1 2 3 4 5 6 
#
# 1 104.6407 41.5167 35.0660 0.0000 0.0000 0.0000
# 2 41.5167 108.9561 47.0122 0.0000 0.0000 0.0000
# 3 35.0660 47.0122 126.2936 0.0000 0.0000 0.0000
# 4 0.0000 0.0000 0.0000 35.9339 0.0000 0.0000
# 5 0.0000 0.0000 0.0000 0.0000 16.8166 0.0000
# 6 0.0000 0.0000 0.0000 0.0000 0.0000 33.3196
#
#
#
# Elastic Compliance Matrix: (Units=1/GPa)
#
#
# Indices 1 2 3 4 5 6 
#
# 1 0.011622 -0.003617 -0.001880 0.000000 0.000000 0.000000
# 2 -0.003617 0.012060 -0.003485 0.000000 0.000000 0.000000
# 3 -0.001880 -0.003485 0.009737 0.000000 0.000000 0.000000
# 4 0.000000 0.000000 0.000000 0.027829 0.000000 0.000000
# 5 0.000000 0.000000 0.000000 0.000000 0.059465 0.000000
# 6 0.000000 0.000000 0.000000 0.000000 0.000000 0.030012
#
#
# Mechanical properties :
#
#
# Convention : Reuss Voigt Hill
#
# Bulk Modulus (GPa) = 64.70687 65.23112 64.96900
# Shear Modulus (GPa) = 28.76180 31.63371 30.19776
#
# Velocity S-wave (km/s) = 3.60626 3.78202 3.69519
# Velocity P-wave (km/s) = 6.82630 6.96900 6.89802
#
# Compressibility (1/GPa) = 0.01545431
#
# Stress axis : x y z
#
# Youngs Moduli (GPa) = 86.04582 82.91926 102.69655
#
# Poissons Ratio (x) = 0.29992 0.19311
# Poissons Ratio (y) = 0.31123 0.35789
# Poissons Ratio (z) = 0.16180 0.28897
#
# Static dielectric constant tensor:
#      x y z
#    x 3.885920 0.000000 0.000000 
#    y 0.000000 4.299820 0.000000 
#    z 0.000000 0.000000 4.056390 
# 
# 
# High freq. dielectric constant tensor:
#      x y z
#    x 1.869670 0.000000 0.000000 
#    y 0.000000 1.886200 0.000000 
#    z 0.000000 0.000000 1.879960 
# 
# From -- ./inp_files/7350.got.cif
#   From: 2010.03.12/outbox.cif.g09.slc.cpg/sg56_4_cif.got.tgz:7350.got - 2010.04.16 15:33:40.
