data_PCOD8229513
_publ_section_title
;
Structure prediction by ZEFSAII (Michael W. Deem and Ramdas Pophale) SiO2 
 PCOD8229513
Probable space group: P C C N
;
_chemical_formula_sum "Si O2"
_cell_formula_units_Z 32
_cell_length_a 18.493072
_cell_length_b 8.601499
_cell_length_c 9.791584
_cell_angle_alpha 90.000000
_cell_angle_beta 90.000000
_cell_angle_gamma 90.000000
_cell_volume 1557.529058
_symmetry_space_group_name_H-M "P C C N"
_symmetry_group_IT_number 56
_symmetry_cell_setting 'orthorhombic'
loop_
_space_group_symop_operation_xyz
x,y,z
1/2-x,1/2-y,z
1/2+x,-y,1/2-z
-x,1/2+y,1/2-z
-x,-y,-z
1/2+x,1/2+y,-z
1/2-x,y,1/2+z
x,1/2-y,1/2+z
loop_
_atom_site_type_symbol
_atom_site_label
_atom_site_fract_x
_atom_site_fract_y
_atom_site_fract_z
Si Si1 0.167083 0.291601 0.051687
Si Si2 0.419966 0.571050 0.469456
Si Si3 0.410159 0.140003 0.324996
Si Si4 0.946993 0.196648 0.261974
O O1 0.250000 0.250000 0.034829
O O2 0.143249 0.443021 0.963650
O O3 0.122215 0.152933 0.978048
O O4 0.149875 0.322797 0.209833
O O5 0.500000 0.500000 0.500000
O O6 0.415128 0.665599 0.329646
O O7 0.402323 0.686420 0.596549
O O8 0.470131 0.271087 0.299409
O O9 0.443498 0.968321 0.315404
#
# Coordination Sequence:
#
# PCOD8229513 Si02
#       4
#     8   8   8   8
#     4  11  23  40  60  88 127 167 204 249 318 386
#     4  11  21  40  60  96 126 151 216 262 302 370
#     4  11  21  37  61  92 121 163 208 261 307 368
#     4  11  20  37  63  93 123 158 210 268 307 346
#
# _framework density 20.545362999999998
#
# number of rings (size 3 to 8) (size 9 to 14) (size 15 to 20)
#    0.000    1.000    7.500    0.750    0.000    6.000 
#    0.000    1.250    0.000    9.000    0.000    0.000 
#    0.000    0.000    0.000    0.000    0.000    0.000 
#
# Total GULP energy -396607.966145 kJ/mol
# GULP energy per Si atom -12393.998942 kJ/mol
# Density = 2.049860 g / cm^3
# Si number density = 20.545363 Si / 1000 Ang^3
#
#
#
# Elastic Constant Matrix: (Units=GPa)
#
#
# Indices 1 2 3 4 5 6 
#
# 1 104.0534 54.9512 -0.2610 0.0000 0.0000 0.0000
# 2 54.9512 81.1438 14.7242 0.0000 0.0000 0.0000
# 3 -0.2610 14.7242 48.8686 0.0000 0.0000 0.0000
# 4 0.0000 0.0000 0.0000 48.2153 0.0000 0.0000
# 5 0.0000 0.0000 0.0000 0.0000 17.7943 0.0000
# 6 0.0000 0.0000 0.0000 0.0000 0.0000 28.9438
#
#
#
# Elastic Compliance Matrix: (Units=1/GPa)
#
#
# Indices 1 2 3 4 5 6 
#
# 1 0.015486 -0.011110 0.003430 0.000000 0.000000 0.000000
# 2 -0.011110 0.021007 -0.006389 0.000000 0.000000 0.000000
# 3 0.003430 -0.006389 0.022406 0.000000 0.000000 0.000000
# 4 0.000000 0.000000 0.000000 0.020740 0.000000 0.000000
# 5 0.000000 0.000000 0.000000 0.000000 0.056198 0.000000
# 6 0.000000 0.000000 0.000000 0.000000 0.000000 0.034550
#
#
# Mechanical properties :
#
#
# Convention : Reuss Voigt Hill
#
# Bulk Modulus (GPa) = 32.50717 41.43273 36.96995
# Shear Modulus (GPa) = 23.94890 29.96744 26.95817
#
# Velocity S-wave (km/s) = 3.41788 3.82330 3.62626
# Velocity P-wave (km/s) = 5.60646 6.30083 5.96376
#
# Compressibility (1/GPa) = 0.03076244
#
# Stress axis : x y z
#
# Youngs Moduli (GPa) = 64.57358 47.60383 44.63038
#
# Poissons Ratio (x) = 0.52887 -0.15309
# Poissons Ratio (y) = 0.71740 0.28513
# Poissons Ratio (z) = -0.22149 0.30413
#
# Static dielectric constant tensor:
#      x y z
#    x 3.305050 0.000000 0.000000 
#    y 0.000000 3.838220 0.000000 
#    z 0.000000 0.000000 4.212490 
# 
# 
# High freq. dielectric constant tensor:
#      x y z
#    x 1.760160 0.000000 0.000000 
#    y 0.000000 1.808750 0.000000 
#    z 0.000000 0.000000 1.822730 
# 
# From -- ./inp_files/1938.got.cif
#   From: 2010.03.12/outbox.cif.g09.slc.cpg/sg56_1_cif.got.tgz:1938.got - 2010.04.16 15:33:40.
