data_PCOD8229317
_publ_section_title
;
Structure prediction by ZEFSAII (Michael W. Deem and Ramdas Pophale) SiO2 
 PCOD8229317
Probable space group: P C C N
;
_chemical_formula_sum "Si O2"
_cell_formula_units_Z 64
_cell_length_a 16.776270
_cell_length_b 12.555866
_cell_length_c 14.009458
_cell_angle_alpha 90.000000
_cell_angle_beta 90.000000
_cell_angle_gamma 90.000000
_cell_volume 2950.960612
_symmetry_space_group_name_H-M "P C C N"
_symmetry_group_IT_number 56
_symmetry_cell_setting 'orthorhombic'
loop_
_space_group_symop_operation_xyz
x,y,z
1/2-x,1/2-y,z
1/2+x,-y,1/2-z
-x,1/2+y,1/2-z
-x,-y,-z
1/2+x,1/2+y,-z
1/2-x,y,1/2+z
x,1/2-y,1/2+z
loop_
_atom_site_type_symbol
_atom_site_label
_atom_site_fract_x
_atom_site_fract_y
_atom_site_fract_z
Si Si1 0.582187 0.562740 0.746440
Si Si2 0.439068 0.755887 0.057534
Si Si3 0.739279 0.916479 0.577819
Si Si4 0.396570 0.852955 0.866023
Si Si5 0.755048 0.093799 0.221734
Si Si6 0.620780 0.729511 0.596959
Si Si7 0.426391 0.659458 0.760915
Si Si8 0.671250 0.445485 0.907171
O O1 0.581722 0.472380 0.664466
O O2 0.605695 0.677580 0.701452
O O3 0.491389 0.570081 0.782520
O O4 0.630839 0.535931 0.841489
O O5 0.535679 0.748580 0.045358
O O6 0.415445 0.820427 0.150060
O O7 0.394820 0.640799 0.057927
O O8 0.404040 0.834222 0.977728
O O9 0.664968 0.842103 0.605513
O O10 0.817543 0.850596 0.541757
O O11 0.764427 0.976721 0.676167
O O12 0.714222 0.001731 0.497482
O O13 0.306264 0.825707 0.830491
O O14 0.453517 0.769024 0.812034
O O15 0.844878 0.117698 0.193800
O O16 0.738273 0.103417 0.335873
#
# Coordination Sequence:
#
# PCOD8229317 Si02
#       8
#     8   8   8   8   8   8   8   8
#     4  10  23  46  68  96 140 174 227 283 339 412
#     4  11  25  43  72  99 134 180 227 286 338 418
#     4  11  24  45  68  98 138 178 221 286 342 411
#     4  11  23  44  64  97 140 168 224 284 336 400
#     4  11  24  44  64  99 137 174 226 282 342 406
#     4  10  24  47  66 101 137 175 232 278 345 405
#     4  11  24  40  69 100 130 180 224 278 347 407
#     4  11  24  44  69 100 134 179 234 278 339 417
#
# _framework density 21.687853
#
# number of rings (size 3 to 8) (size 9 to 14) (size 15 to 20)
#    0.000    1.250    5.000    1.125    5.250    3.500 
#    4.500    0.000    0.000    0.000    0.000    0.000 
#    0.000    0.000    0.000    0.000    0.000    0.000 
#
# Total GULP energy -793052.156427 kJ/mol
# GULP energy per Si atom -12391.439944 kJ/mol
# Density = 2.163849 g / cm^3
# Si number density = 21.687853 Si / 1000 Ang^3
#
#
#
# Elastic Constant Matrix: (Units=GPa)
#
#
# Indices 1 2 3 4 5 6 
#
# 1 80.8953 20.2169 0.3947 0.0000 0.0000 0.0000
# 2 20.2169 65.8116 21.0744 0.0000 0.0000 0.0000
# 3 0.3947 21.0744 77.5980 0.0000 0.0000 0.0000
# 4 0.0000 0.0000 0.0000 33.3712 0.0000 0.0000
# 5 0.0000 0.0000 0.0000 0.0000 23.2527 0.0000
# 6 0.0000 0.0000 0.0000 0.0000 0.0000 30.7689
#
#
#
# Elastic Compliance Matrix: (Units=1/GPa)
#
#
# Indices 1 2 3 4 5 6 
#
# 1 0.013484 -0.004513 0.001157 0.000000 0.000000 0.000000
# 2 -0.004513 0.018152 -0.004907 0.000000 0.000000 0.000000
# 3 0.001157 -0.004907 0.014214 0.000000 0.000000 0.000000
# 4 0.000000 0.000000 0.000000 0.029966 0.000000 0.000000
# 5 0.000000 0.000000 0.000000 0.000000 0.043006 0.000000
# 6 0.000000 0.000000 0.000000 0.000000 0.000000 0.032500
#
#
# Mechanical properties :
#
#
# Convention : Reuss Voigt Hill
#
# Bulk Modulus (GPa) = 34.10092 34.18630 34.14361
# Shear Modulus (GPa) = 28.14965 29.65316 28.90140
#
# Velocity S-wave (km/s) = 3.60661 3.70167 3.65445
# Velocity P-wave (km/s) = 5.75336 5.83669 5.79517
#
# Compressibility (1/GPa) = 0.02932472
#
# Stress axis : x y z
#
# Youngs Moduli (GPa) = 74.16324 55.08894 70.35471
#
# Poissons Ratio (x) = 0.24859 -0.08140
# Poissons Ratio (y) = 0.33467 0.34523
# Poissons Ratio (z) = -0.08580 0.27032
#
# Static dielectric constant tensor:
#      x y z
#    x 4.325900 0.000000 0.000000 
#    y 0.000000 3.931890 0.000000 
#    z 0.000000 0.000000 3.731210 
# 
# 
# High freq. dielectric constant tensor:
#      x y z
#    x 1.869450 0.000000 0.000000 
#    y 0.000000 1.853660 0.000000 
#    z 0.000000 0.000000 1.836120 
# 
# From -- ./inp_files/12850.got.cif
#   From: 2010.03.12/outbox.cif.g09.slc.cpg/sg56_7_cif.got.tgz:12850.got - 2010.04.16 15:33:40.
