data_PCOD8229634
_publ_section_title
;
Structure prediction by ZEFSAII (Michael W. Deem and Ramdas Pophale) SiO2 
 PCOD8229634
Probable space group: P C C N
;
_chemical_formula_sum "Si O2"
_cell_formula_units_Z 52
_cell_length_a 5.566618
_cell_length_b 21.592615
_cell_length_c 18.639812
_cell_angle_alpha 90.000000
_cell_angle_beta 90.000000
_cell_angle_gamma 90.000000
_cell_volume 2240.465128
_symmetry_space_group_name_H-M "P C C N"
_symmetry_group_IT_number 56
_symmetry_cell_setting 'orthorhombic'
loop_
_space_group_symop_operation_xyz
x,y,z
1/2-x,1/2-y,z
1/2+x,-y,1/2-z
-x,1/2+y,1/2-z
-x,-y,-z
1/2+x,1/2+y,-z
1/2-x,y,1/2+z
x,1/2-y,1/2+z
loop_
_atom_site_type_symbol
_atom_site_label
_atom_site_fract_x
_atom_site_fract_y
_atom_site_fract_z
Si Si1 0.924034 0.699582 0.113084
Si Si2 0.440566 0.640548 0.323977
Si Si3 0.575087 0.564407 0.966645
Si Si4 0.750000 0.250000 0.766074
Si Si5 0.575384 0.462784 0.181721
Si Si6 0.931000 0.367614 0.018272
Si Si7 0.763160 0.908157 0.707249
O O1 0.750000 0.750000 0.078194
O O2 0.806195 0.635487 0.139581
O O3 0.032487 0.734926 0.181238
O O4 0.094039 0.681698 0.046492
O O5 0.274017 0.690359 0.284253
O O6 0.493521 0.664513 0.404826
O O7 0.670714 0.633313 0.273578
O O8 0.324718 0.572315 0.332998
O O9 0.612658 0.556621 0.880607
O O10 0.338056 0.605491 0.981327
O O11 0.833140 0.588241 0.997468
O O12 0.500000 0.500000 0.000000
O O13 0.498313 0.442269 0.261706
O O14 0.589109 0.537372 0.179585
#
# Coordination Sequence:
#
# PCOD8229634 Si02
#       7
#     8   8   8   4   8   8   8
#     4  12  28  47  72 106 146 197 252 311 374 443
#     4  11  24  46  69 106 141 190 245 304 367 445
#     4  11  24  45  72 107 148 195 240 303 375 451
#     4  12  26  46  76 100 144 194 250 314 370 442
#     4  11  23  39  72 104 144 182 243 299 373 438
#     4  11  27  47  72 105 150 190 252 301 375 445
#     4  12  22  42  70 105 141 187 241 305 367 445
#
# _framework density 23.209464000000001
#
# number of rings (size 3 to 8) (size 9 to 14) (size 15 to 20)
#    0.000    0.615    6.154    1.385    2.154    4.308 
#    5.538    0.000    0.000    0.000    0.000    0.000 
#    0.000    0.000    0.000    0.000    0.000    0.000 
#
# Total GULP energy -644220.121154 kJ/mol
# GULP energy per Si atom -12388.848484 kJ/mol
# Density = 2.315664 g / cm^3
# Si number density = 23.209464 Si / 1000 Ang^3
#
#
#
# Elastic Constant Matrix: (Units=GPa)
#
#
# Indices 1 2 3 4 5 6 
#
# 1 70.4515 10.2618 -1.5621 0.0000 0.0000 0.0000
# 2 10.2618 93.1731 35.9573 0.0000 0.0000 0.0000
# 3 -1.5621 35.9573 118.1393 0.0000 0.0000 0.0000
# 4 0.0000 0.0000 0.0000 22.8479 0.0000 0.0000
# 5 0.0000 0.0000 0.0000 0.0000 30.6114 0.0000
# 6 0.0000 0.0000 0.0000 0.0000 0.0000 28.0374
#
#
#
# Elastic Compliance Matrix: (Units=1/GPa)
#
#
# Indices 1 2 3 4 5 6 
#
# 1 0.014487 -0.001892 0.000767 0.000000 0.000000 0.000000
# 2 -0.001892 0.012408 -0.003802 0.000000 0.000000 0.000000
# 3 0.000767 -0.003802 0.009632 0.000000 0.000000 0.000000
# 4 0.000000 0.000000 0.000000 0.043768 0.000000 0.000000
# 5 0.000000 0.000000 0.000000 0.000000 0.032668 0.000000
# 6 0.000000 0.000000 0.000000 0.000000 0.000000 0.035667
#
#
# Mechanical properties :
#
#
# Convention : Reuss Voigt Hill
#
# Bulk Modulus (GPa) = 37.48861 41.23088 39.35974
# Shear Modulus (GPa) = 29.87357 32.10647 30.99002
#
# Velocity S-wave (km/s) = 3.59155 3.72336 3.65805
# Velocity P-wave (km/s) = 5.77809 6.02393 5.90229
#
# Compressibility (1/GPa) = 0.02667477
#
# Stress axis : x y z
#
# Youngs Moduli (GPa) = 69.02885 80.59217 103.82276
#
# Poissons Ratio (x) = 0.15245 -0.07966
# Poissons Ratio (y) = 0.13058 0.39469
# Poissons Ratio (z) = -0.05297 0.30638
#
# Static dielectric constant tensor:
#      x y z
#    x 4.050580 0.000000 0.000000 
#    y 0.000000 4.338910 0.000000 
#    z 0.000000 0.000000 4.587270 
# 
# 
# High freq. dielectric constant tensor:
#      x y z
#    x 1.904160 0.000000 0.000000 
#    y 0.000000 1.911360 0.000000 
#    z 0.000000 0.000000 1.937590 
# 
# From -- ./inp_files/17576.got.cif
#   From: 2010.03.12/outbox.cif.g09.slc.cpg/sg56_9_cif.got.tgz:17576.got - 2010.04.16 15:33:40.
