data_PCOD8229743
_publ_section_title
;
Structure prediction by ZEFSAII (Michael W. Deem and Ramdas Pophale) SiO2 
 PCOD8229743
Probable space group: P C C N
;
_chemical_formula_sum "Si O2"
_cell_formula_units_Z 40
_cell_length_a 13.488693
_cell_length_b 8.729183
_cell_length_c 14.634199
_cell_angle_alpha 90.000000
_cell_angle_beta 90.000000
_cell_angle_gamma 90.000000
_cell_volume 1723.107707
_symmetry_space_group_name_H-M "P C C N"
_symmetry_group_IT_number 56
_symmetry_cell_setting 'orthorhombic'
loop_
_space_group_symop_operation_xyz
x,y,z
1/2-x,1/2-y,z
1/2+x,-y,1/2-z
-x,1/2+y,1/2-z
-x,-y,-z
1/2+x,1/2+y,-z
1/2-x,y,1/2+z
x,1/2-y,1/2+z
loop_
_atom_site_type_symbol
_atom_site_label
_atom_site_fract_x
_atom_site_fract_y
_atom_site_fract_z
Si Si1 0.461832 0.956062 0.235544
Si Si2 0.344211 0.339991 0.994100
Si Si3 0.969043 0.157254 0.455226
Si Si4 0.344034 0.838557 0.406663
Si Si5 0.862777 0.719898 0.291841
O O1 0.421652 0.874338 0.143983
O O2 0.415931 0.875161 0.323483
O O3 0.582032 0.925415 0.242925
O O4 0.432512 0.133926 0.229874
O O5 0.250000 0.250000 0.957167
O O6 0.358767 0.318572 0.101690
O O7 0.440989 0.277243 0.942589
O O8 0.321879 0.512739 0.966787
O O9 0.887575 0.221014 0.521711
O O10 0.000000 0.000000 0.500000
O O11 0.250000 0.750000 0.365213
O O12 0.750000 0.750000 0.254964
#
# Coordination Sequence:
#
# PCOD8229743 Si02
#       5
#     8   8   8   8   8
#     4  12  26  48  75 112 152 201 254 323 389 467
#     4  11  24  48  75 106 150 201 254 313 388 459
#     4  12  24  46  76 108 147 199 252 314 391 461
#     4  12  28  46  74 111 153 202 259 320 386 465
#     4  11  27  47  76 112 152 200 259 319 387 463
#
# _framework density 23.213873
#
# number of rings (size 3 to 8) (size 9 to 14) (size 15 to 20)
#    0.000    0.400    4.000    3.000    5.600    7.200 
#    0.000    0.000    0.000    0.000    0.000    0.000 
#    0.000    0.000    0.000    0.000    0.000    0.000 
#
# Total GULP energy -495933.614992 kJ/mol
# GULP energy per Si atom -12398.340375 kJ/mol
# Density = 2.316104 g / cm^3
# Si number density = 23.213873 Si / 1000 Ang^3
#
#
#
# Elastic Constant Matrix: (Units=GPa)
#
#
# Indices 1 2 3 4 5 6 
#
# 1 109.3747 44.2595 27.3257 0.0000 0.0000 0.0000
# 2 44.2595 137.0666 38.2077 0.0000 0.0000 0.0000
# 3 27.3257 38.2077 116.6568 0.0000 0.0000 0.0000
# 4 0.0000 0.0000 0.0000 12.6221 0.0000 0.0000
# 5 0.0000 0.0000 0.0000 0.0000 43.7305 0.0000
# 6 0.0000 0.0000 0.0000 0.0000 0.0000 48.6195
#
#
#
# Elastic Compliance Matrix: (Units=1/GPa)
#
#
# Indices 1 2 3 4 5 6 
#
# 1 0.010757 -0.003049 -0.001521 0.000000 0.000000 0.000000
# 2 -0.003049 0.008893 -0.002198 0.000000 0.000000 0.000000
# 3 -0.001521 -0.002198 0.009648 0.000000 0.000000 0.000000
# 4 0.000000 0.000000 0.000000 0.079226 0.000000 0.000000
# 5 0.000000 0.000000 0.000000 0.000000 0.022867 0.000000
# 6 0.000000 0.000000 0.000000 0.000000 0.000000 0.020568
#
#
# Mechanical properties :
#
#
# Convention : Reuss Voigt Hill
#
# Bulk Modulus (GPa) = 63.44816 64.74267 64.09541
# Shear Modulus (GPa) = 29.28237 37.88143 33.58190
#
# Velocity S-wave (km/s) = 3.55550 4.04399 3.80759
# Velocity P-wave (km/s) = 6.65182 7.05375 6.85573
#
# Compressibility (1/GPa) = 0.01576090
#
# Stress axis : x y z
#
# Youngs Moduli (GPa) = 92.96394 112.44508 103.64366
#
# Poissons Ratio (x) = 0.34290 0.15763
# Poissons Ratio (y) = 0.28349 0.22785
# Poissons Ratio (z) = 0.14139 0.24720
#
# Static dielectric constant tensor:
#      x y z
#    x 5.193200 0.000000 0.000000 
#    y 0.000000 4.747310 0.000000 
#    z 0.000000 0.000000 4.460150 
# 
# 
# High freq. dielectric constant tensor:
#      x y z
#    x 1.915300 0.000000 0.000000 
#    y 0.000000 1.927670 0.000000 
#    z 0.000000 0.000000 1.935250 
# 
# From -- ./inp_files/10360.got.cif
#   From: 2010.03.12/outbox.cif.g09.slc.cpg/sg56_6_cif.got.tgz:10360.got - 2010.04.16 15:33:40.
