data_PCOD8229546
_publ_section_title
;
Structure prediction by ZEFSAII (Michael W. Deem and Ramdas Pophale) SiO2 
 PCOD8229546
Probable space group: P C C N
;
_chemical_formula_sum "Si O2"
_cell_formula_units_Z 40
_cell_length_a 22.688163
_cell_length_b 4.967548
_cell_length_c 16.986015
_cell_angle_alpha 90.000000
_cell_angle_beta 90.000000
_cell_angle_gamma 90.000000
_cell_volume 1914.400986
_symmetry_space_group_name_H-M "P C C N"
_symmetry_group_IT_number 56
_symmetry_cell_setting 'orthorhombic'
loop_
_space_group_symop_operation_xyz
x,y,z
1/2-x,1/2-y,z
1/2+x,-y,1/2-z
-x,1/2+y,1/2-z
-x,-y,-z
1/2+x,1/2+y,-z
1/2-x,y,1/2+z
x,1/2-y,1/2+z
loop_
_atom_site_type_symbol
_atom_site_label
_atom_site_fract_x
_atom_site_fract_y
_atom_site_fract_z
Si Si1 0.289462 0.502513 0.414406
Si Si2 0.953059 0.178017 0.127429
Si Si3 0.412270 0.187020 0.626793
Si Si4 0.387852 0.696953 0.527372
Si Si5 0.607905 0.836553 0.195952
O O1 0.250000 0.250000 0.440333
O O2 0.327013 0.596173 0.489784
O O3 0.330318 0.426224 0.340977
O O4 0.250000 0.750000 0.385184
O O5 0.941408 0.433720 0.183565
O O6 0.020420 0.088146 0.134924
O O7 0.911382 0.935106 0.153178
O O8 0.937864 0.255423 0.037981
O O9 0.412401 0.478188 0.587591
O O10 0.382130 0.210942 0.711809
O O11 0.376196 0.973725 0.574227
#
# Coordination Sequence:
#
# PCOD8229546 Si02
#       5
#     8   8   8   8   8
#     4  11  23  44  64  80 111 162 210 253 299 358
#     4  11  21  39  61  90 129 170 192 224 296 378
#     4  12  22  38  61  96 131 152 189 255 299 348
#     4  11  23  38  61  91 120 158 204 242 296 361
#     4  11  23  39  62  91 120 160 207 240 292 363
#
# _framework density 20.894262999999999
#
# number of rings (size 3 to 8) (size 9 to 14) (size 15 to 20)
#    0.000    0.800    0.000   10.800    0.000    0.000 
#    0.000    6.000    0.000    0.000    0.000    0.000 
#    0.000    0.000    0.000    0.000    0.000    0.000 
#
# Total GULP energy -496339.009541 kJ/mol
# GULP energy per Si atom -12408.475239 kJ/mol
# Density = 2.084671 g / cm^3
# Si number density = 20.894263 Si / 1000 Ang^3
#
#
#
# Elastic Constant Matrix: (Units=GPa)
#
#
# Indices 1 2 3 4 5 6 
#
# 1 78.8280 14.3830 48.1741 0.0000 0.0000 0.0000
# 2 14.3830 124.9969 50.4453 0.0000 0.0000 0.0000
# 3 48.1741 50.4453 131.5758 0.0000 0.0000 0.0000
# 4 0.0000 0.0000 0.0000 30.4910 0.0000 0.0000
# 5 0.0000 0.0000 0.0000 0.0000 8.2633 0.0000
# 6 0.0000 0.0000 0.0000 0.0000 0.0000 39.2944
#
#
#
# Elastic Compliance Matrix: (Units=1/GPa)
#
#
# Indices 1 2 3 4 5 6 
#
# 1 0.016385 0.000634 -0.006242 0.000000 0.000000 0.000000
# 2 0.000634 0.009489 -0.003870 0.000000 0.000000 0.000000
# 3 -0.006242 -0.003870 0.011369 0.000000 0.000000 0.000000
# 4 0.000000 0.000000 0.000000 0.032797 0.000000 0.000000
# 5 0.000000 0.000000 0.000000 0.000000 0.121017 0.000000
# 6 0.000000 0.000000 0.000000 0.000000 0.000000 0.025449
#
#
# Mechanical properties :
#
#
# Convention : Reuss Voigt Hill
#
# Bulk Modulus (GPa) = 54.68470 62.37837 58.53154
# Shear Modulus (GPa) = 20.69895 30.43630 25.56762
#
# Velocity S-wave (km/s) = 3.15088 3.82079 3.50189
# Velocity P-wave (km/s) = 6.28222 7.02735 6.66521
#
# Compressibility (1/GPa) = 0.01828665
#
# Stress axis : x y z
#
# Youngs Moduli (GPa) = 61.03182 105.38357 87.95573
#
# Poissons Ratio (x) = -0.06679 0.54902
# Poissons Ratio (y) = -0.03868 0.34040
# Poissons Ratio (z) = 0.38096 0.40785
#
# Static dielectric constant tensor:
#      x y z
#    x 3.665320 0.000000 0.000000 
#    y 0.000000 4.047520 0.000000 
#    z 0.000000 0.000000 3.771780 
# 
# 
# High freq. dielectric constant tensor:
#      x y z
#    x 1.804550 0.000000 0.000000 
#    y 0.000000 1.843740 0.000000 
#    z 0.000000 0.000000 1.819810 
# 
# From -- ./inp_files/13160.got.cif
#   From: 2010.03.12/outbox.cif.g09.slc.cpg/sg56_7_cif.got.tgz:13160.got - 2010.04.16 15:33:40.
