data_PCOD8229800
_publ_section_title
;
Structure prediction by ZEFSAII (Michael W. Deem and Ramdas Pophale) SiO2 
 PCOD8229800
Probable space group: P C C N
;
_chemical_formula_sum "Si O2"
_cell_formula_units_Z 32
_cell_length_a 8.729908
_cell_length_b 4.965718
_cell_length_c 28.824518
_cell_angle_alpha 90.000000
_cell_angle_beta 90.000000
_cell_angle_gamma 90.000000
_cell_volume 1249.550387
_symmetry_space_group_name_H-M "P C C N"
_symmetry_group_IT_number 56
_symmetry_cell_setting 'orthorhombic'
loop_
_space_group_symop_operation_xyz
x,y,z
1/2-x,1/2-y,z
1/2+x,-y,1/2-z
-x,1/2+y,1/2-z
-x,-y,-z
1/2+x,1/2+y,-z
1/2-x,y,1/2+z
x,1/2-y,1/2+z
loop_
_atom_site_type_symbol
_atom_site_label
_atom_site_fract_x
_atom_site_fract_y
_atom_site_fract_z
Si Si1 0.352234 0.493598 0.914730
Si Si2 0.426109 0.306178 0.536891
Si Si3 0.584422 0.359071 0.267468
Si Si4 0.914488 0.144816 0.372742
O O1 0.250000 0.750000 0.898998
O O2 0.463603 0.543672 0.959620
O O3 0.458389 0.383831 0.872793
O O4 0.250000 0.250000 0.933484
O O5 0.250000 0.250000 0.525929
O O6 0.500000 0.500000 0.500000
O O7 0.453409 0.415699 0.589745
O O8 0.750000 0.250000 0.250976
O O9 0.538027 0.617422 0.237156
O O10 0.591500 0.466182 0.320478
O O11 0.750000 0.250000 0.388900
#
# Coordination Sequence:
#
# PCOD8229800 Si02
#       4
#     8   8   8   8
#     4  12  27  49  77 116 154 201 264 329 388 459
#     4  12  29  52  83 115 162 215 274 326 393 472
#     4  11  27  49  80 118 157 203 260 323 401 475
#     4  11  26  51  81 110 159 216 259 321 399 480
#
# _framework density 25.609210999999998
#
# number of rings (size 3 to 8) (size 9 to 14) (size 15 to 20)
#    0.000    0.500    5.000    0.750    7.000    5.000 
#    0.000    1.250    0.000    0.000    0.000    0.000 
#    0.000    0.000    0.000    0.000    0.000    0.000 
#
# Total GULP energy -396773.162925 kJ/mol
# GULP energy per Si atom -12399.161341 kJ/mol
# Density = 2.555092 g / cm^3
# Si number density = 25.609211 Si / 1000 Ang^3
#
#
#
# Elastic Constant Matrix: (Units=GPa)
#
#
# Indices 1 2 3 4 5 6 
#
# 1 201.4226 60.2523 35.7553 0.0000 0.0000 0.0000
# 2 60.2523 121.3427 20.8689 0.0000 0.0000 0.0000
# 3 35.7553 20.8689 93.8286 0.0000 0.0000 0.0000
# 4 0.0000 0.0000 0.0000 -26.7708 0.0000 0.0000
# 5 0.0000 0.0000 0.0000 0.0000 -14.8005 0.0000
# 6 0.0000 0.0000 0.0000 0.0000 0.0000 59.3817
#
#
#
# Elastic Compliance Matrix: (Units=1/GPa)
#
#
# Indices 1 2 3 4 5 6 
#
# 1 0.006084 -0.002727 -0.001712 0.000000 0.000000 0.000000
# 2 -0.002727 0.009791 -0.001139 0.000000 0.000000 0.000000
# 3 -0.001712 -0.001139 0.011563 0.000000 0.000000 0.000000
# 4 0.000000 0.000000 0.000000 -0.037354 0.000000 0.000000
# 5 0.000000 0.000000 0.000000 0.000000 -0.067565 0.000000
# 6 0.000000 0.000000 0.000000 0.000000 0.000000 0.016840
#
#
# Mechanical properties :
#
#
# Convention : Reuss Voigt Hill
#
# Bulk Modulus (GPa) = 61.41056 72.26077 66.83567
# Shear Modulus (GPa) = -113.48659 23.54324 -44.97168
#
# Velocity S-wave (km/s) = -6.66415 3.03533 -4.19510
# Velocity P-wave (km/s) = 5.93150 6.36885 1.64006
#
# Compressibility (1/GPa) = 0.01628384
#
# Stress axis : x y z
#
# Youngs Moduli (GPa) = 164.35912 102.13616 86.47988
#
# Poissons Ratio (x) = 0.27849 0.14806
# Poissons Ratio (y) = 0.44815 0.09846
# Poissons Ratio (z) = 0.28139 0.11629
#
# Static dielectric constant tensor:
#      x y z
#    x 5.557430 0.000000 0.000000 
#    y 0.000000 5.246580 0.000000 
#    z 0.000000 0.000000 4.362070 
# 
# 
# High freq. dielectric constant tensor:
#      x y z
#    x 2.056770 0.000000 0.000000 
#    y 0.000000 2.028750 0.000000 
#    z 0.000000 0.000000 2.010980 
# 
# From -- ./inp_files/22662.got.cif
#   From: 2010.03.12/outbox.cif.g09.slc.cpg/sg56_12_cif.got.tgz:22662.got - 2010.04.16 15:33:40.
