data_PCOD8229809
_publ_section_title
;
Structure prediction by ZEFSAII (Michael W. Deem and Ramdas Pophale) SiO2 
 PCOD8229809
Probable space group: P C C N
;
_chemical_formula_sum "Si O2"
_cell_formula_units_Z 32
_cell_length_a 17.079038
_cell_length_b 5.608027
_cell_length_c 13.521262
_cell_angle_alpha 90.000000
_cell_angle_beta 90.000000
_cell_angle_gamma 90.000000
_cell_volume 1295.062502
_symmetry_space_group_name_H-M "P C C N"
_symmetry_group_IT_number 56
_symmetry_cell_setting 'orthorhombic'
loop_
_space_group_symop_operation_xyz
x,y,z
1/2-x,1/2-y,z
1/2+x,-y,1/2-z
-x,1/2+y,1/2-z
-x,-y,-z
1/2+x,1/2+y,-z
1/2-x,y,1/2+z
x,1/2-y,1/2+z
loop_
_atom_site_type_symbol
_atom_site_label
_atom_site_fract_x
_atom_site_fract_y
_atom_site_fract_z
Si Si1 0.831308 0.389714 0.387432
Si Si2 0.019565 0.553072 0.111386
Si Si3 0.607279 0.754164 0.747045
Si Si4 0.795603 0.499711 0.602505
O O1 0.750000 0.250000 0.379006
O O2 0.909158 0.234883 0.375466
O O3 0.828537 0.583178 0.298894
O O4 0.837496 0.508913 0.495895
O O5 0.045714 0.313474 0.166816
O O6 0.937795 0.629131 0.157909
O O7 0.000000 0.500000 0.000000
O O8 0.645461 0.989649 0.696281
O O9 0.750000 0.750000 0.610420
O O10 0.750000 0.250000 0.613642
#
# Coordination Sequence:
#
# PCOD8229809 Si02
#       4
#     8   8   8   8
#     4  11  29  52  80 117 166 217 281 349 420 502
#     4  12  29  50  81 118 167 216 276 343 425 501
#     4  12  28  49  81 118 163 224 272 348 419 516
#     4  11  30  51  82 121 166 216 277 347 415 495
#
# _framework density 24.709230999999999
#
# number of rings (size 3 to 8) (size 9 to 14) (size 15 to 20)
#    0.000    0.500    2.500    1.500   24.500    2.000 
#    0.000    0.000    0.000    0.000    0.000    0.000 
#    0.000    0.000    0.000    0.000    0.000    0.000 
#
# Total GULP energy -396706.267691 kJ/mol
# GULP energy per Si atom -12397.070865 kJ/mol
# Density = 2.465299 g / cm^3
# Si number density = 24.709231 Si / 1000 Ang^3
#
#
#
# Elastic Constant Matrix: (Units=GPa)
#
#
# Indices 1 2 3 4 5 6 
#
# 1 91.9098 39.0940 71.0990 0.0000 0.0000 0.0000
# 2 39.0940 123.2279 72.6242 0.0000 0.0000 0.0000
# 3 71.0990 72.6242 229.5944 0.0000 0.0000 0.0000
# 4 0.0000 0.0000 0.0000 48.2343 0.0000 0.0000
# 5 0.0000 0.0000 0.0000 0.0000 49.2915 0.0000
# 6 0.0000 0.0000 0.0000 0.0000 0.0000 41.4870
#
#
#
# Elastic Compliance Matrix: (Units=1/GPa)
#
#
# Indices 1 2 3 4 5 6 
#
# 1 0.014894 -0.002467 -0.003832 0.000000 0.000000 0.000000
# 2 -0.002467 0.010383 -0.002520 0.000000 0.000000 0.000000
# 3 -0.003832 -0.002520 0.006339 0.000000 0.000000 0.000000
# 4 0.000000 0.000000 0.000000 0.020732 0.000000 0.000000
# 5 0.000000 0.000000 0.000000 0.000000 0.020287 0.000000
# 6 0.000000 0.000000 0.000000 0.000000 0.000000 0.024104
#
#
# Mechanical properties :
#
#
# Convention : Reuss Voigt Hill
#
# Bulk Modulus (GPa) = 71.54083 90.04073 80.79078
# Shear Modulus (GPa) = 42.00369 45.26353 43.63361
#
# Velocity S-wave (km/s) = 4.12748 4.28465 4.20680
# Velocity P-wave (km/s) = 7.19241 7.81005 7.50758
#
# Compressibility (1/GPa) = 0.01397803
#
# Stress axis : x y z
#
# Youngs Moduli (GPa) = 67.14246 96.31103 157.74366
#
# Poissons Ratio (x) = 0.23757 0.60446
# Poissons Ratio (y) = 0.16562 0.39758
# Poissons Ratio (z) = 0.25728 0.24275
#
# Static dielectric constant tensor:
#      x y z
#    x 4.965250 0.000000 0.000000 
#    y 0.000000 4.468640 0.000000 
#    z 0.000000 0.000000 5.193580 
# 
# 
# High freq. dielectric constant tensor:
#      x y z
#    x 1.987040 0.000000 0.000000 
#    y 0.000000 1.981420 0.000000 
#    z 0.000000 0.000000 2.021200 
# 
# From -- ./inp_files/12469.got.cif
#   From: 2010.03.12/outbox.cif.g09.slc.cpg/sg56_7_cif.got.tgz:12469.got - 2010.04.16 15:33:40.
