data_PCOD8229193
_publ_section_title
;
Structure prediction by ZEFSAII (Michael W. Deem and Ramdas Pophale) SiO2 
 PCOD8229193
Probable space group: P C C N
;
_chemical_formula_sum "Si O2"
_cell_formula_units_Z 40
_cell_length_a 5.115356
_cell_length_b 17.155722
_cell_length_c 17.156573
_cell_angle_alpha 90.000000
_cell_angle_beta 90.000000
_cell_angle_gamma 90.000000
_cell_volume 1505.620108
_symmetry_space_group_name_H-M "P C C N"
_symmetry_group_IT_number 56
_symmetry_cell_setting 'orthorhombic'
loop_
_space_group_symop_operation_xyz
x,y,z
1/2-x,1/2-y,z
1/2+x,-y,1/2-z
-x,1/2+y,1/2-z
-x,-y,-z
1/2+x,1/2+y,-z
1/2-x,y,1/2+z
x,1/2-y,1/2+z
loop_
_atom_site_type_symbol
_atom_site_label
_atom_site_fract_x
_atom_site_fract_y
_atom_site_fract_z
Si Si1 0.655887 0.130817 0.387447
Si Si2 0.477497 0.635672 0.758164
Si Si3 0.016545 0.040037 0.101355
Si Si4 0.483695 0.880215 0.967954
Si Si5 0.250000 0.250000 0.851239
Si Si6 0.750000 0.250000 0.120850
O O1 0.726548 0.121865 0.296324
O O2 0.922263 0.132443 0.439771
O O3 0.488869 0.211851 0.401439
O O4 0.505623 0.052534 0.411963
O O5 0.568024 0.558379 0.805867
O O6 0.690965 0.675220 0.702930
O O7 0.418832 0.692864 0.828169
O O8 0.234979 0.081104 0.046701
O O9 0.732558 0.065831 0.073113
O O10 0.465823 0.794875 0.930331
#
# Coordination Sequence:
#
# PCOD8229193 Si02
#       6
#     8   8   8   8   4   4
#     4  12  28  45  79 114 157 206 271 332 401 480
#     4  11  25  46  72 108 152 203 258 321 389 474
#     4  11  28  49  78 108 158 210 263 326 402 482
#     4  11  27  49  76 110 155 207 265 326 401 480
#     4  12  26  44  74 110 158 190 270 326 398 466
#     4  10  22  46  72 104 154 208 252 326 400 472
#
# _framework density 26.567124
#
# number of rings (size 3 to 8) (size 9 to 14) (size 15 to 20)
#    0.000    0.800    2.000    2.400   14.000    2.400 
#    0.000    0.000    0.000    0.000    0.000    0.000 
#    0.000    0.000    0.000    0.000    0.000    0.000 
#
# Total GULP energy -495693.185493 kJ/mol
# GULP energy per Si atom -12392.329637 kJ/mol
# Density = 2.650666 g / cm^3
# Si number density = 26.567124 Si / 1000 Ang^3
#
#
#
# Elastic Constant Matrix: (Units=GPa)
#
#
# Indices 1 2 3 4 5 6 
#
# 1 55.2486 0.4660 2.5052 0.0000 0.0000 0.0000
# 2 0.4660 85.8324 40.3098 0.0000 0.0000 0.0000
# 3 2.5052 40.3098 125.1379 0.0000 0.0000 0.0000
# 4 0.0000 0.0000 0.0000 19.4610 0.0000 0.0000
# 5 0.0000 0.0000 0.0000 0.0000 14.1104 0.0000
# 6 0.0000 0.0000 0.0000 0.0000 0.0000 21.3091
#
#
#
# Elastic Compliance Matrix: (Units=1/GPa)
#
#
# Indices 1 2 3 4 5 6 
#
# 1 0.018117 0.000085 -0.000390 0.000000 0.000000 0.000000
# 2 0.000085 0.013728 -0.004424 0.000000 0.000000 0.000000
# 3 -0.000390 -0.004424 0.009424 0.000000 0.000000 0.000000
# 4 0.000000 0.000000 0.000000 0.051385 0.000000 0.000000
# 5 0.000000 0.000000 0.000000 0.000000 0.070870 0.000000
# 6 0.000000 0.000000 0.000000 0.000000 0.000000 0.046928
#
#
# Mechanical properties :
#
#
# Convention : Reuss Voigt Hill
#
# Bulk Modulus (GPa) = 31.43586 39.19787 35.31687
# Shear Modulus (GPa) = 21.69078 25.83864 23.76471
#
# Velocity S-wave (km/s) = 2.86046 3.12200 2.99409
# Velocity P-wave (km/s) = 4.77158 5.27088 5.02743
#
# Compressibility (1/GPa) = 0.03181080
#
# Stress axis : x y z
#
# Youngs Moduli (GPa) = 55.19689 72.84553 106.11245
#
# Poissons Ratio (x) = -0.00618 0.04139
# Poissons Ratio (y) = -0.00468 0.46941
# Poissons Ratio (z) = 0.02153 0.32225
#
# Static dielectric constant tensor:
#      x y z
#    x 4.713580 0.000000 0.000000 
#    y 0.000000 6.486310 0.000000 
#    z 0.000000 0.000000 5.376870 
# 
# 
# High freq. dielectric constant tensor:
#      x y z
#    x 2.049760 0.000000 0.000000 
#    y 0.000000 2.079000 0.000000 
#    z 0.000000 0.000000 2.082760 
# 
# From -- ./inp_files/13878.got.cif
#   From: 2010.03.12/outbox.cif.g09.slc.cpg/sg56_7_cif.got.tgz:13878.got - 2010.04.16 15:33:40.
