data_PCOD8229542
_publ_section_title
;
Structure prediction by ZEFSAII (Michael W. Deem and Ramdas Pophale) SiO2 
 PCOD8229542
Probable space group: P C C N
;
_chemical_formula_sum "Si O2"
_cell_formula_units_Z 64
_cell_length_a 19.850272
_cell_length_b 18.082512
_cell_length_c 9.800313
_cell_angle_alpha 90.000000
_cell_angle_beta 90.000000
_cell_angle_gamma 90.000000
_cell_volume 3517.751609
_symmetry_space_group_name_H-M "P C C N"
_symmetry_group_IT_number 56
_symmetry_cell_setting 'orthorhombic'
loop_
_space_group_symop_operation_xyz
x,y,z
1/2-x,1/2-y,z
1/2+x,-y,1/2-z
-x,1/2+y,1/2-z
-x,-y,-z
1/2+x,1/2+y,-z
1/2-x,y,1/2+z
x,1/2-y,1/2+z
loop_
_atom_site_type_symbol
_atom_site_label
_atom_site_fract_x
_atom_site_fract_y
_atom_site_fract_z
Si Si1 0.530842 0.606169 0.906891
Si Si2 0.158918 0.607112 0.749744
Si Si3 0.313815 0.920600 0.253246
Si Si4 0.613950 0.235810 0.771614
Si Si5 0.397301 0.967320 0.011200
Si Si6 0.480141 0.755018 0.977761
Si Si7 0.897486 0.471520 0.509991
Si Si8 0.534109 0.896169 0.093492
O O1 0.523203 0.679916 0.999241
O O2 0.462112 0.559512 0.910501
O O3 0.547633 0.626159 0.750044
O O4 0.591148 0.557085 0.969625
O O5 0.233780 0.576437 0.751334
O O6 0.164740 0.695652 0.739883
O O7 0.116013 0.576487 0.624110
O O8 0.118215 0.586160 0.885064
O O9 0.344283 0.837955 0.260064
O O10 0.336558 0.963926 0.118258
O O11 0.334771 0.965872 0.387681
O O12 0.550215 0.247578 0.673247
O O13 0.583167 0.233358 0.922462
O O14 0.464114 0.940351 0.087618
O O15 0.405769 0.051690 0.960537
O O16 0.531115 0.823653 0.997194
#
# Coordination Sequence:
#
# PCOD8229542 Si02
#       8
#     8   8   8   8   8   8   8   8
#     4  11  21  37  59  83 117 145 191 246 290 340
#     4  12  23  36  59  80 116 168 196 223 279 330
#     4  12  23  40  53  82 124 156 202 231 265 336
#     4  12  21  36  50  88 120 158 193 222 266 350
#     4  11  22  37  57  83 110 155 196 241 281 330
#     4  12  20  34  59  82 119 150 182 232 300 342
#     4  11  22  37  57  83 110 155 196 241 281 330
#     4  11  21  37  59  83 117 145 191 246 290 340
#
# _framework density 18.193438
#
# number of rings (size 3 to 8) (size 9 to 14) (size 15 to 20)
#    0.000    0.500    8.750    1.125    0.000    1.000 
#    0.000    3.750    0.000    0.000    0.000    5.250 
#    0.000    0.000    0.000    0.000    0.000    0.000 
#
# Total GULP energy -793804.677029 kJ/mol
# GULP energy per Si atom -12403.198079 kJ/mol
# Density = 1.815203 g / cm^3
# Si number density = 18.193438 Si / 1000 Ang^3
#
#
#
# Elastic Constant Matrix: (Units=GPa)
#
#
# Indices 1 2 3 4 5 6 
#
# 1 58.7136 27.2985 14.5823 0.0000 0.0000 0.0000
# 2 27.2985 84.9178 9.1818 0.0000 0.0000 0.0000
# 3 14.5823 9.1818 81.0070 0.0000 0.0000 0.0000
# 4 0.0000 0.0000 0.0000 27.2974 0.0000 0.0000
# 5 0.0000 0.0000 0.0000 0.0000 14.7344 0.0000
# 6 0.0000 0.0000 0.0000 0.0000 0.0000 26.4641
#
#
#
# Elastic Compliance Matrix: (Units=1/GPa)
#
#
# Indices 1 2 3 4 5 6 
#
# 1 0.020727 -0.006337 -0.003013 0.000000 0.000000 0.000000
# 2 -0.006337 0.013860 -0.000430 0.000000 0.000000 0.000000
# 3 -0.003013 -0.000430 0.012936 0.000000 0.000000 0.000000
# 4 0.000000 0.000000 0.000000 0.036633 0.000000 0.000000
# 5 0.000000 0.000000 0.000000 0.000000 0.067868 0.000000
# 6 0.000000 0.000000 0.000000 0.000000 0.000000 0.037787
#
#
# Mechanical properties :
#
#
# Convention : Reuss Voigt Hill
#
# Bulk Modulus (GPa) = 35.76304 36.30706 36.03505
# Shear Modulus (GPa) = 22.86322 25.27090 24.06706
#
# Velocity S-wave (km/s) = 3.54881 3.73099 3.64104
# Velocity P-wave (km/s) = 6.04085 6.20966 6.12583
#
# Compressibility (1/GPa) = 0.02796183
#
# Stress axis : x y z
#
# Youngs Moduli (GPa) = 48.24735 72.15100 77.30544
#
# Poissons Ratio (x) = 0.45723 0.23290
# Poissons Ratio (y) = 0.30575 0.03326
# Poissons Ratio (z) = 0.14536 0.03104
#
# Static dielectric constant tensor:
#      x y z
#    x 3.072770 0.000000 0.000000 
#    y 0.000000 3.605920 0.000000 
#    z 0.000000 0.000000 3.480030 
# 
# 
# High freq. dielectric constant tensor:
#      x y z
#    x 1.666280 0.000000 0.000000 
#    y 0.000000 1.702540 0.000000 
#    z 0.000000 0.000000 1.723020 
# 
# From -- ./inp_files/4558.got.cif
#   From: 2010.03.12/outbox.cif.g09.slc.cpg/sg56_3_cif.got.tgz:4558.got - 2010.04.16 15:33:40.
