data_PCOD8229347
_publ_section_title
;
Structure prediction by ZEFSAII (Michael W. Deem and Ramdas Pophale) SiO2 
 PCOD8229347
Probable space group: P C C N
;
_chemical_formula_sum "Si O2"
_cell_formula_units_Z 52
_cell_length_a 8.674240
_cell_length_b 21.696984
_cell_length_c 13.314970
_cell_angle_alpha 90.000000
_cell_angle_beta 90.000000
_cell_angle_gamma 90.000000
_cell_volume 2505.941885
_symmetry_space_group_name_H-M "P C C N"
_symmetry_group_IT_number 56
_symmetry_cell_setting 'orthorhombic'
loop_
_space_group_symop_operation_xyz
x,y,z
1/2-x,1/2-y,z
1/2+x,-y,1/2-z
-x,1/2+y,1/2-z
-x,-y,-z
1/2+x,1/2+y,-z
1/2-x,y,1/2+z
x,1/2-y,1/2+z
loop_
_atom_site_type_symbol
_atom_site_label
_atom_site_fract_x
_atom_site_fract_y
_atom_site_fract_z
Si Si1 0.495133 0.954477 0.226615
Si Si2 0.939599 0.149633 0.834458
Si Si3 0.250000 0.250000 0.594685
Si Si4 0.479146 0.224807 0.922747
Si Si5 0.188711 0.569874 0.823648
Si Si6 0.326044 0.893807 0.047057
Si Si7 0.273634 0.153357 0.767882
O O1 0.363505 0.953188 0.311281
O O2 0.420646 0.938594 0.119587
O O3 0.624014 0.905357 0.257876
O O4 0.569213 0.021648 0.224197
O O5 0.839090 0.135120 0.733736
O O6 0.855030 0.110743 0.922927
O O7 0.934644 0.221790 0.860781
O O8 0.115062 0.128568 0.816407
O O9 0.097814 0.250453 0.524953
O O10 0.246642 0.189185 0.663573
O O11 0.606236 0.174866 0.951046
O O12 0.348345 0.197552 0.850558
O O13 0.154540 0.576343 0.939654
#
# Coordination Sequence:
#
# PCOD8229347 Si02
#       7
#     8   8   4   8   8   8   8
#     4  10  24  43  66  96 130 166 222 279 318 398
#     4  11  21  42  60  93 134 163 213 273 315 384
#     4  12  20  36  68  90 130 172 218 244 328 394
#     4  11  22  39  58  95 132 165 218 267 313 392
#     4  11  23  44  67  93 128 176 216 265 344 389
#     4  10  24  40  66  94 128 168 220 270 331 383
#     4  11  22  40  64  92 132 170 214 270 326 381
#
# _framework density 20.750679999999999
#
# number of rings (size 3 to 8) (size 9 to 14) (size 15 to 20)
#    0.000    1.231    3.077    2.769    2.154    0.000 
#    0.000   11.538    0.000    0.000    0.000    0.000 
#    0.000    0.000    0.000    0.000    0.000    0.000 
#
# Total GULP energy -644873.483778 kJ/mol
# GULP energy per Si atom -12401.413150 kJ/mol
# Density = 2.070345 g / cm^3
# Si number density = 20.750680 Si / 1000 Ang^3
#
#
#
# Elastic Constant Matrix: (Units=GPa)
#
#
# Indices 1 2 3 4 5 6 
#
# 1 117.5820 43.0170 26.6297 0.0000 0.0000 0.0000
# 2 43.0170 88.4636 36.0197 0.0000 0.0000 0.0000
# 3 26.6297 36.0197 90.3949 0.0000 0.0000 0.0000
# 4 0.0000 0.0000 0.0000 22.5336 0.0000 0.0000
# 5 0.0000 0.0000 0.0000 0.0000 25.9015 0.0000
# 6 0.0000 0.0000 0.0000 0.0000 0.0000 35.0944
#
#
#
# Elastic Compliance Matrix: (Units=1/GPa)
#
#
# Indices 1 2 3 4 5 6 
#
# 1 0.010464 -0.004575 -0.001259 0.000000 0.000000 0.000000
# 2 -0.004575 0.015494 -0.004826 0.000000 0.000000 0.000000
# 3 -0.001259 -0.004826 0.013357 0.000000 0.000000 0.000000
# 4 0.000000 0.000000 0.000000 0.044378 0.000000 0.000000
# 5 0.000000 0.000000 0.000000 0.000000 0.038608 0.000000
# 6 0.000000 0.000000 0.000000 0.000000 0.000000 0.028495
#
#
# Mechanical properties :
#
#
# Convention : Reuss Voigt Hill
#
# Bulk Modulus (GPa) = 55.57794 56.41923 55.99859
# Shear Modulus (GPa) = 28.07187 29.42417 28.74802
#
# Velocity S-wave (km/s) = 3.68206 3.76970 3.72614
# Velocity P-wave (km/s) = 6.70213 6.79674 6.74960
#
# Compressibility (1/GPa) = 0.01799275
#
# Stress axis : x y z
#
# Youngs Moduli (GPa) = 95.56724 64.54130 74.86942
#
# Poissons Ratio (x) = 0.29530 0.09429
# Poissons Ratio (y) = 0.43726 0.36132
# Poissons Ratio (z) = 0.12036 0.31148
#
# Static dielectric constant tensor:
#      x y z
#    x 3.935150 0.000000 0.000000 
#    y 0.000000 3.748040 0.000000 
#    z 0.000000 0.000000 3.678260 
# 
# 
# High freq. dielectric constant tensor:
#      x y z
#    x 1.825570 0.000000 0.000000 
#    y 0.000000 1.808260 0.000000 
#    z 0.000000 0.000000 1.807600 
# 
# From -- ./inp_files/10823.got.cif
#   From: 2010.03.12/outbox.cif.g09.slc.cpg/sg56_6_cif.got.tgz:10823.got - 2010.04.16 15:33:40.
