data_PCOD8229076
_publ_section_title
;
Structure prediction by ZEFSAII (Michael W. Deem and Ramdas Pophale) SiO2 
 PCOD8229076
Probable space group: P C C N
;
_chemical_formula_sum "Si O2"
_cell_formula_units_Z 36
_cell_length_a 10.135252
_cell_length_b 7.289308
_cell_length_c 21.410870
_cell_angle_alpha 90.000000
_cell_angle_beta 90.000000
_cell_angle_gamma 90.000000
_cell_volume 1581.813097
_symmetry_space_group_name_H-M "P C C N"
_symmetry_group_IT_number 56
_symmetry_cell_setting 'orthorhombic'
loop_
_space_group_symop_operation_xyz
x,y,z
1/2-x,1/2-y,z
1/2+x,-y,1/2-z
-x,1/2+y,1/2-z
-x,-y,-z
1/2+x,1/2+y,-z
1/2-x,y,1/2+z
x,1/2-y,1/2+z
loop_
_atom_site_type_symbol
_atom_site_label
_atom_site_fract_x
_atom_site_fract_y
_atom_site_fract_z
Si Si1 0.084862 0.041574 0.405767
Si Si2 0.195142 0.951863 0.530514
Si Si3 0.250000 0.250000 0.119291
Si Si4 0.974137 0.261334 0.686927
Si Si5 0.389484 0.330822 0.807135
O O1 0.089206 0.241902 0.375166
O O2 0.948637 0.018895 0.441059
O O3 0.198667 0.013887 0.457887
O O4 0.108087 0.893197 0.350186
O O5 0.250000 0.750000 0.537036
O O6 0.284871 0.079940 0.573684
O O7 0.377233 0.244928 0.162408
O O8 0.988925 0.217490 0.760815
O O9 0.894069 0.450971 0.680618
O O10 0.250000 0.250000 0.781128
#
# Coordination Sequence:
#
# PCOD8229076 Si02
#       5
#     8   8   4   8   8
#     4  10  24  42  62  98 130 168 223 272 332 402
#     4  10  22  41  66  92 128 172 218 273 331 394
#     4  10  22  42  66  92 126 176 218 276 332 406
#     4  11  23  43  64  95 134 169 225 268 341 401
#     4  12  25  41  66  97 132 175 216 279 333 403
#
# _framework density 22.758692
#
# number of rings (size 3 to 8) (size 9 to 14) (size 15 to 20)
#    0.000    1.333    3.333    1.333    4.667    0.000 
#    0.000    8.889    0.000    0.000    0.000    0.000 
#    0.000    0.000    0.000    0.000    0.000    0.000 
#
# Total GULP energy -446154.803314 kJ/mol
# GULP energy per Si atom -12393.188981 kJ/mol
# Density = 2.270689 g / cm^3
# Si number density = 22.758692 Si / 1000 Ang^3
#
#
#
# Elastic Constant Matrix: (Units=GPa)
#
#
# Indices 1 2 3 4 5 6 
#
# 1 28.7506 3.5527 2.4997 0.0000 0.0000 0.0000
# 2 3.5527 102.8810 38.3011 0.0000 0.0000 0.0000
# 3 2.4997 38.3011 107.3827 0.0000 0.0000 0.0000
# 4 0.0000 0.0000 0.0000 3.9692 0.0000 0.0000
# 5 0.0000 0.0000 0.0000 0.0000 6.1746 0.0000
# 6 0.0000 0.0000 0.0000 0.0000 0.0000 30.4151
#
#
#
# Elastic Compliance Matrix: (Units=1/GPa)
#
#
# Indices 1 2 3 4 5 6 
#
# 1 0.034949 -0.001042 -0.000442 0.000000 0.000000 0.000000
# 2 -0.001042 0.011239 -0.003985 0.000000 0.000000 0.000000
# 3 -0.000442 -0.003985 0.010744 0.000000 0.000000 0.000000
# 4 0.000000 0.000000 0.000000 0.251939 0.000000 0.000000
# 5 0.000000 0.000000 0.000000 0.000000 0.161953 0.000000
# 6 0.000000 0.000000 0.000000 0.000000 0.000000 0.032878
#
#
# Mechanical properties :
#
#
# Convention : Reuss Voigt Hill
#
# Bulk Modulus (GPa) = 21.74152 36.41346 29.07749
# Shear Modulus (GPa) = 9.43447 21.08918 15.26182
#
# Velocity S-wave (km/s) = 2.03824 3.04738 2.59239
# Velocity P-wave (km/s) = 3.88755 5.33072 4.66528
#
# Compressibility (1/GPa) = 0.04599495
#
# Stress axis : x y z
#
# Youngs Moduli (GPa) = 28.61305 88.97299 93.07533
#
# Poissons Ratio (x) = 0.09275 0.04112
# Poissons Ratio (y) = 0.02983 0.37087
# Poissons Ratio (z) = 0.01264 0.35452
#
# Static dielectric constant tensor:
#      x y z
#    x 3.924820 0.000000 0.000000 
#    y 0.000000 4.255650 0.000000 
#    z 0.000000 0.000000 4.520950 
# 
# 
# High freq. dielectric constant tensor:
#      x y z
#    x 1.877000 0.000000 0.000000 
#    y 0.000000 1.900970 0.000000 
#    z 0.000000 0.000000 1.920140 
# 
# From -- ./inp_files/19870.got.cif
#   From: 2010.03.12/outbox.cif.g09.slc.cpg/sg56_10_cif.got.tgz:19870.got - 2010.04.16 15:33:40.
