data_PCOD8229599
_publ_section_title
;
Structure prediction by ZEFSAII (Michael W. Deem and Ramdas Pophale) SiO2 
 PCOD8229599
Probable space group: P C C N
;
_chemical_formula_sum "Si O2"
_cell_formula_units_Z 48
_cell_length_a 10.049288
_cell_length_b 23.096048
_cell_length_c 10.036003
_cell_angle_alpha 90.000000
_cell_angle_beta 90.000000
_cell_angle_gamma 90.000000
_cell_volume 2329.344635
_symmetry_space_group_name_H-M "P C C N"
_symmetry_group_IT_number 56
_symmetry_cell_setting 'orthorhombic'
loop_
_space_group_symop_operation_xyz
x,y,z
1/2-x,1/2-y,z
1/2+x,-y,1/2-z
-x,1/2+y,1/2-z
-x,-y,-z
1/2+x,1/2+y,-z
1/2-x,y,1/2+z
x,1/2-y,1/2+z
loop_
_atom_site_type_symbol
_atom_site_label
_atom_site_fract_x
_atom_site_fract_y
_atom_site_fract_z
Si Si1 0.903580 0.683968 0.368153
Si Si2 0.596418 0.683968 0.368153
Si Si3 0.750004 0.976542 0.120238
Si Si4 0.478162 0.385439 0.886948
Si Si5 0.521844 0.885439 0.113049
Si Si6 0.250001 0.553623 0.629875
O O1 0.749999 0.679882 0.411697
O O2 0.953099 0.749999 0.364985
O O3 0.990842 0.648556 0.473951
O O4 0.920080 0.657839 0.222152
O O5 0.579917 0.657839 0.222153
O O6 0.509155 0.648557 0.473952
O O7 0.882299 0.940074 0.093833
O O8 0.617717 0.940070 0.093820
O O9 0.749995 0.998843 0.271551
O O10 0.750005 0.030889 0.021065
O O11 0.622340 0.406931 0.842576
O O12 0.377673 0.906937 0.157425
#
# Coordination Sequence:
#
# PCOD8229599 Si02
#       6
#     8   8   8   8   8   8
#     4  11  22  41  67  93 118 159 210 256 300 359
#     4  11  22  41  67  93 118 159 210 256 300 359
#     4  12  22  42  63  90 123 168 210 242 296 362
#     4  12  23  42  64  93 125 160 204 253 306 359
#     4  12  23  42  64  93 125 160 204 253 306 359
#     4  12  26  40  61  94 129 162 200 252 306 366
#
# _framework density 20.606653000000001
#
# number of rings (size 3 to 8) (size 9 to 14) (size 15 to 20)
#    0.000    0.333    3.333    7.000    0.000    2.667 
#    0.000    5.000    0.000    0.000    0.000    0.000 
#    0.000    0.000    0.000    0.000    0.000    0.000 
#
# Total GULP energy -595730.619161 kJ/mol
# GULP energy per Si atom -12411.054566 kJ/mol
# Density = 2.055975 g / cm^3
# Si number density = 20.606653 Si / 1000 Ang^3
#
#
#
# Elastic Constant Matrix: (Units=GPa)
#
#
# Indices 1 2 3 4 5 6 
#
# 1 99.8355 38.1358 1.4719 0.0000 0.0000 0.0000
# 2 38.1358 104.6879 25.0312 0.0000 0.0000 0.0000
# 3 1.4719 25.0312 95.0436 0.0000 0.0000 0.0000
# 4 0.0000 0.0000 0.0000 27.9260 0.0000 0.0000
# 5 0.0000 0.0000 0.0000 0.0000 14.7860 0.0000
# 6 0.0000 0.0000 0.0000 0.0000 0.0000 2.9867
#
#
#
# Elastic Compliance Matrix: (Units=1/GPa)
#
#
# Indices 1 2 3 4 5 6 
#
# 1 0.011725 -0.004512 0.001007 0.000000 0.000000 0.000000
# 2 -0.004512 0.011930 -0.003072 0.000000 0.000000 0.000000
# 3 0.001007 -0.003072 0.011315 0.000000 0.000000 0.000000
# 4 0.000000 0.000000 0.000000 0.035809 0.000000 0.000000
# 5 0.000000 0.000000 0.000000 0.000000 0.067632 0.000000
# 6 0.000000 0.000000 0.000000 0.000000 0.000000 0.334819
#
#
# Mechanical properties :
#
#
# Convention : Reuss Voigt Hill
#
# Bulk Modulus (GPa) = 45.83854 47.64940 46.74397
# Shear Modulus (GPa) = 10.12849 24.80162 17.46505
#
# Velocity S-wave (km/s) = 2.21942 3.47302 2.91442
# Velocity P-wave (km/s) = 5.37221 6.26546 5.83595
#
# Compressibility (1/GPa) = 0.02181570
#
# Stress axis : x y z
#
# Youngs Moduli (GPa) = 85.28685 83.81965 88.37824
#
# Poissons Ratio (x) = 0.37819 -0.08897
# Poissons Ratio (y) = 0.38481 0.27151
# Poissons Ratio (z) = -0.08586 0.25751
#
# Static dielectric constant tensor:
#      x y z
#    x 3.717600 0.000000 0.000000 
#    y 0.000000 3.770300 0.000000 
#    z 0.000000 0.000000 3.686250 
# 
# 
# High freq. dielectric constant tensor:
#      x y z
#    x 1.795230 0.000000 0.000000 
#    y 0.000000 1.815250 0.000000 
#    z 0.000000 0.000000 1.822180 
# 
# From -- ./inp_files/2767.got.cif
#   From: 2010.03.12/outbox.cif.g09.slc.cpg/sg56_2_cif.got.tgz:2767.got - 2010.04.16 15:33:40.
