data_PCOD8229857
_publ_section_title
;
Structure prediction by ZEFSAII (Michael W. Deem and Ramdas Pophale) SiO2 
 PCOD8229857
Probable space group: P C C N
;
_chemical_formula_sum "Si O2"
_cell_formula_units_Z 28
_cell_length_a 10.526654
_cell_length_b 11.997360
_cell_length_c 8.827961
_cell_angle_alpha 90.000000
_cell_angle_beta 90.000000
_cell_angle_gamma 90.000000
_cell_volume 1114.901359
_symmetry_space_group_name_H-M "P C C N"
_symmetry_group_IT_number 56
_symmetry_cell_setting 'orthorhombic'
loop_
_space_group_symop_operation_xyz
x,y,z
1/2-x,1/2-y,z
1/2+x,-y,1/2-z
-x,1/2+y,1/2-z
-x,-y,-z
1/2+x,1/2+y,-z
1/2-x,y,1/2+z
x,1/2-y,1/2+z
loop_
_atom_site_type_symbol
_atom_site_label
_atom_site_fract_x
_atom_site_fract_y
_atom_site_fract_z
Si Si1 0.863445 0.664651 0.789010
Si Si2 0.004064 0.667228 0.100451
Si Si3 0.250000 0.750000 0.474312
Si Si4 0.585403 0.454971 0.137384
O O1 0.750000 0.750000 0.813995
O O2 0.820479 0.551022 0.703542
O O3 0.964515 0.714749 0.671633
O O4 0.923825 0.637321 0.951731
O O5 0.984320 0.571669 0.227532
O O6 0.154653 0.674403 0.070180
O O7 0.162890 0.659968 0.385233
O O8 0.500000 0.500000 0.000000
#
# Coordination Sequence:
#
# PCOD8229857 Si02
#       4
#     8   8   4   8
#     4  12  27  50  78 119 167 215 273 340 411 490
#     4  12  26  49  80 118 161 217 273 336 420 486
#     4  12  26  52  84 122 164 216 278 338 422 494
#     4  12  27  53  84 119 165 211 277 341 409 498
#
# _framework density 25.114332000000001
#
# number of rings (size 3 to 8) (size 9 to 14) (size 15 to 20)
#    0.000    0.000    5.714    2.571    0.000    9.143 
#    0.000    1.429    0.000    0.000    0.000    0.000 
#    0.000    0.000    0.000    0.000    0.000    0.000 
#
# Total GULP energy -346940.513655 kJ/mol
# GULP energy per Si atom -12390.732631 kJ/mol
# Density = 2.505717 g / cm^3
# Si number density = 25.114332 Si / 1000 Ang^3
#
#
#
# Elastic Constant Matrix: (Units=GPa)
#
#
# Indices 1 2 3 4 5 6 
#
# 1 116.9329 43.6530 59.0336 0.0000 0.0000 0.0000
# 2 43.6530 148.5612 72.8015 0.0000 0.0000 0.0000
# 3 59.0336 72.8015 180.0280 0.0000 0.0000 0.0000
# 4 0.0000 0.0000 0.0000 54.7978 0.0000 0.0000
# 5 0.0000 0.0000 0.0000 0.0000 23.2135 0.0000
# 6 0.0000 0.0000 0.0000 0.0000 0.0000 36.4708
#
#
#
# Elastic Compliance Matrix: (Units=1/GPa)
#
#
# Indices 1 2 3 4 5 6 
#
# 1 0.010606 -0.001761 -0.002766 0.000000 0.000000 0.000000
# 2 -0.001761 0.008687 -0.002936 0.000000 0.000000 0.000000
# 3 -0.002766 -0.002936 0.007649 0.000000 0.000000 0.000000
# 4 0.000000 0.000000 0.000000 0.018249 0.000000 0.000000
# 5 0.000000 0.000000 0.000000 0.000000 0.043078 0.000000
# 6 0.000000 0.000000 0.000000 0.000000 0.000000 0.027419
#
#
# Mechanical properties :
#
#
# Convention : Reuss Voigt Hill
#
# Bulk Modulus (GPa) = 83.21471 88.49979 85.85725
# Shear Modulus (GPa) = 37.14215 40.89869 39.02042
#
# Velocity S-wave (km/s) = 3.84985 4.03985 3.94599
# Velocity P-wave (km/s) = 7.27792 7.55485 7.41767
#
# Compressibility (1/GPa) = 0.01201711
#
# Stress axis : x y z
#
# Youngs Moduli (GPa) = 94.29039 115.11112 130.74189
#
# Poissons Ratio (x) = 0.20272 0.36157
# Poissons Ratio (y) = 0.16605 0.38380
# Poissons Ratio (z) = 0.26076 0.33792
#
# Static dielectric constant tensor:
#      x y z
#    x 4.521830 0.000000 0.000000 
#    y 0.000000 4.797200 0.000000 
#    z 0.000000 0.000000 4.767710 
# 
# 
# High freq. dielectric constant tensor:
#      x y z
#    x 1.982490 0.000000 0.000000 
#    y 0.000000 2.017260 0.000000 
#    z 0.000000 0.000000 2.026800 
# 
# From -- ./inp_files/2384.got.cif
#   From: 2010.03.12/outbox.cif.g09.slc.cpg/sg56_2_cif.got.tgz:2384.got - 2010.04.16 15:33:40.
