data_PCOD8229958
_publ_section_title
;
Structure prediction by ZEFSAII (Michael W. Deem and Ramdas Pophale) SiO2 
 PCOD8229958
Probable space group: P B C M
;
_chemical_formula_sum "Si O2"
_cell_formula_units_Z 56
_cell_length_a 14.310566
_cell_length_b 26.465389
_cell_length_c 9.405521
_cell_angle_alpha 90.000000
_cell_angle_beta 90.000000
_cell_angle_gamma 90.000000
_cell_volume 3562.197137
_symmetry_space_group_name_H-M "P B C M"
_symmetry_group_IT_number 57
_symmetry_cell_setting 'orthorhombic'
loop_
_space_group_symop_operation_xyz
x,y,z
-x,-y,1/2+z
x,1/2-y,-z
-x,1/2+y,1/2-z
-x,-y,-z
x,y,1/2-z
-x,1/2+y,z
x,1/2-y,1/2+z
loop_
_atom_site_type_symbol
_atom_site_label
_atom_site_fract_x
_atom_site_fract_y
_atom_site_fract_z
Si Si1 0.874715 0.039580 0.081911
Si Si2 0.620768 0.535176 0.587119
Si Si3 0.972942 0.884686 0.583020
Si Si4 0.179441 0.429843 0.415661
Si Si5 0.583502 0.064529 0.914662
Si Si6 0.877581 0.301359 0.915617
Si Si7 0.724135 0.119155 0.416371
O O1 0.874994 0.042160 0.250000
O O2 0.786027 0.071896 0.031438
O O3 0.969800 0.065939 0.028040
O O4 0.863477 0.982756 0.027109
O O5 0.628829 0.515261 0.750000
O O6 0.709766 0.570644 0.551499
O O7 0.528318 0.568938 0.566259
O O8 0.619846 0.487092 0.485057
O O9 0.953368 0.886467 0.750000
O O10 0.873468 0.885263 0.501244
O O11 0.032715 0.835235 0.542756
O O12 0.159585 0.421843 0.250000
O O13 0.612203 0.064174 0.750000
O O14 0.628838 0.113492 0.992406
O O15 0.880328 0.288916 0.750000
O O16 0.780625 0.329782 0.953459
O O17 0.883080 0.250000 0.000000
O O18 0.699770 0.117373 0.250000
#
# Coordination Sequence:
#
# PCOD8229958 Si02
#       7
#     8   8   8   8   8   8   8
#     4   8  14  26  42  58  84 121 152 174 210 259
#     4   9  18  30  42  58  90 128 157 185 221 261
#     4   9  18  30  43  63  89 115 145 185 225 262
#     4  10  17  27  43  61  85 124 158 181 212 258
#     4  10  18  27  42  66  89 117 157 194 221 253
#     4   9  19  34  52  70  91 117 145 182 232 280
#     4   9  16  30  48  64  89 124 150 178 227 278
#
# _framework density 15.720635
#
# number of rings (size 3 to 8) (size 9 to 14) (size 15 to 20)
#    0.000    2.857    1.429    2.571    0.000    2.286 
#    0.000    2.143    0.000    0.000    0.000    1.000 
#    0.000    0.000    0.000    0.000    0.000    0.000 
#
# Total GULP energy -694037.306518 kJ/mol
# GULP energy per Si atom -12393.523331 kJ/mol
# Density = 1.568485 g / cm^3
# Si number density = 15.720635 Si / 1000 Ang^3
#
#
#
# Elastic Constant Matrix: (Units=GPa)
#
#
# Indices 1 2 3 4 5 6 
#
# 1 120.6218 53.4724 58.4851 0.0000 0.0000 0.0000
# 2 53.4724 73.1813 44.3244 0.0000 0.0000 0.0000
# 3 58.4851 44.3244 67.6544 0.0000 0.0000 0.0000
# 4 0.0000 0.0000 0.0000 25.2276 0.0000 0.0000
# 5 0.0000 0.0000 0.0000 0.0000 27.8047 0.0000
# 6 0.0000 0.0000 0.0000 0.0000 0.0000 15.4360
#
#
#
# Elastic Compliance Matrix: (Units=1/GPa)
#
#
# Indices 1 2 3 4 5 6 
#
# 1 0.015418 -0.005293 -0.009860 0.000000 0.000000 0.000000
# 2 -0.005293 0.024472 -0.011457 0.000000 0.000000 0.000000
# 3 -0.009860 -0.011457 0.030811 0.000000 0.000000 0.000000
# 4 0.000000 0.000000 0.000000 0.039639 0.000000 0.000000
# 5 0.000000 0.000000 0.000000 0.000000 0.035965 0.000000
# 6 0.000000 0.000000 0.000000 0.000000 0.000000 0.064783
#
#
# Mechanical properties :
#
#
# Convention : Reuss Voigt Hill
#
# Bulk Modulus (GPa) = 57.20999 63.78014 60.49506
# Shear Modulus (GPa) = 18.50923 20.70538 19.60730
#
# Velocity S-wave (km/s) = 3.43503 3.63310 3.53545
# Velocity P-wave (km/s) = 7.22518 7.63271 7.43174
#
# Compressibility (1/GPa) = 0.01747946
#
# Stress axis : x y z
#
# Youngs Moduli (GPa) = 64.86005 40.86348 32.45607
#
# Poissons Ratio (x) = 0.21631 0.32002
# Poissons Ratio (y) = 0.34333 0.37185
# Poissons Ratio (z) = 0.63953 0.46817
#
# Static dielectric constant tensor:
#      x y z
#    x 3.179050 0.000000 0.000000 
#    y 0.000000 2.714120 0.000000 
#    z 0.000000 0.000000 2.853130 
# 
# 
# High freq. dielectric constant tensor:
#      x y z
#    x 1.609030 0.000000 0.000000 
#    y 0.000000 1.557730 0.000000 
#    z 0.000000 0.000000 1.595750 
# 
# From -- ./inp_files/5916.got.cif
#   From: 2010.03.12/outbox.cif.g09.slc.cpg/sg57_3_cif.got.tgz:5916.got - 2010.04.16 15:48:40.
