data_PCOD8229286
_publ_section_title
;
Structure prediction by ZEFSAII (Michael W. Deem and Ramdas Pophale) SiO2 
 PCOD8229286
Probable space group: P C C N
;
_chemical_formula_sum "Si O2"
_cell_formula_units_Z 48
_cell_length_a 5.614234
_cell_length_b 25.514222
_cell_length_c 13.326237
_cell_angle_alpha 90.000000
_cell_angle_beta 90.000000
_cell_angle_gamma 90.000000
_cell_volume 1908.887670
_symmetry_space_group_name_H-M "P C C N"
_symmetry_group_IT_number 56
_symmetry_cell_setting 'orthorhombic'
loop_
_space_group_symop_operation_xyz
x,y,z
1/2-x,1/2-y,z
1/2+x,-y,1/2-z
-x,1/2+y,1/2-z
-x,-y,-z
1/2+x,1/2+y,-z
1/2-x,y,1/2+z
x,1/2-y,1/2+z
loop_
_atom_site_type_symbol
_atom_site_label
_atom_site_fract_x
_atom_site_fract_y
_atom_site_fract_z
Si Si1 0.696712 0.191208 0.315180
Si Si2 0.593871 0.969889 0.356583
Si Si3 0.903255 0.989194 0.631128
Si Si4 0.008618 0.879961 0.543564
Si Si5 0.338026 0.867356 0.371916
Si Si6 0.872000 0.803984 0.006282
O O1 0.750000 0.250000 0.278594
O O2 0.896582 0.168539 0.389529
O O3 0.676743 0.151065 0.222048
O O4 0.452835 0.194453 0.377736
O O5 0.615744 0.000004 0.250252
O O6 0.547013 0.907792 0.339923
O O7 0.856026 0.979757 0.411633
O O8 0.357315 0.993599 0.413685
O O9 0.941113 0.928051 0.613350
O O10 0.184947 0.898647 0.455207
O O11 0.783262 0.855694 0.487961
O O12 0.423664 0.812997 0.423278
O O13 0.750000 0.750000 0.977547
#
# Coordination Sequence:
#
# PCOD8229286 Si02
#       6
#     8   8   8   8   8   8
#     4  11  24  46  70  99 143 193 235 294 371 437
#     4  10  23  44  70 107 140 192 250 302 370 449
#     4  10  23  43  72 100 147 192 243 306 372 441
#     4  11  25  45  69 104 142 188 234 305 357 438
#     4  11  27  43  72 106 142 182 248 297 362 442
#     4  11  26  47  70 103 146 186 241 305 367 437
#
# _framework density 25.145534000000001
#
# number of rings (size 3 to 8) (size 9 to 14) (size 15 to 20)
#    0.000    1.333    3.333    0.000    9.333    4.000 
#    0.000    0.000    0.000    0.000    0.000    0.000 
#    0.000    0.000    0.000    0.000    0.000    0.000 
#
# Total GULP energy -594802.183210 kJ/mol
# GULP energy per Si atom -12391.712150 kJ/mol
# Density = 2.508830 g / cm^3
# Si number density = 25.145534 Si / 1000 Ang^3
#
#
#
# Elastic Constant Matrix: (Units=GPa)
#
#
# Indices 1 2 3 4 5 6 
#
# 1 148.3308 40.7154 23.4926 0.0000 0.0000 0.0000
# 2 40.7154 104.4904 7.1702 0.0000 0.0000 0.0000
# 3 23.4926 7.1702 40.6000 0.0000 0.0000 0.0000
# 4 0.0000 0.0000 0.0000-1015.4856 0.0000 0.0000
# 5 0.0000 0.0000 0.0000 0.0000 9.8563 0.0000
# 6 0.0000 0.0000 0.0000 0.0000 0.0000 45.6176
#
#
#
# Elastic Compliance Matrix: (Units=1/GPa)
#
#
# Indices 1 2 3 4 5 6 
#
# 1 0.008211 -0.002909 -0.004238 0.000000 0.000000 0.000000
# 2 -0.002909 0.010718 -0.000210 0.000000 0.000000 0.000000
# 3 -0.004238 -0.000210 0.027120 0.000000 0.000000 0.000000
# 4 0.000000 0.000000 0.000000 -0.000985 0.000000 0.000000
# 5 0.000000 0.000000 0.000000 0.000000 0.101458 0.000000
# 6 0.000000 0.000000 0.000000 0.000000 0.000000 0.021921
#
#
# Mechanical properties :
#
#
# Convention : Reuss Voigt Hill
#
# Bulk Modulus (GPa) = 31.91153 48.46420 40.18787
# Shear Modulus (GPa) = 25.82624 -177.19948 -75.68662
#
# Velocity S-wave (km/s) = 3.20827 -8.40372 -5.49225
# Velocity P-wave (km/s) = 5.14221 8.65148 4.91964
#
# Compressibility (1/GPa) = 0.03133663
#
# Stress axis : x y z
#
# Youngs Moduli (GPa) = 121.78371 93.30026 36.87371
#
# Poissons Ratio (x) = 0.27139 0.15626
# Poissons Ratio (y) = 0.35424 0.00773
# Poissons Ratio (z) = 0.51607 0.01957
#
# Static dielectric constant tensor:
#      x y z
#    x 4.738080 0.000000 0.000000 
#    y 0.000000 1.900260 0.000000 
#    z 0.000000 0.000000 4.317410 
# 
# 
# High freq. dielectric constant tensor:
#      x y z
#    x 2.002820 0.000000 0.000000 
#    y 0.000000 2.005330 0.000000 
#    z 0.000000 0.000000 2.000270 
# 
# From -- ./inp_files/9693.got.cif
#   From: 2010.03.12/outbox.cif.g09.slc.cpg/sg56_5_cif.got.tgz:9693.got - 2010.04.16 15:33:40.
