data_PCOD8229746
_publ_section_title
;
Structure prediction by ZEFSAII (Michael W. Deem and Ramdas Pophale) SiO2 
 PCOD8229746
Probable space group: P C C N
;
_chemical_formula_sum "Si O2"
_cell_formula_units_Z 48
_cell_length_a 27.165299
_cell_length_b 5.120684
_cell_length_c 13.785391
_cell_angle_alpha 90.000000
_cell_angle_beta 90.000000
_cell_angle_gamma 90.000000
_cell_volume 1917.615601
_symmetry_space_group_name_H-M "P C C N"
_symmetry_group_IT_number 56
_symmetry_cell_setting 'orthorhombic'
loop_
_space_group_symop_operation_xyz
x,y,z
1/2-x,1/2-y,z
1/2+x,-y,1/2-z
-x,1/2+y,1/2-z
-x,-y,-z
1/2+x,1/2+y,-z
1/2-x,y,1/2+z
x,1/2-y,1/2+z
loop_
_atom_site_type_symbol
_atom_site_label
_atom_site_fract_x
_atom_site_fract_y
_atom_site_fract_z
Si Si1 0.929310 0.672354 0.563920
Si Si2 0.250000 0.750000 0.824179
Si Si3 0.343020 0.189711 0.575099
Si Si4 0.935040 0.473690 0.232460
Si Si5 0.489255 0.241848 0.606416
Si Si6 0.250000 0.250000 0.448958
Si Si7 0.346619 0.804392 0.202487
O O1 0.881113 0.596740 0.505830
O O2 0.963820 0.855498 0.491908
O O3 0.961511 0.417556 0.582258
O O4 0.910531 0.811940 0.661745
O O5 0.233190 0.500501 0.886490
O O6 0.202787 0.854146 0.763854
O O7 0.292226 0.166678 0.520944
O O8 0.352928 0.476775 0.620069
O O9 0.341656 0.987153 0.662242
O O10 0.945287 0.575797 0.341466
O O11 0.898399 0.219871 0.236076
O O12 0.990124 0.447814 0.184525
#
# Coordination Sequence:
#
# PCOD8229746 Si02
#       7
#     8   4   8   8   8   4   8
#     4  11  26  44  69 104 147 197 251 305 372 438
#     4  12  26  50  78 112 144 190 246 304 372 448
#     4  12  27  48  74 109 149 194 244 306 371 443
#     4  12  25  42  73 102 148 199 247 309 365 444
#     4  11  25  44  68 105 146 195 256 306 369 430
#     4  12  26  48  80 108 148 190 248 302 376 444
#     4  12  28  47  77 108 151 191 248 304 373 442
#
# _framework density 25.031085000000001
#
# number of rings (size 3 to 8) (size 9 to 14) (size 15 to 20)
#    0.000    0.333    3.333    4.500    9.333    0.000 
#    0.000    0.000    0.000    0.000    0.000    0.000 
#    0.000    0.000    0.000    0.000    0.000    0.000 
#
# Total GULP energy -595017.698945 kJ/mol
# GULP energy per Si atom -12396.202061 kJ/mol
# Density = 2.497411 g / cm^3
# Si number density = 25.031085 Si / 1000 Ang^3
#
#
#
# Elastic Constant Matrix: (Units=GPa)
#
#
# Indices 1 2 3 4 5 6 
#
# 1 91.9492 -8.0291 44.2487 0.0000 0.0000 0.0000
# 2 -8.0291 75.9732 6.8059 0.0000 0.0000 0.0000
# 3 44.2487 6.8059 72.8507 0.0000 0.0000 0.0000
# 4 0.0000 0.0000 0.0000 -75.3071 0.0000 0.0000
# 5 0.0000 0.0000 0.0000 0.0000 45.4127 0.0000
# 6 0.0000 0.0000 0.0000 0.0000 0.0000 33.5055
#
#
#
# Elastic Compliance Matrix: (Units=1/GPa)
#
#
# Indices 1 2 3 4 5 6 
#
# 1 0.015845 0.002558 -0.009863 0.000000 0.000000 0.000000
# 2 0.002558 0.013687 -0.002832 0.000000 0.000000 0.000000
# 3 -0.009863 -0.002832 0.019982 0.000000 0.000000 0.000000
# 4 0.000000 0.000000 0.000000 -0.013279 0.000000 0.000000
# 5 0.000000 0.000000 0.000000 0.000000 0.022020 0.000000
# 6 0.000000 0.000000 0.000000 0.000000 0.000000 0.029846
#
#
# Mechanical properties :
#
#
# Convention : Reuss Voigt Hill
#
# Bulk Modulus (GPa) = 34.20082 36.31381 35.25731
# Shear Modulus (GPa) = 42.32871 13.90539 28.11705
#
# Velocity S-wave (km/s) = 4.11669 2.35951 3.35518
# Velocity P-wave (km/s) = 6.02405 4.68637 5.39682
#
# Compressibility (1/GPa) = 0.02923907
#
# Stress axis : x y z
#
# Youngs Moduli (GPa) = 63.10942 73.06395 50.04452
#
# Poissons Ratio (x) = -0.18691 0.49361
# Poissons Ratio (y) = -0.16145 0.14175
# Poissons Ratio (z) = 0.62247 0.20695
#
# Static dielectric constant tensor:
#      x y z
#    x 4.924220 0.000000 0.000000 
#    y 0.000000 3.862310 0.000000 
#    z 0.000000 0.000000 4.881480 
# 
# 
# High freq. dielectric constant tensor:
#      x y z
#    x 2.015540 0.000000 0.000000 
#    y 0.000000 1.982270 0.000000 
#    z 0.000000 0.000000 2.018690 
# 
# From -- ./inp_files/13377.got.cif
#   From: 2010.03.12/outbox.cif.g09.slc.cpg/sg56_7_cif.got.tgz:13377.got - 2010.04.16 15:33:40.
