data_PCOD8229024
_publ_section_title
;
Structure prediction by ZEFSAII (Michael W. Deem and Ramdas Pophale) SiO2 
 PCOD8229024
Probable space group: P C C N
;
_chemical_formula_sum "Si O2"
_cell_formula_units_Z 64
_cell_length_a 11.078784
_cell_length_b 9.482082
_cell_length_c 28.124449
_cell_angle_alpha 90.000000
_cell_angle_beta 90.000000
_cell_angle_gamma 90.000000
_cell_volume 2954.471634
_symmetry_space_group_name_H-M "P C C N"
_symmetry_group_IT_number 56
_symmetry_cell_setting 'orthorhombic'
loop_
_space_group_symop_operation_xyz
x,y,z
1/2-x,1/2-y,z
1/2+x,-y,1/2-z
-x,1/2+y,1/2-z
-x,-y,-z
1/2+x,1/2+y,-z
1/2-x,y,1/2+z
x,1/2-y,1/2+z
loop_
_atom_site_type_symbol
_atom_site_label
_atom_site_fract_x
_atom_site_fract_y
_atom_site_fract_z
Si Si1 0.115819 0.756681 0.484775
Si Si2 0.987708 0.451420 0.201707
Si Si3 0.175285 0.877285 0.648131
Si Si4 0.422430 0.964066 0.416449
Si Si5 0.873546 0.809052 0.764899
Si Si6 0.156578 0.944806 0.394387
Si Si7 0.025709 0.212492 0.423451
Si Si8 0.169278 0.379295 0.627642
O O1 0.250000 0.750000 0.506898
O O2 0.084716 0.595339 0.470250
O O3 0.022787 0.815893 0.523383
O O4 0.105519 0.846219 0.436232
O O5 0.913478 0.559839 0.233268
O O6 0.912258 0.408928 0.154658
O O7 0.113542 0.525672 0.187886
O O8 0.022386 0.311548 0.231736
O O9 0.250000 0.750000 0.672713
O O10 0.079453 0.805782 0.614152
O O11 0.261677 0.975582 0.615846
O O12 0.535978 0.885667 0.393204
O O13 0.300118 0.921059 0.387664
O O14 0.426475 0.130758 0.418004
O O15 0.750000 0.750000 0.741310
O O16 0.842347 0.867779 0.816194
O O17 0.133292 0.105431 0.411247
O O18 0.250000 0.250000 0.606832
#
# Coordination Sequence:
#
# PCOD8229024 Si02
#       8
#     8   8   8   8   8   8   8   8
#     4  10  22  40  63  92 134 174 225 275 321 394
#     4  11  25  43  69  96 135 176 218 276 344 393
#     4  11  22  41  67  97 130 175 219 276 330 394
#     4  11  23  41  65  97 133 177 221 273 329 400
#     4  11  25  44  66  99 134 167 226 280 326 407
#     4  10  24  44  65  94 136 175 216 272 340 402
#     4  11  22  39  66  96 132 172 223 270 335 387
#     4  11  23  45  68  92 136 172 225 275 331 393
#
# _framework density 21.662078999999999
#
# number of rings (size 3 to 8) (size 9 to 14) (size 15 to 20)
#    0.000    1.250    3.750    2.250    3.500    3.000 
#    0.000    1.250    0.000    0.000    0.000    0.000 
#    0.000    0.000    0.000    0.000    0.000    0.000 
#
# Total GULP energy -793506.120416 kJ/mol
# GULP energy per Si atom -12398.533131 kJ/mol
# Density = 2.161277 g / cm^3
# Si number density = 21.662079 Si / 1000 Ang^3
#
#
#
# Elastic Constant Matrix: (Units=GPa)
#
#
# Indices 1 2 3 4 5 6 
#
# 1 108.5061 8.2640 12.6035 0.0000 0.0000 0.0000
# 2 8.2640 73.8764 -2.7560 0.0000 0.0000 0.0000
# 3 12.6035 -2.7560 46.7695 0.0000 0.0000 0.0000
# 4 0.0000 0.0000 0.0000 27.0821 0.0000 0.0000
# 5 0.0000 0.0000 0.0000 0.0000 15.1651 0.0000
# 6 0.0000 0.0000 0.0000 0.0000 0.0000 45.2889
#
#
#
# Elastic Compliance Matrix: (Units=1/GPa)
#
#
# Indices 1 2 3 4 5 6 
#
# 1 0.009615 -0.001175 -0.002660 0.000000 0.000000 0.000000
# 2 -0.001175 0.013709 0.001124 0.000000 0.000000 0.000000
# 3 -0.002660 0.001124 0.022165 0.000000 0.000000 0.000000
# 4 0.000000 0.000000 0.000000 0.036925 0.000000 0.000000
# 5 0.000000 0.000000 0.000000 0.000000 0.065941 0.000000
# 6 0.000000 0.000000 0.000000 0.000000 0.000000 0.022080
#
#
# Mechanical properties :
#
#
# Convention : Reuss Voigt Hill
#
# Bulk Modulus (GPa) = 24.95777 29.48609 27.22193
# Shear Modulus (GPa) = 26.42547 31.57658 29.00102
#
# Velocity S-wave (km/s) = 3.49649 3.82211 3.66292
# Velocity P-wave (km/s) = 5.27703 5.75495 5.52116
#
# Compressibility (1/GPa) = 0.04006768
#
# Stress axis : x y z
#
# Youngs Moduli (GPa) = 104.00919 72.94223 45.11700
#
# Poissons Ratio (x) = 0.08569 0.12002
# Poissons Ratio (y) = 0.12218 -0.05073
# Poissons Ratio (z) = 0.27668 -0.08202
#
# Static dielectric constant tensor:
#      x y z
#    x 4.211310 0.000000 0.000000 
#    y 0.000000 4.272530 0.000000 
#    z 0.000000 0.000000 3.597170 
# 
# 
# High freq. dielectric constant tensor:
#      x y z
#    x 1.864240 0.000000 0.000000 
#    y 0.000000 1.872290 0.000000 
#    z 0.000000 0.000000 1.822940 
# 
# From -- ./inp_files/23521.got.cif
#   From: 2010.03.12/outbox.cif.g09.slc.cpg/sg56_12_cif.got.tgz:23521.got - 2010.04.16 15:33:40.
