data_PCOD8229437
_publ_section_title
;
Structure prediction by ZEFSAII (Michael W. Deem and Ramdas Pophale) SiO2 
 PCOD8229437
Probable space group: P C C N
;
_chemical_formula_sum "Si O2"
_cell_formula_units_Z 48
_cell_length_a 9.089189
_cell_length_b 12.340815
_cell_length_c 18.501486
_cell_angle_alpha 90.000000
_cell_angle_beta 90.000000
_cell_angle_gamma 90.000000
_cell_volume 2075.274681
_symmetry_space_group_name_H-M "P C C N"
_symmetry_group_IT_number 56
_symmetry_cell_setting 'orthorhombic'
loop_
_space_group_symop_operation_xyz
x,y,z
1/2-x,1/2-y,z
1/2+x,-y,1/2-z
-x,1/2+y,1/2-z
-x,-y,-z
1/2+x,1/2+y,-z
1/2-x,y,1/2+z
x,1/2-y,1/2+z
loop_
_atom_site_type_symbol
_atom_site_label
_atom_site_fract_x
_atom_site_fract_y
_atom_site_fract_z
Si Si1 0.578834 0.751407 0.654500
Si Si2 0.232539 0.960278 0.007502
Si Si3 0.537134 0.134173 0.100443
Si Si4 0.348906 0.654040 0.248448
Si Si5 0.553380 0.832715 0.492813
Si Si6 0.637171 0.058653 0.846007
O O1 0.750000 0.750000 0.673516
O O2 0.506832 0.840038 0.708765
O O3 0.552459 0.785490 0.572506
O O4 0.505783 0.633703 0.668349
O O5 0.371867 0.939954 0.955598
O O6 0.090983 0.902105 0.974423
O O7 0.270619 0.903775 0.083546
O O8 0.197719 0.089726 0.015520
O O9 0.644579 0.169142 0.165500
O O10 0.451773 0.234514 0.064218
O O11 0.414238 0.062618 0.139089
O O12 0.250000 0.750000 0.214530
O O13 0.251624 0.550970 0.221915
#
# Coordination Sequence:
#
# PCOD8229437 Si02
#       6
#     8   8   8   8   8   8
#     4  11  23  43  71 100 137 191 242 291 362 440
#     4  11  23  43  68 107 136 190 240 298 363 425
#     4  12  25  43  73 108 144 190 249 307 364 444
#     4  10  24  48  70  98 142 197 237 292 372 441
#     4  11  24  40  73 102 144 183 246 301 355 437
#     4  11  24  44  69  97 145 186 232 295 367 434
#
# _framework density 23.129467999999999
#
# number of rings (size 3 to 8) (size 9 to 14) (size 15 to 20)
#    0.000    1.000    3.333    3.000    2.333    2.667 
#    9.000    0.000    0.000    0.000    0.000    0.000 
#    0.000    0.000    0.000    0.000    0.000    0.000 
#
# Total GULP energy -594972.728054 kJ/mol
# GULP energy per Si atom -12395.265168 kJ/mol
# Density = 2.307682 g / cm^3
# Si number density = 23.129468 Si / 1000 Ang^3
#
#
#
# Elastic Constant Matrix: (Units=GPa)
#
#
# Indices 1 2 3 4 5 6 
#
# 1 117.0432 66.4335 43.3117 0.0000 0.0000 0.0000
# 2 66.4335 121.3242 31.8136 0.0000 0.0000 0.0000
# 3 43.3117 31.8136 114.1734 0.0000 0.0000 0.0000
# 4 0.0000 0.0000 0.0000 18.0186 0.0000 0.0000
# 5 0.0000 0.0000 0.0000 0.0000 17.4970 0.0000
# 6 0.0000 0.0000 0.0000 0.0000 0.0000 45.1314
#
#
#
# Elastic Compliance Matrix: (Units=1/GPa)
#
#
# Indices 1 2 3 4 5 6 
#
# 1 0.013453 -0.006504 -0.003291 0.000000 0.000000 0.000000
# 2 -0.006504 0.012036 -0.000887 0.000000 0.000000 0.000000
# 3 -0.003291 -0.000887 0.010254 0.000000 0.000000 0.000000
# 4 0.000000 0.000000 0.000000 0.055498 0.000000 0.000000
# 5 0.000000 0.000000 0.000000 0.000000 0.057153 0.000000
# 6 0.000000 0.000000 0.000000 0.000000 0.000000 0.022158
#
#
# Mechanical properties :
#
#
# Convention : Reuss Voigt Hill
#
# Bulk Modulus (GPa) = 69.53868 70.62871 70.08370
# Shear Modulus (GPa) = 25.41836 30.19486 27.80661
#
# Velocity S-wave (km/s) = 3.31865 3.61705 3.47106
# Velocity P-wave (km/s) = 6.69439 6.93157 6.81401
#
# Compressibility (1/GPa) = 0.01438049
#
# Stress axis : x y z
#
# Youngs Moduli (GPa) = 74.33188 83.08406 97.52085
#
# Poissons Ratio (x) = 0.54034 0.32097
# Poissons Ratio (y) = 0.48342 0.08647
# Poissons Ratio (z) = 0.24465 0.07367
#
# Static dielectric constant tensor:
#      x y z
#    x 4.379370 0.000000 0.000000 
#    y 0.000000 4.125920 0.000000 
#    z 0.000000 0.000000 4.194950 
# 
# 
# High freq. dielectric constant tensor:
#      x y z
#    x 1.927680 0.000000 0.000000 
#    y 0.000000 1.905720 0.000000 
#    z 0.000000 0.000000 1.910840 
# 
# From -- ./inp_files/14842.got.cif
#   From: 2010.03.12/outbox.cif.g09.slc.cpg/sg56_8_cif.got.tgz:14842.got - 2010.04.16 15:33:40.
