data_PCOD8229207
_publ_section_title
;
Structure prediction by ZEFSAII (Michael W. Deem and Ramdas Pophale) SiO2 
 PCOD8229207
Probable space group: P C C N
;
_chemical_formula_sum "Si O2"
_cell_formula_units_Z 64
_cell_length_a 15.323763
_cell_length_b 8.431102
_cell_length_c 22.244257
_cell_angle_alpha 90.000000
_cell_angle_beta 90.000000
_cell_angle_gamma 90.000000
_cell_volume 2873.873674
_symmetry_space_group_name_H-M "P C C N"
_symmetry_group_IT_number 56
_symmetry_cell_setting 'orthorhombic'
loop_
_space_group_symop_operation_xyz
x,y,z
1/2-x,1/2-y,z
1/2+x,-y,1/2-z
-x,1/2+y,1/2-z
-x,-y,-z
1/2+x,1/2+y,-z
1/2-x,y,1/2+z
x,1/2-y,1/2+z
loop_
_atom_site_type_symbol
_atom_site_label
_atom_site_fract_x
_atom_site_fract_y
_atom_site_fract_z
Si Si1 0.828088 0.147957 0.603793
Si Si2 0.053878 0.581689 0.421220
Si Si3 0.913441 0.703020 0.506318
Si Si4 0.014424 0.563559 0.815726
Si Si5 0.820648 0.109361 0.889451
Si Si6 0.051820 0.086592 0.188112
Si Si7 0.794024 0.956610 0.488847
Si Si8 0.446138 0.631356 0.576695
O O1 0.750000 0.250000 0.633816
O O2 0.888431 0.264867 0.564771
O O3 0.888006 0.082600 0.657260
O O4 0.786418 0.022342 0.557049
O O5 0.106269 0.433005 0.445776
O O6 0.959826 0.621113 0.450003
O O7 0.031962 0.541296 0.352397
O O8 0.966576 0.846793 0.537591
O O9 0.816430 0.766660 0.490189
O O10 0.030007 0.484847 0.752076
O O11 0.952856 0.720308 0.810001
O O12 0.962924 0.442998 0.858111
O O13 0.750000 0.250000 0.869717
O O14 0.785966 0.005965 0.945944
O O15 0.907237 0.193322 0.914005
O O16 0.855127 0.989075 0.836533
O O17 0.882047 0.018532 0.458428
#
# Coordination Sequence:
#
# PCOD8229207 Si02
#       8
#     8   8   8   8   8   8   8   8
#     4  11  22  40  62  95 133 170 216 262 345 406
#     4  10  23  38  65  97 129 178 215 286 322 404
#     4  11  20  36  67  94 137 166 221 277 339 387
#     4  11  25  41  74  95 127 181 228 288 320 413
#     4  10  23  39  66  94 140 178 221 278 351 401
#     4  11  23  45  64  99 131 172 244 270 338 394
#     4  11  21  36  64  97 138 174 213 274 344 417
#     4  11  19  40  63  97 128 179 219 275 336 399
#
# _framework density 22.269594000000001
#
# number of rings (size 3 to 8) (size 9 to 14) (size 15 to 20)
#    0.000    1.250    3.750    3.750    0.000    0.500 
#    0.000   11.250    0.000    0.000    0.000    0.000 
#    0.000    0.000    0.000    0.000    0.000    0.000 
#
# Total GULP energy -793077.432803 kJ/mol
# GULP energy per Si atom -12391.834888 kJ/mol
# Density = 2.221891 g / cm^3
# Si number density = 22.269594 Si / 1000 Ang^3
#
#
#
# Elastic Constant Matrix: (Units=GPa)
#
#
# Indices 1 2 3 4 5 6 
#
# 1 106.2150 46.6585 35.5166 0.0000 0.0000 0.0000
# 2 46.6585 108.1235 57.3180 0.0000 0.0000 0.0000
# 3 35.5166 57.3180 125.1621 0.0000 0.0000 0.0000
# 4 0.0000 0.0000 0.0000 42.8905 0.0000 0.0000
# 5 0.0000 0.0000 0.0000 0.0000 30.6141 0.0000
# 6 0.0000 0.0000 0.0000 0.0000 0.0000 26.2430
#
#
#
# Elastic Compliance Matrix: (Units=1/GPa)
#
#
# Indices 1 2 3 4 5 6 
#
# 1 0.011785 -0.004375 -0.001341 0.000000 0.000000 0.000000
# 2 -0.004375 0.013838 -0.005096 0.000000 0.000000 0.000000
# 3 -0.001341 -0.005096 0.010704 0.000000 0.000000 0.000000
# 4 0.000000 0.000000 0.000000 0.023315 0.000000 0.000000
# 5 0.000000 0.000000 0.000000 0.000000 0.032665 0.000000
# 6 0.000000 0.000000 0.000000 0.000000 0.000000 0.038105
#
#
# Mechanical properties :
#
#
# Convention : Reuss Voigt Hill
#
# Bulk Modulus (GPa) = 68.00816 68.72074 68.36445
# Shear Modulus (GPa) = 31.86026 33.28336 32.57181
#
# Velocity S-wave (km/s) = 3.78651 3.87015 3.82856
# Velocity P-wave (km/s) = 7.05137 7.13417 7.09289
#
# Compressibility (1/GPa) = 0.01470412
#
# Stress axis : x y z
#
# Youngs Moduli (GPa) = 84.85387 72.26570 93.42632
#
# Poissons Ratio (x) = 0.31615 0.12526
# Poissons Ratio (y) = 0.37122 0.47606
# Poissons Ratio (z) = 0.11376 0.36824
#
# Static dielectric constant tensor:
#      x y z
#    x 4.169670 0.000000 0.000000 
#    y 0.000000 4.408630 0.000000 
#    z 0.000000 0.000000 3.808760 
# 
# 
# High freq. dielectric constant tensor:
#      x y z
#    x 1.888180 0.000000 0.000000 
#    y 0.000000 1.901900 0.000000 
#    z 0.000000 0.000000 1.853420 
# 
# From -- ./inp_files/21186.got.cif
#   From: 2010.03.12/outbox.cif.g09.slc.cpg/sg56_11_cif.got.tgz:21186.got - 2010.04.16 15:33:40.
