data_PCOD8229585
_publ_section_title
;
Structure prediction by ZEFSAII (Michael W. Deem and Ramdas Pophale) SiO2 
 PCOD8229585
Probable space group: P C C N
;
_chemical_formula_sum "Si O2"
_cell_formula_units_Z 60
_cell_length_a 17.403197
_cell_length_b 11.963423
_cell_length_c 12.914682
_cell_angle_alpha 90.000000
_cell_angle_beta 90.000000
_cell_angle_gamma 90.000000
_cell_volume 2688.860133
_symmetry_space_group_name_H-M "P C C N"
_symmetry_group_IT_number 56
_symmetry_cell_setting 'orthorhombic'
loop_
_space_group_symop_operation_xyz
x,y,z
1/2-x,1/2-y,z
1/2+x,-y,1/2-z
-x,1/2+y,1/2-z
-x,-y,-z
1/2+x,1/2+y,-z
1/2-x,y,1/2+z
x,1/2-y,1/2+z
loop_
_atom_site_type_symbol
_atom_site_label
_atom_site_fract_x
_atom_site_fract_y
_atom_site_fract_z
Si Si1 0.270002 0.457199 0.487179
Si Si2 0.250000 0.250000 0.358128
Si Si3 0.341349 0.761622 0.539510
Si Si4 0.345416 0.978370 0.644521
Si Si5 0.099721 0.302318 0.726065
Si Si6 0.527254 0.368190 0.381664
Si Si7 0.569715 0.894606 0.927544
Si Si8 0.302993 0.653719 0.344224
O O1 0.226790 0.353849 0.431485
O O2 0.235994 0.474069 0.602663
O O3 0.360437 0.435440 0.499346
O O4 0.255648 0.567821 0.417699
O O5 0.321862 0.291841 0.290813
O O6 0.250000 0.750000 0.562622
O O7 0.372695 0.888177 0.558510
O O8 0.387109 0.683495 0.620963
O O9 0.360625 0.720445 0.422248
O O10 0.342850 0.915728 0.754555
O O11 0.401049 0.084002 0.657983
O O12 0.097163 0.196225 0.653129
O O13 0.024416 0.306966 0.796574
O O14 0.492539 0.342667 0.495093
O O15 0.533131 0.501575 0.364178
O O16 0.250000 0.750000 0.293534
#
# Coordination Sequence:
#
# PCOD8229585 Si02
#       8
#     8   4   8   8   8   8   8   8
#     4  12  22  45  69 103 140 186 240 296 354 420
#     4  12  24  46  70 106 150 184 244 296 352 430
#     4  11  23  45  72 105 137 184 240 298 361 424
#     4  12  24  42  72 103 140 185 241 296 350 429
#     4  12  27  44  70 110 138 196 240 296 357 435
#     4  11  25  46  71 100 142 191 236 294 361 432
#     4  11  24  46  73  95 145 194 233 287 366 432
#     4  11  22  40  65 103 140 180 239 290 356 421
#
# _framework density 22.314288999999999
#
# number of rings (size 3 to 8) (size 9 to 14) (size 15 to 20)
#    0.000    0.533    6.667    2.000    3.733    0.000 
#    0.000    3.333    0.000    0.000    0.000    0.000 
#    0.000    0.000    0.000    0.000    0.000    0.000 
#
# Total GULP energy -743735.223369 kJ/mol
# GULP energy per Si atom -12395.587056 kJ/mol
# Density = 2.226350 g / cm^3
# Si number density = 22.314289 Si / 1000 Ang^3
#
#
#
# Elastic Constant Matrix: (Units=GPa)
#
#
# Indices 1 2 3 4 5 6 
#
# 1 70.7513 24.9856 23.8799 0.0000 0.0000 0.0000
# 2 24.9856 124.0667 55.6752 0.0000 0.0000 0.0000
# 3 23.8799 55.6752 96.2836 0.0000 0.0000 0.0000
# 4 0.0000 0.0000 0.0000 44.0598 0.0000 0.0000
# 5 0.0000 0.0000 0.0000 0.0000 22.4819 0.0000
# 6 0.0000 0.0000 0.0000 0.0000 0.0000 28.6433
#
#
#
# Elastic Compliance Matrix: (Units=1/GPa)
#
#
# Indices 1 2 3 4 5 6 
#
# 1 0.015756 -0.001917 -0.002799 0.000000 0.000000 0.000000
# 2 -0.001917 0.011118 -0.005953 0.000000 0.000000 0.000000
# 3 -0.002799 -0.005953 0.014523 0.000000 0.000000 0.000000
# 4 0.000000 0.000000 0.000000 0.022696 0.000000 0.000000
# 5 0.000000 0.000000 0.000000 0.000000 0.044480 0.000000
# 6 0.000000 0.000000 0.000000 0.000000 0.000000 0.034912
#
#
# Mechanical properties :
#
#
# Convention : Reuss Voigt Hill
#
# Bulk Modulus (GPa) = 49.85715 55.57589 52.71652
# Shear Modulus (GPa) = 29.15285 31.47440 30.31362
#
# Velocity S-wave (km/s) = 3.61843 3.75974 3.68976
# Velocity P-wave (km/s) = 6.31261 6.61873 6.46748
#
# Compressibility (1/GPa) = 0.02005730
#
# Stress axis : x y z
#
# Youngs Moduli (GPa) = 63.46885 89.94592 68.85753
#
# Poissons Ratio (x) = 0.17241 0.19275
# Poissons Ratio (y) = 0.12166 0.40993
# Poissons Ratio (z) = 0.17767 0.53548
#
# Static dielectric constant tensor:
#      x y z
#    x 3.748120 0.000000 0.000000 
#    y 0.000000 4.413000 0.000000 
#    z 0.000000 0.000000 4.044220 
# 
# 
# High freq. dielectric constant tensor:
#      x y z
#    x 1.850730 0.000000 0.000000 
#    y 0.000000 1.903260 0.000000 
#    z 0.000000 0.000000 1.875230 
# 
# From -- ./inp_files/12832.got.cif
#   From: 2010.03.12/outbox.cif.g09.slc.cpg/sg56_7_cif.got.tgz:12832.got - 2010.04.16 15:33:40.
