data_PCOD8229861
_publ_section_title
;
Structure prediction by ZEFSAII (Michael W. Deem and Ramdas Pophale) SiO2 
 PCOD8229861
Probable space group: P C C N
;
_chemical_formula_sum "Si O2"
_cell_formula_units_Z 32
_cell_length_a 10.831045
_cell_length_b 14.452350
_cell_length_c 7.422911
_cell_angle_alpha 90.000000
_cell_angle_beta 90.000000
_cell_angle_gamma 90.000000
_cell_volume 1161.938345
_symmetry_space_group_name_H-M "P C C N"
_symmetry_group_IT_number 56
_symmetry_cell_setting 'orthorhombic'
loop_
_space_group_symop_operation_xyz
x,y,z
1/2-x,1/2-y,z
1/2+x,-y,1/2-z
-x,1/2+y,1/2-z
-x,-y,-z
1/2+x,1/2+y,-z
1/2-x,y,1/2+z
x,1/2-y,1/2+z
loop_
_atom_site_type_symbol
_atom_site_label
_atom_site_fract_x
_atom_site_fract_y
_atom_site_fract_z
Si Si1 0.980609 0.120065 0.742338
Si Si2 0.605059 0.732333 0.570018
Si Si3 0.234020 0.853370 0.040715
Si Si4 0.953815 0.410823 0.748452
O O1 0.035740 0.167698 0.927158
O O2 0.068208 0.167950 0.596298
O O3 0.833372 0.146573 0.755759
O O4 0.985990 0.010385 0.742202
O O5 0.750000 0.750000 0.580270
O O6 0.557362 0.671158 0.745315
O O7 0.250000 0.750000 0.971821
O O8 0.370056 0.898703 0.066458
O O9 0.138906 0.911264 0.919941
#
# Coordination Sequence:
#
# PCOD8229861 Si02
#       4
#     8   8   8   8
#     4  12  28  49  82 116 160 211 265 325 404 471
#     4  12  28  51  77 116 165 209 259 329 403 477
#     4  12  26  50  82 116 159 209 272 334 390 475
#     4  12  28  49  85 120 160 211 270 329 406 474
#
# _framework density 27.540189999999999
#
# number of rings (size 3 to 8) (size 9 to 14) (size 15 to 20)
#    0.000    0.000    2.500    6.000    7.000    0.000 
#    0.000    1.250    0.000    0.000    0.000    0.000 
#    0.000    0.000    0.000    0.000    0.000    0.000 
#
# Total GULP energy -396713.261513 kJ/mol
# GULP energy per Si atom -12397.289422 kJ/mol
# Density = 2.747751 g / cm^3
# Si number density = 27.540190 Si / 1000 Ang^3
#
#
#
# Elastic Constant Matrix: (Units=GPa)
#
#
# Indices 1 2 3 4 5 6 
#
# 1 221.9321 73.6819 8.5510 0.0000 0.0000 0.0000
# 2 73.6819 170.5935 -10.4708 0.0000 0.0000 0.0000
# 3 8.5510 -10.4708 42.1959 0.0000 0.0000 0.0000
# 4 0.0000 0.0000 0.0000 38.1388 0.0000 0.0000
# 5 0.0000 0.0000 0.0000 0.0000 26.3331 0.0000
# 6 0.0000 0.0000 0.0000 0.0000 0.0000 40.9333
#
#
#
# Elastic Compliance Matrix: (Units=1/GPa)
#
#
# Indices 1 2 3 4 5 6 
#
# 1 0.005377 -0.002426 -0.001692 0.000000 0.000000 0.000000
# 2 -0.002426 0.007047 0.002240 0.000000 0.000000 0.000000
# 3 -0.001692 0.002240 0.024598 0.000000 0.000000 0.000000
# 4 0.000000 0.000000 0.000000 0.026220 0.000000 0.000000
# 5 0.000000 0.000000 0.000000 0.000000 0.037975 0.000000
# 6 0.000000 0.000000 0.000000 0.000000 0.000000 0.024430
#
#
# Mechanical properties :
#
#
# Convention : Reuss Voigt Hill
#
# Bulk Modulus (GPa) = 30.05973 64.24953 47.15463
# Shear Modulus (GPa) = 35.58974 45.27832 40.43403
#
# Velocity S-wave (km/s) = 3.59873 4.05913 3.83584
# Velocity P-wave (km/s) = 5.31097 6.73414 6.06445
#
# Compressibility (1/GPa) = 0.03326709
#
# Stress axis : x y z
#
# Youngs Moduli (GPa) = 185.99459 141.89961 40.65414
#
# Poissons Ratio (x) = 0.34425 0.06877
# Poissons Ratio (y) = 0.45123 -0.09108
# Poissons Ratio (z) = 0.31462 -0.31791
#
# Static dielectric constant tensor:
#      x y z
#    x 5.241050 0.000000 0.000000 
#    y 0.000000 4.795800 0.000000 
#    z 0.000000 0.000000 6.303450 
# 
# 
# High freq. dielectric constant tensor:
#      x y z
#    x 2.125530 0.000000 0.000000 
#    y 0.000000 2.095600 0.000000 
#    z 0.000000 0.000000 2.172590 
# 
# From -- ./inp_files/2423.got.cif
#   From: 2010.03.12/outbox.cif.g09.slc.cpg/sg56_2_cif.got.tgz:2423.got - 2010.04.16 15:33:40.
