data_PCOD8229785
_publ_section_title
;
Structure prediction by ZEFSAII (Michael W. Deem and Ramdas Pophale) SiO2 
 PCOD8229785
Probable space group: P C C N
;
_chemical_formula_sum "Si O2"
_cell_formula_units_Z 32
_cell_length_a 9.155071
_cell_length_b 7.935898
_cell_length_c 18.971338
_cell_angle_alpha 90.000000
_cell_angle_beta 90.000000
_cell_angle_gamma 90.000000
_cell_volume 1378.338083
_symmetry_space_group_name_H-M "P C C N"
_symmetry_group_IT_number 56
_symmetry_cell_setting 'orthorhombic'
loop_
_space_group_symop_operation_xyz
x,y,z
1/2-x,1/2-y,z
1/2+x,-y,1/2-z
-x,1/2+y,1/2-z
-x,-y,-z
1/2+x,1/2+y,-z
1/2-x,y,1/2+z
x,1/2-y,1/2+z
loop_
_atom_site_type_symbol
_atom_site_label
_atom_site_fract_x
_atom_site_fract_y
_atom_site_fract_z
Si Si1 0.377900 0.646576 0.807366
Si Si2 0.347185 0.090097 0.424309
Si Si3 0.818162 0.073766 0.927838
Si Si4 0.638228 0.617524 0.307042
O O1 0.250000 0.750000 0.767989
O O2 0.297861 0.564290 0.875157
O O3 0.430575 0.506653 0.751226
O O4 0.506761 0.766510 0.835892
O O5 0.250000 0.250000 0.403837
O O6 0.517506 0.115513 0.402480
O O7 0.323737 0.051224 0.506020
O O8 0.750000 0.250000 0.951024
O O9 0.718969 0.983132 0.869302
O O10 0.750000 0.750000 0.271141
#
# Coordination Sequence:
#
# PCOD8229785 Si02
#       4
#     8   8   8   8
#     4  12  27  44  73 110 146 195 251 302 372 444
#     4  11  26  47  73 109 147 193 248 304 369 446
#     4  11  26  46  77 106 148 196 242 306 374 436
#     4  12  25  48  74 107 151 197 247 309 373 442
#
# _framework density 23.216365
#
# number of rings (size 3 to 8) (size 9 to 14) (size 15 to 20)
#    0.000    0.500    2.500    4.500   10.500    1.000 
#    0.000    0.000    0.000    0.000    0.000    0.000 
#    0.000    0.000    0.000    0.000    0.000    0.000 
#
# Total GULP energy -396764.873963 kJ/mol
# GULP energy per Si atom -12398.902311 kJ/mol
# Density = 2.316352 g / cm^3
# Si number density = 23.216365 Si / 1000 Ang^3
#
#
#
# Elastic Constant Matrix: (Units=GPa)
#
#
# Indices 1 2 3 4 5 6 
#
# 1 137.8395 86.8011 44.0443 0.0000 0.0000 0.0000
# 2 86.8011 136.4512 40.4090 0.0000 0.0000 0.0000
# 3 44.0443 40.4090 108.2958 0.0000 0.0000 0.0000
# 4 0.0000 0.0000 0.0000 24.3402 0.0000 0.0000
# 5 0.0000 0.0000 0.0000 0.0000 34.3684 0.0000
# 6 0.0000 0.0000 0.0000 0.0000 0.0000 60.4577
#
#
#
# Elastic Compliance Matrix: (Units=1/GPa)
#
#
# Indices 1 2 3 4 5 6 
#
# 1 0.012637 -0.007326 -0.002406 0.000000 0.000000 0.000000
# 2 -0.007326 0.012487 -0.001679 0.000000 0.000000 0.000000
# 3 -0.002406 -0.001679 0.010839 0.000000 0.000000 0.000000
# 4 0.000000 0.000000 0.000000 0.041084 0.000000 0.000000
# 5 0.000000 0.000000 0.000000 0.000000 0.029096 0.000000
# 6 0.000000 0.000000 0.000000 0.000000 0.000000 0.016540
#
#
# Mechanical properties :
#
#
# Convention : Reuss Voigt Hill
#
# Bulk Modulus (GPa) = 76.10738 80.56614 78.33676
# Shear Modulus (GPa) = 33.35833 37.92208 35.64020
#
# Velocity S-wave (km/s) = 3.79469 4.04594 3.92233
# Velocity P-wave (km/s) = 7.21474 7.52355 7.37076
#
# Compressibility (1/GPa) = 0.01313933
#
# Stress axis : x y z
#
# Youngs Moduli (GPa) = 79.13120 80.08569 92.25854
#
# Poissons Ratio (x) = 0.58675 0.22196
# Poissons Ratio (y) = 0.57975 0.15495
# Poissons Ratio (z) = 0.19038 0.13450
#
# Static dielectric constant tensor:
#      x y z
#    x 4.285370 0.000000 0.000000 
#    y 0.000000 4.454590 0.000000 
#    z 0.000000 0.000000 3.861870 
# 
# 
# High freq. dielectric constant tensor:
#      x y z
#    x 1.925700 0.000000 0.000000 
#    y 0.000000 1.937590 0.000000 
#    z 0.000000 0.000000 1.911950 
# 
# From -- ./inp_files/17781.got.cif
#   From: 2010.03.12/outbox.cif.g09.slc.cpg/sg56_9_cif.got.tgz:17781.got - 2010.04.16 15:33:40.
