data_PCOD8229620
_publ_section_title
;
Structure prediction by ZEFSAII (Michael W. Deem and Ramdas Pophale) SiO2 
 PCOD8229620
Probable space group: P C C N
;
_chemical_formula_sum "Si O2"
_cell_formula_units_Z 32
_cell_length_a 10.765688
_cell_length_b 14.401302
_cell_length_c 7.502490
_cell_angle_alpha 90.000000
_cell_angle_beta 90.000000
_cell_angle_gamma 90.000000
_cell_volume 1163.185480
_symmetry_space_group_name_H-M "P C C N"
_symmetry_group_IT_number 56
_symmetry_cell_setting 'orthorhombic'
loop_
_space_group_symop_operation_xyz
x,y,z
1/2-x,1/2-y,z
1/2+x,-y,1/2-z
-x,1/2+y,1/2-z
-x,-y,-z
1/2+x,1/2+y,-z
1/2-x,y,1/2+z
x,1/2-y,1/2+z
loop_
_atom_site_type_symbol
_atom_site_label
_atom_site_fract_x
_atom_site_fract_y
_atom_site_fract_z
Si Si1 0.231232 0.646946 0.014178
Si Si2 0.048286 0.583935 0.721434
Si Si3 0.608488 0.719370 0.429198
Si Si4 0.514639 0.126074 0.743133
O O1 0.250000 0.750000 0.940485
O O2 0.367699 0.601854 0.043315
O O3 0.157888 0.650088 0.206018
O O4 0.141800 0.586511 0.889665
O O5 0.994872 0.481955 0.702374
O O6 0.936562 0.657948 0.756340
O O7 0.750000 0.750000 0.408292
O O8 0.582944 0.658266 0.603804
O O9 0.525237 0.813637 0.430317
#
# Coordination Sequence:
#
# PCOD8229620 Si02
#       4
#     8   8   8   8
#     4  11  22  45  70 100 136 178 233 284 334 405
#     4  11  26  44  71 103 136 182 227 285 342 401
#     4  11  24  46  67 100 140 180 222 281 345 404
#     4  11  26  44  70  99 139 181 228 283 340 403
#
# _framework density 27.510660999999999
#
# number of rings (size 3 to 8) (size 9 to 14) (size 15 to 20)
#    0.000    1.000    2.500    4.500   10.500    0.000 
#    0.000    2.500    0.000    0.000    0.000    0.000 
#    0.000    0.000    0.000    0.000    0.000    0.000 
#
# Total GULP energy -396899.670012 kJ/mol
# GULP energy per Si atom -12403.114688 kJ/mol
# Density = 2.744805 g / cm^3
# Si number density = 27.510661 Si / 1000 Ang^3
#
#
#
# Elastic Constant Matrix: (Units=GPa)
#
#
# Indices 1 2 3 4 5 6 
#
# 1 198.8189 100.6269 37.9211 0.0000 0.0000 0.0000
# 2 100.6269 147.1864 -14.7765 0.0000 0.0000 0.0000
# 3 37.9211 -14.7765 52.8464 0.0000 0.0000 0.0000
# 4 0.0000 0.0000 0.0000 36.4490 0.0000 0.0000
# 5 0.0000 0.0000 0.0000 0.0000 48.7309 0.0000
# 6 0.0000 0.0000 0.0000 0.0000 0.0000 41.0564
#
#
#
# Elastic Compliance Matrix: (Units=1/GPa)
#
#
# Indices 1 2 3 4 5 6 
#
# 1 0.011748 -0.009134 -0.010984 0.000000 0.000000 0.000000
# 2 -0.009134 0.014093 0.010495 0.000000 0.000000 0.000000
# 3 -0.010984 0.010495 0.029739 0.000000 0.000000 0.000000
# 4 0.000000 0.000000 0.000000 0.027436 0.000000 0.000000
# 5 0.000000 0.000000 0.000000 0.000000 0.020521 0.000000
# 6 0.000000 0.000000 0.000000 0.000000 0.000000 0.024357
#
#
# Mechanical properties :
#
#
# Convention : Reuss Voigt Hill
#
# Bulk Modulus (GPa) = 27.52330 71.82164 49.67247
# Shear Modulus (GPa) = 31.39716 43.58593 37.49154
#
# Velocity S-wave (km/s) = 3.38194 3.98468 3.69562
# Velocity P-wave (km/s) = 5.02756 6.87995 6.02537
#
# Compressibility (1/GPa) = 0.03633285
#
# Stress axis : x y z
#
# Youngs Moduli (GPa) = 85.12251 70.95934 33.62584
#
# Poissons Ratio (x) = 0.64816 0.36934
# Poissons Ratio (y) = 0.77754 -0.35290
# Poissons Ratio (z) = 0.93498 -0.74472
#
# Static dielectric constant tensor:
#      x y z
#    x 5.091690 0.000000 0.000000 
#    y 0.000000 4.678590 0.000000 
#    z 0.000000 0.000000 5.634930 
# 
# 
# High freq. dielectric constant tensor:
#      x y z
#    x 2.126060 0.000000 0.000000 
#    y 0.000000 2.098340 0.000000 
#    z 0.000000 0.000000 2.156480 
# 
# From -- ./inp_files/2413.got.cif
#   From: 2010.03.12/outbox.cif.g09.slc.cpg/sg56_2_cif.got.tgz:2413.got - 2010.04.16 15:33:40.
