data_PCOD8229651
_publ_section_title
;
Structure prediction by ZEFSAII (Michael W. Deem and Ramdas Pophale) SiO2 
 PCOD8229651
Probable space group: P C C N
;
_chemical_formula_sum "Si O2"
_cell_formula_units_Z 48
_cell_length_a 26.707186
_cell_length_b 9.013930
_cell_length_c 8.629949
_cell_angle_alpha 90.000000
_cell_angle_beta 90.000000
_cell_angle_gamma 90.000000
_cell_volume 2077.545487
_symmetry_space_group_name_H-M "P C C N"
_symmetry_group_IT_number 56
_symmetry_cell_setting 'orthorhombic'
loop_
_space_group_symop_operation_xyz
x,y,z
1/2-x,1/2-y,z
1/2+x,-y,1/2-z
-x,1/2+y,1/2-z
-x,-y,-z
1/2+x,1/2+y,-z
1/2-x,y,1/2+z
x,1/2-y,1/2+z
loop_
_atom_site_type_symbol
_atom_site_label
_atom_site_fract_x
_atom_site_fract_y
_atom_site_fract_z
Si Si1 0.449846 0.917130 0.314531
Si Si2 0.193512 0.778943 0.564480
Si Si3 0.845793 0.547020 0.767718
Si Si4 0.951027 0.408946 0.319105
Si Si5 0.654196 0.047636 0.217304
Si Si6 0.192573 0.276381 0.951165
O O1 0.454299 0.757408 0.239738
O O2 0.443236 0.908109 0.497621
O O3 0.403404 0.001112 0.236424
O O4 0.499364 0.006221 0.267652
O O5 0.250000 0.750000 0.511447
O O6 0.160389 0.832197 0.420156
O O7 0.171979 0.622965 0.623364
O O8 0.189953 0.905246 0.698614
O O9 0.829791 0.620025 0.605296
O O10 0.839066 0.669753 0.901991
O O11 0.904362 0.491625 0.235754
O O12 0.687079 0.901129 0.184028
O O13 0.250000 0.250000 0.996251
#
# Coordination Sequence:
#
# PCOD8229651 Si02
#       6
#     8   8   8   8   8   8
#     4  11  27  48  77 107 146 186 242 301 371 430
#     4  11  23  42  68 104 137 187 240 293 360 411
#     4  11  26  45  70 104 141 193 239 299 352 436
#     4  11  26  49  73 111 144 190 239 303 366 435
#     4  11  24  43  71 103 142 188 235 302 345 437
#     4  11  26  45  67 103 145 193 241 290 359 423
#
# _framework density 23.104187
#
# number of rings (size 3 to 8) (size 9 to 14) (size 15 to 20)
#    0.000    1.000    1.667    3.000    7.000    4.667 
#    0.000    0.000    0.000    0.000    0.000    0.000 
#    0.000    0.000    0.000    0.000    0.000    0.000 
#
# Total GULP energy -595434.517625 kJ/mol
# GULP energy per Si atom -12404.885784 kJ/mol
# Density = 2.305160 g / cm^3
# Si number density = 23.104187 Si / 1000 Ang^3
#
#
#
# Elastic Constant Matrix: (Units=GPa)
#
#
# Indices 1 2 3 4 5 6 
#
# 1 166.1204 44.1548 47.7519 0.0000 0.0000 0.0000
# 2 44.1548 75.6085 33.4878 0.0000 0.0000 0.0000
# 3 47.7519 33.4878 51.3685 0.0000 0.0000 0.0000
# 4 0.0000 0.0000 0.0000 52.6888 0.0000 0.0000
# 5 0.0000 0.0000 0.0000 0.0000 37.5433 0.0000
# 6 0.0000 0.0000 0.0000 0.0000 0.0000 54.5392
#
#
#
# Elastic Compliance Matrix: (Units=1/GPa)
#
#
# Indices 1 2 3 4 5 6 
#
# 1 0.008433 -0.002043 -0.006508 0.000000 0.000000 0.000000
# 2 -0.002043 0.019090 -0.010546 0.000000 0.000000 0.000000
# 3 -0.006508 -0.010546 0.032392 0.000000 0.000000 0.000000
# 4 0.000000 0.000000 0.000000 0.018979 0.000000 0.000000
# 5 0.000000 0.000000 0.000000 0.000000 0.026636 0.000000
# 6 0.000000 0.000000 0.000000 0.000000 0.000000 0.018335
#
#
# Mechanical properties :
#
#
# Convention : Reuss Voigt Hill
#
# Bulk Modulus (GPa) = 46.03651 60.43182 53.23417
# Shear Modulus (GPa) = 29.53326 40.13444 34.83385
#
# Velocity S-wave (km/s) = 3.57916 4.17238 3.88711
# Velocity P-wave (km/s) = 6.08682 7.03027 6.57549
#
# Compressibility (1/GPa) = 0.02172189
#
# Stress axis : x y z
#
# Youngs Moduli (GPa) = 118.57591 52.38377 30.87155
#
# Poissons Ratio (x) = 0.10700 0.20092
# Poissons Ratio (y) = 0.24220 0.32558
# Poissons Ratio (z) = 0.77170 0.55245
#
# Static dielectric constant tensor:
#      x y z
#    x 4.446150 0.000000 0.000000 
#    y 0.000000 4.383640 0.000000 
#    z 0.000000 0.000000 4.259720 
# 
# 
# High freq. dielectric constant tensor:
#      x y z
#    x 1.915480 0.000000 0.000000 
#    y 0.000000 1.925070 0.000000 
#    z 0.000000 0.000000 1.922850 
# 
# From -- ./inp_files/5116.got.cif
#   From: 2010.03.12/outbox.cif.g09.slc.cpg/sg56_3_cif.got.tgz:5116.got - 2010.04.16 15:33:40.
