data_PCOD8229001
_publ_section_title
;
Structure prediction by ZEFSAII (Michael W. Deem and Ramdas Pophale) SiO2 
 PCOD8229001
Probable space group: P C C N
;
_chemical_formula_sum "Si O2"
_cell_formula_units_Z 48
_cell_length_a 12.931899
_cell_length_b 10.833463
_cell_length_c 17.548897
_cell_angle_alpha 90.000000
_cell_angle_beta 90.000000
_cell_angle_gamma 90.000000
_cell_volume 2458.552199
_symmetry_space_group_name_H-M "P C C N"
_symmetry_group_IT_number 56
_symmetry_cell_setting 'orthorhombic'
loop_
_space_group_symop_operation_xyz
x,y,z
1/2-x,1/2-y,z
1/2+x,-y,1/2-z
-x,1/2+y,1/2-z
-x,-y,-z
1/2+x,1/2+y,-z
1/2-x,y,1/2+z
x,1/2-y,1/2+z
loop_
_atom_site_type_symbol
_atom_site_label
_atom_site_fract_x
_atom_site_fract_y
_atom_site_fract_z
Si Si1 0.933133 0.565323 0.345863
Si Si2 0.792150 0.053498 0.580728
Si Si3 0.911081 0.286864 0.558971
Si Si4 0.157682 0.156041 0.308848
Si Si5 0.788519 0.886551 0.969788
Si Si6 0.466241 0.164947 0.413624
O O1 0.911602 0.608686 0.260736
O O2 0.824309 0.553316 0.390496
O O3 0.993621 0.674634 0.388417
O O4 0.994198 0.435724 0.351715
O O5 0.889135 0.145183 0.580883
O O6 0.686648 0.129882 0.578497
O O7 0.791616 0.965691 0.654620
O O8 0.803398 0.969212 0.504564
O O9 0.939699 0.295506 0.469171
O O10 0.250000 0.250000 0.285104
O O11 0.079312 0.218789 0.368456
O O12 0.750000 0.750000 0.955124
O O13 0.878399 0.896003 0.033827
#
# Coordination Sequence:
#
# PCOD8229001 Si02
#       6
#     8   8   8   8   8   8
#     4  11  23  38  61  91 122 159 205 246 309 366
#     4  11  20  40  64  88 122 156 204 251 301 356
#     4  10  22  39  66  90 115 162 206 251 300 361
#     4  12  24  40  61  91 128 163 198 251 315 363
#     4  11  18  39  65  83 112 163 210 246 292 364
#     4  11  20  41  64  85 121 160 201 252 299 358
#
# _framework density 19.523686000000001
#
# number of rings (size 3 to 8) (size 9 to 14) (size 15 to 20)
#    0.000    1.000    6.667    1.500    2.333    0.667 
#    0.000    3.333    0.000    0.000    0.000    0.000 
#    0.000    0.000    0.000    0.000    0.000    0.000 
#
# Total GULP energy -595131.927132 kJ/mol
# GULP energy per Si atom -12398.581815 kJ/mol
# Density = 1.947925 g / cm^3
# Si number density = 19.523686 Si / 1000 Ang^3
#
#
#
# Elastic Constant Matrix: (Units=GPa)
#
#
# Indices 1 2 3 4 5 6 
#
# 1 62.2756 29.8929 36.8748 0.0000 0.0000 0.0000
# 2 29.8929 98.2720 39.0758 0.0000 0.0000 0.0000
# 3 36.8748 39.0758 104.8098 0.0000 0.0000 0.0000
# 4 0.0000 0.0000 0.0000 19.7187 0.0000 0.0000
# 5 0.0000 0.0000 0.0000 0.0000 30.9667 0.0000
# 6 0.0000 0.0000 0.0000 0.0000 0.0000 39.4052
#
#
#
# Elastic Compliance Matrix: (Units=1/GPa)
#
#
# Indices 1 2 3 4 5 6 
#
# 1 0.021651 -0.004176 -0.006060 0.000000 0.000000 0.000000
# 2 -0.004176 0.012752 -0.003285 0.000000 0.000000 0.000000
# 3 -0.006060 -0.003285 0.012898 0.000000 0.000000 0.000000
# 4 0.000000 0.000000 0.000000 0.050713 0.000000 0.000000
# 5 0.000000 0.000000 0.000000 0.000000 0.032293 0.000000
# 6 0.000000 0.000000 0.000000 0.000000 0.000000 0.025377
#
#
# Mechanical properties :
#
#
# Convention : Reuss Voigt Hill
#
# Bulk Modulus (GPa) = 49.36317 53.00495 51.18406
# Shear Modulus (GPa) = 26.38794 28.65235 27.52015
#
# Velocity S-wave (km/s) = 3.68038 3.83504 3.75851
# Velocity P-wave (km/s) = 6.58778 6.84237 6.71628
#
# Compressibility (1/GPa) = 0.02025802
#
# Stress axis : x y z
#
# Youngs Moduli (GPa) = 46.18803 78.41646 77.53100
#
# Poissons Ratio (x) = 0.32747 0.46986
# Poissons Ratio (y) = 0.19288 0.25470
# Poissons Ratio (z) = 0.27991 0.25761
#
# Static dielectric constant tensor:
#      x y z
#    x 3.637020 0.000000 0.000000 
#    y 0.000000 3.789390 0.000000 
#    z 0.000000 0.000000 3.478150 
# 
# 
# High freq. dielectric constant tensor:
#      x y z
#    x 1.753750 0.000000 0.000000 
#    y 0.000000 1.772280 0.000000 
#    z 0.000000 0.000000 1.743040 
# 
# From -- ./inp_files/12213.got.cif
#   From: 2010.03.12/outbox.cif.g09.slc.cpg/sg56_7_cif.got.tgz:12213.got - 2010.04.16 15:33:40.
