data_PCOD8229390
_publ_section_title
;
Structure prediction by ZEFSAII (Michael W. Deem and Ramdas Pophale) SiO2 
 PCOD8229390
Probable space group: P C C N
;
_chemical_formula_sum "Si O2"
_cell_formula_units_Z 60
_cell_length_a 13.395454
_cell_length_b 12.065595
_cell_length_c 17.982493
_cell_angle_alpha 90.000000
_cell_angle_beta 90.000000
_cell_angle_gamma 90.000000
_cell_volume 2906.404657
_symmetry_space_group_name_H-M "P C C N"
_symmetry_group_IT_number 56
_symmetry_cell_setting 'orthorhombic'
loop_
_space_group_symop_operation_xyz
x,y,z
1/2-x,1/2-y,z
1/2+x,-y,1/2-z
-x,1/2+y,1/2-z
-x,-y,-z
1/2+x,1/2+y,-z
1/2-x,y,1/2+z
x,1/2-y,1/2+z
loop_
_atom_site_type_symbol
_atom_site_label
_atom_site_fract_x
_atom_site_fract_y
_atom_site_fract_z
Si Si1 0.665435 0.335821 0.445927
Si Si2 0.290856 0.088369 0.041705
Si Si3 0.313182 0.852840 0.220588
Si Si4 0.360205 0.121208 0.417210
Si Si5 0.750000 0.750000 0.703186
Si Si6 0.681172 0.933452 0.312782
Si Si7 0.021306 0.259352 0.030443
Si Si8 0.037849 0.913155 0.848477
O O1 0.750000 0.250000 0.472183
O O2 0.704760 0.457632 0.458902
O O3 0.639877 0.317846 0.358923
O O4 0.570497 0.326513 0.497894
O O5 0.219261 0.121496 0.110159
O O6 0.395501 0.150201 0.051748
O O7 0.242306 0.123455 0.963955
O O8 0.250000 0.750000 0.253032
O O9 0.403181 0.877815 0.275347
O O10 0.242787 0.959359 0.211675
O O11 0.337600 0.191474 0.343753
O O12 0.446770 0.173787 0.466814
O O13 0.396220 0.998206 0.396419
O O14 0.809343 0.840081 0.750609
O O15 0.565847 0.969386 0.322442
O O16 0.986748 0.195949 0.104141
#
# Coordination Sequence:
#
# PCOD8229390 Si02
#       8
#     8   8   8   8   4   8   8   8
#     4  10  24  44  69  95 138 184 222 279 342 411
#     4  11  23  46  67  99 140 176 227 285 346 403
#     4  10  25  47  66  97 140 178 226 279 342 410
#     4  12  25  42  69 102 131 175 229 279 340 412
#     4  12  24  44  68  96 142 172 226 290 342 404
#     4  11  25  45  69  98 138 182 225 284 344 410
#     4  12  24  42  69 102 133 179 227 280 343 407
#     4  12  26  42  71 103 131 185 228 281 350 407
#
# _framework density 20.644062000000002
#
# number of rings (size 3 to 8) (size 9 to 14) (size 15 to 20)
#    0.000    0.800    4.000    2.400    7.467    1.600 
#    4.800    0.000    0.000    0.000    0.000    0.000 
#    0.000    0.000    0.000    0.000    0.000    0.000 
#
# Total GULP energy -744307.814160 kJ/mol
# GULP energy per Si atom -12405.130236 kJ/mol
# Density = 2.059708 g / cm^3
# Si number density = 20.644062 Si / 1000 Ang^3
#
#
#
# Elastic Constant Matrix: (Units=GPa)
#
#
# Indices 1 2 3 4 5 6 
#
# 1 128.4453 37.1994 59.7421 0.0000 0.0000 0.0000
# 2 37.1994 105.8486 39.8151 0.0000 0.0000 0.0000
# 3 59.7421 39.8151 101.2434 0.0000 0.0000 0.0000
# 4 0.0000 0.0000 0.0000 36.7473 0.0000 0.0000
# 5 0.0000 0.0000 0.0000 0.0000 41.6363 0.0000
# 6 0.0000 0.0000 0.0000 0.0000 0.0000 32.6867
#
#
#
# Elastic Compliance Matrix: (Units=1/GPa)
#
#
# Indices 1 2 3 4 5 6 
#
# 1 0.010976 -0.001668 -0.005821 0.000000 0.000000 0.000000
# 2 -0.001668 0.011341 -0.003476 0.000000 0.000000 0.000000
# 3 -0.005821 -0.003476 0.014679 0.000000 0.000000 0.000000
# 4 0.000000 0.000000 0.000000 0.027213 0.000000 0.000000
# 5 0.000000 0.000000 0.000000 0.000000 0.024017 0.000000
# 6 0.000000 0.000000 0.000000 0.000000 0.000000 0.030593
#
#
# Mechanical properties :
#
#
# Convention : Reuss Voigt Hill
#
# Bulk Modulus (GPa) = 66.37094 67.67225 67.02160
# Shear Modulus (GPa) = 34.30050 35.46611 34.88331
#
# Velocity S-wave (km/s) = 4.08060 4.14935 4.11512
# Velocity P-wave (km/s) = 7.37710 7.47046 7.42393
#
# Compressibility (1/GPa) = 0.01506684
#
# Stress axis : x y z
#
# Youngs Moduli (GPa) = 91.10985 88.17532 68.12545
#
# Poissons Ratio (x) = 0.14706 0.39654
# Poissons Ratio (y) = 0.15196 0.23679
# Poissons Ratio (z) = 0.53032 0.30648
#
# Static dielectric constant tensor:
#      x y z
#    x 3.716380 0.000000 0.000000 
#    y 0.000000 3.850500 0.000000 
#    z 0.000000 0.000000 3.968330 
# 
# 
# High freq. dielectric constant tensor:
#      x y z
#    x 1.809160 0.000000 0.000000 
#    y 0.000000 1.821610 0.000000 
#    z 0.000000 0.000000 1.815920 
# 
# From -- ./inp_files/16327.got.cif
#   From: 2010.03.12/outbox.cif.g09.slc.cpg/sg56_9_cif.got.tgz:16327.got - 2010.04.16 15:33:40.
