data_PCOD8229740
_publ_section_title
;
Structure prediction by ZEFSAII (Michael W. Deem and Ramdas Pophale) SiO2 
 PCOD8229740
Probable space group: P C C N
;
_chemical_formula_sum "Si O2"
_cell_formula_units_Z 56
_cell_length_a 9.640800
_cell_length_b 13.931481
_cell_length_c 19.489775
_cell_angle_alpha 90.000000
_cell_angle_beta 90.000000
_cell_angle_gamma 90.000000
_cell_volume 2617.683803
_symmetry_space_group_name_H-M "P C C N"
_symmetry_group_IT_number 56
_symmetry_cell_setting 'orthorhombic'
loop_
_space_group_symop_operation_xyz
x,y,z
1/2-x,1/2-y,z
1/2+x,-y,1/2-z
-x,1/2+y,1/2-z
-x,-y,-z
1/2+x,1/2+y,-z
1/2-x,y,1/2+z
x,1/2-y,1/2+z
loop_
_atom_site_type_symbol
_atom_site_label
_atom_site_fract_x
_atom_site_fract_y
_atom_site_fract_z
Si Si1 0.579313 0.826323 0.342269
Si Si2 0.185171 0.444919 0.959649
Si Si3 0.097167 0.833996 0.277397
Si Si4 0.826090 0.943617 0.291367
Si Si5 0.750000 0.750000 0.460542
Si Si6 0.250000 0.750000 0.152105
Si Si7 0.320310 0.554103 0.843856
Si Si8 0.119911 0.573982 0.083860
O O1 0.485149 0.762392 0.293792
O O2 0.722816 0.853788 0.303690
O O3 0.615328 0.770739 0.413009
O O4 0.481162 0.918471 0.354941
O O5 0.297737 0.478397 0.904590
O O6 0.045067 0.430452 0.917430
O O7 0.224569 0.343859 0.993848
O O8 0.177782 0.534075 0.012081
O O9 0.158312 0.818276 0.201243
O O10 0.213766 0.854858 0.336984
O O11 0.984558 0.917736 0.275698
O O12 0.777136 0.005046 0.227530
O O13 0.816488 0.004798 0.359697
O O14 0.162083 0.683273 0.100366
#
# Coordination Sequence:
#
# PCOD8229740 Si02
#       8
#     8   8   8   8   4   4   8   8
#     4  12  24  44  71 103 142 189 234 296 360 430
#     4  11  27  48  72 102 146 197 238 297 365 438
#     4  12  22  43  71 107 143 184 235 301 365 426
#     4  12  23  45  74 100 144 188 234 300 367 424
#     4  12  26  50  72 102 150 198 246 290 366 442
#     4  12  26  42  76 112 144 186 258 302 356 444
#     4  12  26  42  74 107 143 179 245 300 363 427
#     4  11  24  48  71 102 146 196 235 296 367 432
#
# _framework density 21.392959000000001
#
# number of rings (size 3 to 8) (size 9 to 14) (size 15 to 20)
#    0.000    0.286    7.143    0.857    4.000    2.857 
#    0.000    0.000    0.000    0.000    0.000    0.000 
#    0.000    0.000    0.000    0.000    0.000    0.000 
#
# Total GULP energy -694298.110697 kJ/mol
# GULP energy per Si atom -12398.180548 kJ/mol
# Density = 2.134427 g / cm^3
# Si number density = 21.392959 Si / 1000 Ang^3
#
#
#
# Elastic Constant Matrix: (Units=GPa)
#
#
# Indices 1 2 3 4 5 6 
#
# 1 90.4786 25.0165 39.4519 0.0000 0.0000 0.0000
# 2 25.0165 90.0845 42.0645 0.0000 0.0000 0.0000
# 3 39.4519 42.0645 103.1122 0.0000 0.0000 0.0000
# 4 0.0000 0.0000 0.0000 -7.0049 0.0000 0.0000
# 5 0.0000 0.0000 0.0000 0.0000 24.4691 0.0000
# 6 0.0000 0.0000 0.0000 0.0000 0.0000 44.2426
#
#
#
# Elastic Compliance Matrix: (Units=1/GPa)
#
#
# Indices 1 2 3 4 5 6 
#
# 1 0.013460 -0.001647 -0.004478 0.000000 0.000000 0.000000
# 2 -0.001647 0.013914 -0.005046 0.000000 0.000000 0.000000
# 3 -0.004478 -0.005046 0.013470 0.000000 0.000000 0.000000
# 4 0.000000 0.000000 0.000000 -0.142757 0.000000 0.000000
# 5 0.000000 0.000000 0.000000 0.000000 0.040868 0.000000
# 6 0.000000 0.000000 0.000000 0.000000 0.000000 0.022603
#
#
# Mechanical properties :
#
#
# Convention : Reuss Voigt Hill
#
# Bulk Modulus (GPa) = 54.04757 55.19347 54.62052
# Shear Modulus (GPa) = -503.46687 24.15083 -239.65802
#
# Velocity S-wave (km/s) = -15.35751 3.36358 -10.59574
# Velocity P-wave (km/s) = 17.00447 6.39849 11.14027
#
# Compressibility (1/GPa) = 0.01850222
#
# Stress axis : x y z
#
# Youngs Moduli (GPa) = 74.29220 71.86835 74.23787
#
# Poissons Ratio (x) = 0.11836 0.33246
# Poissons Ratio (y) = 0.12235 0.37462
# Poissons Ratio (z) = 0.33270 0.36266
#
# Static dielectric constant tensor:
#      x y z
#    x 4.196200 0.000000 0.000000 
#    y 0.000000 3.918710 0.000000 
#    z 0.000000 0.000000 3.798150 
# 
# 
# High freq. dielectric constant tensor:
#      x y z
#    x 1.848490 0.000000 0.000000 
#    y 0.000000 1.851740 0.000000 
#    z 0.000000 0.000000 1.830420 
# 
# From -- ./inp_files/18276.got.cif
#   From: 2010.03.12/outbox.cif.g09.slc.cpg/sg56_10_cif.got.tgz:18276.got - 2010.04.16 15:33:40.
