data_PCOD8229417
_publ_section_title
;
Structure prediction by ZEFSAII (Michael W. Deem and Ramdas Pophale) SiO2 
 PCOD8229417
Probable space group: P C C N
;
_chemical_formula_sum "Si O2"
_cell_formula_units_Z 60
_cell_length_a 8.734524
_cell_length_b 10.893773
_cell_length_c 28.680488
_cell_angle_alpha 90.000000
_cell_angle_beta 90.000000
_cell_angle_gamma 90.000000
_cell_volume 2729.003549
_symmetry_space_group_name_H-M "P C C N"
_symmetry_group_IT_number 56
_symmetry_cell_setting 'orthorhombic'
loop_
_space_group_symop_operation_xyz
x,y,z
1/2-x,1/2-y,z
1/2+x,-y,1/2-z
-x,1/2+y,1/2-z
-x,-y,-z
1/2+x,1/2+y,-z
1/2-x,y,1/2+z
x,1/2-y,1/2+z
loop_
_atom_site_type_symbol
_atom_site_label
_atom_site_fract_x
_atom_site_fract_y
_atom_site_fract_z
Si Si1 0.571529 0.736388 0.941901
Si Si2 0.512625 0.413800 0.634261
Si Si3 0.842949 0.631786 0.096036
Si Si4 0.250000 0.750000 0.816049
Si Si5 0.452008 0.532667 0.795104
Si Si6 0.073625 0.781627 0.039790
Si Si7 0.285932 0.112844 0.216919
Si Si8 0.451688 0.005262 0.401307
O O1 0.750000 0.750000 0.954002
O O2 0.522794 0.864449 0.917937
O O3 0.526308 0.629131 0.905540
O O4 0.475888 0.695015 0.986870
O O5 0.552920 0.559404 0.633768
O O6 0.662615 0.345555 0.651824
O O7 0.367060 0.391756 0.666695
O O8 0.750000 0.750000 0.116655
O O9 0.717504 0.532767 0.076316
O O10 0.959574 0.673444 0.055927
O O11 0.371144 0.666714 0.787178
O O12 0.631396 0.537001 0.785942
O O13 0.392331 0.439410 0.756930
O O14 0.428913 0.473426 0.846086
O O15 0.250000 0.750000 0.041196
O O16 0.064339 0.899217 0.073539
O O17 0.250000 0.250000 0.231175
#
# Coordination Sequence:
#
# PCOD8229417 Si02
#       8
#     8   8   8   4   8   8   8   8
#     4  12  25  44  75 105 141 193 238 308 367 432
#     4  12  23  45  78 103 145 188 246 296 365 436
#     4  10  24  46  70 100 145 186 235 292 366 431
#     4  12  22  46  72 110 132 194 234 292 356 442
#     4  12  26  46  76 102 147 187 236 298 362 423
#     4  11  28  44  67 106 144 188 250 300 367 440
#     4  12  27  48  71 110 143 185 247 297 358 437
#     4  11  23  48  72  99 146 188 239 300 367 435
#
# _framework density 21.986048
#
# number of rings (size 3 to 8) (size 9 to 14) (size 15 to 20)
#    0.000    0.533    4.000    3.600    6.533    2.133 
#    0.000    0.000    0.000    0.000    0.000    0.000 
#    0.000    0.000    0.000    0.000    0.000    0.000 
#
# Total GULP energy -743798.792996 kJ/mol
# GULP energy per Si atom -12396.646550 kJ/mol
# Density = 2.193601 g / cm^3
# Si number density = 21.986048 Si / 1000 Ang^3
#
#
#
# Elastic Constant Matrix: (Units=GPa)
#
#
# Indices 1 2 3 4 5 6 
#
# 1 147.7384 41.9335 30.3174 0.0000 0.0000 0.0000
# 2 41.9335 113.2670 39.7819 0.0000 0.0000 0.0000
# 3 30.3174 39.7819 86.9008 0.0000 0.0000 0.0000
# 4 0.0000 0.0000 0.0000 -25.6383 0.0000 0.0000
# 5 0.0000 0.0000 0.0000 0.0000 75.4125 0.0000
# 6 0.0000 0.0000 0.0000 0.0000 0.0000 39.8655
#
#
#
# Elastic Compliance Matrix: (Units=1/GPa)
#
#
# Indices 1 2 3 4 5 6 
#
# 1 0.007759 -0.002290 -0.001659 0.000000 0.000000 0.000000
# 2 -0.002290 0.011196 -0.004326 0.000000 0.000000 0.000000
# 3 -0.001659 -0.004326 0.014067 0.000000 0.000000 0.000000
# 4 0.000000 0.000000 0.000000 -0.039004 0.000000 0.000000
# 5 0.000000 0.000000 0.000000 0.000000 0.013260 0.000000
# 6 0.000000 0.000000 0.000000 0.000000 0.000000 0.025084
#
#
# Mechanical properties :
#
#
# Convention : Reuss Voigt Hill
#
# Bulk Modulus (GPa) = 60.71062 63.55241 62.13152
# Shear Modulus (GPa) = 91.90650 33.65282 62.77966
#
# Velocity S-wave (km/s) = 6.47248 3.91659 5.34942
# Velocity P-wave (km/s) = 9.13950 7.03004 8.15328
#
# Compressibility (1/GPa) = 0.01647158
#
# Stress axis : x y z
#
# Youngs Moduli (GPa) = 128.88140 89.31718 71.09033
#
# Poissons Ratio (x) = 0.20454 0.11791
# Poissons Ratio (y) = 0.29514 0.30757
# Poissons Ratio (z) = 0.21376 0.38643
#
# Static dielectric constant tensor:
#      x y z
#    x 4.462910 0.000000 0.000000 
#    y 0.000000 3.957840 0.000000 
#    z 0.000000 0.000000 3.769530 
# 
# 
# High freq. dielectric constant tensor:
#      x y z
#    x 1.891380 0.000000 0.000000 
#    y 0.000000 1.867920 0.000000 
#    z 0.000000 0.000000 1.846630 
# 
# From -- ./inp_files/22098.got.cif
#   From: 2010.03.12/outbox.cif.g09.slc.cpg/sg56_12_cif.got.tgz:22098.got - 2010.04.16 15:33:40.
