data_PCOD8229164
_publ_section_title
;
Structure prediction by ZEFSAII (Michael W. Deem and Ramdas Pophale) SiO2 
 PCOD8229164
Probable space group: P C C N
;
_chemical_formula_sum "Si O2"
_cell_formula_units_Z 48
_cell_length_a 12.100040
_cell_length_b 8.631235
_cell_length_c 21.572523
_cell_angle_alpha 90.000000
_cell_angle_beta 90.000000
_cell_angle_gamma 90.000000
_cell_volume 2252.997386
_symmetry_space_group_name_H-M "P C C N"
_symmetry_group_IT_number 56
_symmetry_cell_setting 'orthorhombic'
loop_
_space_group_symop_operation_xyz
x,y,z
1/2-x,1/2-y,z
1/2+x,-y,1/2-z
-x,1/2+y,1/2-z
-x,-y,-z
1/2+x,1/2+y,-z
1/2-x,y,1/2+z
x,1/2-y,1/2+z
loop_
_atom_site_type_symbol
_atom_site_label
_atom_site_fract_x
_atom_site_fract_y
_atom_site_fract_z
Si Si1 0.250000 0.250000 0.958808
Si Si2 0.334888 0.457835 0.752528
Si Si3 0.833347 0.969076 0.639811
Si Si4 0.750000 0.250000 0.569853
Si Si5 0.497648 0.295604 0.279100
Si Si6 0.875143 0.013449 0.982652
Si Si7 0.675953 0.395951 0.845653
O O1 0.330887 0.145723 0.917835
O O2 0.175383 0.151236 0.003430
O O3 0.273600 0.438653 0.817670
O O4 0.415138 0.607354 0.761699
O O5 0.401846 0.295769 0.740673
O O6 0.245549 0.485693 0.697825
O O7 0.946243 0.928188 0.675847
O O8 0.829077 0.145323 0.614281
O O9 0.824895 0.352283 0.525080
O O10 0.562624 0.157155 0.313256
O O11 0.857486 0.029535 0.909871
O O12 0.000000 0.000000 0.000000
O O13 0.750000 0.250000 0.861402
#
# Coordination Sequence:
#
# PCOD8229164 Si02
#       7
#     4   8   8   4   8   8   8
#     4  10  22  44  66  96 130 174 222 276 320 400
#     4  11  24  41  68  99 141 172 226 277 343 400
#     4  11  22  44  65  96 134 170 228 276 328 403
#     4  10  26  42  72  96 130 178 226 278 330 406
#     4  11  23  42  66  98 135 182 214 276 351 401
#     4  11  23  48  69  97 136 179 225 275 339 397
#     4  10  23  44  66  99 140 174 225 284 328 404
#
# _framework density 21.304953000000001
#
# number of rings (size 3 to 8) (size 9 to 14) (size 15 to 20)
#    0.000    1.333    2.500    2.000    8.167    0.000 
#   12.000    2.500    0.000    0.000    0.000    0.000 
#    0.000    0.000    0.000    0.000    0.000    0.000 
#
# Total GULP energy -595063.001077 kJ/mol
# GULP energy per Si atom -12397.145856 kJ/mol
# Density = 2.125646 g / cm^3
# Si number density = 21.304953 Si / 1000 Ang^3
#
#
#
# Elastic Constant Matrix: (Units=GPa)
#
#
# Indices 1 2 3 4 5 6 
#
# 1 126.6840 58.0418 48.4557 0.0000 0.0000 0.0000
# 2 58.0418 126.6699 53.9872 0.0000 0.0000 0.0000
# 3 48.4557 53.9872 98.3273 0.0000 0.0000 0.0000
# 4 0.0000 0.0000 0.0000 37.4364 0.0000 0.0000
# 5 0.0000 0.0000 0.0000 0.0000 21.1145 0.0000
# 6 0.0000 0.0000 0.0000 0.0000 0.0000 40.1895
#
#
#
# Elastic Compliance Matrix: (Units=1/GPa)
#
#
# Indices 1 2 3 4 5 6 
#
# 1 0.010797 -0.003498 -0.003400 0.000000 0.000000 0.000000
# 2 -0.003498 0.011440 -0.004557 0.000000 0.000000 0.000000
# 3 -0.003400 -0.004557 0.014348 0.000000 0.000000 0.000000
# 4 0.000000 0.000000 0.000000 0.026712 0.000000 0.000000
# 5 0.000000 0.000000 0.000000 0.000000 0.047361 0.000000
# 6 0.000000 0.000000 0.000000 0.000000 0.000000 0.024882
#
#
# Mechanical properties :
#
#
# Convention : Reuss Voigt Hill
#
# Bulk Modulus (GPa) = 73.13307 74.73895 73.93601
# Shear Modulus (GPa) = 30.67336 32.49449 31.58393
#
# Velocity S-wave (km/s) = 3.79849 3.90963 3.85446
# Velocity P-wave (km/s) = 7.32389 7.45231 7.38838
#
# Compressibility (1/GPa) = 0.01367371
#
# Stress axis : x y z
#
# Youngs Moduli (GPa) = 92.61947 87.41477 69.69719
#
# Poissons Ratio (x) = 0.30579 0.23697
# Poissons Ratio (y) = 0.32400 0.31762
# Poissons Ratio (z) = 0.31491 0.39836
#
# Static dielectric constant tensor:
#      x y z
#    x 3.934030 0.000000 0.000000 
#    y 0.000000 4.016130 0.000000 
#    z 0.000000 0.000000 3.733640 
# 
# 
# High freq. dielectric constant tensor:
#      x y z
#    x 1.842150 0.000000 0.000000 
#    y 0.000000 1.851560 0.000000 
#    z 0.000000 0.000000 1.827130 
# 
# From -- ./inp_files/20937.got.cif
#   From: 2010.03.12/outbox.cif.g09.slc.cpg/sg56_11_cif.got.tgz:20937.got - 2010.04.16 15:33:40.
