data_PCOD8229937
_publ_section_title
;
Structure prediction by ZEFSAII (Michael W. Deem and Ramdas Pophale) SiO2 
 PCOD8229937
Probable space group: P B C M
;
_chemical_formula_sum "Si O2"
_cell_formula_units_Z 56
_cell_length_a 13.532021
_cell_length_b 27.834854
_cell_length_c 9.731314
_cell_angle_alpha 90.000000
_cell_angle_beta 90.000000
_cell_angle_gamma 90.000000
_cell_volume 3665.414528
_symmetry_space_group_name_H-M "P B C M"
_symmetry_group_IT_number 57
_symmetry_cell_setting 'orthorhombic'
loop_
_space_group_symop_operation_xyz
x,y,z
-x,-y,1/2+z
x,1/2-y,-z
-x,1/2+y,1/2-z
-x,-y,-z
x,y,1/2-z
-x,1/2+y,z
x,1/2-y,1/2+z
loop_
_atom_site_type_symbol
_atom_site_label
_atom_site_fract_x
_atom_site_fract_y
_atom_site_fract_z
Si Si1 0.591702 0.515465 0.910297
Si Si2 0.209840 0.542116 0.092575
Si Si3 0.232529 0.294023 0.408448
Si Si4 0.898717 0.552883 0.910130
Si Si5 0.909254 0.104621 0.588894
Si Si6 0.289500 0.395993 0.412231
Si Si7 0.003219 0.294397 0.407885
O O1 0.563345 0.513201 0.750000
O O2 0.683633 0.480438 0.941981
O O3 0.618675 0.570312 0.956532
O O4 0.500000 0.500000 0.000000
O O5 0.207087 0.559266 0.250000
O O6 0.123626 0.503022 0.063946
O O7 0.188322 0.588086 0.995122
O O8 0.269793 0.250000 0.500000
O O9 0.248768 0.280261 0.250000
O O10 0.300207 0.339878 0.451305
O O11 0.117962 0.306645 0.437168
O O12 0.901557 0.565309 0.750000
O O13 0.811043 0.583801 0.980336
O O14 0.003333 0.570293 0.969147
O O15 0.888361 0.097562 0.750000
O O16 0.936391 0.159663 0.555244
O O17 0.277521 0.401936 0.250000
O O18 0.966866 0.250000 0.500000
O O19 0.988890 0.279555 0.250000
#
# Coordination Sequence:
#
# PCOD8229937 Si02
#       7
#     8   8   8   8   8   8   8
#     4   9  18  32  49  66  85 111 144 180 221 266
#     4   9  18  29  42  62  86 112 141 173 213 258
#     4   9  15  25  41  60  85 116 148 177 205 244
#     4   8  13  24  40  58  84 116 146 170 198 243
#     4  10  17  26  42  62  85 115 148 177 205 241
#     4   8  13  25  44  62  83 117 149 170 205 260
#     4   9  17  27  40  59  84 117 152 181 208 241
#
# _framework density 15.277944
#
# number of rings (size 3 to 8) (size 9 to 14) (size 15 to 20)
#    0.000    3.143    1.429    2.143    0.000    1.143 
#    0.000    0.714    0.000    1.714    0.000    1.000 
#    0.000    2.286    0.000    0.000    0.000    0.000 
#
# Total GULP energy -693885.676679 kJ/mol
# GULP energy per Si atom -12390.815655 kJ/mol
# Density = 1.524317 g / cm^3
# Si number density = 15.277944 Si / 1000 Ang^3
#
#
#
# Elastic Constant Matrix: (Units=GPa)
#
#
# Indices 1 2 3 4 5 6 
#
# 1 63.3406 57.1525 41.1117 0.0000 0.0000 0.0000
# 2 57.1525 111.4706 60.3473 0.0000 0.0000 0.0000
# 3 41.1117 60.3473 58.1179 0.0000 0.0000 0.0000
# 4 0.0000 0.0000 0.0000 26.6738 0.0000 0.0000
# 5 0.0000 0.0000 0.0000 0.0000 22.3107 0.0000
# 6 0.0000 0.0000 0.0000 0.0000 0.0000 17.9402
#
#
#
# Elastic Compliance Matrix: (Units=1/GPa)
#
#
# Indices 1 2 3 4 5 6 
#
# 1 0.033364 -0.009887 -0.013335 0.000000 0.000000 0.000000
# 2 -0.009887 0.023418 -0.017323 0.000000 0.000000 0.000000
# 3 -0.013335 -0.017323 0.044626 0.000000 0.000000 0.000000
# 4 0.000000 0.000000 0.000000 0.037490 0.000000 0.000000
# 5 0.000000 0.000000 0.000000 0.000000 0.044821 0.000000
# 6 0.000000 0.000000 0.000000 0.000000 0.000000 0.055741
#
#
# Mechanical properties :
#
#
# Convention : Reuss Voigt Hill
#
# Bulk Modulus (GPa) = 49.21364 61.12802 55.17083
# Shear Modulus (GPa) = 15.27546 18.33946 16.80746
#
# Velocity S-wave (km/s) = 3.16545 3.46842 3.32039
# Velocity P-wave (km/s) = 6.75590 7.49249 7.13371
#
# Compressibility (1/GPa) = 0.02031957
#
# Stress axis : x y z
#
# Youngs Moduli (GPa) = 29.97265 42.70183 22.40827
#
# Poissons Ratio (x) = 0.42219 0.29881
# Poissons Ratio (y) = 0.29634 0.38817
# Poissons Ratio (z) = 0.39968 0.73971
#
# Static dielectric constant tensor:
#      x y z
#    x 2.646260 0.000000 0.000000 
#    y 0.000000 3.015410 0.000000 
#    z 0.000000 0.000000 2.686730 
# 
# 
# High freq. dielectric constant tensor:
#      x y z
#    x 1.547480 0.000000 0.000000 
#    y 0.000000 1.585880 0.000000 
#    z 0.000000 0.000000 1.563070 
# 
# From -- ./inp_files/5881.got.cif
#   From: 2010.03.12/outbox.cif.g09.slc.cpg/sg57_3_cif.got.tgz:5881.got - 2010.04.16 15:48:40.
