data_PCOD8229442
_publ_section_title
;
Structure prediction by ZEFSAII (Michael W. Deem and Ramdas Pophale) SiO2 
 PCOD8229442
Probable space group: P C C N
;
_chemical_formula_sum "Si O2"
_cell_formula_units_Z 32
_cell_length_a 5.070030
_cell_length_b 9.549882
_cell_length_c 26.264663
_cell_angle_alpha 90.000000
_cell_angle_beta 90.000000
_cell_angle_gamma 90.000000
_cell_volume 1271.687397
_symmetry_space_group_name_H-M "P C C N"
_symmetry_group_IT_number 56
_symmetry_cell_setting 'orthorhombic'
loop_
_space_group_symop_operation_xyz
x,y,z
1/2-x,1/2-y,z
1/2+x,-y,1/2-z
-x,1/2+y,1/2-z
-x,-y,-z
1/2+x,1/2+y,-z
1/2-x,y,1/2+z
x,1/2-y,1/2+z
loop_
_atom_site_type_symbol
_atom_site_label
_atom_site_fract_x
_atom_site_fract_y
_atom_site_fract_z
Si Si1 0.433968 0.996642 0.129926
Si Si2 0.893229 0.954331 0.778684
Si Si3 0.250000 0.250000 0.384980
Si Si4 0.750000 0.250000 0.673797
Si Si5 0.365502 0.894475 0.539063
O O1 0.618074 0.132515 0.137726
O O2 0.169934 0.994791 0.163945
O O3 0.581329 0.855774 0.149688
O O4 0.363115 0.979989 0.069866
O O5 0.522995 0.197335 0.712415
O O6 0.617169 0.948122 0.747590
O O7 0.422521 0.148897 0.419811
O O8 0.250000 0.750000 0.513628
O O9 0.500000 0.000000 0.500000
#
# Coordination Sequence:
#
# PCOD8229442 Si02
#       5
#     8   8   4   4   8
#     4  11  25  51  80 116 160 210 271 335 405 488
#     4  12  27  52  76 119 164 208 268 336 397 477
#     4  10  24  52  74 110 160 206 260 326 416 464
#     4  12  26  54  76 124 152 214 272 332 408 476
#     4  10  24  50  77 114 158 211 271 336 412 490
#
# _framework density 25.163418
#
# number of rings (size 3 to 8) (size 9 to 14) (size 15 to 20)
#    0.000    1.000    2.500    2.250    0.000    4.000 
#   38.250    0.000    0.000    0.000    0.000    0.000 
#    0.000    0.000    0.000    0.000    0.000    0.000 
#
# Total GULP energy -396504.981222 kJ/mol
# GULP energy per Si atom -12390.780663 kJ/mol
# Density = 2.510614 g / cm^3
# Si number density = 25.163418 Si / 1000 Ang^3
#
#
#
# Elastic Constant Matrix: (Units=GPa)
#
#
# Indices 1 2 3 4 5 6 
#
# 1 143.0087 73.9193 35.9223 0.0000 0.0000 0.0000
# 2 73.9193 184.5647 81.5511 0.0000 0.0000 0.0000
# 3 35.9223 81.5511 77.3036 0.0000 0.0000 0.0000
# 4 0.0000 0.0000 0.0000 41.7388 0.0000 0.0000
# 5 0.0000 0.0000 0.0000 0.0000 15.7163 0.0000
# 6 0.0000 0.0000 0.0000 0.0000 0.0000 62.2664
#
#
#
# Elastic Compliance Matrix: (Units=1/GPa)
#
#
# Indices 1 2 3 4 5 6 
#
# 1 0.008838 -0.003231 -0.000698 0.000000 0.000000 0.000000
# 2 -0.003231 0.011330 -0.010451 0.000000 0.000000 0.000000
# 3 -0.000698 -0.010451 0.024286 0.000000 0.000000 0.000000
# 4 0.000000 0.000000 0.000000 0.023959 0.000000 0.000000
# 5 0.000000 0.000000 0.000000 0.000000 0.063628 0.000000
# 6 0.000000 0.000000 0.000000 0.000000 0.000000 0.016060
#
#
# Mechanical properties :
#
#
# Convention : Reuss Voigt Hill
#
# Bulk Modulus (GPa) = 63.72306 87.51806 75.62056
# Shear Modulus (GPa) = 27.45842 38.17659 32.81750
#
# Velocity S-wave (km/s) = 3.30692 3.89928 3.61525
# Velocity P-wave (km/s) = 6.32136 7.42482 6.89520
#
# Compressibility (1/GPa) = 0.01569291
#
# Stress axis : x y z
#
# Youngs Moduli (GPa) = 113.14600 88.25951 41.17598
#
# Poissons Ratio (x) = 0.28518 0.02875
# Poissons Ratio (y) = 0.36560 0.43034
# Poissons Ratio (z) = 0.07901 0.92242
#
# Static dielectric constant tensor:
#      x y z
#    x 5.115150 0.000000 0.000000 
#    y 0.000000 4.626790 0.000000 
#    z 0.000000 0.000000 4.322540 
# 
# 
# High freq. dielectric constant tensor:
#      x y z
#    x 2.034220 0.000000 0.000000 
#    y 0.000000 2.011060 0.000000 
#    z 0.000000 0.000000 1.975530 
# 
# From -- ./inp_files/22731.got.cif
#   From: 2010.03.12/outbox.cif.g09.slc.cpg/sg56_12_cif.got.tgz:22731.got - 2010.04.16 15:33:40.
