data_PCOD8229234
_publ_section_title
;
Structure prediction by ZEFSAII (Michael W. Deem and Ramdas Pophale) SiO2 
 PCOD8229234
Probable space group: P C C N
;
_chemical_formula_sum "Si O2"
_cell_formula_units_Z 56
_cell_length_a 13.862685
_cell_length_b 13.236559
_cell_length_c 14.362072
_cell_angle_alpha 90.000000
_cell_angle_beta 90.000000
_cell_angle_gamma 90.000000
_cell_volume 2635.357600
_symmetry_space_group_name_H-M "P C C N"
_symmetry_group_IT_number 56
_symmetry_cell_setting 'orthorhombic'
loop_
_space_group_symop_operation_xyz
x,y,z
1/2-x,1/2-y,z
1/2+x,-y,1/2-z
-x,1/2+y,1/2-z
-x,-y,-z
1/2+x,1/2+y,-z
1/2-x,y,1/2+z
x,1/2-y,1/2+z
loop_
_atom_site_type_symbol
_atom_site_label
_atom_site_fract_x
_atom_site_fract_y
_atom_site_fract_z
Si Si1 0.586394 0.085526 0.155837
Si Si2 0.652884 0.911428 0.695369
Si Si3 0.729107 0.364873 0.490848
Si Si4 0.918446 0.439471 0.845497
Si Si5 0.655044 0.574267 0.799590
Si Si6 0.513000 0.739810 0.743405
Si Si7 0.384396 0.490504 0.000121
O O1 0.550047 0.196503 0.183955
O O2 0.502673 0.012602 0.111417
O O3 0.627492 0.029819 0.247486
O O4 0.670385 0.110393 0.084090
O O5 0.750587 0.880644 0.748901
O O6 0.582806 0.816397 0.691697
O O7 0.608578 0.009286 0.746868
O O8 0.663523 0.932614 0.586561
O O9 0.750000 0.250000 0.465519
O O10 0.675195 0.429524 0.410248
O O11 0.839586 0.398478 0.503848
O O12 0.950915 0.322992 0.832036
O O13 0.571101 0.655681 0.798407
O O14 0.664229 0.558977 0.909263
O O15 0.500000 0.500000 0.000000
#
# Coordination Sequence:
#
# PCOD8229234 Si02
#       7
#     8   8   8   8   8   8   8
#     4  10  23  44  68  96 141 183 222 289 346 417
#     4  11  23  45  70  97 140 181 232 287 341 414
#     4  12  27  41  69 106 136 180 238 284 355 419
#     4  10  23  44  68  96 141 183 222 289 346 417
#     4  11  23  45  70  97 140 181 232 287 341 414
#     4  10  23  40  71 100 132 184 232 271 353 412
#     4  12  26  45  70 103 141 183 232 295 351 402
#
# _framework density 21.249487999999999
#
# number of rings (size 3 to 8) (size 9 to 14) (size 15 to 20)
#    0.000    1.143    2.857    3.429    8.000    0.000 
#    0.000    4.286    0.000    0.000    0.000    0.000 
#    0.000    0.000    0.000    0.000    0.000    0.000 
#
# Total GULP energy -693913.977383 kJ/mol
# GULP energy per Si atom -12391.321025 kJ/mol
# Density = 2.120112 g / cm^3
# Si number density = 21.249488 Si / 1000 Ang^3
#
#
#
# Elastic Constant Matrix: (Units=GPa)
#
#
# Indices 1 2 3 4 5 6 
#
# 1 126.3200 30.2963 27.7251 0.0000 0.0000 0.0000
# 2 30.2963 101.4681 17.1360 0.0000 0.0000 0.0000
# 3 27.7251 17.1360 111.6822 0.0000 0.0000 0.0000
# 4 0.0000 0.0000 0.0000 16.0137 0.0000 0.0000
# 5 0.0000 0.0000 0.0000 0.0000 23.2075 0.0000
# 6 0.0000 0.0000 0.0000 0.0000 0.0000 35.9382
#
#
#
# Elastic Compliance Matrix: (Units=1/GPa)
#
#
# Indices 1 2 3 4 5 6 
#
# 1 0.008883 -0.002340 -0.001846 0.000000 0.000000 0.000000
# 2 -0.002340 0.010734 -0.001066 0.000000 0.000000 0.000000
# 3 -0.001846 -0.001066 0.009576 0.000000 0.000000 0.000000
# 4 0.000000 0.000000 0.000000 0.062446 0.000000 0.000000
# 5 0.000000 0.000000 0.000000 0.000000 0.043090 0.000000
# 6 0.000000 0.000000 0.000000 0.000000 0.000000 0.027826
#
#
# Mechanical properties :
#
#
# Convention : Reuss Voigt Hill
#
# Bulk Modulus (GPa) = 53.51075 54.42057 53.96566
# Shear Modulus (GPa) = 27.88797 32.65274 30.27036
#
# Velocity S-wave (km/s) = 3.62665 3.92425 3.77838
# Velocity P-wave (km/s) = 6.54015 6.79697 6.66980
#
# Compressibility (1/GPa) = 0.01868783
#
# Stress axis : x y z
#
# Youngs Moduli (GPa) = 112.57556 93.16050 104.42966
#
# Poissons Ratio (x) = 0.21804 0.19278
# Poissons Ratio (y) = 0.26348 0.11132
# Poissons Ratio (z) = 0.20782 0.09931
#
# Static dielectric constant tensor:
#      x y z
#    x 4.252870 0.000000 0.000000 
#    y 0.000000 4.023280 0.000000 
#    z 0.000000 0.000000 3.801350 
# 
# 
# High freq. dielectric constant tensor:
#      x y z
#    x 1.851230 0.000000 0.000000 
#    y 0.000000 1.837970 0.000000 
#    z 0.000000 0.000000 1.826070 
# 
# From -- ./inp_files/12300.got.cif
#   From: 2010.03.12/outbox.cif.g09.slc.cpg/sg56_7_cif.got.tgz:12300.got - 2010.04.16 15:33:40.
