data_PCOD8229029
_publ_section_title
;
Structure prediction by ZEFSAII (Michael W. Deem and Ramdas Pophale) SiO2 
 PCOD8229029
Probable space group: P C C N
;
_chemical_formula_sum "Si O2"
_cell_formula_units_Z 40
_cell_length_a 8.739391
_cell_length_b 18.697601
_cell_length_c 9.779512
_cell_angle_alpha 90.000000
_cell_angle_beta 90.000000
_cell_angle_gamma 90.000000
_cell_volume 1598.027475
_symmetry_space_group_name_H-M "P C C N"
_symmetry_group_IT_number 56
_symmetry_cell_setting 'orthorhombic'
loop_
_space_group_symop_operation_xyz
x,y,z
1/2-x,1/2-y,z
1/2+x,-y,1/2-z
-x,1/2+y,1/2-z
-x,-y,-z
1/2+x,1/2+y,-z
1/2-x,y,1/2+z
x,1/2-y,1/2+z
loop_
_atom_site_type_symbol
_atom_site_label
_atom_site_fract_x
_atom_site_fract_y
_atom_site_fract_z
Si Si1 0.582796 0.857846 0.290421
Si Si2 0.144617 0.532459 0.157446
Si Si3 0.907894 0.280773 0.117498
Si Si4 0.618020 0.430737 0.644118
Si Si5 0.300091 0.170824 0.983460
O O1 0.458448 0.916556 0.253933
O O2 0.498256 0.780459 0.302562
O O3 0.683464 0.877538 0.425491
O O4 0.713294 0.852970 0.172901
O O5 0.295340 0.517362 0.248088
O O6 0.057816 0.457138 0.133422
O O7 0.189852 0.564339 0.009174
O O8 0.750000 0.250000 0.050700
O O9 0.862390 0.350261 0.209643
O O10 0.016349 0.326711 0.013020
O O11 0.250000 0.250000 0.013508
#
# Coordination Sequence:
#
# PCOD8229029 Si02
#       5
#     8   8   8   8   8
#     4  11  23  43  68 100 140 181 235 287 352 414
#     4  11  26  49  72 102 143 189 235 294 355 432
#     4  11  22  41  70 106 137 181 228 300 344 415
#     4  11  26  48  72 104 143 187 237 291 357 427
#     4  10  22  40  63  99 137 180 224 285 348 418
#
# _framework density 25.030859
#
# number of rings (size 3 to 8) (size 9 to 14) (size 15 to 20)
#    0.000    1.200    4.000    1.800    2.800    3.200 
#    3.600    0.000    0.000    0.000    0.000    0.000 
#    0.000    0.000    0.000    0.000    0.000    0.000 
#
# Total GULP energy -495524.517120 kJ/mol
# GULP energy per Si atom -12388.112928 kJ/mol
# Density = 2.497389 g / cm^3
# Si number density = 25.030859 Si / 1000 Ang^3
#
#
#
# Elastic Constant Matrix: (Units=GPa)
#
#
# Indices 1 2 3 4 5 6 
#
# 1 79.9921 3.7770 38.9056 0.0000 0.0000 0.0000
# 2 3.7770 63.2501 10.0053 0.0000 0.0000 0.0000
# 3 38.9056 10.0053 113.9388 0.0000 0.0000 0.0000
# 4 0.0000 0.0000 0.0000 3.9025 0.0000 0.0000
# 5 0.0000 0.0000 0.0000 0.0000 33.5413 0.0000
# 6 0.0000 0.0000 0.0000 0.0000 0.0000 35.9635
#
#
#
# Elastic Compliance Matrix: (Units=1/GPa)
#
#
# Indices 1 2 3 4 5 6 
#
# 1 0.014991 -0.000087 -0.005111 0.000000 0.000000 0.000000
# 2 -0.000087 0.016033 -0.001378 0.000000 0.000000 0.000000
# 3 -0.005111 -0.001378 0.010643 0.000000 0.000000 0.000000
# 4 0.000000 0.000000 0.000000 0.256243 0.000000 0.000000
# 5 0.000000 0.000000 0.000000 0.000000 0.029814 0.000000
# 6 0.000000 0.000000 0.000000 0.000000 0.000000 0.027806
#
#
# Mechanical properties :
#
#
# Convention : Reuss Voigt Hill
#
# Bulk Modulus (GPa) = 35.06918 40.28409 37.67664
# Shear Modulus (GPa) = 13.22091 28.31433 20.76762
#
# Velocity S-wave (km/s) = 2.30072 3.36695 2.88354
# Velocity P-wave (km/s) = 4.59331 5.58962 5.11578
#
# Compressibility (1/GPa) = 0.02851507
#
# Stress axis : x y z
#
# Youngs Moduli (GPa) = 66.70526 62.36952 93.95842
#
# Poissons Ratio (x) = 0.00541 0.48025
# Poissons Ratio (y) = 0.00578 0.12951
# Poissons Ratio (z) = 0.34095 0.08597
#
# Static dielectric constant tensor:
#      x y z
#    x 5.189730 0.000000 0.000000 
#    y 0.000000 4.693230 0.000000 
#    z 0.000000 0.000000 4.249780 
# 
# 
# High freq. dielectric constant tensor:
#      x y z
#    x 2.003400 0.000000 0.000000 
#    y 0.000000 2.014150 0.000000 
#    z 0.000000 0.000000 1.967370 
# 
# From -- ./inp_files/6308.got.cif
#   From: 2010.03.12/outbox.cif.g09.slc.cpg/sg56_4_cif.got.tgz:6308.got - 2010.04.16 15:33:40.
