data_PCOD8229086
_publ_section_title
;
Structure prediction by ZEFSAII (Michael W. Deem and Ramdas Pophale) SiO2 
 PCOD8229086
Probable space group: P C C N
;
_chemical_formula_sum "Si O2"
_cell_formula_units_Z 60
_cell_length_a 8.813031
_cell_length_b 21.461903
_cell_length_c 15.193006
_cell_angle_alpha 90.000000
_cell_angle_beta 90.000000
_cell_angle_gamma 90.000000
_cell_volume 2873.672254
_symmetry_space_group_name_H-M "P C C N"
_symmetry_group_IT_number 56
_symmetry_cell_setting 'orthorhombic'
loop_
_space_group_symop_operation_xyz
x,y,z
1/2-x,1/2-y,z
1/2+x,-y,1/2-z
-x,1/2+y,1/2-z
-x,-y,-z
1/2+x,1/2+y,-z
1/2-x,y,1/2+z
x,1/2-y,1/2+z
loop_
_atom_site_type_symbol
_atom_site_label
_atom_site_fract_x
_atom_site_fract_y
_atom_site_fract_z
Si Si1 0.920832 0.992114 0.595158
Si Si2 0.041474 0.415449 0.246915
Si Si3 0.068043 0.500743 0.404401
Si Si4 0.915776 0.759475 0.938165
Si Si5 0.250000 0.250000 0.896254
Si Si6 0.047834 0.632361 0.350386
Si Si7 0.847524 0.191309 0.680567
Si Si8 0.848638 0.871708 0.696909
O O1 0.924243 0.919606 0.626745
O O2 0.746500 0.009137 0.584833
O O3 0.000000 0.000000 0.500000
O O4 0.997584 0.037909 0.667369
O O5 0.011396 0.443637 0.344345
O O6 0.223184 0.405609 0.241065
O O7 0.949052 0.349784 0.247170
O O8 0.004462 0.560746 0.354586
O O9 0.000000 0.500000 0.500000
O O10 0.750000 0.750000 0.892272
O O11 0.962516 0.831165 0.927651
O O12 0.042225 0.714766 0.896639
O O13 0.901540 0.748030 0.042630
O O14 0.256709 0.186413 0.842715
O O15 0.227066 0.643434 0.360188
O O16 0.984599 0.656236 0.256040
O O17 0.750000 0.250000 0.721580
#
# Coordination Sequence:
#
# PCOD8229086 Si02
#       8
#     8   8   8   8   4   8   8   8
#     4  11  26  44  71 102 136 184 232 289 347 419
#     4  11  24  46  68  98 141 182 232 285 352 418
#     4  11  26  42  68 100 138 180 227 287 351 412
#     4   9  22  41  68  92 133 174 227 281 336 410
#     4  10  26  42  68 104 134 176 246 276 348 418
#     4  11  22  41  66  95 133 176 228 282 350 402
#     4  10  22  41  69  96 129 181 228 285 353 406
#     4  11  26  41  70  98 138 185 235 287 348 426
#
# _framework density 20.879206
#
# number of rings (size 3 to 8) (size 9 to 14) (size 15 to 20)
#    0.400    1.067    2.667    0.800   12.133    1.067 
#    0.000    0.000    2.933    0.000    0.000    0.000 
#    0.000    0.000    0.000    0.000    0.000    0.000 
#
# Total GULP energy -743373.194267 kJ/mol
# GULP energy per Si atom -12389.553238 kJ/mol
# Density = 2.083168 g / cm^3
# Si number density = 20.879206 Si / 1000 Ang^3
#
#
#
# Elastic Constant Matrix: (Units=GPa)
#
#
# Indices 1 2 3 4 5 6 
#
# 1 113.0346 36.9873 55.2034 0.0000 0.0000 0.0000
# 2 36.9873 121.6603 47.4268 0.0000 0.0000 0.0000
# 3 55.2034 47.4268 124.1838 0.0000 0.0000 0.0000
# 4 0.0000 0.0000 0.0000 28.6351 0.0000 0.0000
# 5 0.0000 0.0000 0.0000 0.0000 33.5651 0.0000
# 6 0.0000 0.0000 0.0000 0.0000 0.0000 38.0118
#
#
#
# Elastic Compliance Matrix: (Units=1/GPa)
#
#
# Indices 1 2 3 4 5 6 
#
# 1 0.011621 -0.001785 -0.004484 0.000000 0.000000 0.000000
# 2 -0.001785 0.009932 -0.002999 0.000000 0.000000 0.000000
# 3 -0.004484 -0.002999 0.011191 0.000000 0.000000 0.000000
# 4 0.000000 0.000000 0.000000 0.034922 0.000000 0.000000
# 5 0.000000 0.000000 0.000000 0.000000 0.029793 0.000000
# 6 0.000000 0.000000 0.000000 0.000000 0.000000 0.026308
#
#
# Mechanical properties :
#
#
# Convention : Reuss Voigt Hill
#
# Bulk Modulus (GPa) = 70.38914 70.90154 70.64534
# Shear Modulus (GPa) = 34.00455 34.65982 34.33219
#
# Velocity S-wave (km/s) = 4.04001 4.07875 4.05943
# Velocity P-wave (km/s) = 7.45305 7.49755 7.47533
#
# Compressibility (1/GPa) = 0.01420674
#
# Stress axis : x y z
#
# Youngs Moduli (GPa) = 86.05211 100.68915 89.35394
#
# Poissons Ratio (x) = 0.17972 0.40068
# Poissons Ratio (y) = 0.15360 0.26802
# Poissons Ratio (z) = 0.38587 0.30202
#
# Static dielectric constant tensor:
#      x y z
#    x 3.967780 0.000000 0.000000 
#    y 0.000000 3.988350 0.000000 
#    z 0.000000 0.000000 3.439530 
# 
# 
# High freq. dielectric constant tensor:
#      x y z
#    x 1.826690 0.000000 0.000000 
#    y 0.000000 1.834060 0.000000 
#    z 0.000000 0.000000 1.795260 
# 
# From -- ./inp_files/10997.got.cif
#   From: 2010.03.12/outbox.cif.g09.slc.cpg/sg56_6_cif.got.tgz:10997.got - 2010.04.16 15:33:40.
