data_PCOD8229744
_publ_section_title
;
Structure prediction by ZEFSAII (Michael W. Deem and Ramdas Pophale) SiO2 
 PCOD8229744
Probable space group: P C C N
;
_chemical_formula_sum "Si O2"
_cell_formula_units_Z 56
_cell_length_a 13.343571
_cell_length_b 11.985340
_cell_length_c 15.013792
_cell_angle_alpha 90.000000
_cell_angle_beta 90.000000
_cell_angle_gamma 90.000000
_cell_volume 2401.114245
_symmetry_space_group_name_H-M "P C C N"
_symmetry_group_IT_number 56
_symmetry_cell_setting 'orthorhombic'
loop_
_space_group_symop_operation_xyz
x,y,z
1/2-x,1/2-y,z
1/2+x,-y,1/2-z
-x,1/2+y,1/2-z
-x,-y,-z
1/2+x,1/2+y,-z
1/2-x,y,1/2+z
x,1/2-y,1/2+z
loop_
_atom_site_type_symbol
_atom_site_label
_atom_site_fract_x
_atom_site_fract_y
_atom_site_fract_z
Si Si1 0.904610 0.421635 0.055375
Si Si2 0.469816 0.682551 0.205463
Si Si3 0.313127 0.955139 0.442936
Si Si4 0.532714 0.088397 0.866307
Si Si5 0.147976 0.463432 0.637673
Si Si6 0.341883 0.051783 0.257152
Si Si7 0.973187 0.292654 0.622067
O O1 0.789365 0.384916 0.066445
O O2 0.984425 0.320158 0.064243
O O3 0.927082 0.520184 0.128594
O O4 0.912187 0.462393 0.953249
O O5 0.480296 0.777483 0.128896
O O6 0.406471 0.577109 0.171092
O O7 0.580180 0.654410 0.244873
O O8 0.417248 0.746045 0.288583
O O9 0.405990 0.872979 0.437645
O O10 0.319348 0.022593 0.535352
O O11 0.315955 0.040519 0.360867
O O12 0.596525 0.056235 0.778532
O O13 0.243384 0.431155 0.697620
O O14 0.075254 0.357071 0.645855
#
# Coordination Sequence:
#
# PCOD8229744 Si02
#       7
#     8   8   8   8   8   8   8
#     4  11  25  46  75 105 151 198 248 309 378 459
#     4  12  25  48  76 107 150 198 248 317 374 452
#     4  12  25  46  78 112 145 199 256 311 379 452
#     4  11  24  49  70 106 150 199 245 307 380 448
#     4  12  28  50  74 113 153 196 257 320 379 454
#     4  12  26  48  74 109 149 198 254 312 384 450
#     4  12  25  45  75 108 150 193 250 310 374 449
#
# _framework density 23.322503999999999
#
# number of rings (size 3 to 8) (size 9 to 14) (size 15 to 20)
#    0.000    0.286    5.714    2.571    4.000    1.143 
#    0.000    0.000    0.000    0.000    0.000    0.000 
#    0.000    0.000    0.000    0.000    0.000    0.000 
#
# Total GULP energy -693827.410097 kJ/mol
# GULP energy per Si atom -12389.775180 kJ/mol
# Density = 2.326942 g / cm^3
# Si number density = 23.322504 Si / 1000 Ang^3
#
#
#
# Elastic Constant Matrix: (Units=GPa)
#
#
# Indices 1 2 3 4 5 6 
#
# 1 125.8369 37.4488 32.0455 0.0000 0.0000 0.0000
# 2 37.4488 81.1268 15.3024 0.0000 0.0000 0.0000
# 3 32.0455 15.3024 129.9187 0.0000 0.0000 0.0000
# 4 0.0000 0.0000 0.0000 37.5032 0.0000 0.0000
# 5 0.0000 0.0000 0.0000 0.0000 29.9682 0.0000
# 6 0.0000 0.0000 0.0000 0.0000 0.0000 21.1340
#
#
#
# Elastic Compliance Matrix: (Units=1/GPa)
#
#
# Indices 1 2 3 4 5 6 
#
# 1 0.009649 -0.004096 -0.001898 0.000000 0.000000 0.000000
# 2 -0.004096 0.014345 -0.000679 0.000000 0.000000 0.000000
# 3 -0.001898 -0.000679 0.008245 0.000000 0.000000 0.000000
# 4 0.000000 0.000000 0.000000 0.026664 0.000000 0.000000
# 5 0.000000 0.000000 0.000000 0.000000 0.033369 0.000000
# 6 0.000000 0.000000 0.000000 0.000000 0.000000 0.047317
#
#
# Mechanical properties :
#
#
# Convention : Reuss Voigt Hill
#
# Bulk Modulus (GPa) = 52.92817 56.27508 54.60162
# Shear Modulus (GPa) = 31.40041 34.52680 32.96360
#
# Velocity S-wave (km/s) = 3.67325 3.85178 3.76358
# Velocity P-wave (km/s) = 6.38230 6.63047 6.50756
#
# Compressibility (1/GPa) = 0.01889353
#
# Stress axis : x y z
#
# Youngs Moduli (GPa) = 103.63741 69.70907 121.28298
#
# Poissons Ratio (x) = 0.28554 0.23014
# Poissons Ratio (y) = 0.42451 0.08239
# Poissons Ratio (z) = 0.19666 0.04735
#
# Static dielectric constant tensor:
#      x y z
#    x 4.256810 0.000000 0.000000 
#    y 0.000000 4.149850 0.000000 
#    z 0.000000 0.000000 4.415510 
# 
# 
# High freq. dielectric constant tensor:
#      x y z
#    x 1.909200 0.000000 0.000000 
#    y 0.000000 1.917840 0.000000 
#    z 0.000000 0.000000 1.947030 
# 
# From -- ./inp_files/12272.got.cif
#   From: 2010.03.12/outbox.cif.g09.slc.cpg/sg56_7_cif.got.tgz:12272.got - 2010.04.16 15:33:40.
