data_PCOD8229156
_publ_section_title
;
Structure prediction by ZEFSAII (Michael W. Deem and Ramdas Pophale) SiO2 
 PCOD8229156
Probable space group: P C C N
;
_chemical_formula_sum "Si O2"
_cell_formula_units_Z 48
_cell_length_a 18.628320
_cell_length_b 13.227351
_cell_length_c 8.399579
_cell_angle_alpha 90.000000
_cell_angle_beta 90.000000
_cell_angle_gamma 90.000000
_cell_volume 2069.684213
_symmetry_space_group_name_H-M "P C C N"
_symmetry_group_IT_number 56
_symmetry_cell_setting 'orthorhombic'
loop_
_space_group_symop_operation_xyz
x,y,z
1/2-x,1/2-y,z
1/2+x,-y,1/2-z
-x,1/2+y,1/2-z
-x,-y,-z
1/2+x,1/2+y,-z
1/2-x,y,1/2+z
x,1/2-y,1/2+z
loop_
_atom_site_type_symbol
_atom_site_label
_atom_site_fract_x
_atom_site_fract_y
_atom_site_fract_z
Si Si1 0.669347 0.023531 0.370356
Si Si2 0.330859 0.750103 0.108332
Si Si3 0.541066 0.951997 0.850585
Si Si4 0.463457 0.395104 0.179846
Si Si5 0.320490 0.960919 0.257942
Si Si6 0.486915 0.774124 0.012578
O O1 0.652296 0.139618 0.316013
O O2 0.745352 0.994738 0.298134
O O3 0.667992 0.015176 0.559276
O O4 0.616940 0.937178 0.302851
O O5 0.250000 0.750000 0.024555
O O6 0.327925 0.838897 0.240629
O O7 0.399653 0.776033 0.996717
O O8 0.513723 0.005415 0.688185
O O9 0.625383 0.976709 0.856059
O O10 0.520966 0.834231 0.860217
O O11 0.500000 0.000000 0.000000
O O12 0.483772 0.319418 0.323709
O O13 0.481470 0.339018 0.013468
#
# Coordination Sequence:
#
# PCOD8229156 Si02
#       6
#     8   8   8   8   8   8
#     4  11  28  43  75 103 149 184 239 296 371 431
#     4  10  23  42  68 107 147 180 228 292 364 429
#     4  10  22  43  74  98 143 186 240 286 360 431
#     4  11  26  45  71 105 135 192 237 302 351 432
#     4  11  24  46  68 111 141 191 235 298 367 437
#     4  11  25  46  70 105 145 191 242 294 360 428
#
# _framework density 23.191945
#
# number of rings (size 3 to 8) (size 9 to 14) (size 15 to 20)
#    0.000    1.333    3.333    1.000    9.333    7.333 
#    0.000    0.833    0.000    0.000    0.000    0.000 
#    0.000    0.000    0.000    0.000    0.000    0.000 
#
# Total GULP energy -594663.667606 kJ/mol
# GULP energy per Si atom -12388.826408 kJ/mol
# Density = 2.313916 g / cm^3
# Si number density = 23.191945 Si / 1000 Ang^3
#
#
#
# Elastic Constant Matrix: (Units=GPa)
#
#
# Indices 1 2 3 4 5 6 
#
# 1 212.6187 83.2562 44.6451 0.0000 0.0000 0.0000
# 2 83.2562 101.7730 31.5213 0.0000 0.0000 0.0000
# 3 44.6451 31.5213 49.2973 0.0000 0.0000 0.0000
# 4 0.0000 0.0000 0.0000 35.3374 0.0000 0.0000
# 5 0.0000 0.0000 0.0000 0.0000 30.5915 0.0000
# 6 0.0000 0.0000 0.0000 0.0000 0.0000 34.3270
#
#
#
# Elastic Compliance Matrix: (Units=1/GPa)
#
#
# Indices 1 2 3 4 5 6 
#
# 1 0.007379 -0.004946 -0.003520 0.000000 0.000000 0.000000
# 2 -0.004946 0.015568 -0.005475 0.000000 0.000000 0.000000
# 3 -0.003520 -0.005475 0.026974 0.000000 0.000000 0.000000
# 4 0.000000 0.000000 0.000000 0.028299 0.000000 0.000000
# 5 0.000000 0.000000 0.000000 0.000000 0.032689 0.000000
# 6 0.000000 0.000000 0.000000 0.000000 0.000000 0.029132
#
#
# Mechanical properties :
#
#
# Convention : Reuss Voigt Hill
#
# Bulk Modulus (GPa) = 45.37545 75.83714 60.60629
# Shear Modulus (GPa) = 28.52769 33.66894 31.09831
#
# Velocity S-wave (km/s) = 3.51104 3.81432 3.66582
# Velocity P-wave (km/s) = 6.00368 7.22284 6.64130
#
# Compressibility (1/GPa) = 0.02203835
#
# Stress axis : x y z
#
# Youngs Moduli (GPa) = 135.51417 64.23478 37.07335
#
# Poissons Ratio (x) = 0.31773 0.13050
# Poissons Ratio (y) = 0.67031 0.20296
# Poissons Ratio (z) = 0.47702 0.35166
#
# Static dielectric constant tensor:
#      x y z
#    x 4.530260 0.000000 0.000000 
#    y 0.000000 5.293630 0.000000 
#    z 0.000000 0.000000 3.981560 
# 
# 
# High freq. dielectric constant tensor:
#      x y z
#    x 1.922620 0.000000 0.000000 
#    y 0.000000 1.913760 0.000000 
#    z 0.000000 0.000000 1.906920 
# 
# From -- ./inp_files/4004.got.cif
#   From: 2010.03.12/outbox.cif.g09.slc.cpg/sg56_3_cif.got.tgz:4004.got - 2010.04.16 15:33:40.
