data_PCOD8229278
_publ_section_title
;
Structure prediction by ZEFSAII (Michael W. Deem and Ramdas Pophale) SiO2 
 PCOD8229278
Probable space group: P C C N
;
_chemical_formula_sum "Si O2"
_cell_formula_units_Z 48
_cell_length_a 9.624983
_cell_length_b 8.155220
_cell_length_c 27.580862
_cell_angle_alpha 90.000000
_cell_angle_beta 90.000000
_cell_angle_gamma 90.000000
_cell_volume 2164.928151
_symmetry_space_group_name_H-M "P C C N"
_symmetry_group_IT_number 56
_symmetry_cell_setting 'orthorhombic'
loop_
_space_group_symop_operation_xyz
x,y,z
1/2-x,1/2-y,z
1/2+x,-y,1/2-z
-x,1/2+y,1/2-z
-x,-y,-z
1/2+x,1/2+y,-z
1/2-x,y,1/2+z
x,1/2-y,1/2+z
loop_
_atom_site_type_symbol
_atom_site_label
_atom_site_fract_x
_atom_site_fract_y
_atom_site_fract_z
Si Si1 0.627183 0.979766 0.937388
Si Si2 0.662764 0.590713 0.263466
Si Si3 0.906241 0.435161 0.305136
Si Si4 0.250000 0.750000 0.897792
Si Si5 0.250000 0.750000 0.124617
Si Si6 0.041265 0.236797 0.645008
Si Si7 0.819222 0.577201 0.045609
O O1 0.732469 0.093356 0.908636
O O2 0.482702 0.079499 0.942744
O O3 0.604110 0.813330 0.907103
O O4 0.699234 0.936253 0.987918
O O5 0.750000 0.750000 0.249249
O O6 0.774390 0.442401 0.267869
O O7 0.554709 0.560122 0.220261
O O8 0.575415 0.603427 0.313419
O O9 0.885284 0.279304 0.340483
O O10 0.887922 0.595323 0.338686
O O11 0.377404 0.745258 0.860939
O O12 0.251937 0.583592 0.930298
O O13 0.750000 0.750000 0.063341
#
# Coordination Sequence:
#
# PCOD8229278 Si02
#       7
#     8   8   8   4   4   8   8
#     4  10  23  44  64  97 132 171 230 275 338 418
#     4  10  24  44  66  96 134 174 230 277 346 407
#     4  11  26  42  68  98 130 183 224 282 346 407
#     4  10  23  43  68 104 136 176 234 277 359 406
#     4  12  25  39  66  98 128 172 230 273 335 422
#     4  10  23  44  66  92 134 177 221 285 340 411
#     4  10  23  43  69  97 138 178 219 291 342 409
#
# _framework density 22.171634999999998
#
# number of rings (size 3 to 8) (size 9 to 14) (size 15 to 20)
#    0.000    1.667    1.667    0.500   11.667    0.000 
#    3.000    3.333    0.000    0.000    0.000    0.000 
#    0.000    0.000    0.000    0.000    0.000    0.000 
#
# Total GULP energy -595008.066547 kJ/mol
# GULP energy per Si atom -12396.001386 kJ/mol
# Density = 2.212117 g / cm^3
# Si number density = 22.171635 Si / 1000 Ang^3
#
#
#
# Elastic Constant Matrix: (Units=GPa)
#
#
# Indices 1 2 3 4 5 6 
#
# 1 110.8975 25.4596 39.5734 0.0000 0.0000 0.0000
# 2 25.4596 97.6104 31.3918 0.0000 0.0000 0.0000
# 3 39.5734 31.3918 93.6987 0.0000 0.0000 0.0000
# 4 0.0000 0.0000 0.0000 19.6491 0.0000 0.0000
# 5 0.0000 0.0000 0.0000 0.0000 37.0684 0.0000
# 6 0.0000 0.0000 0.0000 0.0000 0.0000 30.2186
#
#
#
# Elastic Compliance Matrix: (Units=1/GPa)
#
#
# Indices 1 2 3 4 5 6 
#
# 1 0.010814 -0.001515 -0.004060 0.000000 0.000000 0.000000
# 2 -0.001515 0.011694 -0.003278 0.000000 0.000000 0.000000
# 3 -0.004060 -0.003278 0.013485 0.000000 0.000000 0.000000
# 4 0.000000 0.000000 0.000000 0.050893 0.000000 0.000000
# 5 0.000000 0.000000 0.000000 0.000000 0.026977 0.000000
# 6 0.000000 0.000000 0.000000 0.000000 0.000000 0.033092
#
#
# Mechanical properties :
#
#
# Convention : Reuss Voigt Hill
#
# Bulk Modulus (GPa) = 54.68057 55.00623 54.84340
# Shear Modulus (GPa) = 29.28139 31.10600 30.19370
#
# Velocity S-wave (km/s) = 3.63804 3.74968 3.69428
# Velocity P-wave (km/s) = 6.50869 6.60378 6.55641
#
# Compressibility (1/GPa) = 0.01828803
#
# Stress axis : x y z
#
# Youngs Moduli (GPa) = 92.47444 85.51258 74.15468
#
# Poissons Ratio (x) = 0.12955 0.30104
# Poissons Ratio (y) = 0.14010 0.24308
# Poissons Ratio (z) = 0.37541 0.28031
#
# Static dielectric constant tensor:
#      x y z
#    x 4.061060 0.000000 0.000000 
#    y 0.000000 3.949100 0.000000 
#    z 0.000000 0.000000 3.999330 
# 
# 
# High freq. dielectric constant tensor:
#      x y z
#    x 1.875170 0.000000 0.000000 
#    y 0.000000 1.870130 0.000000 
#    z 0.000000 0.000000 1.873200 
# 
# From -- ./inp_files/23295.got.cif
#   From: 2010.03.12/outbox.cif.g09.slc.cpg/sg56_12_cif.got.tgz:23295.got - 2010.04.16 15:33:40.
