data_PCOD8229017
_publ_section_title
;
Structure prediction by ZEFSAII (Michael W. Deem and Ramdas Pophale) SiO2 
 PCOD8229017
Probable space group: P C C N
;
_chemical_formula_sum "Si O2"
_cell_formula_units_Z 60
_cell_length_a 15.938331
_cell_length_b 13.300090
_cell_length_c 12.495695
_cell_angle_alpha 90.000000
_cell_angle_beta 90.000000
_cell_angle_gamma 90.000000
_cell_volume 2648.852880
_symmetry_space_group_name_H-M "P C C N"
_symmetry_group_IT_number 56
_symmetry_cell_setting 'orthorhombic'
loop_
_space_group_symop_operation_xyz
x,y,z
1/2-x,1/2-y,z
1/2+x,-y,1/2-z
-x,1/2+y,1/2-z
-x,-y,-z
1/2+x,1/2+y,-z
1/2-x,y,1/2+z
x,1/2-y,1/2+z
loop_
_atom_site_type_symbol
_atom_site_label
_atom_site_fract_x
_atom_site_fract_y
_atom_site_fract_z
Si Si1 0.283411 0.916020 0.324232
Si Si2 0.521768 0.320668 0.350053
Si Si3 0.121736 0.154436 0.198339
Si Si4 0.712345 0.933767 0.494017
Si Si5 0.750000 0.750000 0.637389
Si Si6 0.034807 0.319223 0.073610
Si Si7 0.623480 0.293539 0.697041
Si Si8 0.867375 0.999166 0.372719
O O1 0.327326 0.809783 0.316103
O O2 0.184065 0.891670 0.303487
O O3 0.314919 0.997092 0.237337
O O4 0.308342 0.966542 0.437074
O O5 0.466818 0.375129 0.255411
O O6 0.456904 0.300966 0.446211
O O7 0.565358 0.217934 0.304594
O O8 0.597171 0.389862 0.394235
O O9 0.155266 0.070007 0.114373
O O10 0.188744 0.184485 0.288080
O O11 0.105715 0.252033 0.127143
O O12 0.702958 0.831175 0.561957
O O13 0.809219 0.952321 0.464387
O O14 0.050618 0.429401 0.123247
O O15 0.937843 0.297123 0.096563
#
# Coordination Sequence:
#
# PCOD8229017 Si02
#       8
#     8   8   8   8   4   8   8   8
#     4  10  22  43  64  92 127 165 216 271 313 375
#     4  10  22  40  61  88 126 164 206 263 312 374
#     4  11  23  39  60  90 122 159 205 253 321 378
#     4  12  23  38  66  93 122 166 212 262 316 383
#     4  12  24  42  62  92 130 164 206 266 318 380
#     4  11  21  38  61  88 122 166 208 257 320 382
#     4   9  22  42  65  91 127 170 215 262 320 376
#     4  11  23  37  59  91 122 161 211 254 313 374
#
# _framework density 22.651313999999999
#
# number of rings (size 3 to 8) (size 9 to 14) (size 15 to 20)
#    0.000    1.333    0.000    6.400    0.000    4.267 
#    0.000   10.000    0.000    0.000    0.000    0.000 
#    0.000    0.000    0.000    0.000    0.000    0.000 
#
# Total GULP energy -743394.903981 kJ/mol
# GULP energy per Si atom -12389.915066 kJ/mol
# Density = 2.259976 g / cm^3
# Si number density = 22.651314 Si / 1000 Ang^3
#
#
#
# Elastic Constant Matrix: (Units=GPa)
#
#
# Indices 1 2 3 4 5 6 
#
# 1 75.9961 8.8831 39.7082 0.0000 0.0000 0.0000
# 2 8.8831 48.3685 40.8415 0.0000 0.0000 0.0000
# 3 39.7082 40.8415 131.0153 0.0000 0.0000 0.0000
# 4 0.0000 0.0000 0.0000 32.6201 0.0000 0.0000
# 5 0.0000 0.0000 0.0000 0.0000 35.3664 0.0000
# 6 0.0000 0.0000 0.0000 0.0000 0.0000 30.9805
#
#
#
# Elastic Compliance Matrix: (Units=1/GPa)
#
#
# Indices 1 2 3 4 5 6 
#
# 1 0.015719 0.001542 -0.005245 0.000000 0.000000 0.000000
# 2 0.001542 0.028212 -0.009262 0.000000 0.000000 0.000000
# 3 -0.005245 -0.009262 0.012109 0.000000 0.000000 0.000000
# 4 0.000000 0.000000 0.000000 0.030656 0.000000 0.000000
# 5 0.000000 0.000000 0.000000 0.000000 0.028275 0.000000
# 6 0.000000 0.000000 0.000000 0.000000 0.000000 0.032278
#
#
# Mechanical properties :
#
#
# Convention : Reuss Voigt Hill
#
# Bulk Modulus (GPa) = 33.21088 48.24949 40.73018
# Shear Modulus (GPa) = 27.29016 30.85653 29.07335
#
# Velocity S-wave (km/s) = 3.47478 3.69486 3.58651
# Velocity P-wave (km/s) = 5.54909 6.28887 5.93052
#
# Compressibility (1/GPa) = 0.03011062
#
# Stress axis : x y z
#
# Youngs Moduli (GPa) = 63.61845 35.44594 82.58033
#
# Poissons Ratio (x) = -0.05465 0.43310
# Poissons Ratio (y) = -0.09808 0.76484
# Poissons Ratio (z) = 0.33365 0.32829
#
# Static dielectric constant tensor:
#      x y z
#    x 4.229480 0.000000 0.000000 
#    y 0.000000 3.893480 0.000000 
#    z 0.000000 0.000000 4.311150 
# 
# 
# High freq. dielectric constant tensor:
#      x y z
#    x 1.901030 0.000000 0.000000 
#    y 0.000000 1.874510 0.000000 
#    z 0.000000 0.000000 1.901190 
# 
# From -- ./inp_files/8406.got.cif
#   From: 2010.03.12/outbox.cif.g09.slc.cpg/sg56_5_cif.got.tgz:8406.got - 2010.04.16 15:33:40.
