data_PCOD8229103
_publ_section_title
;
Structure prediction by ZEFSAII (Michael W. Deem and Ramdas Pophale) SiO2 
 PCOD8229103
Probable space group: P C C N
;
_chemical_formula_sum "Si O2"
_cell_formula_units_Z 48
_cell_length_a 13.936387
_cell_length_b 8.402537
_cell_length_c 17.145472
_cell_angle_alpha 90.000000
_cell_angle_beta 90.000000
_cell_angle_gamma 90.000000
_cell_volume 2007.752044
_symmetry_space_group_name_H-M "P C C N"
_symmetry_group_IT_number 56
_symmetry_cell_setting 'orthorhombic'
loop_
_space_group_symop_operation_xyz
x,y,z
1/2-x,1/2-y,z
1/2+x,-y,1/2-z
-x,1/2+y,1/2-z
-x,-y,-z
1/2+x,1/2+y,-z
1/2-x,y,1/2+z
x,1/2-y,1/2+z
loop_
_atom_site_type_symbol
_atom_site_label
_atom_site_fract_x
_atom_site_fract_y
_atom_site_fract_z
Si Si1 0.543760 0.727322 0.720461
Si Si2 0.709658 0.922408 0.130781
Si Si3 0.511520 0.172513 0.533961
Si Si4 0.668669 0.120510 0.975142
Si Si5 0.097634 0.949782 0.817446
Si Si6 0.148661 0.173509 0.623426
O O1 0.612219 0.594684 0.680898
O O2 0.442283 0.643861 0.740799
O O3 0.535209 0.886447 0.667158
O O4 0.591834 0.806613 0.796724
O O5 0.750000 0.750000 0.106225
O O6 0.788617 0.011640 0.185981
O O7 0.689970 0.020448 0.052985
O O8 0.564768 0.294447 0.476466
O O9 0.406407 0.239326 0.552647
O O10 0.500000 0.000000 0.500000
O O11 0.579382 0.165099 0.609824
O O12 0.750000 0.250000 0.961363
O O13 0.663360 0.010171 0.899022
O O14 0.250000 0.250000 0.636601
#
# Coordination Sequence:
#
# PCOD8229103 Si02
#       6
#     8   8   8   8   8   8
#     4  10  24  41  69  97 138 178 221 283 344 402
#     4  10  22  42  71  98 134 180 229 280 338 411
#     4  11  25  42  63 101 135 173 225 283 336 401
#     4  12  24  41  71 101 132 183 232 280 338 407
#     4  10  22  42  65  96 133 176 226 273 341 406
#     4  11  24  43  66  97 139 176 221 282 346 399
#
# _framework density 23.907335
#
# number of rings (size 3 to 8) (size 9 to 14) (size 15 to 20)
#    0.000    1.333    1.667    3.500    9.333    1.333 
#    0.000    0.000    7.333    0.000    0.000    0.000 
#    0.000    0.000    0.000    0.000    0.000    0.000 
#
# Total GULP energy -595171.863261 kJ/mol
# GULP energy per Si atom -12399.413818 kJ/mol
# Density = 2.385292 g / cm^3
# Si number density = 23.907335 Si / 1000 Ang^3
#
#
#
# Elastic Constant Matrix: (Units=GPa)
#
#
# Indices 1 2 3 4 5 6 
#
# 1 60.3741 22.8696 21.5568 0.0000 0.0000 0.0000
# 2 22.8696 113.7533 33.9140 0.0000 0.0000 0.0000
# 3 21.5568 33.9140 45.5892 0.0000 0.0000 0.0000
# 4 0.0000 0.0000 0.0000 51.2943 0.0000 0.0000
# 5 0.0000 0.0000 0.0000 0.0000 65.7253 0.0000
# 6 0.0000 0.0000 0.0000 0.0000 0.0000 49.9739
#
#
#
# Elastic Compliance Matrix: (Units=1/GPa)
#
#
# Indices 1 2 3 4 5 6 
#
# 1 0.020140 -0.001555 -0.008367 0.000000 0.000000 0.000000
# 2 -0.001555 0.011416 -0.007758 0.000000 0.000000 0.000000
# 3 -0.008367 -0.007758 0.031662 0.000000 0.000000 0.000000
# 4 0.000000 0.000000 0.000000 0.019495 0.000000 0.000000
# 5 0.000000 0.000000 0.000000 0.000000 0.015215 0.000000
# 6 0.000000 0.000000 0.000000 0.000000 0.000000 0.020010
#
#
# Mechanical properties :
#
#
# Convention : Reuss Voigt Hill
#
# Bulk Modulus (GPa) = 35.89304 41.82193 38.85749
# Shear Modulus (GPa) = 30.75358 42.82377 36.78867
#
# Velocity S-wave (km/s) = 3.59049 4.23690 3.92701
# Velocity P-wave (km/s) = 5.67757 6.43944 6.07047
#
# Compressibility (1/GPa) = 0.02786056
#
# Stress axis : x y z
#
# Youngs Moduli (GPa) = 49.65351 87.59398 31.58359
#
# Poissons Ratio (x) = 0.13617 0.26424
# Poissons Ratio (y) = 0.07719 0.24501
# Poissons Ratio (z) = 0.41543 0.67951
#
# Static dielectric constant tensor:
#      x y z
#    x 4.040010 0.000000 0.000000 
#    y 0.000000 4.614720 0.000000 
#    z 0.000000 0.000000 4.390970 
# 
# 
# High freq. dielectric constant tensor:
#      x y z
#    x 1.943820 0.000000 0.000000 
#    y 0.000000 1.963230 0.000000 
#    z 0.000000 0.000000 1.941660 
# 
# From -- ./inp_files/16150.got.cif
#   From: 2010.03.12/outbox.cif.g09.slc.cpg/sg56_9_cif.got.tgz:16150.got - 2010.04.16 15:33:40.
