data_PCOD8229594
_publ_section_title
;
Structure prediction by ZEFSAII (Michael W. Deem and Ramdas Pophale) SiO2 
 PCOD8229594
Probable space group: P C C N
;
_chemical_formula_sum "Si O2"
_cell_formula_units_Z 48
_cell_length_a 26.692938
_cell_length_b 9.208465
_cell_length_c 8.647464
_cell_angle_alpha 90.000000
_cell_angle_beta 90.000000
_cell_angle_gamma 90.000000
_cell_volume 2125.555172
_symmetry_space_group_name_H-M "P C C N"
_symmetry_group_IT_number 56
_symmetry_cell_setting 'orthorhombic'
loop_
_space_group_symop_operation_xyz
x,y,z
1/2-x,1/2-y,z
1/2+x,-y,1/2-z
-x,1/2+y,1/2-z
-x,-y,-z
1/2+x,1/2+y,-z
1/2-x,y,1/2+z
x,1/2-y,1/2+z
loop_
_atom_site_type_symbol
_atom_site_label
_atom_site_fract_x
_atom_site_fract_y
_atom_site_fract_z
Si Si1 0.878824 0.170880 0.022396
Si Si2 0.556082 0.682084 0.668567
Si Si3 0.358592 0.952754 0.812621
Si Si4 0.804986 0.684813 0.010601
Si Si5 0.360868 0.105647 0.292494
Si Si6 0.507559 0.340053 0.058113
O O1 0.851373 0.319916 0.067933
O O2 0.937254 0.211818 0.012866
O O3 0.871315 0.060872 0.165642
O O4 0.856784 0.105377 0.863350
O O5 0.588809 0.535085 0.655385
O O6 0.588332 0.810106 0.750651
O O7 0.536000 0.733842 0.503867
O O8 0.504188 0.656472 0.760246
O O9 0.312719 0.063783 0.852246
O O10 0.750000 0.750000 0.002941
O O11 0.821083 0.615762 0.847188
O O12 0.840274 0.820388 0.050573
O O13 0.500000 0.500000 0.000000
#
# Coordination Sequence:
#
# PCOD8229594 Si02
#       6
#     8   8   8   8   8   8
#     4  12  24  42  65 103 145 188 229 286 344 399
#     4  11  22  41  61  93 133 191 235 279 322 393
#     4  11  24  42  66  98 140 182 229 284 352 405
#     4  11  24  44  72 101 126 171 222 281 351 434
#     4  11  22  42  69  96 137 172 225 281 344 413
#     4  12  23  39  61  96 140 188 247 278 318 393
#
# _framework density 22.582336000000002
#
# number of rings (size 3 to 8) (size 9 to 14) (size 15 to 20)
#    0.000    0.667    3.333    6.500    0.000    0.667 
#    0.000    1.667    0.000    6.000    0.000    0.000 
#    0.000    0.000    0.000    0.000    0.000    0.000 
#
# Total GULP energy -594992.517778 kJ/mol
# GULP energy per Si atom -12395.677454 kJ/mol
# Density = 2.253094 g / cm^3
# Si number density = 22.582336 Si / 1000 Ang^3
#
#
#
# Elastic Constant Matrix: (Units=GPa)
#
#
# Indices 1 2 3 4 5 6 
#
# 1 104.3342 34.0003 46.0829 0.0000 0.0000 0.0000
# 2 34.0003 123.3482 42.7204 0.0000 0.0000 0.0000
# 3 46.0829 42.7204 109.7514 0.0000 0.0000 0.0000
# 4 0.0000 0.0000 0.0000 38.4889 0.0000 0.0000
# 5 0.0000 0.0000 0.0000 0.0000 35.8441 0.0000
# 6 0.0000 0.0000 0.0000 0.0000 0.0000 31.8862
#
#
#
# Elastic Compliance Matrix: (Units=1/GPa)
#
#
# Indices 1 2 3 4 5 6 
#
# 1 0.012111 -0.001823 -0.004376 0.000000 0.000000 0.000000
# 2 -0.001823 0.009645 -0.002989 0.000000 0.000000 0.000000
# 3 -0.004376 -0.002989 0.012112 0.000000 0.000000 0.000000
# 4 0.000000 0.000000 0.000000 0.025981 0.000000 0.000000
# 5 0.000000 0.000000 0.000000 0.000000 0.027899 0.000000
# 6 0.000000 0.000000 0.000000 0.000000 0.000000 0.031362
#
#
# Mechanical properties :
#
#
# Convention : Reuss Voigt Hill
#
# Bulk Modulus (GPa) = 64.54397 64.78233 64.66315
# Shear Modulus (GPa) = 35.05098 35.55253 35.30176
#
# Velocity S-wave (km/s) = 3.94400 3.97211 3.95808
# Velocity P-wave (km/s) = 7.02736 7.05595 7.04167
#
# Compressibility (1/GPa) = 0.01549331
#
# Stress axis : x y z
#
# Youngs Moduli (GPa) = 82.56708 103.68353 82.56135
#
# Poissons Ratio (x) = 0.18901 0.36127
# Poissons Ratio (y) = 0.15051 0.24676
# Poissons Ratio (z) = 0.36130 0.30989
#
# Static dielectric constant tensor:
#      x y z
#    x 4.996890 0.000000 0.000000 
#    y 0.000000 4.242650 0.000000 
#    z 0.000000 0.000000 3.904320 
# 
# 
# High freq. dielectric constant tensor:
#      x y z
#    x 1.862450 0.000000 0.000000 
#    y 0.000000 1.898890 0.000000 
#    z 0.000000 0.000000 1.898760 
# 
# From -- ./inp_files/5141.got.cif
#   From: 2010.03.12/outbox.cif.g09.slc.cpg/sg56_3_cif.got.tgz:5141.got - 2010.04.16 15:33:40.
