data_PCOD8229072
_publ_section_title
;
Structure prediction by ZEFSAII (Michael W. Deem and Ramdas Pophale) SiO2 
 PCOD8229072
Probable space group: P C C N
;
_chemical_formula_sum "Si O2"
_cell_formula_units_Z 52
_cell_length_a 25.422239
_cell_length_b 7.888730
_cell_length_c 13.019177
_cell_angle_alpha 90.000000
_cell_angle_beta 90.000000
_cell_angle_gamma 90.000000
_cell_volume 2610.985265
_symmetry_space_group_name_H-M "P C C N"
_symmetry_group_IT_number 56
_symmetry_cell_setting 'orthorhombic'
loop_
_space_group_symop_operation_xyz
x,y,z
1/2-x,1/2-y,z
1/2+x,-y,1/2-z
-x,1/2+y,1/2-z
-x,-y,-z
1/2+x,1/2+y,-z
1/2-x,y,1/2+z
x,1/2-y,1/2+z
loop_
_atom_site_type_symbol
_atom_site_label
_atom_site_fract_x
_atom_site_fract_y
_atom_site_fract_z
Si Si1 0.328113 0.669886 0.458409
Si Si2 0.010252 0.341548 0.131756
Si Si3 0.436232 0.988817 0.696724
Si Si4 0.722747 0.020703 0.461654
Si Si5 0.937098 0.160309 0.443623
Si Si6 0.250000 0.250000 0.895135
Si Si7 0.320060 0.013275 0.760074
O O1 0.321284 0.864743 0.485059
O O2 0.283163 0.572910 0.522002
O O3 0.385006 0.607786 0.494146
O O4 0.320882 0.650017 0.335327
O O5 0.052076 0.497916 0.130450
O O6 0.965278 0.396001 0.210508
O O7 0.034237 0.158725 0.160360
O O8 0.986267 0.316709 0.019084
O O9 0.429730 0.841303 0.611942
O O10 0.379379 0.058881 0.729938
O O11 0.713170 0.852064 0.525914
O O12 0.714900 0.015523 0.340114
O O13 0.292857 0.160798 0.824376
#
# Coordination Sequence:
#
# PCOD8229072 Si02
#       7
#     8   8   8   8   8   4   8
#     4  10  22  41  67  94 124 171 219 266 335 391
#     4  11  25  42  68  97 130 171 225 271 329 390
#     4  12  23  44  66  98 129 176 219 269 335 393
#     4  10  22  41  64  92 130 170 213 264 328 395
#     4  11  23  46  67  93 135 171 216 282 322 393
#     4  10  24  42  60  98 132 166 218 266 320 400
#     4  11  23  43  65  92 135 165 218 272 327 394
#
# _framework density 19.915852000000001
#
# number of rings (size 3 to 8) (size 9 to 14) (size 15 to 20)
#    0.000    1.231    4.615    0.923    0.000    8.615 
#    5.538    0.000    0.000    0.000    0.000    0.000 
#    0.000    0.000    0.000    0.000    0.000    0.000 
#
# Total GULP energy -644381.593596 kJ/mol
# GULP energy per Si atom -12391.953723 kJ/mol
# Density = 1.987052 g / cm^3
# Si number density = 19.915852 Si / 1000 Ang^3
#
#
#
# Elastic Constant Matrix: (Units=GPa)
#
#
# Indices 1 2 3 4 5 6 
#
# 1 99.6027 30.2428 44.8854 0.0000 0.0000 0.0000
# 2 30.2428 114.4639 58.2702 0.0000 0.0000 0.0000
# 3 44.8854 58.2702 139.8445 0.0000 0.0000 0.0000
# 4 0.0000 0.0000 0.0000 32.2399 0.0000 0.0000
# 5 0.0000 0.0000 0.0000 0.0000 34.8623 0.0000
# 6 0.0000 0.0000 0.0000 0.0000 0.0000 -10.0710
#
#
#
# Elastic Compliance Matrix: (Units=1/GPa)
#
#
# Indices 1 2 3 4 5 6 
#
# 1 0.011945 -0.001528 -0.003197 0.000000 0.000000 0.000000
# 2 -0.001528 0.011284 -0.004211 0.000000 0.000000 0.000000
# 3 -0.003197 -0.004211 0.009932 0.000000 0.000000 0.000000
# 4 0.000000 0.000000 0.000000 0.031017 0.000000 0.000000
# 5 0.000000 0.000000 0.000000 0.000000 0.028684 0.000000
# 6 0.000000 0.000000 0.000000 0.000000 0.000000 -0.099295
#
#
# Mechanical properties :
#
#
# Convention : Reuss Voigt Hill
#
# Bulk Modulus (GPa) = 65.41484 68.96755 67.19119
# Shear Modulus (GPa) = 302.37232 26.10710 164.23971
#
# Velocity S-wave (km/s) = 12.33509 3.62452 9.09098
# Velocity P-wave (km/s) = 15.35544 7.22640 12.00022
#
# Compressibility (1/GPa) = 0.01528705
#
# Stress axis : x y z
#
# Youngs Moduli (GPa) = 83.71938 88.62081 100.68821
#
# Poissons Ratio (x) = 0.13545 0.32190
# Poissons Ratio (y) = 0.12796 0.42402
# Poissons Ratio (z) = 0.26765 0.37320
#
# Static dielectric constant tensor:
#      x y z
#    x 3.950980 0.000000 0.000000 
#    y 0.000000 3.833810 0.000000 
#    z 0.000000 0.000000 3.824390 
# 
# 
# High freq. dielectric constant tensor:
#      x y z
#    x 1.782800 0.000000 0.000000 
#    y 0.000000 1.779500 0.000000 
#    z 0.000000 0.000000 1.788960 
# 
# From -- ./inp_files/6497.got.cif
#   From: 2010.03.12/outbox.cif.g09.slc.cpg/sg56_4_cif.got.tgz:6497.got - 2010.04.16 15:33:40.
