data_PCOD8229694
_publ_section_title
;
Structure prediction by ZEFSAII (Michael W. Deem and Ramdas Pophale) SiO2 
 PCOD8229694
Probable space group: P C C N
;
_chemical_formula_sum "Si O2"
_cell_formula_units_Z 32
_cell_length_a 9.648848
_cell_length_b 9.617661
_cell_length_c 12.836370
_cell_angle_alpha 90.000000
_cell_angle_beta 90.000000
_cell_angle_gamma 90.000000
_cell_volume 1191.206781
_symmetry_space_group_name_H-M "P C C N"
_symmetry_group_IT_number 56
_symmetry_cell_setting 'orthorhombic'
loop_
_space_group_symop_operation_xyz
x,y,z
1/2-x,1/2-y,z
1/2+x,-y,1/2-z
-x,1/2+y,1/2-z
-x,-y,-z
1/2+x,1/2+y,-z
1/2-x,y,1/2+z
x,1/2-y,1/2+z
loop_
_atom_site_type_symbol
_atom_site_label
_atom_site_fract_x
_atom_site_fract_y
_atom_site_fract_z
Si Si1 0.870451 0.861099 0.756958
Si Si2 0.810830 0.102626 0.906268
Si Si3 0.644255 0.876077 0.013823
Si Si4 0.085624 0.765510 0.911061
O O1 0.750000 0.750000 0.785923
O O2 0.889673 0.874842 0.635457
O O3 0.019592 0.820488 0.804179
O O4 0.841640 0.014153 0.803441
O O5 0.750000 0.250000 0.868446
O O6 0.939300 0.133424 0.986573
O O7 0.705618 0.023393 0.982278
O O8 0.750000 0.750000 0.984551
O O9 0.496005 0.130955 0.055550
O O10 0.250000 0.750000 0.895429
#
# Coordination Sequence:
#
# PCOD8229694 Si02
#       4
#     8   8   8   8
#     4  11  23  49  80 105 151 208 263 312 378 467
#     4  11  24  46  76 109 154 199 251 320 385 448
#     4  11  24  48  78 111 152 209 263 310 381 458
#     4  11  24  46  76 109 154 199 251 320 385 448
#
# _framework density 26.863517000000002
#
# number of rings (size 3 to 8) (size 9 to 14) (size 15 to 20)
#    0.000    1.000    5.000    0.750    0.000    6.000 
#   18.000    0.000    0.000    0.000    0.000    3.500 
#    0.000    0.000    0.000    0.000    0.000    0.000 
#
# Total GULP energy -396466.351631 kJ/mol
# GULP energy per Si atom -12389.573488 kJ/mol
# Density = 2.680237 g / cm^3
# Si number density = 26.863517 Si / 1000 Ang^3
#
#
#
# Elastic Constant Matrix: (Units=GPa)
#
#
# Indices 1 2 3 4 5 6 
#
# 1 145.7286 32.2044 54.7022 0.0000 0.0000 0.0000
# 2 32.2044 132.8261 36.2906 0.0000 0.0000 0.0000
# 3 54.7022 36.2906 141.9461 0.0000 0.0000 0.0000
# 4 0.0000 0.0000 0.0000 20.8117 0.0000 0.0000
# 5 0.0000 0.0000 0.0000 0.0000 29.5253 0.0000
# 6 0.0000 0.0000 0.0000 0.0000 0.0000 41.7309
#
#
#
# Elastic Compliance Matrix: (Units=1/GPa)
#
#
# Indices 1 2 3 4 5 6 
#
# 1 0.008199 -0.001209 -0.002851 0.000000 0.000000 0.000000
# 2 -0.001209 0.008272 -0.001649 0.000000 0.000000 0.000000
# 3 -0.002851 -0.001649 0.008565 0.000000 0.000000 0.000000
# 4 0.000000 0.000000 0.000000 0.048050 0.000000 0.000000
# 5 0.000000 0.000000 0.000000 0.000000 0.033869 0.000000
# 6 0.000000 0.000000 0.000000 0.000000 0.000000 0.023963
#
#
# Mechanical properties :
#
#
# Convention : Reuss Voigt Hill
#
# Bulk Modulus (GPa) = 73.42569 74.09945 73.76257
# Shear Modulus (GPa) = 34.04229 38.23385 36.13807
#
# Velocity S-wave (km/s) = 3.56368 3.77671 3.67174
# Velocity P-wave (km/s) = 6.65773 6.83093 6.74488
#
# Compressibility (1/GPa) = 0.01361921
#
# Stress axis : x y z
#
# Youngs Moduli (GPa) = 121.96121 120.88499 116.75312
#
# Poissons Ratio (x) = 0.14616 0.33282
# Poissons Ratio (y) = 0.14747 0.19252
# Poissons Ratio (z) = 0.34767 0.19934
#
# Static dielectric constant tensor:
#      x y z
#    x 5.529530 0.000000 0.000000 
#    y 0.000000 5.171900 0.000000 
#    z 0.000000 0.000000 4.808900 
# 
# 
# High freq. dielectric constant tensor:
#      x y z
#    x 2.082180 0.000000 0.000000 
#    y 0.000000 2.095610 0.000000 
#    z 0.000000 0.000000 2.094360 
# 
# From -- ./inp_files/11261.got.cif
#   From: 2010.03.12/outbox.cif.g09.slc.cpg/sg56_6_cif.got.tgz:11261.got - 2010.04.16 15:33:40.
