data_PCOD8229394
_publ_section_title
;
Structure prediction by ZEFSAII (Michael W. Deem and Ramdas Pophale) SiO2 
 PCOD8229394
Probable space group: P C C N
;
_chemical_formula_sum "Si O2"
_cell_formula_units_Z 36
_cell_length_a 7.350323
_cell_length_b 13.003694
_cell_length_c 16.979416
_cell_angle_alpha 90.000000
_cell_angle_beta 90.000000
_cell_angle_gamma 90.000000
_cell_volume 1622.915522
_symmetry_space_group_name_H-M "P C C N"
_symmetry_group_IT_number 56
_symmetry_cell_setting 'orthorhombic'
loop_
_space_group_symop_operation_xyz
x,y,z
1/2-x,1/2-y,z
1/2+x,-y,1/2-z
-x,1/2+y,1/2-z
-x,-y,-z
1/2+x,1/2+y,-z
1/2-x,y,1/2+z
x,1/2-y,1/2+z
loop_
_atom_site_type_symbol
_atom_site_label
_atom_site_fract_x
_atom_site_fract_y
_atom_site_fract_z
Si Si1 0.462207 0.619141 0.750261
Si Si2 0.316560 0.854034 0.890051
Si Si3 0.750000 0.250000 0.870357
Si Si4 0.818512 0.451699 0.465834
Si Si5 0.169499 0.418035 0.172765
O O1 0.328321 0.621511 0.823282
O O2 0.410690 0.703918 0.684711
O O3 0.672931 0.634551 0.775433
O O4 0.445886 0.504157 0.717781
O O5 0.250000 0.750000 0.932079
O O6 0.515697 0.834982 0.851594
O O7 0.318011 0.939073 0.959381
O O8 0.658269 0.341734 0.921146
O O9 0.747092 0.537005 0.407387
O O10 0.000000 0.500000 0.500000
#
# Coordination Sequence:
#
# PCOD8229394 Si02
#       5
#     8   8   4   8   8
#     4  11  22  43  70 101 137 180 239 286 353 417
#     4  12  24  44  68 100 140 177 234 289 347 423
#     4  10  24  44  70 106 142 180 238 306 340 430
#     4  11  23  45  74 100 143 187 234 291 359 422
#     4  11  24  43  74  98 136 191 228 288 357 415
#
# _framework density 22.182299
#
# number of rings (size 3 to 8) (size 9 to 14) (size 15 to 20)
#    0.000    0.889    6.667    0.667    0.000    0.889 
#    0.000    0.000    9.778    0.000    0.000    0.000 
#    0.000    0.000    0.000    0.000    0.000    0.000 
#
# Total GULP energy -446217.523463 kJ/mol
# GULP energy per Si atom -12394.931207 kJ/mol
# Density = 2.213181 g / cm^3
# Si number density = 22.182299 Si / 1000 Ang^3
#
#
#
# Elastic Constant Matrix: (Units=GPa)
#
#
# Indices 1 2 3 4 5 6 
#
# 1 175.6522 53.1586 56.6903 0.0000 0.0000 0.0000
# 2 53.1586 83.1194 32.6230 0.0000 0.0000 0.0000
# 3 56.6903 32.6230 115.2791 0.0000 0.0000 0.0000
# 4 0.0000 0.0000 0.0000 -5.3101 0.0000 0.0000
# 5 0.0000 0.0000 0.0000 0.0000 37.0406 0.0000
# 6 0.0000 0.0000 0.0000 0.0000 0.0000 27.1669
#
#
#
# Elastic Compliance Matrix: (Units=1/GPa)
#
#
# Indices 1 2 3 4 5 6 
#
# 1 0.007744 -0.003890 -0.002707 0.000000 0.000000 0.000000
# 2 -0.003890 0.015488 -0.002470 0.000000 0.000000 0.000000
# 3 -0.002707 -0.002470 0.010705 0.000000 0.000000 0.000000
# 4 0.000000 0.000000 0.000000 -0.188322 0.000000 0.000000
# 5 0.000000 0.000000 0.000000 0.000000 0.026997 0.000000
# 6 0.000000 0.000000 0.000000 0.000000 0.000000 0.036810
#
#
# Mechanical properties :
#
#
# Convention : Reuss Voigt Hill
#
# Bulk Modulus (GPa) = 63.28202 73.22159 68.25181
# Shear Modulus (GPa) = -74.43280 27.21807 -23.60737
#
# Velocity S-wave (km/s) = -5.79896 3.50668 -3.26581
# Velocity P-wave (km/s) = 4.03077 7.03395 4.07611
#
# Compressibility (1/GPa) = 0.01580228
#
# Stress axis : x y z
#
# Youngs Moduli (GPa) = 129.12956 64.56515 93.41415
#
# Poissons Ratio (x) = 0.25117 0.25291
# Poissons Ratio (y) = 0.50233 0.23073
# Poissons Ratio (z) = 0.34961 0.15948
#
# Static dielectric constant tensor:
#      x y z
#    x 1.931780 0.000000 0.000000 
#    y 0.000000 -0.640570 0.000000 
#    z 0.000000 0.000000 4.401570 
# 
# 
# High freq. dielectric constant tensor:
#      x y z
#    x 1.865660 0.000000 0.000000 
#    y 0.000000 1.871830 0.000000 
#    z 0.000000 0.000000 1.895660 
# 
# From -- ./inp_files/17375.got.cif
#   From: 2010.03.12/outbox.cif.g09.slc.cpg/sg56_9_cif.got.tgz:17375.got - 2010.04.16 15:33:40.
