data_PCOD8229117
_publ_section_title
;
Structure prediction by ZEFSAII (Michael W. Deem and Ramdas Pophale) SiO2 
 PCOD8229117
Probable space group: P C C N
;
_chemical_formula_sum "Si O2"
_cell_formula_units_Z 52
_cell_length_a 16.732327
_cell_length_b 7.322476
_cell_length_c 20.309588
_cell_angle_alpha 90.000000
_cell_angle_beta 90.000000
_cell_angle_gamma 90.000000
_cell_volume 2488.372618
_symmetry_space_group_name_H-M "P C C N"
_symmetry_group_IT_number 56
_symmetry_cell_setting 'orthorhombic'
loop_
_space_group_symop_operation_xyz
x,y,z
1/2-x,1/2-y,z
1/2+x,-y,1/2-z
-x,1/2+y,1/2-z
-x,-y,-z
1/2+x,1/2+y,-z
1/2-x,y,1/2+z
x,1/2-y,1/2+z
loop_
_atom_site_type_symbol
_atom_site_label
_atom_site_fract_x
_atom_site_fract_y
_atom_site_fract_z
Si Si1 0.547840 0.462421 0.107060
Si Si2 0.087198 0.248586 0.779269
Si Si3 0.250000 0.250000 0.206549
Si Si4 0.398755 0.981524 0.534955
Si Si5 0.028878 0.607588 0.829827
Si Si6 0.737010 0.036759 0.905478
Si Si7 0.937067 0.064377 0.444833
O O1 0.564113 0.617310 0.160432
O O2 0.454591 0.413240 0.088249
O O3 0.579735 0.263358 0.131085
O O4 0.588230 0.537024 0.040625
O O5 0.175403 0.213528 0.753701
O O6 0.088720 0.463079 0.797571
O O7 0.021610 0.219393 0.723335
O O8 0.252337 0.430758 0.162120
O O9 0.306600 0.025778 0.545344
O O10 0.427704 0.777033 0.546499
O O11 0.971135 0.483525 0.873890
O O12 0.750000 0.250000 0.889163
O O13 0.654158 0.985029 0.943365
O O14 0.000000 0.000000 0.500000
#
# Coordination Sequence:
#
# PCOD8229117 Si02
#       7
#     8   8   4   8   8   8   8
#     4  11  23  41  66  97 134 172 219 274 331 394
#     4  12  26  42  66  98 131 179 226 265 335 404
#     4  12  26  46  64  94 138 176 224 280 334 400
#     4  10  22  42  67  99 134 171 221 280 337 397
#     4  12  23  41  68  95 129 173 222 272 325 403
#     4  10  24  41  67  96 127 170 222 275 337 396
#     4  11  21  41  69  99 129 170 225 278 333 402
#
# _framework density 20.897189999999998
#
# number of rings (size 3 to 8) (size 9 to 14) (size 15 to 20)
#    0.000    0.923    6.154    0.923    0.000    1.231 
#    2.769    0.000    0.000    0.000    0.000    0.000 
#    0.000    0.000    0.000    0.000    0.000    0.000 
#
# Total GULP energy -644387.746143 kJ/mol
# GULP energy per Si atom -12392.072041 kJ/mol
# Density = 2.084963 g / cm^3
# Si number density = 20.897190 Si / 1000 Ang^3
#
#
#
# Elastic Constant Matrix: (Units=GPa)
#
#
# Indices 1 2 3 4 5 6 
#
# 1 117.0238 16.1816 52.4073 0.0000 0.0000 0.0000
# 2 16.1816 67.4056 29.6562 0.0000 0.0000 0.0000
# 3 52.4073 29.6562 120.3444 0.0000 0.0000 0.0000
# 4 0.0000 0.0000 0.0000 35.7171 0.0000 0.0000
# 5 0.0000 0.0000 0.0000 0.0000 21.4511 0.0000
# 6 0.0000 0.0000 0.0000 0.0000 0.0000 22.8706
#
#
#
# Elastic Compliance Matrix: (Units=1/GPa)
#
#
# Indices 1 2 3 4 5 6 
#
# 1 0.010636 -0.000578 -0.004489 0.000000 0.000000 0.000000
# 2 -0.000578 0.016671 -0.003856 0.000000 0.000000 0.000000
# 3 -0.004489 -0.003856 0.011215 0.000000 0.000000 0.000000
# 4 0.000000 0.000000 0.000000 0.027998 0.000000 0.000000
# 5 0.000000 0.000000 0.000000 0.000000 0.046618 0.000000
# 6 0.000000 0.000000 0.000000 0.000000 0.000000 0.043724
#
#
# Mechanical properties :
#
#
# Convention : Reuss Voigt Hill
#
# Bulk Modulus (GPa) = 48.36996 55.69599 52.03297
# Shear Modulus (GPa) = 27.53307 29.77633 28.65470
#
# Velocity S-wave (km/s) = 3.63374 3.77888 3.70702
# Velocity P-wave (km/s) = 6.38767 6.76388 6.57847
#
# Compressibility (1/GPa) = 0.02067399
#
# Stress axis : x y z
#
# Youngs Moduli (GPa) = 94.02402 59.98419 89.16860
#
# Poissons Ratio (x) = 0.03468 0.40028
# Poissons Ratio (y) = 0.05436 0.34387
# Poissons Ratio (z) = 0.42208 0.23133
#
# Static dielectric constant tensor:
#      x y z
#    x 4.023170 0.000000 0.000000 
#    y 0.000000 4.907340 0.000000 
#    z 0.000000 0.000000 4.204340 
# 
# 
# High freq. dielectric constant tensor:
#      x y z
#    x 1.805500 0.000000 0.000000 
#    y 0.000000 1.836610 0.000000 
#    z 0.000000 0.000000 1.824580 
# 
# From -- ./inp_files/19051.got.cif
#   From: 2010.03.12/outbox.cif.g09.slc.cpg/sg56_10_cif.got.tgz:19051.got - 2010.04.16 15:33:40.
