data_PCOD8229247
_publ_section_title
;
Structure prediction by ZEFSAII (Michael W. Deem and Ramdas Pophale) SiO2 
 PCOD8229247
Probable space group: P C C N
;
_chemical_formula_sum "Si O2"
_cell_formula_units_Z 48
_cell_length_a 13.633057
_cell_length_b 8.592470
_cell_length_c 18.215832
_cell_angle_alpha 90.000000
_cell_angle_beta 90.000000
_cell_angle_gamma 90.000000
_cell_volume 2133.832312
_symmetry_space_group_name_H-M "P C C N"
_symmetry_group_IT_number 56
_symmetry_cell_setting 'orthorhombic'
loop_
_space_group_symop_operation_xyz
x,y,z
1/2-x,1/2-y,z
1/2+x,-y,1/2-z
-x,1/2+y,1/2-z
-x,-y,-z
1/2+x,1/2+y,-z
1/2-x,y,1/2+z
x,1/2-y,1/2+z
loop_
_atom_site_type_symbol
_atom_site_label
_atom_site_fract_x
_atom_site_fract_y
_atom_site_fract_z
Si Si1 0.002756 0.848746 0.347095
Si Si2 0.499979 0.815919 0.199936
Si Si3 0.855116 0.670242 0.447344
Si Si4 0.713869 0.417491 0.683781
Si Si5 0.327144 0.613118 0.157862
Si Si6 0.843029 0.659250 0.607263
O O1 0.939057 0.785509 0.414690
O O2 0.998161 0.711384 0.287075
O O3 0.116178 0.895376 0.367078
O O4 0.958764 0.010288 0.314762
O O5 0.432732 0.691121 0.160697
O O6 0.605785 0.779364 0.163764
O O7 0.750000 0.750000 0.443509
O O8 0.837367 0.508218 0.407138
O O9 0.896529 0.628096 0.529369
O O10 0.750000 0.250000 0.707048
O O11 0.688429 0.484419 0.765328
O O12 0.805913 0.502080 0.646257
O O13 0.250000 0.750000 0.139657
O O14 0.750000 0.750000 0.578771
#
# Coordination Sequence:
#
# PCOD8229247 Si02
#       6
#     8   8   8   8   8   8
#     4  11  23  43  67 100 131 173 227 282 331 398
#     4  11  24  40  71  98 131 174 225 277 335 398
#     4  11  26  43  65  98 134 174 222 274 340 403
#     4  10  23  41  68  94 132 176 223 274 330 400
#     4  10  23  43  66 101 130 177 227 279 329 391
#     4  11  25  45  63  98 133 179 220 264 347 404
#
# _framework density 22.49474
#
# number of rings (size 3 to 8) (size 9 to 14) (size 15 to 20)
#    0.000    1.333    1.667    3.000   11.667    2.000 
#    3.000    0.000    0.000    0.000    0.000    0.000 
#    0.000    0.000    0.000    0.000    0.000    0.000 
#
# Total GULP energy -594738.943769 kJ/mol
# GULP energy per Si atom -12390.394662 kJ/mol
# Density = 2.244354 g / cm^3
# Si number density = 22.494740 Si / 1000 Ang^3
#
#
#
# Elastic Constant Matrix: (Units=GPa)
#
#
# Indices 1 2 3 4 5 6 
#
# 1 62.7568 -1.4089 17.7790 0.0000 0.0000 0.0000
# 2 -1.4089 97.2100 38.0476 0.0000 0.0000 0.0000
# 3 17.7790 38.0476 91.5697 0.0000 0.0000 0.0000
# 4 0.0000 0.0000 0.0000 21.2978 0.0000 0.0000
# 5 0.0000 0.0000 0.0000 0.0000 19.2815 0.0000
# 6 0.0000 0.0000 0.0000 0.0000 0.0000 38.1995
#
#
#
# Elastic Compliance Matrix: (Units=1/GPa)
#
#
# Indices 1 2 3 4 5 6 
#
# 1 0.017137 0.001852 -0.004097 0.000000 0.000000 0.000000
# 2 0.001852 0.012485 -0.005547 0.000000 0.000000 0.000000
# 3 -0.004097 -0.005547 0.014021 0.000000 0.000000 0.000000
# 4 0.000000 0.000000 0.000000 0.046953 0.000000 0.000000
# 5 0.000000 0.000000 0.000000 0.000000 0.051863 0.000000
# 6 0.000000 0.000000 0.000000 0.000000 0.000000 0.026178
#
#
# Mechanical properties :
#
#
# Convention : Reuss Voigt Hill
#
# Bulk Modulus (GPa) = 35.63969 40.04131 37.84050
# Shear Modulus (GPa) = 25.82988 28.89700 27.36344
#
# Velocity S-wave (km/s) = 3.39228 3.58804 3.49153
# Velocity P-wave (km/s) = 5.58761 5.91644 5.75437
#
# Compressibility (1/GPa) = 0.02805861
#
# Stress axis : x y z
#
# Youngs Moduli (GPa) = 58.35439 80.09632 71.32218
#
# Poissons Ratio (x) = -0.14832 0.29218
# Poissons Ratio (y) = -0.10806 0.39563
# Poissons Ratio (z) = 0.23906 0.44430
#
# Static dielectric constant tensor:
#      x y z
#    x 4.519940 0.000000 0.000000 
#    y 0.000000 4.049980 0.000000 
#    z 0.000000 0.000000 3.878860 
# 
# 
# High freq. dielectric constant tensor:
#      x y z
#    x 1.894790 0.000000 0.000000 
#    y 0.000000 1.897830 0.000000 
#    z 0.000000 0.000000 1.870150 
# 
# From -- ./inp_files/16146.got.cif
#   From: 2010.03.12/outbox.cif.g09.slc.cpg/sg56_9_cif.got.tgz:16146.got - 2010.04.16 15:33:40.
