data_PCOD8229909
_publ_section_title
;
Structure prediction by ZEFSAII (Michael W. Deem and Ramdas Pophale) SiO2 
 PCOD8229909
Probable space group: P B C M
;
_chemical_formula_sum "Si O2"
_cell_formula_units_Z 44
_cell_length_a 6.883290
_cell_length_b 19.959905
_cell_length_c 18.799058
_cell_angle_alpha 90.000000
_cell_angle_beta 90.000000
_cell_angle_gamma 90.000000
_cell_volume 2582.799091
_symmetry_space_group_name_H-M "P B C M"
_symmetry_group_IT_number 57
_symmetry_cell_setting 'orthorhombic'
loop_
_space_group_symop_operation_xyz
x,y,z
-x,-y,1/2+z
x,1/2-y,-z
-x,1/2+y,1/2-z
-x,-y,-z
x,y,1/2-z
-x,1/2+y,z
x,1/2-y,1/2+z
loop_
_atom_site_type_symbol
_atom_site_label
_atom_site_fract_x
_atom_site_fract_y
_atom_site_fract_z
Si Si1 0.512454 0.567084 0.455003
Si Si2 0.622640 0.808753 0.047040
Si Si3 0.824862 0.148756 0.394276
Si Si4 0.495198 0.734615 0.171182
Si Si5 0.991575 0.750000 0.000000
Si Si6 0.231446 0.387797 0.667211
O O1 0.500000 0.500000 0.500000
O O2 0.591295 0.620134 0.511855
O O3 0.300817 0.587486 0.425922
O O4 0.659854 0.561109 0.387246
O O5 0.518387 0.801446 0.123470
O O6 0.853979 0.793698 0.053009
O O7 0.522098 0.750000 0.000000
O O8 0.701915 0.192871 0.338946
O O9 0.878482 0.197419 0.458448
O O10 0.005677 0.116376 0.353026
O O11 0.500414 0.762869 0.250000
O O12 0.675909 0.685343 0.154473
O O13 0.256214 0.410606 0.750000
#
# Coordination Sequence:
#
# PCOD8229909 Si02
#       6
#     8   8   8   8   4   8
#     4  11  23  37  55  83 113 150 186 220 268 329
#     4  10  16  37  53  77 113 139 178 231 274 303
#     4  11  17  32  56  81 110 141 180 223 280 324
#     4  10  19  31  53  84 111 139 179 228 283 326
#     4  10  16  30  58  84 106 134 178 234 274 314
#     4  10  19  34  53  81 112 136 180 235 271 320
#
# _framework density 17.035779999999999
#
# number of rings (size 3 to 8) (size 9 to 14) (size 15 to 20)
#    0.545    1.091    7.273    1.636    0.000    1.455 
#    0.000    0.909    0.000    0.000    0.000    0.000 
#    0.000    0.000    0.000    0.000    0.000    0.000 
#
# Total GULP energy -545289.086021 kJ/mol
# GULP energy per Si atom -12392.933773 kJ/mol
# Density = 1.699701 g / cm^3
# Si number density = 17.035780 Si / 1000 Ang^3
#
#
#
# Elastic Constant Matrix: (Units=GPa)
#
#
# Indices 1 2 3 4 5 6 
#
# 1 112.6087 28.6997 45.3906 0.0000 0.0000 0.0000
# 2 28.6997 73.5987 46.0488 0.0000 0.0000 0.0000
# 3 45.3906 46.0488 128.6813 0.0000 0.0000 0.0000
# 4 0.0000 0.0000 0.0000 25.3162 0.0000 0.0000
# 5 0.0000 0.0000 0.0000 0.0000 19.3084 0.0000
# 6 0.0000 0.0000 0.0000 0.0000 0.0000 14.7709
#
#
#
# Elastic Compliance Matrix: (Units=1/GPa)
#
#
# Indices 1 2 3 4 5 6 
#
# 1 0.010652 -0.002323 -0.002926 0.000000 0.000000 0.000000
# 2 -0.002323 0.018014 -0.005627 0.000000 0.000000 0.000000
# 3 -0.002926 -0.005627 0.010817 0.000000 0.000000 0.000000
# 4 0.000000 0.000000 0.000000 0.039500 0.000000 0.000000
# 5 0.000000 0.000000 0.000000 0.000000 0.051791 0.000000
# 6 0.000000 0.000000 0.000000 0.000000 0.000000 0.067701
#
#
# Mechanical properties :
#
#
# Convention : Reuss Voigt Hill
#
# Bulk Modulus (GPa) = 56.39942 61.68522 59.04232
# Shear Modulus (GPa) = 22.11061 24.86240 23.48651
#
# Velocity S-wave (km/s) = 3.60654 3.82438 3.71706
# Velocity P-wave (km/s) = 7.10782 7.46921 7.29075
#
# Compressibility (1/GPa) = 0.01773068
#
# Stress axis : x y z
#
# Youngs Moduli (GPa) = 93.88121 55.51371 92.44871
#
# Poissons Ratio (x) = 0.12895 0.27051
# Poissons Ratio (y) = 0.21808 0.52019
# Poissons Ratio (z) = 0.27470 0.31236
#
# Static dielectric constant tensor:
#      x y z
#    x 3.328250 0.000000 0.000000 
#    y 0.000000 2.797440 0.000000 
#    z 0.000000 0.000000 3.297970 
# 
# 
# High freq. dielectric constant tensor:
#      x y z
#    x 1.670180 0.000000 0.000000 
#    y 0.000000 1.606130 0.000000 
#    z 0.000000 0.000000 1.661900 
# 
# From -- ./inp_files/23629.got.cif
#   From: 2010.03.12/outbox.cif.g09.slc.cpg/sg57_12_cif.got.tgz:23629.got - 2010.04.16 15:48:40.
