data_PCOD8229376
_publ_section_title
;
Structure prediction by ZEFSAII (Michael W. Deem and Ramdas Pophale) SiO2 
 PCOD8229376
Probable space group: P C C N
;
_chemical_formula_sum "Si O2"
_cell_formula_units_Z 40
_cell_length_a 19.127430
_cell_length_b 10.028981
_cell_length_c 8.996175
_cell_angle_alpha 90.000000
_cell_angle_beta 90.000000
_cell_angle_gamma 90.000000
_cell_volume 1725.723944
_symmetry_space_group_name_H-M "P C C N"
_symmetry_group_IT_number 56
_symmetry_cell_setting 'orthorhombic'
loop_
_space_group_symop_operation_xyz
x,y,z
1/2-x,1/2-y,z
1/2+x,-y,1/2-z
-x,1/2+y,1/2-z
-x,-y,-z
1/2+x,1/2+y,-z
1/2-x,y,1/2+z
x,1/2-y,1/2+z
loop_
_atom_site_type_symbol
_atom_site_label
_atom_site_fract_x
_atom_site_fract_y
_atom_site_fract_z
Si Si1 0.184595 0.329144 0.620283
Si Si2 0.041783 0.327945 0.125501
Si Si3 0.307626 0.642824 0.633880
Si Si4 0.756410 0.520785 0.125373
Si Si5 0.462663 0.629870 0.671680
O O1 0.250000 0.250000 0.684774
O O2 0.118113 0.235411 0.619327
O O3 0.201324 0.375192 0.450300
O O4 0.184376 0.441461 0.749940
O O5 0.043504 0.470984 0.212372
O O6 0.989819 0.218154 0.192427
O O7 0.018071 0.353707 0.958672
O O8 0.250000 0.750000 0.586430
O O9 0.303438 0.526374 0.512365
O O10 0.292061 0.591710 0.800398
O O11 0.387275 0.693468 0.630281
#
# Coordination Sequence:
#
# PCOD8229376 Si02
#       5
#     8   8   8   8   8
#     4  11  24  42  73 101 138 180 242 298 355 421
#     4  11  28  49  73 106 148 192 243 302 367 438
#     4  11  25  45  72 102 144 189 243 295 363 433
#     4  10  24  42  74 103 138 184 245 300 357 424
#     4  11  29  48  73 106 148 193 242 300 369 435
#
# _framework density 23.178678000000001
#
# number of rings (size 3 to 8) (size 9 to 14) (size 15 to 20)
#    0.000    1.200    0.000    3.600   19.600    2.400 
#    0.000    0.000    0.000    0.000    0.000    0.000 
#    0.000    0.000    0.000    0.000    0.000    0.000 
#
# Total GULP energy -495694.538779 kJ/mol
# GULP energy per Si atom -12392.363469 kJ/mol
# Density = 2.312592 g / cm^3
# Si number density = 23.178678 Si / 1000 Ang^3
#
#
#
# Elastic Constant Matrix: (Units=GPa)
#
#
# Indices 1 2 3 4 5 6 
#
# 1 175.7349 58.3109 27.9803 0.0000 0.0000 0.0000
# 2 58.3109 107.9747 31.9675 0.0000 0.0000 0.0000
# 3 27.9803 31.9675 103.5055 0.0000 0.0000 0.0000
# 4 0.0000 0.0000 0.0000 6.3681 0.0000 0.0000
# 5 0.0000 0.0000 0.0000 0.0000 28.8585 0.0000
# 6 0.0000 0.0000 0.0000 0.0000 0.0000 44.5150
#
#
#
# Elastic Compliance Matrix: (Units=1/GPa)
#
#
# Indices 1 2 3 4 5 6 
#
# 1 0.006992 -0.003540 -0.000797 0.000000 0.000000 0.000000
# 2 -0.003540 0.011986 -0.002745 0.000000 0.000000 0.000000
# 3 -0.000797 -0.002745 0.010724 0.000000 0.000000 0.000000
# 4 0.000000 0.000000 0.000000 0.157032 0.000000 0.000000
# 5 0.000000 0.000000 0.000000 0.000000 0.034652 0.000000
# 6 0.000000 0.000000 0.000000 0.000000 0.000000 0.022464
#
#
# Mechanical properties :
#
#
# Convention : Reuss Voigt Hill
#
# Bulk Modulus (GPa) = 64.35454 69.30360 66.82907
# Shear Modulus (GPa) = 18.99748 33.87876 26.43812
#
# Velocity S-wave (km/s) = 2.86599 3.82728 3.38097
# Velocity P-wave (km/s) = 6.22709 7.03530 6.64350
#
# Compressibility (1/GPa) = 0.01553892
#
# Stress axis : x y z
#
# Youngs Moduli (GPa) = 143.02338 83.43180 93.24490
#
# Poissons Ratio (x) = 0.29535 0.07429
# Poissons Ratio (y) = 0.50630 0.25594
# Poissons Ratio (z) = 0.11396 0.22901
#
# Static dielectric constant tensor:
#      x y z
#    x 3.976400 0.000000 0.000000 
#    y 0.000000 4.644520 0.000000 
#    z 0.000000 0.000000 4.156820 
# 
# 
# High freq. dielectric constant tensor:
#      x y z
#    x 1.915510 0.000000 0.000000 
#    y 0.000000 1.917550 0.000000 
#    z 0.000000 0.000000 1.923410 
# 
# From -- ./inp_files/3898.got.cif
#   From: 2010.03.12/outbox.cif.g09.slc.cpg/sg56_2_cif.got.tgz:3898.got - 2010.04.16 15:33:40.
