data_PCOD8229400
_publ_section_title
;
Structure prediction by ZEFSAII (Michael W. Deem and Ramdas Pophale) SiO2 
 PCOD8229400
Probable space group: P C C N
;
_chemical_formula_sum "Si O2"
_cell_formula_units_Z 60
_cell_length_a 12.526166
_cell_length_b 9.711689
_cell_length_c 22.743508
_cell_angle_alpha 90.000000
_cell_angle_beta 90.000000
_cell_angle_gamma 90.000000
_cell_volume 2766.752946
_symmetry_space_group_name_H-M "P C C N"
_symmetry_group_IT_number 56
_symmetry_cell_setting 'orthorhombic'
loop_
_space_group_symop_operation_xyz
x,y,z
1/2-x,1/2-y,z
1/2+x,-y,1/2-z
-x,1/2+y,1/2-z
-x,-y,-z
1/2+x,1/2+y,-z
1/2-x,y,1/2+z
x,1/2-y,1/2+z
loop_
_atom_site_type_symbol
_atom_site_label
_atom_site_fract_x
_atom_site_fract_y
_atom_site_fract_z
Si Si1 0.250000 0.750000 0.049161
Si Si2 0.128452 0.240381 0.094215
Si Si3 0.849321 0.442041 0.358302
Si Si4 0.980536 0.161893 0.492469
Si Si5 0.189749 0.129781 0.787205
Si Si6 0.460725 0.057823 0.188351
Si Si7 0.468310 0.227905 0.864795
Si Si8 0.814069 0.385026 0.226693
O O1 0.271954 0.617987 0.090843
O O2 0.354286 0.792710 0.010120
O O3 0.250000 0.250000 0.069836
O O4 0.108555 0.366134 0.138896
O O5 0.113437 0.095776 0.126872
O O6 0.039721 0.252081 0.043236
O O7 0.794124 0.433943 0.294339
O O8 0.953242 0.351938 0.352309
O O9 0.041656 0.200262 0.433356
O O10 0.000000 0.000000 0.500000
O O11 0.250000 0.250000 0.749151
O O12 0.144565 0.218805 0.841627
O O13 0.103107 0.050044 0.748827
O O14 0.269224 0.012471 0.812013
O O15 0.566579 0.143282 0.204766
O O16 0.487011 0.903766 0.169514
O O17 0.750000 0.250000 0.211683
#
# Coordination Sequence:
#
# PCOD8229400 Si02
#       8
#     4   8   8   8   8   8   8   8
#     4  10  24  44  78 106 140 186 250 298 364 432
#     4  12  27  46  73 108 141 190 252 301 356 436
#     4  11  23  43  71 103 138 188 238 295 352 436
#     4  11  24  50  76 103 141 194 244 306 370 425
#     4  12  25  41  65 105 142 182 233 291 359 434
#     4  12  25  45  68 104 143 187 239 291 362 437
#     4  11  25  45  71  98 145 186 237 298 362 431
#     4  12  25  41  71 104 144 194 231 294 369 440
#
# _framework density 21.686071999999999
#
# number of rings (size 3 to 8) (size 9 to 14) (size 15 to 20)
#    0.000    0.533    4.667    3.600    5.600    2.667 
#    1.200    1.333    0.000    0.000    0.000    0.000 
#    0.000    0.000    0.000    0.000    0.000    0.000 
#
# Total GULP energy -743887.660637 kJ/mol
# GULP energy per Si atom -12398.127677 kJ/mol
# Density = 2.163671 g / cm^3
# Si number density = 21.686072 Si / 1000 Ang^3
#
#
#
# Elastic Constant Matrix: (Units=GPa)
#
#
# Indices 1 2 3 4 5 6 
#
# 1 127.5452 34.8939 33.2954 0.0000 0.0000 0.0000
# 2 34.8939 128.9852 18.4995 0.0000 0.0000 0.0000
# 3 33.2954 18.4995 77.3132 0.0000 0.0000 0.0000
# 4 0.0000 0.0000 0.0000 25.7694 0.0000 0.0000
# 5 0.0000 0.0000 0.0000 0.0000 25.2795 0.0000
# 6 0.0000 0.0000 0.0000 0.0000 0.0000 43.6230
#
#
#
# Elastic Compliance Matrix: (Units=1/GPa)
#
#
# Indices 1 2 3 4 5 6 
#
# 1 0.009312 -0.002013 -0.003529 0.000000 0.000000 0.000000
# 2 -0.002013 0.008464 -0.001158 0.000000 0.000000 0.000000
# 3 -0.003529 -0.001158 0.014731 0.000000 0.000000 0.000000
# 4 0.000000 0.000000 0.000000 0.038806 0.000000 0.000000
# 5 0.000000 0.000000 0.000000 0.000000 0.039558 0.000000
# 6 0.000000 0.000000 0.000000 0.000000 0.000000 0.022924
#
#
# Mechanical properties :
#
#
# Convention : Reuss Voigt Hill
#
# Bulk Modulus (GPa) = 52.33681 56.35788 54.34735
# Shear Modulus (GPa) = 32.55988 35.41135 33.98562
#
# Velocity S-wave (km/s) = 3.87902 4.04531 3.96304
# Velocity P-wave (km/s) = 6.65196 6.91837 6.78647
#
# Compressibility (1/GPa) = 0.01910701
#
# Stress axis : x y z
#
# Youngs Moduli (GPa) = 107.38528 118.15387 67.88317
#
# Poissons Ratio (x) = 0.23786 0.23954
# Poissons Ratio (y) = 0.21618 0.07862
# Poissons Ratio (z) = 0.37893 0.13684
#
# Static dielectric constant tensor:
#      x y z
#    x 4.230370 0.000000 0.000000 
#    y 0.000000 4.054010 0.000000 
#    z 0.000000 0.000000 -16.563110 
# 
# 
# High freq. dielectric constant tensor:
#      x y z
#    x 1.870770 0.000000 0.000000 
#    y 0.000000 1.872910 0.000000 
#    z 0.000000 0.000000 1.828870 
# 
# From -- ./inp_files/22326.got.cif
#   From: 2010.03.12/outbox.cif.g09.slc.cpg/sg56_12_cif.got.tgz:22326.got - 2010.04.16 15:33:40.
