data_PCOD8229338
_publ_section_title
;
Structure prediction by ZEFSAII (Michael W. Deem and Ramdas Pophale) SiO2 
 PCOD8229338
Probable space group: P C C N
;
_chemical_formula_sum "Si O2"
_cell_formula_units_Z 64
_cell_length_a 10.813039
_cell_length_b 14.342580
_cell_length_c 19.024881
_cell_angle_alpha 90.000000
_cell_angle_beta 90.000000
_cell_angle_gamma 90.000000
_cell_volume 2950.509378
_symmetry_space_group_name_H-M "P C C N"
_symmetry_group_IT_number 56
_symmetry_cell_setting 'orthorhombic'
loop_
_space_group_symop_operation_xyz
x,y,z
1/2-x,1/2-y,z
1/2+x,-y,1/2-z
-x,1/2+y,1/2-z
-x,-y,-z
1/2+x,1/2+y,-z
1/2-x,y,1/2+z
x,1/2-y,1/2+z
loop_
_atom_site_type_symbol
_atom_site_label
_atom_site_fract_x
_atom_site_fract_y
_atom_site_fract_z
Si Si1 0.417628 0.387615 0.640225
Si Si2 0.176706 0.960621 0.310681
Si Si3 0.363197 0.536976 0.008854
Si Si4 0.191515 0.494322 0.660760
Si Si5 0.846775 0.834593 0.651569
Si Si6 0.843945 0.328454 0.611716
Si Si7 0.388941 0.073557 0.989278
Si Si8 0.075204 0.199354 0.198990
O O1 0.558777 0.421098 0.648187
O O2 0.339204 0.479111 0.661804
O O3 0.390256 0.362470 0.558650
O O4 0.361540 0.300821 0.685888
O O5 0.297394 0.907010 0.334982
O O6 0.151130 0.945133 0.227858
O O7 0.214293 0.068023 0.324473
O O8 0.372183 0.631975 0.965342
O O9 0.247140 0.474736 0.979899
O O10 0.500000 0.500000 0.000000
O O11 0.346269 0.553062 0.092186
O O12 0.131818 0.390854 0.661077
O O13 0.750000 0.750000 0.641897
O O14 0.914206 0.857604 0.577298
O O15 0.940055 0.810269 0.716333
O O16 0.750000 0.250000 0.592855
O O17 0.951489 0.279119 0.655383
O O18 0.500000 0.000000 0.000000
#
# Coordination Sequence:
#
# PCOD8229338 Si02
#       8
#     8   8   8   8   8   8   8   8
#     4  11  22  42  69  99 139 178 236 287 351 423
#     4  11  23  43  68  98 135 188 226 288 358 425
#     4  11  23  44  67 101 136 178 237 286 352 424
#     4  10  24  39  70  96 134 177 232 295 351 411
#     4  11  24  45  68 106 141 181 238 300 349 424
#     4  12  24  44  69  93 139 192 227 280 365 435
#     4  11  23  44  74 102 141 190 235 294 364 421
#     4  11  23  42  67 101 136 179 237 286 348 425
#
# _framework density 21.69117
#
# number of rings (size 3 to 8) (size 9 to 14) (size 15 to 20)
#    0.000    1.000    5.000    1.875    3.500    2.000 
#    2.250    0.625    0.000    0.000    0.000    0.000 
#    0.000    0.000    0.000    0.000    0.000    0.000 
#
# Total GULP energy -792847.981958 kJ/mol
# GULP energy per Si atom -12388.249718 kJ/mol
# Density = 2.164180 g / cm^3
# Si number density = 21.691170 Si / 1000 Ang^3
#
#
#
# Elastic Constant Matrix: (Units=GPa)
#
#
# Indices 1 2 3 4 5 6 
#
# 1 73.3554 13.9885 31.8863 0.0000 0.0000 0.0000
# 2 13.9885 89.7402 55.1285 0.0000 0.0000 0.0000
# 3 31.8863 55.1285 193.0834 0.0000 0.0000 0.0000
# 4 0.0000 0.0000 0.0000 36.2302 0.0000 0.0000
# 5 0.0000 0.0000 0.0000 0.0000 26.5904 0.0000
# 6 0.0000 0.0000 0.0000 0.0000 0.0000 25.6749
#
#
#
# Elastic Compliance Matrix: (Units=1/GPa)
#
#
# Indices 1 2 3 4 5 6 
#
# 1 0.014756 -0.000974 -0.002159 0.000000 0.000000 0.000000
# 2 -0.000974 0.013578 -0.003716 0.000000 0.000000 0.000000
# 3 -0.002159 -0.003716 0.006597 0.000000 0.000000 0.000000
# 4 0.000000 0.000000 0.000000 0.027601 0.000000 0.000000
# 5 0.000000 0.000000 0.000000 0.000000 0.037608 0.000000
# 6 0.000000 0.000000 0.000000 0.000000 0.000000 0.038948
#
#
# Mechanical properties :
#
#
# Convention : Reuss Voigt Hill
#
# Bulk Modulus (GPa) = 47.09556 62.02064 54.55810
# Shear Modulus (GPa) = 31.27673 34.71081 32.99377
#
# Velocity S-wave (km/s) = 3.80137 4.00462 3.90432
# Velocity P-wave (km/s) = 6.40517 7.07371 6.74772
#
# Compressibility (1/GPa) = 0.02123342
#
# Stress axis : x y z
#
# Youngs Moduli (GPa) = 67.76722 73.64971 151.59433
#
# Poissons Ratio (x) = 0.07174 0.32726
# Poissons Ratio (y) = 0.06601 0.56330
# Poissons Ratio (z) = 0.14630 0.27367
#
# Static dielectric constant tensor:
#      x y z
#    x 3.860890 0.000000 0.000000 
#    y 0.000000 3.056430 0.000000 
#    z 0.000000 0.000000 4.206360 
# 
# 
# High freq. dielectric constant tensor:
#      x y z
#    x 1.847000 0.000000 0.000000 
#    y 0.000000 1.838250 0.000000 
#    z 0.000000 0.000000 1.873400 
# 
# From -- ./inp_files/15797.got.cif
#   From: 2010.03.12/outbox.cif.g09.slc.cpg/sg56_8_cif.got.tgz:15797.got - 2010.04.16 15:33:40.
