data_PCOD8229126
_publ_section_title
;
Structure prediction by ZEFSAII (Michael W. Deem and Ramdas Pophale) SiO2 
 PCOD8229126
Probable space group: P C C N
;
_chemical_formula_sum "Si O2"
_cell_formula_units_Z 48
_cell_length_a 8.985671
_cell_length_b 17.378816
_cell_length_c 14.563175
_cell_angle_alpha 90.000000
_cell_angle_beta 90.000000
_cell_angle_gamma 90.000000
_cell_volume 2274.190111
_symmetry_space_group_name_H-M "P C C N"
_symmetry_group_IT_number 56
_symmetry_cell_setting 'orthorhombic'
loop_
_space_group_symop_operation_xyz
x,y,z
1/2-x,1/2-y,z
1/2+x,-y,1/2-z
-x,1/2+y,1/2-z
-x,-y,-z
1/2+x,1/2+y,-z
1/2-x,y,1/2+z
x,1/2-y,1/2+z
loop_
_atom_site_type_symbol
_atom_site_label
_atom_site_fract_x
_atom_site_fract_y
_atom_site_fract_z
Si Si1 0.840244 0.970539 0.363490
Si Si2 0.831405 0.479316 0.197615
Si Si3 0.347702 0.956813 0.482231
Si Si4 0.406588 0.709527 0.033406
Si Si5 0.118235 0.689965 0.737683
Si Si6 0.604932 0.702225 0.397888
O O1 0.857789 0.887662 0.411574
O O2 0.000658 0.002367 0.330351
O O3 0.730345 0.963017 0.275756
O O4 0.771207 0.029909 0.436329
O O5 0.723450 0.487303 0.111104
O O6 0.820782 0.394021 0.238635
O O7 0.387854 0.867218 0.473141
O O8 0.500000 0.000000 0.500000
O O9 0.250000 0.750000 0.035221
O O10 0.527130 0.766806 0.989987
O O11 0.456665 0.688877 0.136901
O O12 0.250000 0.750000 0.743570
O O13 0.996463 0.716201 0.810032
O O14 0.750000 0.750000 0.378135
#
# Coordination Sequence:
#
# PCOD8229126 Si02
#       6
#     8   8   8   8   8   8
#     4  11  24  44  64 102 134 181 227 284 345 406
#     4  11  23  41  67  95 140 172 229 281 336 408
#     4  12  24  42  71 102 136 182 228 281 346 400
#     4  11  23  44  69  94 129 179 230 272 331 418
#     4  10  22  42  69  94 127 178 229 270 332 414
#     4  11  24  43  64  96 135 168 218 286 346 396
#
# _framework density 21.106415999999999
#
# number of rings (size 3 to 8) (size 9 to 14) (size 15 to 20)
#    0.000    1.000    1.667    6.000    2.333    2.000 
#    3.000    0.000    0.000    0.000    0.000    0.000 
#    0.000    0.000    0.000    0.000    0.000    0.000 
#
# Total GULP energy -595451.875507 kJ/mol
# GULP energy per Si atom -12405.247406 kJ/mol
# Density = 2.105838 g / cm^3
# Si number density = 21.106416 Si / 1000 Ang^3
#
#
#
# Elastic Constant Matrix: (Units=GPa)
#
#
# Indices 1 2 3 4 5 6 
#
# 1 111.7956 45.5134 46.2363 0.0000 0.0000 0.0000
# 2 45.5134 80.0047 35.0087 0.0000 0.0000 0.0000
# 3 46.2363 35.0087 126.6667 0.0000 0.0000 0.0000
# 4 0.0000 0.0000 0.0000 36.8619 0.0000 0.0000
# 5 0.0000 0.0000 0.0000 0.0000 19.1458 0.0000
# 6 0.0000 0.0000 0.0000 0.0000 0.0000 38.4832
#
#
#
# Elastic Compliance Matrix: (Units=1/GPa)
#
#
# Indices 1 2 3 4 5 6 
#
# 1 0.012550 -0.005841 -0.002967 0.000000 0.000000 0.000000
# 2 -0.005841 0.016938 -0.002549 0.000000 0.000000 0.000000
# 3 -0.002967 -0.002549 0.009682 0.000000 0.000000 0.000000
# 4 0.000000 0.000000 0.000000 0.027128 0.000000 0.000000
# 5 0.000000 0.000000 0.000000 0.000000 0.052231 0.000000
# 6 0.000000 0.000000 0.000000 0.000000 0.000000 0.025985
#
#
# Mechanical properties :
#
#
# Convention : Reuss Voigt Hill
#
# Bulk Modulus (GPa) = 60.76886 63.55376 62.16131
# Shear Modulus (GPa) = 28.94970 31.67875 30.31423
#
# Velocity S-wave (km/s) = 3.70754 3.87836 3.79391
# Velocity P-wave (km/s) = 6.86891 7.08745 6.97904
#
# Compressibility (1/GPa) = 0.01645580
#
# Stress axis : x y z
#
# Youngs Moduli (GPa) = 79.68209 59.03974 103.28303
#
# Poissons Ratio (x) = 0.34487 0.30639
# Poissons Ratio (y) = 0.46545 0.26328
# Poissons Ratio (z) = 0.23638 0.15050
#
# Static dielectric constant tensor:
#      x y z
#    x 3.959280 0.000000 0.000000 
#    y 0.000000 3.749950 0.000000 
#    z 0.000000 0.000000 4.317630 
# 
# 
# High freq. dielectric constant tensor:
#      x y z
#    x 1.834680 0.000000 0.000000 
#    y 0.000000 1.826370 0.000000 
#    z 0.000000 0.000000 1.841780 
# 
# From -- ./inp_files/10617.got.cif
#   From: 2010.03.12/outbox.cif.g09.slc.cpg/sg56_6_cif.got.tgz:10617.got - 2010.04.16 15:33:40.
