data_PCOD8229913
_publ_section_title
;
Structure prediction by ZEFSAII (Michael W. Deem and Ramdas Pophale) SiO2 
 PCOD8229913
Probable space group: P B C M
;
_chemical_formula_sum "Si O2"
_cell_formula_units_Z 40
_cell_length_a 6.478923
_cell_length_b 13.703846
_cell_length_c 18.754867
_cell_angle_alpha 90.000000
_cell_angle_beta 90.000000
_cell_angle_gamma 90.000000
_cell_volume 1665.172679
_symmetry_space_group_name_H-M "P B C M"
_symmetry_group_IT_number 57
_symmetry_cell_setting 'orthorhombic'
loop_
_space_group_symop_operation_xyz
x,y,z
-x,-y,1/2+z
x,1/2-y,-z
-x,1/2+y,1/2-z
-x,-y,-z
x,y,1/2-z
-x,1/2+y,z
x,1/2-y,1/2+z
loop_
_atom_site_type_symbol
_atom_site_label
_atom_site_fract_x
_atom_site_fract_y
_atom_site_fract_z
Si Si1 0.940794 0.640639 0.511804
Si Si2 0.993274 0.404140 0.640698
Si Si3 0.735562 0.517122 0.750000
Si Si4 0.773687 0.207736 0.617968
Si Si5 0.456178 0.250000 0.000000
Si Si6 0.475587 0.815088 0.250000
Si Si7 0.653899 0.605185 0.250000
O O1 0.037353 0.750000 0.500000
O O2 0.997374 0.570169 0.444739
O O3 0.077568 0.620773 0.583235
O O4 0.691762 0.654209 0.514260
O O5 0.848476 0.483319 0.678163
O O6 0.909383 0.294819 0.650923
O O7 0.215254 0.401548 0.677502
O O8 0.703649 0.634071 0.750000
O O9 0.498816 0.485013 0.750000
O O10 0.597879 0.258874 0.569091
O O11 0.657554 0.152517 0.681469
O O12 0.511370 0.700030 0.250000
#
# Coordination Sequence:
#
# PCOD8229913 Si02
#       7
#     8   8   4   8   4   4   4
#     4   8  18  29  58  91 115 152 207 249 309 372
#     4  10  19  40  60  91 124 162 206 260 309 370
#     4  11  25  41  59  95 131 165 219 257 305 374
#     4  11  19  38  61  93 126 152 210 261 308 374
#     4  10  16  32  64  98 112 158 208 254 310 392
#     4  12  25  40  65  95 125 173 208 259 315 373
#     4  11  22  39  68  86 124 174 203 254 318 373
#
# _framework density 24.021533000000002
#
# number of rings (size 3 to 8) (size 9 to 14) (size 15 to 20)
#    0.600    1.200    5.000    1.800    0.000    0.000 
#    7.200    1.000    0.000    2.400    0.000    0.000 
#    0.000    0.000    0.000    0.000    0.000    0.000 
#
# Total GULP energy -495581.709718 kJ/mol
# GULP energy per Si atom -12389.542743 kJ/mol
# Density = 2.396686 g / cm^3
# Si number density = 24.021533 Si / 1000 Ang^3
#
#
#
# Elastic Constant Matrix: (Units=GPa)
#
#
# Indices 1 2 3 4 5 6 
#
# 1 132.1164 -0.1744 47.7247 0.0000 0.0000 0.0000
# 2 -0.1744 8.2050 0.6594 0.0000 0.0000 0.0000
# 3 47.7247 0.6594 138.1649 0.0000 0.0000 0.0000
# 4 0.0000 0.0000 0.0000 9.1769 0.0000 0.0000
# 5 0.0000 0.0000 0.0000 0.0000 26.4409 0.0000
# 6 0.0000 0.0000 0.0000 0.0000 0.0000 8.3711
#
#
#
# Elastic Compliance Matrix: (Units=1/GPa)
#
#
# Indices 1 2 3 4 5 6 
#
# 1 0.008650 0.000424 -0.002990 0.000000 0.000000 0.000000
# 2 0.000424 0.121945 -0.000728 0.000000 0.000000 0.000000
# 3 -0.002990 -0.000728 0.008274 0.000000 0.000000 0.000000
# 4 0.000000 0.000000 0.000000 0.108969 0.000000 0.000000
# 5 0.000000 0.000000 0.000000 0.000000 0.037820 0.000000
# 6 0.000000 0.000000 0.000000 0.000000 0.000000 0.119459
#
#
# Mechanical properties :
#
#
# Convention : Reuss Voigt Hill
#
# Bulk Modulus (GPa) = 7.55970 41.65620 24.60795
# Shear Modulus (GPa) = 10.96975 24.14955 17.55965
#
# Velocity S-wave (km/s) = 2.13929 3.17413 2.70663
# Velocity P-wave (km/s) = 3.04236 5.55089 4.47595
#
# Compressibility (1/GPa) = 0.13228045
#
# Stress axis : x y z
#
# Youngs Moduli (GPa) = 115.61169 8.20041 120.86161
#
# Poissons Ratio (x) = -0.00348 0.36135
# Poissons Ratio (y) = -0.04903 0.08805
# Poissons Ratio (z) = 0.34565 0.00597
#
# Static dielectric constant tensor:
#      x y z
#    x 4.378440 0.000000 0.000000 
#    y 0.000000 3.725170 0.000000 
#    z 0.000000 0.000000 4.566890 
# 
# 
# High freq. dielectric constant tensor:
#      x y z
#    x 1.963850 0.000000 0.000000 
#    y 0.000000 1.918180 0.000000 
#    z 0.000000 0.000000 1.961300 
# 
# From -- ./inp_files/23604.got.cif
#   From: 2010.03.12/outbox.cif.g09.slc.cpg/sg57_12_cif.got.tgz:23604.got - 2010.04.16 15:48:40.
