data_PCOD8229424
_publ_section_title
;
Structure prediction by ZEFSAII (Michael W. Deem and Ramdas Pophale) SiO2 
 PCOD8229424
Probable space group: P C C N
;
_chemical_formula_sum "Si O2"
_cell_formula_units_Z 60
_cell_length_a 15.331953
_cell_length_b 18.335418
_cell_length_c 9.322106
_cell_angle_alpha 90.000000
_cell_angle_beta 90.000000
_cell_angle_gamma 90.000000
_cell_volume 2620.609623
_symmetry_space_group_name_H-M "P C C N"
_symmetry_group_IT_number 56
_symmetry_cell_setting 'orthorhombic'
loop_
_space_group_symop_operation_xyz
x,y,z
1/2-x,1/2-y,z
1/2+x,-y,1/2-z
-x,1/2+y,1/2-z
-x,-y,-z
1/2+x,1/2+y,-z
1/2-x,y,1/2+z
x,1/2-y,1/2+z
loop_
_atom_site_type_symbol
_atom_site_label
_atom_site_fract_x
_atom_site_fract_y
_atom_site_fract_z
Si Si1 0.112339 0.733203 0.737181
Si Si2 0.766319 0.365747 0.770914
Si Si3 0.498806 0.702253 0.978090
Si Si4 0.267423 0.531997 0.978620
Si Si5 0.068972 0.454944 0.588384
Si Si6 0.918736 0.533300 0.082583
Si Si7 0.750000 0.750000 0.301062
Si Si8 0.859616 0.808595 0.551991
O O1 0.186971 0.680202 0.801397
O O2 0.152458 0.812416 0.698155
O O3 0.035167 0.745935 0.850266
O O4 0.077749 0.692293 0.594393
O O5 0.796940 0.433067 0.672289
O O6 0.730404 0.399311 0.916635
O O7 0.538870 0.628475 0.915177
O O8 0.576501 0.740566 0.062195
O O9 0.171053 0.499657 0.974571
O O10 0.334902 0.467666 0.020468
O O11 0.070198 0.484215 0.750163
O O12 0.000000 0.500000 0.500000
O O13 0.916824 0.618956 0.051865
O O14 0.000000 0.500000 0.000000
O O15 0.805427 0.803156 0.404066
O O16 0.697258 0.805326 0.197794
#
# Coordination Sequence:
#
# PCOD8229424 Si02
#       8
#     8   8   8   8   8   8   4   8
#     4  11  24  44  76 109 149 186 253 301 389 444
#     4  11  24  46  74 108 144 204 239 313 371 457
#     4  12  26  45  75 108 147 190 241 323 371 453
#     4  12  27  47  74 107 157 200 254 304 382 450
#     4  12  28  50  75 114 151 199 250 309 386 454
#     4  12  31  48  75 109 152 206 254 314 375 453
#     4  10  24  46  76 102 142 194 240 316 370 450
#     4  11  26  46  73 105 145 188 254 302 380 440
#
# _framework density 22.895436
#
# number of rings (size 3 to 8) (size 9 to 14) (size 15 to 20)
#    0.000    0.533    1.333    5.600   13.067    3.200 
#    0.000    0.000    0.000    0.000    0.000    0.000 
#    0.000    0.000    0.000    0.000    0.000    0.000 
#
# Total GULP energy -744220.651132 kJ/mol
# GULP energy per Si atom -12403.677519 kJ/mol
# Density = 2.284332 g / cm^3
# Si number density = 22.895436 Si / 1000 Ang^3
#
#
#
# Elastic Constant Matrix: (Units=GPa)
#
#
# Indices 1 2 3 4 5 6 
#
# 1 146.9648 46.7891 61.9972 0.0000 0.0000 0.0000
# 2 46.7891 82.9112 31.0818 0.0000 0.0000 0.0000
# 3 61.9972 31.0818 125.4410 0.0000 0.0000 0.0000
# 4 0.0000 0.0000 0.0000 34.6303 0.0000 0.0000
# 5 0.0000 0.0000 0.0000 0.0000 37.1879 0.0000
# 6 0.0000 0.0000 0.0000 0.0000 0.0000 51.2519
#
#
#
# Elastic Compliance Matrix: (Units=1/GPa)
#
#
# Indices 1 2 3 4 5 6 
#
# 1 0.009691 -0.004049 -0.003786 0.000000 0.000000 0.000000
# 2 -0.004049 0.014988 -0.001712 0.000000 0.000000 0.000000
# 3 -0.003786 -0.001712 0.010267 0.000000 0.000000 0.000000
# 4 0.000000 0.000000 0.000000 0.028876 0.000000 0.000000
# 5 0.000000 0.000000 0.000000 0.000000 0.026890 0.000000
# 6 0.000000 0.000000 0.000000 0.000000 0.000000 0.019511
#
#
# Mechanical properties :
#
#
# Convention : Reuss Voigt Hill
#
# Bulk Modulus (GPa) = 63.08968 70.56149 66.82558
# Shear Modulus (GPa) = 37.14593 38.97728 38.06161
#
# Velocity S-wave (km/s) = 4.03229 4.13050 4.08169
# Velocity P-wave (km/s) = 7.02101 7.32352 7.17386
#
# Compressibility (1/GPa) = 0.01585045
#
# Stress axis : x y z
#
# Youngs Moduli (GPa) = 103.19122 66.71893 97.39550
#
# Poissons Ratio (x) = 0.27017 0.36875
# Poissons Ratio (y) = 0.41786 0.16678
# Poissons Ratio (z) = 0.39070 0.11425
#
# Static dielectric constant tensor:
#      x y z
#    x 4.492620 0.000000 0.000000 
#    y 0.000000 4.392800 0.000000 
#    z 0.000000 0.000000 4.242460 
# 
# 
# High freq. dielectric constant tensor:
#      x y z
#    x 1.918670 0.000000 0.000000 
#    y 0.000000 1.903150 0.000000 
#    z 0.000000 0.000000 1.913370 
# 
# From -- ./inp_files/4131.got.cif
#   From: 2010.03.12/outbox.cif.g09.slc.cpg/sg56_3_cif.got.tgz:4131.got - 2010.04.16 15:33:40.
