data_PCOD8229646
_publ_section_title
;
Structure prediction by ZEFSAII (Michael W. Deem and Ramdas Pophale) SiO2 
 PCOD8229646
Probable space group: P C C N
;
_chemical_formula_sum "Si O2"
_cell_formula_units_Z 64
_cell_length_a 9.367561
_cell_length_b 17.372845
_cell_length_c 19.339572
_cell_angle_alpha 90.000000
_cell_angle_beta 90.000000
_cell_angle_gamma 90.000000
_cell_volume 3147.344870
_symmetry_space_group_name_H-M "P C C N"
_symmetry_group_IT_number 56
_symmetry_cell_setting 'orthorhombic'
loop_
_space_group_symop_operation_xyz
x,y,z
1/2-x,1/2-y,z
1/2+x,-y,1/2-z
-x,1/2+y,1/2-z
-x,-y,-z
1/2+x,1/2+y,-z
1/2-x,y,1/2+z
x,1/2-y,1/2+z
loop_
_atom_site_type_symbol
_atom_site_label
_atom_site_fract_x
_atom_site_fract_y
_atom_site_fract_z
Si Si1 0.995812 0.121351 0.091319
Si Si2 0.874820 0.810632 0.196980
Si Si3 0.991253 0.869331 0.060116
Si Si4 0.229550 0.501994 0.439028
Si Si5 0.612965 0.433020 0.283578
Si Si6 0.904456 0.220549 0.218271
Si Si7 0.277176 0.985311 0.588236
Si Si8 0.800138 0.961532 0.701877
O O1 0.989545 0.182641 0.153799
O O2 0.840381 0.081878 0.085839
O O3 0.123733 0.059634 0.105981
O O4 0.012984 0.167263 0.017492
O O5 0.750000 0.750000 0.201070
O O6 0.932918 0.810878 0.117970
O O7 0.808299 0.892204 0.218878
O O8 0.000248 0.790089 0.250964
O O9 0.903054 0.946484 0.051081
O O10 0.142423 0.902914 0.085754
O O11 0.304167 0.505885 0.514222
O O12 0.334088 0.468198 0.380350
O O13 0.618522 0.340309 0.281363
O O14 0.654928 0.474184 0.354799
O O15 0.451867 0.455046 0.260963
O O16 0.720521 0.461272 0.224562
O O17 0.750000 0.250000 0.193442
#
# Coordination Sequence:
#
# PCOD8229646 Si02
#       8
#     8   8   8   8   8   8   8   8
#     4   9  17  38  61  91 119 160 201 244 305 371
#     4  11  23  42  60  86 124 165 204 254 303 363
#     4   8  17  35  65  84 116 162 203 244 302 364
#     4   8  16  34  62  89 119 151 198 255 300 353
#     4  12  24  38  62  93 120 158 207 253 304 369
#     4  12  25  39  61  91 130 162 201 252 311 371
#     4   9  18  34  62  94 116 152 206 251 300 360
#     4  11  24  39  64  88 121 160 206 256 304 357
#
# _framework density 20.334599999999998
#
# number of rings (size 3 to 8) (size 9 to 14) (size 15 to 20)
#    0.000    2.000    2.500    3.000    5.250    0.500 
#    0.000    3.750    2.750    0.000    0.000    0.000 
#    0.000    0.000    0.000    0.000    0.000    0.000 
#
# Total GULP energy -792953.931190 kJ/mol
# GULP energy per Si atom -12389.905175 kJ/mol
# Density = 2.028832 g / cm^3
# Si number density = 20.334600 Si / 1000 Ang^3
#
#
#
# Elastic Constant Matrix: (Units=GPa)
#
#
# Indices 1 2 3 4 5 6 
#
# 1 81.8053 19.8410 27.1871 0.0000 0.0000 0.0000
# 2 19.8410 32.7501 19.6577 0.0000 0.0000 0.0000
# 3 27.1871 19.6577 113.3652 0.0000 0.0000 0.0000
# 4 0.0000 0.0000 0.0000 34.3038 0.0000 0.0000
# 5 0.0000 0.0000 0.0000 0.0000 21.2523 0.0000
# 6 0.0000 0.0000 0.0000 0.0000 0.0000 26.5832
#
#
#
# Elastic Compliance Matrix: (Units=1/GPa)
#
#
# Indices 1 2 3 4 5 6 
#
# 1 0.014818 -0.007639 -0.002229 0.000000 0.000000 0.000000
# 2 -0.007639 0.038020 -0.004761 0.000000 0.000000 0.000000
# 3 -0.002229 -0.004761 0.010181 0.000000 0.000000 0.000000
# 4 0.000000 0.000000 0.000000 0.029151 0.000000 0.000000
# 5 0.000000 0.000000 0.000000 0.000000 0.047054 0.000000
# 6 0.000000 0.000000 0.000000 0.000000 0.000000 0.037618
#
#
# Mechanical properties :
#
#
# Convention : Reuss Voigt Hill
#
# Bulk Modulus (GPa) = 29.61986 40.14358 34.88172
# Shear Modulus (GPa) = 23.00410 27.17685 25.09048
#
# Velocity S-wave (km/s) = 3.36710 3.65976 3.51648
# Velocity P-wave (km/s) = 5.45108 6.13538 5.80332
#
# Compressibility (1/GPa) = 0.03376113
#
# Stress axis : x y z
#
# Youngs Moduli (GPa) = 67.48689 26.30205 98.22120
#
# Poissons Ratio (x) = 0.20093 0.21893
# Poissons Ratio (y) = 0.51554 0.46760
# Poissons Ratio (z) = 0.15042 0.12522
#
# Static dielectric constant tensor:
#      x y z
#    x 3.464190 0.000000 0.000000 
#    y 0.000000 3.640540 0.000000 
#    z 0.000000 0.000000 4.023540 
# 
# 
# High freq. dielectric constant tensor:
#      x y z
#    x 1.774610 0.000000 0.000000 
#    y 0.000000 1.766090 0.000000 
#    z 0.000000 0.000000 1.810330 
# 
# From -- ./inp_files/18404.got.cif
#   From: 2010.03.12/outbox.cif.g09.slc.cpg/sg56_10_cif.got.tgz:18404.got - 2010.04.16 15:33:40.
