data_PCOD8229812
_publ_section_title
;
Structure prediction by ZEFSAII (Michael W. Deem and Ramdas Pophale) SiO2 
 PCOD8229812
Probable space group: P C C N
;
_chemical_formula_sum "Si O2"
_cell_formula_units_Z 48
_cell_length_a 13.881122
_cell_length_b 18.494299
_cell_length_c 9.632803
_cell_angle_alpha 90.000000
_cell_angle_beta 90.000000
_cell_angle_gamma 90.000000
_cell_volume 2472.948798
_symmetry_space_group_name_H-M "P C C N"
_symmetry_group_IT_number 56
_symmetry_cell_setting 'orthorhombic'
loop_
_space_group_symop_operation_xyz
x,y,z
1/2-x,1/2-y,z
1/2+x,-y,1/2-z
-x,1/2+y,1/2-z
-x,-y,-z
1/2+x,1/2+y,-z
1/2-x,y,1/2+z
x,1/2-y,1/2+z
loop_
_atom_site_type_symbol
_atom_site_label
_atom_site_fract_x
_atom_site_fract_y
_atom_site_fract_z
Si Si1 0.461324 0.472027 0.856604
Si Si2 0.063241 0.822594 0.207363
Si Si3 0.048911 0.688086 0.032462
Si Si4 0.451071 0.049963 0.887819
Si Si5 0.739945 0.385707 0.352742
Si Si6 0.743806 0.014047 0.602899
O O1 0.505114 0.396706 0.806993
O O2 0.489520 0.536258 0.752137
O O3 0.346308 0.461775 0.866998
O O4 0.500000 0.500000 0.000000
O O5 0.016488 0.761162 0.110339
O O6 0.062904 0.798658 0.368408
O O7 0.170230 0.831356 0.145578
O O8 0.146417 0.657372 0.099554
O O9 0.961989 0.632379 0.062161
O O10 0.339346 0.031617 0.865925
O O11 0.500000 0.000000 0.000000
O O12 0.756821 0.457121 0.445720
O O13 0.734069 0.414104 0.195672
#
# Coordination Sequence:
#
# PCOD8229812 Si02
#       6
#     8   8   8   8   8   8
#     4  12  23  40  67  97 131 164 220 268 314 388
#     4  12  27  43  61  98 133 175 213 264 334 388
#     4  12  27  42  65  92 137 174 213 267 329 393
#     4  12  21  44  67  91 128 177 215 264 321 381
#     4  12  21  40  66  96 128 165 213 267 332 386
#     4  12  22  38  70 100 124 164 218 276 317 375
#
# _framework density 19.410026999999999
#
# number of rings (size 3 to 8) (size 9 to 14) (size 15 to 20)
#    0.000    0.000   10.000    0.500    4.667    1.333 
#    0.000    0.833    0.000    2.000    0.000    0.000 
#    0.000    0.000    0.000    0.000    0.000    0.000 
#
# Total GULP energy -595338.498464 kJ/mol
# GULP energy per Si atom -12402.885385 kJ/mol
# Density = 1.936585 g / cm^3
# Si number density = 19.410027 Si / 1000 Ang^3
#
#
#
# Elastic Constant Matrix: (Units=GPa)
#
#
# Indices 1 2 3 4 5 6 
#
# 1 111.6328 13.6426 21.3402 0.0000 0.0000 0.0000
# 2 13.6426 80.5086 20.9287 0.0000 0.0000 0.0000
# 3 21.3402 20.9287 85.2340 0.0000 0.0000 0.0000
# 4 0.0000 0.0000 0.0000 38.0673 0.0000 0.0000
# 5 0.0000 0.0000 0.0000 0.0000 24.7838 0.0000
# 6 0.0000 0.0000 0.0000 0.0000 0.0000 29.0288
#
#
#
# Elastic Compliance Matrix: (Units=1/GPa)
#
#
# Indices 1 2 3 4 5 6 
#
# 1 0.009492 -0.001058 -0.002117 0.000000 0.000000 0.000000
# 2 -0.001058 0.013386 -0.003022 0.000000 0.000000 0.000000
# 3 -0.002117 -0.003022 0.013004 0.000000 0.000000 0.000000
# 4 0.000000 0.000000 0.000000 0.026269 0.000000 0.000000
# 5 0.000000 0.000000 0.000000 0.000000 0.040349 0.000000
# 6 0.000000 0.000000 0.000000 0.000000 0.000000 0.034449
#
#
# Mechanical properties :
#
#
# Convention : Reuss Voigt Hill
#
# Bulk Modulus (GPa) = 42.57377 43.24428 42.90903
# Shear Modulus (GPa) = 31.81227 33.14023 32.47625
#
# Velocity S-wave (km/s) = 4.05280 4.13652 4.09488
# Velocity P-wave (km/s) = 6.62433 6.71879 6.67173
#
# Compressibility (1/GPa) = 0.02348864
#
# Stress axis : x y z
#
# Youngs Moduli (GPa) = 105.35298 74.70536 76.89717
#
# Poissons Ratio (x) = 0.07905 0.16277
# Poissons Ratio (y) = 0.11149 0.23238
# Poissons Ratio (z) = 0.22300 0.22575
#
# Static dielectric constant tensor:
#      x y z
#    x 7.757500 0.000000 0.000000 
#    y 0.000000 3.764790 0.000000 
#    z 0.000000 0.000000 3.597720 
# 
# 
# High freq. dielectric constant tensor:
#      x y z
#    x 1.751210 0.000000 0.000000 
#    y 0.000000 1.738330 0.000000 
#    z 0.000000 0.000000 1.780670 
# 
# From -- ./inp_files/3361.got.cif
#   From: 2010.03.12/outbox.cif.g09.slc.cpg/sg56_2_cif.got.tgz:3361.got - 2010.04.16 15:33:40.
