data_PCOD8229045
_publ_section_title
;
Structure prediction by ZEFSAII (Michael W. Deem and Ramdas Pophale) SiO2 
 PCOD8229045
Probable space group: P C C N
;
_chemical_formula_sum "Si O2"
_cell_formula_units_Z 48
_cell_length_a 22.992484
_cell_length_b 5.061467
_cell_length_c 19.084656
_cell_angle_alpha 90.000000
_cell_angle_beta 90.000000
_cell_angle_gamma 90.000000
_cell_volume 2220.990182
_symmetry_space_group_name_H-M "P C C N"
_symmetry_group_IT_number 56
_symmetry_cell_setting 'orthorhombic'
loop_
_space_group_symop_operation_xyz
x,y,z
1/2-x,1/2-y,z
1/2+x,-y,1/2-z
-x,1/2+y,1/2-z
-x,-y,-z
1/2+x,1/2+y,-z
1/2-x,y,1/2+z
x,1/2-y,1/2+z
loop_
_atom_site_type_symbol
_atom_site_label
_atom_site_fract_x
_atom_site_fract_y
_atom_site_fract_z
Si Si1 0.360496 0.121252 0.329617
Si Si2 0.489597 0.419222 0.793712
Si Si3 0.588814 0.582715 0.894196
Si Si4 0.137404 0.578379 0.051705
Si Si5 0.685751 0.137208 0.097621
Si Si6 0.685078 0.651866 0.317876
O O1 0.428261 0.188848 0.321357
O O2 0.325538 0.379269 0.355378
O O3 0.332473 0.025683 0.256344
O O4 0.357252 0.875459 0.382692
O O5 0.478969 0.663273 0.740229
O O6 0.527416 0.530273 0.857780
O O7 0.603348 0.351776 0.948359
O O8 0.639138 0.610604 0.834448
O O9 0.588464 0.847377 0.941992
O O10 0.180378 0.562291 0.119219
O O11 0.175965 0.549987 0.982394
O O12 0.750000 0.250000 0.109389
O O13 0.750000 0.750000 0.314321
#
# Coordination Sequence:
#
# PCOD8229045 Si02
#       6
#     8   8   8   8   8   8
#     4  12  26  44  67 106 134 185 227 287 347 416
#     4  12  22  43  70  98 141 180 227 290 355 411
#     4  10  22  40  66  99 125 170 231 282 328 399
#     4  10  24  42  66  98 129 181 224 273 343 411
#     4  12  27  46  67  97 148 183 222 273 362 425
#     4  10  23  40  69  99 134 163 235 285 335 400
#
# _framework density 21.611984
#
# number of rings (size 3 to 8) (size 9 to 14) (size 15 to 20)
#    1.000    0.000    1.667    5.500    4.667    0.000 
#    0.000    5.000    0.000    0.000    0.000    0.000 
#    0.000    0.000    0.000    0.000    0.000    0.000 
#
# Total GULP energy -595081.946812 kJ/mol
# GULP energy per Si atom -12397.540559 kJ/mol
# Density = 2.156279 g / cm^3
# Si number density = 21.611984 Si / 1000 Ang^3
#
#
#
# Elastic Constant Matrix: (Units=GPa)
#
#
# Indices 1 2 3 4 5 6 
#
# 1 77.8110 19.8057 54.4176 0.0000 0.0000 0.0000
# 2 19.8057 118.2988 35.6385 0.0000 0.0000 0.0000
# 3 54.4176 35.6385 113.6960 0.0000 0.0000 0.0000
# 4 0.0000 0.0000 0.0000 28.6937 0.0000 0.0000
# 5 0.0000 0.0000 0.0000 0.0000 28.6968 0.0000
# 6 0.0000 0.0000 0.0000 0.0000 0.0000 34.6087
#
#
#
# Elastic Compliance Matrix: (Units=1/GPa)
#
#
# Indices 1 2 3 4 5 6 
#
# 1 0.019344 -0.000496 -0.009103 0.000000 0.000000 0.000000
# 2 -0.000496 0.009347 -0.002692 0.000000 0.000000 0.000000
# 3 -0.009103 -0.002692 0.013996 0.000000 0.000000 0.000000
# 4 0.000000 0.000000 0.000000 0.034851 0.000000 0.000000
# 5 0.000000 0.000000 0.000000 0.000000 0.034847 0.000000
# 6 0.000000 0.000000 0.000000 0.000000 0.000000 0.028894
#
#
# Mechanical properties :
#
#
# Convention : Reuss Voigt Hill
#
# Bulk Modulus (GPa) = 55.23528 58.83659 57.03594
# Shear Modulus (GPa) = 29.08691 31.72945 30.40818
#
# Velocity S-wave (km/s) = 3.67259 3.83579 3.75508
# Velocity P-wave (km/s) = 6.60281 6.84842 6.72674
#
# Compressibility (1/GPa) = 0.01810437
#
# Stress axis : x y z
#
# Youngs Moduli (GPa) = 51.69493 106.98183 71.44751
#
# Poissons Ratio (x) = 0.05309 0.65039
# Poissons Ratio (y) = 0.02565 0.19237
# Poissons Ratio (z) = 0.47058 0.28804
#
# Static dielectric constant tensor:
#      x y z
#    x 3.661520 0.000000 0.000000 
#    y 0.000000 3.963320 0.000000 
#    z 0.000000 0.000000 3.833980 
# 
# 
# High freq. dielectric constant tensor:
#      x y z
#    x 1.839080 0.000000 0.000000 
#    y 0.000000 1.855930 0.000000 
#    z 0.000000 0.000000 1.844680 
# 
# From -- ./inp_files/16931.got.cif
#   From: 2010.03.12/outbox.cif.g09.slc.cpg/sg56_9_cif.got.tgz:16931.got - 2010.04.16 15:33:40.
