data_PCOD8229637
_publ_section_title
;
Structure prediction by ZEFSAII (Michael W. Deem and Ramdas Pophale) SiO2 
 PCOD8229637
Probable space group: P C C N
;
_chemical_formula_sum "Si O2"
_cell_formula_units_Z 52
_cell_length_a 8.794309
_cell_length_b 24.395491
_cell_length_c 10.619317
_cell_angle_alpha 90.000000
_cell_angle_beta 90.000000
_cell_angle_gamma 90.000000
_cell_volume 2278.284050
_symmetry_space_group_name_H-M "P C C N"
_symmetry_group_IT_number 56
_symmetry_cell_setting 'orthorhombic'
loop_
_space_group_symop_operation_xyz
x,y,z
1/2-x,1/2-y,z
1/2+x,-y,1/2-z
-x,1/2+y,1/2-z
-x,-y,-z
1/2+x,1/2+y,-z
1/2-x,y,1/2+z
x,1/2-y,1/2+z
loop_
_atom_site_type_symbol
_atom_site_label
_atom_site_fract_x
_atom_site_fract_y
_atom_site_fract_z
Si Si1 0.130134 0.424646 0.167312
Si Si2 0.721837 0.622906 0.068236
Si Si3 0.548306 0.329094 0.067953
Si Si4 0.490029 0.835899 0.162398
Si Si5 0.195209 0.916311 0.376995
Si Si6 0.250000 0.750000 0.062784
Si Si7 0.347826 0.546455 0.639984
O O1 0.207724 0.409890 0.300168
O O2 0.072686 0.488082 0.165365
O O3 0.975483 0.391125 0.135094
O O4 0.248788 0.415721 0.053111
O O5 0.855646 0.669722 0.079033
O O6 0.558709 0.650273 0.044280
O O7 0.454992 0.320616 0.196617
O O8 0.689826 0.366982 0.103956
O O9 0.614553 0.271999 0.022033
O O10 0.458371 0.901227 0.149802
O O11 0.337793 0.799353 0.136704
O O12 0.219375 0.955338 0.498467
O O13 0.219445 0.948676 0.246840
#
# Coordination Sequence:
#
# PCOD8229637 Si02
#       7
#     8   8   8   8   8   4   8
#     4  12  25  41  72 100 151 193 225 287 353 417
#     4  12  25  47  69 109 145 184 231 290 356 418
#     4  11  25  47  73 104 135 180 240 287 353 420
#     4  11  25  47  70 105 141 178 240 294 343 420
#     4  11  23  43  67 100 141 188 237 284 339 426
#     4  12  24  50  78  98 132 186 230 296 362 408
#     4  11  23  40  70 102 143 187 239 281 342 422
#
# _framework density 22.824195
#
# number of rings (size 3 to 8) (size 9 to 14) (size 15 to 20)
#    0.000    0.615    4.615    2.769    4.308    0.615 
#    2.769    5.385    0.000    0.000    0.000    0.000 
#    0.000    0.000    0.000    0.000    0.000    0.000 
#
# Total GULP energy -644236.222981 kJ/mol
# GULP energy per Si atom -12389.158134 kJ/mol
# Density = 2.277225 g / cm^3
# Si number density = 22.824195 Si / 1000 Ang^3
#
#
#
# Elastic Constant Matrix: (Units=GPa)
#
#
# Indices 1 2 3 4 5 6 
#
# 1 108.1068 48.7366 49.7068 0.0000 0.0000 0.0000
# 2 48.7366 89.7639 31.0389 0.0000 0.0000 0.0000
# 3 49.7068 31.0389 185.0998 0.0000 0.0000 0.0000
# 4 0.0000 0.0000 0.0000 10.5560 0.0000 0.0000
# 5 0.0000 0.0000 0.0000 0.0000 40.5881 0.0000
# 6 0.0000 0.0000 0.0000 0.0000 0.0000 26.5984
#
#
#
# Elastic Compliance Matrix: (Units=1/GPa)
#
#
# Indices 1 2 3 4 5 6 
#
# 1 0.013253 -0.006332 -0.002497 0.000000 0.000000 0.000000
# 2 -0.006332 0.014851 -0.000790 0.000000 0.000000 0.000000
# 3 -0.002497 -0.000790 0.006206 0.000000 0.000000 0.000000
# 4 0.000000 0.000000 0.000000 0.094732 0.000000 0.000000
# 5 0.000000 0.000000 0.000000 0.000000 0.024638 0.000000
# 6 0.000000 0.000000 0.000000 0.000000 0.000000 0.037596
#
#
# Mechanical properties :
#
#
# Convention : Reuss Voigt Hill
#
# Bulk Modulus (GPa) = 66.35039 71.32612 68.83826
# Shear Modulus (GPa) = 23.19769 32.44771 27.82270
#
# Velocity S-wave (km/s) = 3.19151 3.77455 3.49521
# Velocity P-wave (km/s) = 6.53561 7.09326 6.82014
#
# Compressibility (1/GPa) = 0.01507150
#
# Stress axis : x y z
#
# Youngs Moduli (GPa) = 75.45514 67.33346 161.14631
#
# Poissons Ratio (x) = 0.42636 0.40240
# Poissons Ratio (y) = 0.47779 0.12730
# Poissons Ratio (z) = 0.18842 0.05319
#
# Static dielectric constant tensor:
#      x y z
#    x 4.129280 0.000000 0.000000 
#    y 0.000000 3.913970 0.000000 
#    z 0.000000 0.000000 4.684670 
# 
# 
# High freq. dielectric constant tensor:
#      x y z
#    x 1.902140 0.000000 0.000000 
#    y 0.000000 1.870050 0.000000 
#    z 0.000000 0.000000 1.926780 
# 
# From -- ./inp_files/6523.got.cif
#   From: 2010.03.12/outbox.cif.g09.slc.cpg/sg56_4_cif.got.tgz:6523.got - 2010.04.16 15:33:40.
