data_PCOD8229955
_publ_section_title
;
Structure prediction by ZEFSAII (Michael W. Deem and Ramdas Pophale) SiO2 
 PCOD8229955
Probable space group: P B C M
;
_chemical_formula_sum "Si O2"
_cell_formula_units_Z 56
_cell_length_a 17.858803
_cell_length_b 22.236745
_cell_length_c 8.688294
_cell_angle_alpha 90.000000
_cell_angle_beta 90.000000
_cell_angle_gamma 90.000000
_cell_volume 3450.309634
_symmetry_space_group_name_H-M "P B C M"
_symmetry_group_IT_number 57
_symmetry_cell_setting 'orthorhombic'
loop_
_space_group_symop_operation_xyz
x,y,z
-x,-y,1/2+z
x,1/2-y,-z
-x,1/2+y,1/2-z
-x,-y,-z
x,y,1/2-z
-x,1/2+y,z
x,1/2-y,1/2+z
loop_
_atom_site_type_symbol
_atom_site_label
_atom_site_fract_x
_atom_site_fract_y
_atom_site_fract_z
Si Si1 0.624264 0.907901 0.929274
Si Si2 0.753091 0.814665 0.929163
Si Si3 0.866418 0.596419 0.930959
Si Si4 0.022976 0.938428 0.428055
Si Si5 0.666788 0.034219 0.431005
Si Si6 0.479265 0.935359 0.067446
Si Si7 0.820448 0.030694 0.931288
O O1 0.617431 0.923793 0.750000
O O2 0.677896 0.851969 0.960478
O O3 0.542188 0.890470 0.997899
O O4 0.658146 0.965487 0.015244
O O5 0.771360 0.809590 0.750000
O O6 0.739046 0.750000 0.000000
O O7 0.823914 0.844789 0.011767
O O8 0.852710 0.586373 0.750000
O O9 0.955890 0.608531 0.966226
O O10 0.836350 0.538015 0.019785
O O11 0.026484 0.951119 0.250000
O O12 0.109230 0.925165 0.478761
O O13 0.000000 0.000000 0.500000
O O14 0.656744 0.038081 0.250000
O O15 0.604963 0.078354 0.509384
O O16 0.748661 0.057217 0.480703
O O17 0.482815 0.934219 0.250000
O O18 0.500000 0.000000 0.000000
O O19 0.803827 0.030995 0.750000
#
# Coordination Sequence:
#
# PCOD8229955 Si02
#       7
#     8   8   8   8   8   8   8
#     4  10  19  32  46  61  85 115 148 186 228 267
#     4  11  23  35  49  66  88 118 155 195 230 265
#     4  10  18  30  46  63  86 116 151 187 227 268
#     4   8  16  27  41  61  85 115 147 181 218 264
#     4  11  19  27  42  64  90 120 151 182 219 264
#     4  10  18  28  43  62  85 114 147 181 219 266
#     4  10  17  27  42  63  91 120 151 182 219 264
#
# _framework density 16.230426999999999
#
# number of rings (size 3 to 8) (size 9 to 14) (size 15 to 20)
#    0.000    2.000    1.429    6.000    0.000    2.857 
#    0.000    0.000    0.000    0.000    0.000    0.000 
#    0.000    1.143    0.000    8.286    0.000    4.000 
#
# Total GULP energy -693859.882386 kJ/mol
# GULP energy per Si atom -12390.355043 kJ/mol
# Density = 1.619349 g / cm^3
# Si number density = 16.230427 Si / 1000 Ang^3
#
#
#
# Elastic Constant Matrix: (Units=GPa)
#
#
# Indices 1 2 3 4 5 6 
#
# 1 162.4117 32.8067 54.8457 0.0000 0.0000 0.0000
# 2 32.8067 36.3349 18.8542 0.0000 0.0000 0.0000
# 3 54.8457 18.8542 92.6563 0.0000 0.0000 0.0000
# 4 0.0000 0.0000 0.0000 15.6269 0.0000 0.0000
# 5 0.0000 0.0000 0.0000 0.0000 28.5796 0.0000
# 6 0.0000 0.0000 0.0000 0.0000 0.0000 -16.5262
#
#
#
# Elastic Compliance Matrix: (Units=1/GPa)
#
#
# Indices 1 2 3 4 5 6 
#
# 1 0.008656 -0.005765 -0.003950 0.000000 0.000000 0.000000
# 2 -0.005765 0.034611 -0.003630 0.000000 0.000000 0.000000
# 3 -0.003950 -0.003630 0.013870 0.000000 0.000000 0.000000
# 4 0.000000 0.000000 0.000000 0.063992 0.000000 0.000000
# 5 0.000000 0.000000 0.000000 0.000000 0.034990 0.000000
# 6 0.000000 0.000000 0.000000 0.000000 0.000000 -0.060510
#
#
# Mechanical properties :
#
#
# Convention : Reuss Voigt Hill
#
# Bulk Modulus (GPa) = 32.84667 56.04625 44.44646
# Shear Modulus (GPa) = 37.75046 17.86249 27.80648
#
# Velocity S-wave (km/s) = 4.82800 3.32106 4.14361
# Velocity P-wave (km/s) = 7.16666 7.02229 7.09484
#
# Compressibility (1/GPa) = 0.03044449
#
# Stress axis : x y z
#
# Youngs Moduli (GPa) = 115.52884 28.89252 72.10002
#
# Poissons Ratio (x) = 0.16658 0.28483
# Poissons Ratio (y) = 0.66608 0.26173
# Poissons Ratio (z) = 0.45639 0.10488
#
# Static dielectric constant tensor:
#      x y z
#    x 4.121510 0.000000 0.000000 
#    y 0.000000 2.576160 0.000000 
#    z 0.000000 0.000000 3.198580 
# 
# 
# High freq. dielectric constant tensor:
#      x y z
#    x 1.654150 0.000000 0.000000 
#    y 0.000000 1.539250 0.000000 
#    z 0.000000 0.000000 1.645460 
# 
# From -- ./inp_files/7325.got.cif
#   From: 2010.03.12/outbox.cif.g09.slc.cpg/sg57_4_cif.got.tgz:7325.got - 2010.04.16 15:48:40.
