data_PCOD8229972
_publ_section_title
;
Structure prediction by ZEFSAII (Michael W. Deem and Ramdas Pophale) SiO2 
 PCOD8229972
Probable space group: P B C M
;
_chemical_formula_sum "Si O2"
_cell_formula_units_Z 40
_cell_length_a 14.923165
_cell_length_b 14.894817
_cell_length_c 8.773628
_cell_angle_alpha 90.000000
_cell_angle_beta 90.000000
_cell_angle_gamma 90.000000
_cell_volume 1950.182833
_symmetry_space_group_name_H-M "P B C M"
_symmetry_group_IT_number 57
_symmetry_cell_setting 'orthorhombic'
loop_
_space_group_symop_operation_xyz
x,y,z
-x,-y,1/2+z
x,1/2-y,-z
-x,1/2+y,1/2-z
-x,-y,-z
x,y,1/2-z
-x,1/2+y,z
x,1/2-y,1/2+z
loop_
_atom_site_type_symbol
_atom_site_label
_atom_site_fract_x
_atom_site_fract_y
_atom_site_fract_z
Si Si1 0.408505 0.150575 0.069210
Si Si2 0.229115 0.346611 0.428499
Si Si3 0.779298 0.347723 0.072792
Si Si4 0.418366 0.653240 0.573253
Si Si5 0.096791 0.995392 0.572135
O O1 0.405943 0.149683 0.250000
O O2 0.411453 0.250000 0.000000
O O3 0.317275 0.107155 0.004407
O O4 0.499515 0.100324 0.010640
O O5 0.206853 0.250000 0.500000
O O6 0.246770 0.334336 0.250000
O O7 0.146202 0.411196 0.463784
O O8 0.801397 0.338037 0.250000
O O9 0.679485 0.391295 0.049566
O O10 0.787432 0.250000 0.000000
O O11 0.850458 0.412269 0.996855
O O12 0.410086 0.750000 0.500000
O O13 0.443020 0.661613 0.750000
O O14 0.087830 0.978543 0.750000
O O15 0.000000 0.000000 0.500000
#
# Coordination Sequence:
#
# PCOD8229972 Si02
#       5
#     8   8   8   8   8
#     4  10  17  27  49  80 114 152 189 229 276 332
#     4  10  21  38  60  86 115 151 191 235 286 341
#     4  10  21  38  62  89 119 155 195 238 288 343
#     4   9  16  28  49  79 114 151 189 230 275 331
#     4  11  25  43  63  86 115 149 191 244 298 351
#
# _framework density 20.510897
#
# number of rings (size 3 to 8) (size 9 to 14) (size 15 to 20)
#    0.000    2.000    0.000    6.600    0.000    6.400 
#    0.000    3.000    0.000    0.000    0.000    0.000 
#    0.000    0.000    0.000    0.000    0.000    0.000 
#
# Total GULP energy -495757.011767 kJ/mol
# GULP energy per Si atom -12393.925294 kJ/mol
# Density = 2.046421 g / cm^3
# Si number density = 20.510897 Si / 1000 Ang^3
#
#
#
# Elastic Constant Matrix: (Units=GPa)
#
#
# Indices 1 2 3 4 5 6 
#
# 1 207.2069 65.0426 110.8521 0.0000 0.0000 0.0000
# 2 65.0426 78.2198 61.2429 0.0000 0.0000 0.0000
# 3 110.8521 61.2429 172.8951 0.0000 0.0000 0.0000
# 4 0.0000 0.0000 0.0000 24.8492 0.0000 0.0000
# 5 0.0000 0.0000 0.0000 0.0000 44.9362 0.0000
# 6 0.0000 0.0000 0.0000 0.0000 0.0000 86.3293
#
#
#
# Elastic Compliance Matrix: (Units=1/GPa)
#
#
# Indices 1 2 3 4 5 6 
#
# 1 0.008040 -0.003666 -0.003856 0.000000 0.000000 0.000000
# 2 -0.003666 0.019363 -0.004508 0.000000 0.000000 0.000000
# 3 -0.003856 -0.004508 0.009853 0.000000 0.000000 0.000000
# 4 0.000000 0.000000 0.000000 0.040243 0.000000 0.000000
# 5 0.000000 0.000000 0.000000 0.000000 0.022254 0.000000
# 6 0.000000 0.000000 0.000000 0.000000 0.000000 0.011584
#
#
# Mechanical properties :
#
#
# Convention : Reuss Voigt Hill
#
# Bulk Modulus (GPa) = 75.78735 103.62189 89.70462
# Shear Modulus (GPa) = 35.76666 45.96854 40.86760
#
# Velocity S-wave (km/s) = 4.18040 4.73924 4.46857
# Velocity P-wave (km/s) = 7.76730 8.97649 8.39370
#
# Compressibility (1/GPa) = 0.01319481
#
# Stress axis : x y z
#
# Youngs Moduli (GPa) = 124.37940 51.64565 101.49134
#
# Poissons Ratio (x) = 0.18935 0.39137
# Poissons Ratio (y) = 0.45601 0.45752
# Poissons Ratio (z) = 0.47962 0.23282
#
# Static dielectric constant tensor:
#      x y z
#    x 4.617750 0.000000 0.000000 
#    y 0.000000 3.526120 0.000000 
#    z 0.000000 0.000000 3.862800 
# 
# 
# High freq. dielectric constant tensor:
#      x y z
#    x 1.820370 0.000000 0.000000 
#    y 0.000000 1.770950 0.000000 
#    z 0.000000 0.000000 1.820980 
# 
# From -- ./inp_files/4284.got.cif
#   From: 2010.03.12/outbox.cif.g09.slc.cpg/sg57_3_cif.got.tgz:4284.got - 2010.04.16 15:48:40.
