data_PCOD8229711
_publ_section_title
;
Structure prediction by ZEFSAII (Michael W. Deem and Ramdas Pophale) SiO2 
 PCOD8229711
Probable space group: P C C N
;
_chemical_formula_sum "Si O2"
_cell_formula_units_Z 44
_cell_length_a 20.149134
_cell_length_b 7.466395
_cell_length_c 13.891640
_cell_angle_alpha 90.000000
_cell_angle_beta 90.000000
_cell_angle_gamma 90.000000
_cell_volume 2089.877678
_symmetry_space_group_name_H-M "P C C N"
_symmetry_group_IT_number 56
_symmetry_cell_setting 'orthorhombic'
loop_
_space_group_symop_operation_xyz
x,y,z
1/2-x,1/2-y,z
1/2+x,-y,1/2-z
-x,1/2+y,1/2-z
-x,-y,-z
1/2+x,1/2+y,-z
1/2-x,y,1/2+z
x,1/2-y,1/2+z
loop_
_atom_site_type_symbol
_atom_site_label
_atom_site_fract_x
_atom_site_fract_y
_atom_site_fract_z
Si Si1 0.354042 0.640792 0.498355
Si Si2 0.428017 0.630221 0.299986
Si Si3 0.651386 0.844805 0.299825
Si Si4 0.250000 0.250000 0.348422
Si Si5 0.709276 0.984258 0.490102
Si Si6 0.573649 0.011013 0.817843
O O1 0.382376 0.599524 0.393204
O O2 0.286473 0.534733 0.519652
O O3 0.408112 0.589994 0.578120
O O4 0.339947 0.850328 0.505105
O O5 0.404218 0.497152 0.214998
O O6 0.502224 0.578932 0.327900
O O7 0.424038 0.833997 0.262653
O O8 0.706386 0.880059 0.218162
O O9 0.686588 0.860317 0.402435
O O10 0.623998 0.644529 0.286622
O O11 0.299444 0.131063 0.413384
#
# Coordination Sequence:
#
# PCOD8229711 Si02
#       6
#     8   8   8   4   8   8
#     4  11  24  45  70 102 140 177 227 286 342 405
#     4  12  25  47  70 101 139 184 228 282 340 408
#     4  12  25  44  71  99 138 180 226 284 342 407
#     4  12  22  42  68 100 136 182 222 276 350 406
#     4  11  24  43  69 103 139 175 227 282 341 412
#     4  12  25  48  71 102 138 181 235 280 340 408
#
# _framework density 21.053864999999998
#
# number of rings (size 3 to 8) (size 9 to 14) (size 15 to 20)
#    0.000    0.364    5.455    4.364    0.000    0.000 
#    0.000    1.818    0.000    0.000    0.000    0.000 
#    0.000    0.000    0.000    0.000    0.000    0.000 
#
# Total GULP energy -545753.136897 kJ/mol
# GULP energy per Si atom -12403.480384 kJ/mol
# Density = 2.100595 g / cm^3
# Si number density = 21.053865 Si / 1000 Ang^3
#
#
#
# Elastic Constant Matrix: (Units=GPa)
#
#
# Indices 1 2 3 4 5 6 
#
# 1 94.2461 39.8070 50.7782 0.0000 0.0000 0.0000
# 2 39.8070 121.9110 34.7496 0.0000 0.0000 0.0000
# 3 50.7782 34.7496 106.7376 0.0000 0.0000 0.0000
# 4 0.0000 0.0000 0.0000 22.3844 0.0000 0.0000
# 5 0.0000 0.0000 0.0000 0.0000 23.0084 0.0000
# 6 0.0000 0.0000 0.0000 0.0000 0.0000 39.5656
#
#
#
# Elastic Compliance Matrix: (Units=1/GPa)
#
#
# Indices 1 2 3 4 5 6 
#
# 1 0.015340 -0.003228 -0.006246 0.000000 0.000000 0.000000
# 2 -0.003228 0.009721 -0.001629 0.000000 0.000000 0.000000
# 3 -0.006246 -0.001629 0.012871 0.000000 0.000000 0.000000
# 4 0.000000 0.000000 0.000000 0.044674 0.000000 0.000000
# 5 0.000000 0.000000 0.000000 0.000000 0.043462 0.000000
# 6 0.000000 0.000000 0.000000 0.000000 0.000000 0.025274
#
#
# Mechanical properties :
#
#
# Convention : Reuss Voigt Hill
#
# Bulk Modulus (GPa) = 63.59746 63.72935 63.66341
# Shear Modulus (GPa) = 27.96560 30.16235 29.06397
#
# Velocity S-wave (km/s) = 3.64852 3.78911 3.71948
# Velocity P-wave (km/s) = 6.92976 7.03410 6.98212
#
# Compressibility (1/GPa) = 0.01572390
#
# Stress axis : x y z
#
# Youngs Moduli (GPa) = 65.19104 102.86843 77.69555
#
# Poissons Ratio (x) = 0.33208 0.48532
# Poissons Ratio (y) = 0.21045 0.12657
# Poissons Ratio (z) = 0.40721 0.16758
#
# Static dielectric constant tensor:
#      x y z
#    x 3.799850 0.000000 0.000000 
#    y 0.000000 3.974630 0.000000 
#    z 0.000000 0.000000 3.771560 
# 
# 
# High freq. dielectric constant tensor:
#      x y z
#    x 1.825700 0.000000 0.000000 
#    y 0.000000 1.840070 0.000000 
#    z 0.000000 0.000000 1.832540 
# 
# From -- ./inp_files/8843.got.cif
#   From: 2010.03.12/outbox.cif.g09.slc.cpg/sg56_5_cif.got.tgz:8843.got - 2010.04.16 15:33:40.
