data_PCOD8229488
_publ_section_title
;
Structure prediction by ZEFSAII (Michael W. Deem and Ramdas Pophale) SiO2 
 PCOD8229488
Probable space group: P C C N
;
_chemical_formula_sum "Si O2"
_cell_formula_units_Z 36
_cell_length_a 11.130323
_cell_length_b 11.936842
_cell_length_c 12.061095
_cell_angle_alpha 90.000000
_cell_angle_beta 90.000000
_cell_angle_gamma 90.000000
_cell_volume 1602.448022
_symmetry_space_group_name_H-M "P C C N"
_symmetry_group_IT_number 56
_symmetry_cell_setting 'orthorhombic'
loop_
_space_group_symop_operation_xyz
x,y,z
1/2-x,1/2-y,z
1/2+x,-y,1/2-z
-x,1/2+y,1/2-z
-x,-y,-z
1/2+x,1/2+y,-z
1/2-x,y,1/2+z
x,1/2-y,1/2+z
loop_
_atom_site_type_symbol
_atom_site_label
_atom_site_fract_x
_atom_site_fract_y
_atom_site_fract_z
Si Si1 0.340583 0.554028 0.718495
Si Si2 0.071178 0.075019 0.915041
Si Si3 0.712830 0.871941 0.939835
Si Si4 0.964628 0.304396 0.969338
Si Si5 0.250000 0.750000 0.865420
O O1 0.432395 0.487888 0.797870
O O2 0.258566 0.460655 0.657868
O O3 0.412236 0.615401 0.622640
O O4 0.260709 0.640642 0.788277
O O5 0.009546 0.195339 0.903712
O O6 0.209081 0.092333 0.953600
O O7 0.000000 0.000000 0.000000
O O8 0.750000 0.750000 0.894735
O O9 0.572299 0.870509 0.970668
O O10 0.866946 0.266555 0.059513
#
# Coordination Sequence:
#
# PCOD8229488 Si02
#       5
#     8   8   8   8   4
#     4  12  26  43  81 102 145 194 241 292 376 431
#     4  11  25  46  72 105 147 189 240 304 356 436
#     4  10  26  49  72 106 149 189 245 303 361 441
#     4  11  26  50  69 107 151 185 247 304 368 438
#     4  12  26  46  72 112 144 194 234 312 366 446
#
# _framework density 22.465627000000001
#
# number of rings (size 3 to 8) (size 9 to 14) (size 15 to 20)
#    0.000    0.889    2.222    2.667    6.222    4.444 
#    0.000    0.000    0.000    0.000    0.000    0.000 
#    0.000    0.000    0.000    0.000    0.000    0.000 
#
# Total GULP energy -446522.064004 kJ/mol
# GULP energy per Si atom -12403.390667 kJ/mol
# Density = 2.241449 g / cm^3
# Si number density = 22.465627 Si / 1000 Ang^3
#
#
#
# Elastic Constant Matrix: (Units=GPa)
#
#
# Indices 1 2 3 4 5 6 
#
# 1 111.1174 30.6258 34.2791 0.0000 0.0000 0.0000
# 2 30.6258 150.8157 74.0671 0.0000 0.0000 0.0000
# 3 34.2791 74.0671 125.9611 0.0000 0.0000 0.0000
# 4 0.0000 0.0000 0.0000 61.6020 0.0000 0.0000
# 5 0.0000 0.0000 0.0000 0.0000 2.3411 0.0000
# 6 0.0000 0.0000 0.0000 0.0000 0.0000 32.4456
#
#
#
# Elastic Compliance Matrix: (Units=1/GPa)
#
#
# Indices 1 2 3 4 5 6 
#
# 1 0.009924 -0.000969 -0.002131 0.000000 0.000000 0.000000
# 2 -0.000969 0.009417 -0.005274 0.000000 0.000000 0.000000
# 3 -0.002131 -0.005274 0.011620 0.000000 0.000000 0.000000
# 4 0.000000 0.000000 0.000000 0.016233 0.000000 0.000000
# 5 0.000000 0.000000 0.000000 0.000000 0.427147 0.000000
# 6 0.000000 0.000000 0.000000 0.000000 0.000000 0.030821
#
#
# Mechanical properties :
#
#
# Convention : Reuss Voigt Hill
#
# Bulk Modulus (GPa) = 70.35333 73.98201 72.16767
# Shear Modulus (GPa) = 9.49401 35.87256 22.68328
#
# Velocity S-wave (km/s) = 2.05796 4.00030 3.18101
# Velocity P-wave (km/s) = 6.08530 7.37152 6.75907
#
# Compressibility (1/GPa) = 0.01421397
#
# Stress axis : x y z
#
# Youngs Moduli (GPa) = 100.76683 106.18630 86.05766
#
# Poissons Ratio (x) = 0.10285 0.18340
# Poissons Ratio (y) = 0.09760 0.45387
# Poissons Ratio (z) = 0.21475 0.56003
#
# Static dielectric constant tensor:
#      x y z
#    x 3.722460 0.000000 0.000000 
#    y 0.000000 4.610530 0.000000 
#    z 0.000000 0.000000 4.213230 
# 
# 
# High freq. dielectric constant tensor:
#      x y z
#    x 1.881610 0.000000 0.000000 
#    y 0.000000 1.918110 0.000000 
#    z 0.000000 0.000000 1.884750 
# 
# From -- ./inp_files/6838.got.cif
#   From: 2010.03.12/outbox.cif.g09.slc.cpg/sg56_4_cif.got.tgz:6838.got - 2010.04.16 15:33:40.
