data_PCOD8229292
_publ_section_title
;
Structure prediction by ZEFSAII (Michael W. Deem and Ramdas Pophale) SiO2 
 PCOD8229292
Probable space group: P C C N
;
_chemical_formula_sum "Si O2"
_cell_formula_units_Z 32
_cell_length_a 11.302453
_cell_length_b 9.899421
_cell_length_c 13.478154
_cell_angle_alpha 90.000000
_cell_angle_beta 90.000000
_cell_angle_gamma 90.000000
_cell_volume 1508.040198
_symmetry_space_group_name_H-M "P C C N"
_symmetry_group_IT_number 56
_symmetry_cell_setting 'orthorhombic'
loop_
_space_group_symop_operation_xyz
x,y,z
1/2-x,1/2-y,z
1/2+x,-y,1/2-z
-x,1/2+y,1/2-z
-x,-y,-z
1/2+x,1/2+y,-z
1/2-x,y,1/2+z
x,1/2-y,1/2+z
loop_
_atom_site_type_symbol
_atom_site_label
_atom_site_fract_x
_atom_site_fract_y
_atom_site_fract_z
Si Si1 0.013973 0.204099 0.051447
Si Si2 0.849911 0.439784 0.406832
Si Si3 0.631441 0.947744 0.017820
Si Si4 0.652133 0.142380 0.182216
O O1 0.972190 0.295522 0.144279
O O2 0.902884 0.175522 0.978708
O O3 0.062246 0.065890 0.094938
O O4 0.119936 0.284471 0.992857
O O5 0.719139 0.487120 0.436967
O O6 0.846640 0.376723 0.298687
O O7 0.675259 0.998228 0.126522
O O8 0.500000 0.000000 0.000000
O O9 0.750000 0.250000 0.150422
#
# Coordination Sequence:
#
# PCOD8229292 Si02
#       4
#     8   8   8   8
#     4  10  24  45  66  97 139 170 231 280 346 404
#     4  11  24  43  68  99 134 180 222 291 336 413
#     4  10  23  44  66  94 133 179 221 278 332 404
#     4  11  24  39  70  97 133 176 227 267 351 412
#
# _framework density 21.219593
#
# number of rings (size 3 to 8) (size 9 to 14) (size 15 to 20)
#    0.000    1.500    2.500    0.750   10.500    2.000 
#    0.000    2.500    0.000    0.000    0.000    0.000 
#    0.000    0.000    0.000    0.000    0.000    0.000 
#
# Total GULP energy -396673.254756 kJ/mol
# GULP energy per Si atom -12396.039211 kJ/mol
# Density = 2.117130 g / cm^3
# Si number density = 21.219593 Si / 1000 Ang^3
#
#
#
# Elastic Constant Matrix: (Units=GPa)
#
#
# Indices 1 2 3 4 5 6 
#
# 1 103.8832 31.0478 50.5680 0.0000 0.0000 0.0000
# 2 31.0478 93.7143 35.7879 0.0000 0.0000 0.0000
# 3 50.5680 35.7879 120.5343 0.0000 0.0000 0.0000
# 4 0.0000 0.0000 0.0000 35.1322 0.0000 0.0000
# 5 0.0000 0.0000 0.0000 0.0000 30.3646 0.0000
# 6 0.0000 0.0000 0.0000 0.0000 0.0000 43.8267
#
#
#
# Elastic Compliance Matrix: (Units=1/GPa)
#
#
# Indices 1 2 3 4 5 6 
#
# 1 0.012567 -0.002425 -0.004552 0.000000 0.000000 0.000000
# 2 -0.002425 0.012503 -0.002695 0.000000 0.000000 0.000000
# 3 -0.004552 -0.002695 0.011006 0.000000 0.000000 0.000000
# 4 0.000000 0.000000 0.000000 0.028464 0.000000 0.000000
# 5 0.000000 0.000000 0.000000 0.000000 0.032933 0.000000
# 6 0.000000 0.000000 0.000000 0.000000 0.000000 0.022817
#
#
# Mechanical properties :
#
#
# Convention : Reuss Voigt Hill
#
# Bulk Modulus (GPa) = 59.76528 61.43770 60.60149
# Shear Modulus (GPa) = 34.43229 35.24656 34.83942
#
# Velocity S-wave (km/s) = 4.03260 4.08001 4.05637
# Velocity P-wave (km/s) = 7.06461 7.15621 7.11056
#
# Compressibility (1/GPa) = 0.01673212
#
# Stress axis : x y z
#
# Youngs Moduli (GPa) = 79.57428 79.97880 90.85656
#
# Poissons Ratio (x) = 0.19395 0.41360
# Poissons Ratio (y) = 0.19297 0.24486
# Poissons Ratio (z) = 0.36224 0.21554
#
# Static dielectric constant tensor:
#      x y z
#    x 3.986340 0.000000 0.000000 
#    y 0.000000 4.627520 0.000000 
#    z 0.000000 0.000000 3.669530 
# 
# 
# High freq. dielectric constant tensor:
#      x y z
#    x 1.835910 0.000000 0.000000 
#    y 0.000000 1.847160 0.000000 
#    z 0.000000 0.000000 1.816620 
# 
# From -- ./inp_files/6792.got.cif
#   From: 2010.03.12/outbox.cif.g09.slc.cpg/sg56_4_cif.got.tgz:6792.got - 2010.04.16 15:33:40.
