data_PCOD8229839
_publ_section_title
;
Structure prediction by ZEFSAII (Michael W. Deem and Ramdas Pophale) SiO2 
 PCOD8229839
Probable space group: P C C N
;
_chemical_formula_sum "Si O2"
_cell_formula_units_Z 40
_cell_length_a 6.305935
_cell_length_b 11.518812
_cell_length_c 23.573451
_cell_angle_alpha 90.000000
_cell_angle_beta 90.000000
_cell_angle_gamma 90.000000
_cell_volume 1712.301926
_symmetry_space_group_name_H-M "P C C N"
_symmetry_group_IT_number 56
_symmetry_cell_setting 'orthorhombic'
loop_
_space_group_symop_operation_xyz
x,y,z
1/2-x,1/2-y,z
1/2+x,-y,1/2-z
-x,1/2+y,1/2-z
-x,-y,-z
1/2+x,1/2+y,-z
1/2-x,y,1/2+z
x,1/2-y,1/2+z
loop_
_atom_site_type_symbol
_atom_site_label
_atom_site_fract_x
_atom_site_fract_y
_atom_site_fract_z
Si Si1 0.250000 0.750000 0.362942
Si Si2 0.956612 0.561078 0.310635
Si Si3 0.550340 0.325388 0.411191
Si Si4 0.750000 0.750000 0.995605
Si Si5 0.118723 0.085645 0.593702
Si Si6 0.780361 0.871792 0.698426
O O1 0.390572 0.830879 0.322805
O O2 0.404922 0.665074 0.400066
O O3 0.740497 0.574099 0.346367
O O4 0.905787 0.549454 0.243549
O O5 0.073157 0.439536 0.324542
O O6 0.750000 0.250000 0.392558
O O7 0.454600 0.256376 0.464509
O O8 0.579830 0.457873 0.430700
O O9 0.406108 0.332335 0.356432
O O10 0.772733 0.859920 0.953687
O O11 0.750000 0.750000 0.731961
#
# Coordination Sequence:
#
# PCOD8229839 Si02
#       6
#     4   8   8   4   8   8
#     4  12  24  48  78 112 148 200 254 308 386 452
#     4  12  27  47  78 113 152 199 247 313 383 467
#     4  12  28  49  74 110 151 202 249 321 388 451
#     4  12  28  50  72 112 146 206 260 320 376 448
#     4  12  26  51  78 109 149 198 261 310 380 459
#     4  12  26  47  76 112 156 193 247 310 391 462
#
# _framework density 23.360365999999999
#
# number of rings (size 3 to 8) (size 9 to 14) (size 15 to 20)
#    0.000    0.000    5.000    4.200    5.600    0.800 
#    0.000    0.000    0.000    0.000    0.000    0.000 
#    0.000    0.000    0.000    0.000    0.000    0.000 
#
# Total GULP energy -495835.077590 kJ/mol
# GULP energy per Si atom -12395.876940 kJ/mol
# Density = 2.330720 g / cm^3
# Si number density = 23.360366 Si / 1000 Ang^3
#
#
#
# Elastic Constant Matrix: (Units=GPa)
#
#
# Indices 1 2 3 4 5 6 
#
# 1 115.4614 78.0569 52.4386 0.0000 0.0000 0.0000
# 2 78.0569 151.7982 38.4152 0.0000 0.0000 0.0000
# 3 52.4386 38.4152 139.1891 0.0000 0.0000 0.0000
# 4 0.0000 0.0000 0.0000 9.3790 0.0000 0.0000
# 5 0.0000 0.0000 0.0000 0.0000 25.2793 0.0000
# 6 0.0000 0.0000 0.0000 0.0000 0.0000 59.2971
#
#
#
# Elastic Compliance Matrix: (Units=1/GPa)
#
#
# Indices 1 2 3 4 5 6 
#
# 1 0.014909 -0.006714 -0.003764 0.000000 0.000000 0.000000
# 2 -0.006714 0.010106 -0.000260 0.000000 0.000000 0.000000
# 3 -0.003764 -0.000260 0.008674 0.000000 0.000000 0.000000
# 4 0.000000 0.000000 0.000000 0.106621 0.000000 0.000000
# 5 0.000000 0.000000 0.000000 0.000000 0.039558 0.000000
# 6 0.000000 0.000000 0.000000 0.000000 0.000000 0.016864
#
#
# Mechanical properties :
#
#
# Convention : Reuss Voigt Hill
#
# Bulk Modulus (GPa) = 81.87318 82.69667 82.28492
# Shear Modulus (GPa) = 22.49421 34.62696 28.56059
#
# Velocity S-wave (km/s) = 3.10647 3.85424 3.50038
# Velocity P-wave (km/s) = 6.92754 7.43533 7.18592
#
# Compressibility (1/GPa) = 0.01221401
#
# Stress axis : x y z
#
# Youngs Moduli (GPa) = 67.07186 98.95222 115.28455
#
# Poissons Ratio (x) = 0.66437 0.43393
# Poissons Ratio (y) = 0.45033 0.02993
# Poissons Ratio (z) = 0.25246 0.02569
#
# Static dielectric constant tensor:
#      x y z
#    x 4.077060 0.000000 0.000000 
#    y 0.000000 2.146360 0.000000 
#    z 0.000000 0.000000 4.027720 
# 
# 
# High freq. dielectric constant tensor:
#      x y z
#    x 1.920920 0.000000 0.000000 
#    y 0.000000 1.947780 0.000000 
#    z 0.000000 0.000000 1.927300 
# 
# From -- ./inp_files/21570.got.cif
#   From: 2010.03.12/outbox.cif.g09.slc.cpg/sg56_11_cif.got.tgz:21570.got - 2010.04.16 15:33:40.
