data_PCOD8229285
_publ_section_title
;
Structure prediction by ZEFSAII (Michael W. Deem and Ramdas Pophale) SiO2 
 PCOD8229285
Probable space group: P C C N
;
_chemical_formula_sum "Si O2"
_cell_formula_units_Z 60
_cell_length_a 20.372462
_cell_length_b 11.276689
_cell_length_c 12.539763
_cell_angle_alpha 90.000000
_cell_angle_beta 90.000000
_cell_angle_gamma 90.000000
_cell_volume 2880.808887
_symmetry_space_group_name_H-M "P C C N"
_symmetry_group_IT_number 56
_symmetry_cell_setting 'orthorhombic'
loop_
_space_group_symop_operation_xyz
x,y,z
1/2-x,1/2-y,z
1/2+x,-y,1/2-z
-x,1/2+y,1/2-z
-x,-y,-z
1/2+x,1/2+y,-z
1/2-x,y,1/2+z
x,1/2-y,1/2+z
loop_
_atom_site_type_symbol
_atom_site_label
_atom_site_fract_x
_atom_site_fract_y
_atom_site_fract_z
Si Si1 0.750000 0.250000 0.055287
Si Si2 0.440153 0.826453 0.479927
Si Si3 0.700694 0.063860 0.895950
Si Si4 0.445980 0.343559 0.160011
Si Si5 0.497338 0.877764 0.116015
Si Si6 0.912126 0.902175 0.431178
Si Si7 0.148648 0.945829 0.148176
Si Si8 0.644735 0.286086 0.212738
O O1 0.703047 0.321751 0.132808
O O2 0.703972 0.166887 0.983770
O O3 0.511522 0.882096 0.446328
O O4 0.447891 0.713377 0.557272
O O5 0.387431 0.910978 0.537140
O O6 0.419460 0.790306 0.359921
O O7 0.774648 0.025438 0.868060
O O8 0.653476 0.113606 0.802248
O O9 0.662539 0.949012 0.938249
O O10 0.491195 0.332673 0.264904
O O11 0.412738 0.216494 0.139081
O O12 0.388797 0.437360 0.187242
O O13 0.463802 0.006456 0.120922
O O14 0.566031 0.879802 0.052852
O O15 0.146524 0.844844 0.237624
#
# Coordination Sequence:
#
# PCOD8229285 Si02
#       8
#     4   8   8   8   8   8   8   8
#     4  12  20  38  66 100 126 162 214 274 330 386
#     4  11  23  43  66  98 129 166 225 279 331 383
#     4  12  23  42  65  97 135 170 222 273 333 399
#     4  11  26  42  64  95 134 177 219 271 330 404
#     4  10  23  43  71  95 125 176 221 278 331 390
#     4  10  24  43  65  96 131 176 221 272 329 401
#     4  12  24  39  65  99 132 175 215 273 333 397
#     4  12  22  39  67  99 128 165 216 279 335 382
#
# _framework density 20.827484999999999
#
# number of rings (size 3 to 8) (size 9 to 14) (size 15 to 20)
#    0.000    0.800    4.000    3.600    9.333    0.533 
#    4.800    0.000    0.000    3.200    0.000    0.000 
#    0.000    0.000    0.000    0.000    0.000    0.000 
#
# Total GULP energy -743576.615532 kJ/mol
# GULP energy per Si atom -12392.943592 kJ/mol
# Density = 2.078008 g / cm^3
# Si number density = 20.827485 Si / 1000 Ang^3
#
#
#
# Elastic Constant Matrix: (Units=GPa)
#
#
# Indices 1 2 3 4 5 6 
#
# 1 91.9050 49.6385 38.9519 0.0000 0.0000 0.0000
# 2 49.6385 77.4831 40.0622 0.0000 0.0000 0.0000
# 3 38.9519 40.0622 107.8113 0.0000 0.0000 0.0000
# 4 0.0000 0.0000 0.0000 -9.1905 0.0000 0.0000
# 5 0.0000 0.0000 0.0000 0.0000 33.7425 0.0000
# 6 0.0000 0.0000 0.0000 0.0000 0.0000 43.9463
#
#
#
# Elastic Compliance Matrix: (Units=1/GPa)
#
#
# Indices 1 2 3 4 5 6 
#
# 1 0.017218 -0.009673 -0.002627 0.000000 0.000000 0.000000
# 2 -0.009673 0.021409 -0.004461 0.000000 0.000000 0.000000
# 3 -0.002627 -0.004461 0.011882 0.000000 0.000000 0.000000
# 4 0.000000 0.000000 0.000000 -0.108807 0.000000 0.000000
# 5 0.000000 0.000000 0.000000 0.000000 0.029636 0.000000
# 6 0.000000 0.000000 0.000000 0.000000 0.000000 0.022755
#
#
# Mechanical properties :
#
#
# Convention : Reuss Voigt Hill
#
# Bulk Modulus (GPa) = 58.86036 59.38939 59.12488
# Shear Modulus (GPa) = 150.25591 23.60275 86.92933
#
# Velocity S-wave (km/s) = 8.50292 3.37003 6.46749
# Velocity P-wave (km/s) = 11.16789 6.61208 9.17719
#
# Compressibility (1/GPa) = 0.01698936
#
# Stress axis : x y z
#
# Youngs Moduli (GPa) = 58.07789 46.70910 84.16023
#
# Poissons Ratio (x) = 0.45180 0.22106
# Poissons Ratio (y) = 0.56176 0.37543
# Poissons Ratio (z) = 0.15255 0.20836
#
# Static dielectric constant tensor:
#      x y z
#    x 4.078350 0.000000 0.000000 
#    y 0.000000 3.515180 0.000000 
#    z 0.000000 0.000000 3.947650 
# 
# 
# High freq. dielectric constant tensor:
#      x y z
#    x 1.829070 0.000000 0.000000 
#    y 0.000000 1.786690 0.000000 
#    z 0.000000 0.000000 1.827180 
# 
# From -- ./inp_files/8703.got.cif
#   From: 2010.03.12/outbox.cif.g09.slc.cpg/sg56_5_cif.got.tgz:8703.got - 2010.04.16 15:33:40.
