data_PCOD8229618
_publ_section_title
;
Structure prediction by ZEFSAII (Michael W. Deem and Ramdas Pophale) SiO2 
 PCOD8229618
Probable space group: P C C N
;
_chemical_formula_sum "Si O2"
_cell_formula_units_Z 56
_cell_length_a 26.543333
_cell_length_b 6.508266
_cell_length_c 13.918651
_cell_angle_alpha 90.000000
_cell_angle_beta 90.000000
_cell_angle_gamma 90.000000
_cell_volume 2404.461877
_symmetry_space_group_name_H-M "P C C N"
_symmetry_group_IT_number 56
_symmetry_cell_setting 'orthorhombic'
loop_
_space_group_symop_operation_xyz
x,y,z
1/2-x,1/2-y,z
1/2+x,-y,1/2-z
-x,1/2+y,1/2-z
-x,-y,-z
1/2+x,1/2+y,-z
1/2-x,y,1/2+z
x,1/2-y,1/2+z
loop_
_atom_site_type_symbol
_atom_site_label
_atom_site_fract_x
_atom_site_fract_y
_atom_site_fract_z
Si Si1 0.539147 0.328706 0.973580
Si Si2 0.548011 0.022447 0.814179
Si Si3 0.803172 0.136304 0.506404
Si Si4 0.364163 0.027451 0.508058
Si Si5 0.057243 0.644756 0.826237
Si Si6 0.853757 0.839225 0.652523
Si Si7 0.654717 0.651324 0.350231
O O1 0.522178 0.175692 0.890892
O O2 0.586116 0.459451 0.935385
O O3 0.500000 0.500000 0.000000
O O4 0.554252 0.182764 0.061321
O O5 0.573799 0.145157 0.726367
O O6 0.498839 0.895226 0.781639
O O7 0.594240 0.890044 0.857840
O O8 0.750000 0.250000 0.506539
O O9 0.840250 0.320082 0.531412
O O10 0.811561 0.971788 0.593596
O O11 0.814784 0.038143 0.400244
O O12 0.377583 0.171394 0.418028
O O13 0.330673 0.151005 0.584883
O O14 0.099417 0.471467 0.806274
O O15 0.828406 0.713737 0.741996
#
# Coordination Sequence:
#
# PCOD8229618 Si02
#       7
#     8   8   8   8   8   8   8
#     4  12  21  36  63  94 139 186 232 276 346 416
#     4  12  23  39  61 100 144 186 234 284 340 412
#     4  11  26  50  75 102 142 181 230 302 362 411
#     4  11  22  45  67 100 140 179 231 297 342 408
#     4  12  23  39  61 100 144 186 234 284 340 412
#     4  11  24  43  72 103 140 185 236 289 351 422
#     4  11  24  43  72 103 140 185 236 289 351 422
#
# _framework density 23.290035
#
# number of rings (size 3 to 8) (size 9 to 14) (size 15 to 20)
#    0.000    0.571    2.857    6.429    0.000    2.286 
#    0.000    4.286    0.000    0.000    0.000    0.000 
#    0.000    0.000    0.000    0.000    0.000    0.000 
#
# Total GULP energy -693978.675210 kJ/mol
# GULP energy per Si atom -12392.476343 kJ/mol
# Density = 2.323703 g / cm^3
# Si number density = 23.290035 Si / 1000 Ang^3
#
#
#
# Elastic Constant Matrix: (Units=GPa)
#
#
# Indices 1 2 3 4 5 6 
#
# 1 103.6554 30.8224 16.8518 0.0000 0.0000 0.0000
# 2 30.8224 103.9379 32.6528 0.0000 0.0000 0.0000
# 3 16.8518 32.6528 107.0919 0.0000 0.0000 0.0000
# 4 0.0000 0.0000 0.0000 43.4054 0.0000 0.0000
# 5 0.0000 0.0000 0.0000 0.0000 21.6090 0.0000
# 6 0.0000 0.0000 0.0000 0.0000 0.0000 39.4857
#
#
#
# Elastic Compliance Matrix: (Units=1/GPa)
#
#
# Indices 1 2 3 4 5 6 
#
# 1 0.010640 -0.002908 -0.000788 0.000000 0.000000 0.000000
# 2 -0.002908 0.011435 -0.003029 0.000000 0.000000 0.000000
# 3 -0.000788 -0.003029 0.010385 0.000000 0.000000 0.000000
# 4 0.000000 0.000000 0.000000 0.023039 0.000000 0.000000
# 5 0.000000 0.000000 0.000000 0.000000 0.046277 0.000000
# 6 0.000000 0.000000 0.000000 0.000000 0.000000 0.025326
#
#
# Mechanical properties :
#
#
# Convention : Reuss Voigt Hill
#
# Bulk Modulus (GPa) = 52.60025 52.81544 52.70784
# Shear Modulus (GPa) = 34.03960 36.52391 35.28175
#
# Velocity S-wave (km/s) = 3.82717 3.96437 3.89638
# Velocity P-wave (km/s) = 6.49335 6.60920 6.55153
#
# Compressibility (1/GPa) = 0.01901132
#
# Stress axis : x y z
#
# Youngs Moduli (GPa) = 93.98447 87.45067 96.29009
#
# Poissons Ratio (x) = 0.25429 0.07585
# Poissons Ratio (y) = 0.27329 0.29166
# Poissons Ratio (z) = 0.07403 0.26489
#
# Static dielectric constant tensor:
#      x y z
#    x 3.907800 0.000000 0.000000 
#    y 0.000000 4.545170 0.000000 
#    z 0.000000 0.000000 3.566160 
# 
# 
# High freq. dielectric constant tensor:
#      x y z
#    x 1.887680 0.000000 0.000000 
#    y 0.000000 1.945130 0.000000 
#    z 0.000000 0.000000 1.924920 
# 
# From -- ./inp_files/13463.got.cif
#   From: 2010.03.12/outbox.cif.g09.slc.cpg/sg56_7_cif.got.tgz:13463.got - 2010.04.16 15:33:40.
