data_PCOD8229552
_publ_section_title
;
Structure prediction by ZEFSAII (Michael W. Deem and Ramdas Pophale) SiO2 
 PCOD8229552
Probable space group: P C C N
;
_chemical_formula_sum "Si O2"
_cell_formula_units_Z 48
_cell_length_a 17.389387
_cell_length_b 11.558433
_cell_length_c 10.500913
_cell_angle_alpha 90.000000
_cell_angle_beta 90.000000
_cell_angle_gamma 90.000000
_cell_volume 2110.621185
_symmetry_space_group_name_H-M "P C C N"
_symmetry_group_IT_number 56
_symmetry_cell_setting 'orthorhombic'
loop_
_space_group_symop_operation_xyz
x,y,z
1/2-x,1/2-y,z
1/2+x,-y,1/2-z
-x,1/2+y,1/2-z
-x,-y,-z
1/2+x,1/2+y,-z
1/2-x,y,1/2+z
x,1/2-y,1/2+z
loop_
_atom_site_type_symbol
_atom_site_label
_atom_site_fract_x
_atom_site_fract_y
_atom_site_fract_z
Si Si1 0.430669 0.346523 0.550196
Si Si2 0.727484 0.117626 0.156214
Si Si3 0.692709 0.473873 0.401945
Si Si4 0.452946 0.834277 0.159730
Si Si5 0.563201 0.099863 0.240339
Si Si6 0.972605 0.904932 0.900187
O O1 0.344849 0.399076 0.569310
O O2 0.470996 0.379759 0.415846
O O3 0.482968 0.399558 0.662762
O O4 0.425426 0.206085 0.550401
O O5 0.750000 0.250000 0.175610
O O6 0.761444 0.036045 0.268633
O O7 0.635328 0.122371 0.151127
O O8 0.750039 0.063014 0.018223
O O9 0.622522 0.385335 0.401886
O O10 0.445490 0.695348 0.146576
O O11 0.456305 0.860616 0.311878
O O12 0.581180 0.976622 0.304332
O O13 0.000000 0.000000 0.000000
#
# Coordination Sequence:
#
# PCOD8229552 Si02
#       6
#     8   8   8   8   8   8
#     4  11  23  44  72 100 142 186 232 297 357 419
#     4  12  26  42  68 105 147 191 235 294 362 429
#     4  12  25  44  68 105 144 189 240 292 360 427
#     4  11  21  39  70 100 138 177 230 296 354 411
#     4  11  22  41  69 105 133 178 237 291 350 420
#     4  11  23  39  68 107 138 172 229 295 353 424
#
# _framework density 22.742121000000001
#
# number of rings (size 3 to 8) (size 9 to 14) (size 15 to 20)
#    0.000    0.667    6.667    2.000    0.000    1.333 
#    0.000    0.833    0.000    2.000    0.000    0.000 
#    0.000    0.000    0.000    0.000    0.000    0.000 
#
# Total GULP energy -594757.175167 kJ/mol
# GULP energy per Si atom -12390.774483 kJ/mol
# Density = 2.269036 g / cm^3
# Si number density = 22.742121 Si / 1000 Ang^3
#
#
#
# Elastic Constant Matrix: (Units=GPa)
#
#
# Indices 1 2 3 4 5 6 
#
# 1 58.1493 19.7777 27.1169 0.0000 0.0000 0.0000
# 2 19.7777 125.6434 48.4153 0.0000 0.0000 0.0000
# 3 27.1169 48.4153 131.9528 0.0000 0.0000 0.0000
# 4 0.0000 0.0000 0.0000 22.3580 0.0000 0.0000
# 5 0.0000 0.0000 0.0000 0.0000 33.5332 0.0000
# 6 0.0000 0.0000 0.0000 0.0000 0.0000 25.5553
#
#
#
# Elastic Compliance Matrix: (Units=1/GPa)
#
#
# Indices 1 2 3 4 5 6 
#
# 1 0.019349 -0.001763 -0.003330 0.000000 0.000000 0.000000
# 2 -0.001763 0.009430 -0.003098 0.000000 0.000000 0.000000
# 3 -0.003330 -0.003098 0.009399 0.000000 0.000000 0.000000
# 4 0.000000 0.000000 0.000000 0.044727 0.000000 0.000000
# 5 0.000000 0.000000 0.000000 0.000000 0.029821 0.000000
# 6 0.000000 0.000000 0.000000 0.000000 0.000000 0.039131
#
#
# Mechanical properties :
#
#
# Convention : Reuss Voigt Hill
#
# Bulk Modulus (GPa) = 45.87463 56.26282 51.06873
# Shear Modulus (GPa) = 28.48934 30.98502 29.73718
#
# Velocity S-wave (km/s) = 3.54321 3.69514 3.61997
# Velocity P-wave (km/s) = 6.07903 6.55733 6.32270
#
# Compressibility (1/GPa) = 0.02179854
#
# Stress axis : x y z
#
# Youngs Moduli (GPa) = 51.68128 106.04202 106.39040
#
# Poissons Ratio (x) = 0.18693 0.35424
# Poissons Ratio (y) = 0.09110 0.32958
# Poissons Ratio (z) = 0.17208 0.32850
#
# Static dielectric constant tensor:
#      x y z
#    x 3.737520 0.000000 0.000000 
#    y 0.000000 4.495540 0.000000 
#    z 0.000000 0.000000 4.293720 
# 
# 
# High freq. dielectric constant tensor:
#      x y z
#    x 1.850380 0.000000 0.000000 
#    y 0.000000 1.911720 0.000000 
#    z 0.000000 0.000000 1.914930 
# 
# From -- ./inp_files/8288.got.cif
#   From: 2010.03.12/outbox.cif.g09.slc.cpg/sg56_5_cif.got.tgz:8288.got - 2010.04.16 15:33:40.
