data_PCOD8229617
_publ_section_title
;
Structure prediction by ZEFSAII (Michael W. Deem and Ramdas Pophale) SiO2 
 PCOD8229617
Probable space group: P C C N
;
_chemical_formula_sum "Si O2"
_cell_formula_units_Z 48
_cell_length_a 8.307083
_cell_length_b 10.827383
_cell_length_c 24.308768
_cell_angle_alpha 90.000000
_cell_angle_beta 90.000000
_cell_angle_gamma 90.000000
_cell_volume 2186.427082
_symmetry_space_group_name_H-M "P C C N"
_symmetry_group_IT_number 56
_symmetry_cell_setting 'orthorhombic'
loop_
_space_group_symop_operation_xyz
x,y,z
1/2-x,1/2-y,z
1/2+x,-y,1/2-z
-x,1/2+y,1/2-z
-x,-y,-z
1/2+x,1/2+y,-z
1/2-x,y,1/2+z
x,1/2-y,1/2+z
loop_
_atom_site_type_symbol
_atom_site_label
_atom_site_fract_x
_atom_site_fract_y
_atom_site_fract_z
Si Si1 0.750205 0.104998 0.704422
Si Si2 0.083758 0.522145 0.687790
Si Si3 0.748281 0.607704 0.411791
Si Si4 0.837146 0.880199 0.028444
Si Si5 0.436057 0.730451 0.111070
Si Si6 0.581378 0.994912 0.100697
O O1 0.750000 0.250000 0.715873
O O2 0.567958 0.065535 0.694271
O O3 0.816579 0.029604 0.756320
O O4 0.862449 0.073601 0.652938
O O5 0.199975 0.470578 0.640558
O O6 0.031907 0.659367 0.668571
O O7 0.750000 0.750000 0.394712
O O8 0.864212 0.579758 0.464691
O O9 0.566207 0.567102 0.427818
O O10 0.750000 0.750000 0.025338
O O11 0.729150 0.984506 0.058181
O O12 0.001870 0.856818 0.061270
O O13 0.250000 0.750000 0.098500
O O14 0.530782 0.857444 0.118629
#
# Coordination Sequence:
#
# PCOD8229617 Si02
#       6
#     8   8   8   8   8   8
#     4  12  28  47  70 102 138 177 236 290 349 416
#     4  12  26  45  69 100 137 183 231 288 346 414
#     4  11  23  43  67 101 143 181 228 282 349 415
#     4   9  21  41  69 104 137 179 229 280 349 417
#     4  11  22  44  71 103 134 180 238 279 345 421
#     4  11  22  45  72 100 136 184 222 291 345 416
#
# _framework density 21.953623
#
# number of rings (size 3 to 8) (size 9 to 14) (size 15 to 20)
#    0.000    1.000    3.333    3.000    2.333    0.667 
#    0.000    0.833    0.000    0.000    0.000    0.000 
#    0.000    0.000    0.000    0.000    0.000    0.000 
#
# Total GULP energy -595330.604820 kJ/mol
# GULP energy per Si atom -12402.720934 kJ/mol
# Density = 2.190366 g / cm^3
# Si number density = 21.953623 Si / 1000 Ang^3
#
#
#
# Elastic Constant Matrix: (Units=GPa)
#
#
# Indices 1 2 3 4 5 6 
#
# 1 106.1914 22.9928 24.2265 0.0000 0.0000 0.0000
# 2 22.9928 92.4721 12.0275 0.0000 0.0000 0.0000
# 3 24.2265 12.0275 117.9931 0.0000 0.0000 0.0000
# 4 0.0000 0.0000 0.0000 26.0353 0.0000 0.0000
# 5 0.0000 0.0000 0.0000 0.0000 29.9144 0.0000
# 6 0.0000 0.0000 0.0000 0.0000 0.0000 43.0901
#
#
#
# Elastic Compliance Matrix: (Units=1/GPa)
#
#
# Indices 1 2 3 4 5 6 
#
# 1 0.010352 -0.002328 -0.001888 0.000000 0.000000 0.000000
# 2 -0.002328 0.011483 -0.000692 0.000000 0.000000 0.000000
# 3 -0.001888 -0.000692 0.008933 0.000000 0.000000 0.000000
# 4 0.000000 0.000000 0.000000 0.038409 0.000000 0.000000
# 5 0.000000 0.000000 0.000000 0.000000 0.033429 0.000000
# 6 0.000000 0.000000 0.000000 0.000000 0.000000 0.023207
#
#
# Mechanical properties :
#
#
# Convention : Reuss Voigt Hill
#
# Bulk Modulus (GPa) = 47.73183 48.35005 48.04094
# Shear Modulus (GPa) = 35.05945 36.96861 36.01403
#
# Velocity S-wave (km/s) = 4.00056 4.10804 4.05465
# Velocity P-wave (km/s) = 6.56724 6.67629 6.62199
#
# Compressibility (1/GPa) = 0.02095038
#
# Stress axis : x y z
#
# Youngs Moduli (GPa) = 96.60103 87.08468 111.94040
#
# Poissons Ratio (x) = 0.20277 0.21136
# Poissons Ratio (y) = 0.22492 0.07751
# Poissons Ratio (z) = 0.18239 0.06030
#
# Static dielectric constant tensor:
#      x y z
#    x 4.023460 0.000000 0.000000 
#    y 0.000000 4.115710 0.000000 
#    z 0.000000 0.000000 4.155070 
# 
# 
# High freq. dielectric constant tensor:
#      x y z
#    x 1.867400 0.000000 0.000000 
#    y 0.000000 1.874090 0.000000 
#    z 0.000000 0.000000 1.866940 
# 
# From -- ./inp_files/20504.got.cif
#   From: 2010.03.12/outbox.cif.g09.slc.cpg/sg56_11_cif.got.tgz:20504.got - 2010.04.16 15:33:40.
