data_PCOD8229371
_publ_section_title
;
Structure prediction by ZEFSAII (Michael W. Deem and Ramdas Pophale) SiO2 
 PCOD8229371
Probable space group: P C C N
;
_chemical_formula_sum "Si O2"
_cell_formula_units_Z 48
_cell_length_a 8.533187
_cell_length_b 29.700264
_cell_length_c 8.562073
_cell_angle_alpha 90.000000
_cell_angle_beta 90.000000
_cell_angle_gamma 90.000000
_cell_volume 2169.953858
_symmetry_space_group_name_H-M "P C C N"
_symmetry_group_IT_number 56
_symmetry_cell_setting 'orthorhombic'
loop_
_space_group_symop_operation_xyz
x,y,z
1/2-x,1/2-y,z
1/2+x,-y,1/2-z
-x,1/2+y,1/2-z
-x,-y,-z
1/2+x,1/2+y,-z
1/2-x,y,1/2+z
x,1/2-y,1/2+z
loop_
_atom_site_type_symbol
_atom_site_label
_atom_site_fract_x
_atom_site_fract_y
_atom_site_fract_z
Si Si1 0.250000 0.750000 0.406195
Si Si2 0.936630 0.031624 0.722157
Si Si3 0.250000 0.250000 0.521252
Si Si4 0.839963 0.656953 0.332859
Si Si5 0.039755 0.713006 0.145153
Si Si6 0.380319 0.100120 0.375265
Si Si7 0.755742 0.512963 0.968775
O O1 0.105091 0.732441 0.307432
O O2 0.320296 0.710265 0.518084
O O3 0.958807 0.081842 0.795125
O O4 0.103035 0.016844 0.653645
O O5 0.898438 0.999920 0.871050
O O6 0.802118 0.027106 0.590769
O O7 0.236479 0.294779 0.626664
O O8 0.403886 0.253514 0.413493
O O9 0.708842 0.624406 0.265473
O O10 0.919178 0.634587 0.485052
O O11 0.967878 0.664413 0.193295
O O12 0.273393 0.059045 0.438108
#
# Coordination Sequence:
#
# PCOD8229371 Si02
#       7
#     4   8   4   8   8   8   8
#     4  10  24  42  70  98 138 176 246 294 364 424
#     4  11  23  43  73 104 136 189 233 285 366 433
#     4  12  24  42  80 100 130 192 260 276 354 430
#     4  12  25  41  71 104 141 182 243 303 344 420
#     4  11  23  43  70 102 134 187 241 295 350 428
#     4  12  24  43  68 109 145 176 239 309 348 414
#     4  11  23  43  76 102 138 189 233 289 359 449
#
# _framework density 22.120286
#
# number of rings (size 3 to 8) (size 9 to 14) (size 15 to 20)
#    0.000    0.667    6.667    1.000    0.000    0.000 
#    0.000    1.667    0.000    0.000    0.000    0.000 
#    0.000    0.000    0.000    0.000    0.000    0.000 
#
# Total GULP energy -594862.494405 kJ/mol
# GULP energy per Si atom -12392.968633 kJ/mol
# Density = 2.206994 g / cm^3
# Si number density = 22.120286 Si / 1000 Ang^3
#
#
#
# Elastic Constant Matrix: (Units=GPa)
#
#
# Indices 1 2 3 4 5 6 
#
# 1 71.5559 39.2412 49.0772 0.0000 0.0000 0.0000
# 2 39.2412 117.8105 59.7333 0.0000 0.0000 0.0000
# 3 49.0772 59.7333 131.8182 0.0000 0.0000 0.0000
# 4 0.0000 0.0000 0.0000 57.6042 0.0000 0.0000
# 5 0.0000 0.0000 0.0000 0.0000 47.8040 0.0000
# 6 0.0000 0.0000 0.0000 0.0000 0.0000 33.2776
#
#
#
# Elastic Compliance Matrix: (Units=1/GPa)
#
#
# Indices 1 2 3 4 5 6 
#
# 1 0.019961 -0.003740 -0.005737 0.000000 0.000000 0.000000
# 2 -0.003740 0.011721 -0.003919 0.000000 0.000000 0.000000
# 3 -0.005737 -0.003919 0.011498 0.000000 0.000000 0.000000
# 4 0.000000 0.000000 0.000000 0.017360 0.000000 0.000000
# 5 0.000000 0.000000 0.000000 0.000000 0.020919 0.000000
# 6 0.000000 0.000000 0.000000 0.000000 0.000000 0.030050
#
#
# Mechanical properties :
#
#
# Convention : Reuss Voigt Hill
#
# Bulk Modulus (GPa) = 61.01936 68.58756 64.80346
# Shear Modulus (GPa) = 34.77959 39.27936 37.02947
#
# Velocity S-wave (km/s) = 3.96952 4.21850 4.09590
# Velocity P-wave (km/s) = 6.97528 7.40281 7.19222
#
# Compressibility (1/GPa) = 0.01638824
#
# Stress axis : x y z
#
# Youngs Moduli (GPa) = 50.09844 85.31748 86.97216
#
# Poissons Ratio (x) = 0.31908 0.49894
# Poissons Ratio (y) = 0.18736 0.34084
# Poissons Ratio (z) = 0.28741 0.33435
#
# Static dielectric constant tensor:
#      x y z
#    x 4.024810 0.000000 0.000000 
#    y 0.000000 3.926060 0.000000 
#    z 0.000000 0.000000 4.523330 
# 
# 
# High freq. dielectric constant tensor:
#      x y z
#    x 1.860700 0.000000 0.000000 
#    y 0.000000 1.836810 0.000000 
#    z 0.000000 0.000000 1.910480 
# 
# From -- ./inp_files/2288.got.cif
#   From: 2010.03.12/outbox.cif.g09.slc.cpg/sg56_2_cif.got.tgz:2288.got - 2010.04.16 15:33:40.
