data_PCOD8229035
_publ_section_title
;
Structure prediction by ZEFSAII (Michael W. Deem and Ramdas Pophale) SiO2 
 PCOD8229035
Probable space group: P C C N
;
_chemical_formula_sum "Si O2"
_cell_formula_units_Z 40
_cell_length_a 7.639087
_cell_length_b 8.897507
_cell_length_c 25.975318
_cell_angle_alpha 90.000000
_cell_angle_beta 90.000000
_cell_angle_gamma 90.000000
_cell_volume 1765.511975
_symmetry_space_group_name_H-M "P C C N"
_symmetry_group_IT_number 56
_symmetry_cell_setting 'orthorhombic'
loop_
_space_group_symop_operation_xyz
x,y,z
1/2-x,1/2-y,z
1/2+x,-y,1/2-z
-x,1/2+y,1/2-z
-x,-y,-z
1/2+x,1/2+y,-z
1/2-x,y,1/2+z
x,1/2-y,1/2+z
loop_
_atom_site_type_symbol
_atom_site_label
_atom_site_fract_x
_atom_site_fract_y
_atom_site_fract_z
Si Si1 0.982882 0.294895 0.706978
Si Si2 0.762579 0.082289 0.391591
Si Si3 0.443064 0.614287 0.911351
Si Si4 0.192595 0.008897 0.720659
Si Si5 0.934602 0.435030 0.053729
O O1 0.017590 0.115965 0.716202
O O2 0.148990 0.378761 0.731670
O O3 0.941135 0.324357 0.647141
O O4 0.822148 0.374787 0.737219
O O5 0.750000 0.250000 0.412992
O O6 0.605706 0.995004 0.419964
O O7 0.749728 0.078155 0.330596
O O8 0.948685 0.009993 0.402750
O O9 0.265709 0.529565 0.929287
O O10 0.467280 0.756772 0.948440
O O11 0.000000 0.500000 0.000000
#
# Coordination Sequence:
#
# PCOD8229035 Si02
#       5
#     8   8   8   8   8
#     4  10  22  40  65 100 140 185 230 285 352 419
#     4  11  25  46  68 103 147 180 236 294 353 435
#     4  10  24  48  72 100 146 187 229 307 366 424
#     4  10  23  39  64  99 137 189 234 279 346 424
#     4  11  25  46  76 102 128 187 247 293 374 426
#
# _framework density 22.656319
#
# number of rings (size 3 to 8) (size 9 to 14) (size 15 to 20)
#    0.000    1.600    2.000    0.600   11.200    1.600 
#    3.600    0.000    0.000    0.000    0.000    0.000 
#    0.000    0.000    0.000    0.000    0.000    0.000 
#
# Total GULP energy -495721.046721 kJ/mol
# GULP energy per Si atom -12393.026168 kJ/mol
# Density = 2.260475 g / cm^3
# Si number density = 22.656319 Si / 1000 Ang^3
#
#
#
# Elastic Constant Matrix: (Units=GPa)
#
#
# Indices 1 2 3 4 5 6 
#
# 1 105.6089 63.5066 16.7175 0.0000 0.0000 0.0000
# 2 63.5066 124.2825 26.8679 0.0000 0.0000 0.0000
# 3 16.7175 26.8679 76.7784 0.0000 0.0000 0.0000
# 4 0.0000 0.0000 0.0000 35.7163 0.0000 0.0000
# 5 0.0000 0.0000 0.0000 0.0000 34.7150 0.0000
# 6 0.0000 0.0000 0.0000 0.0000 0.0000 28.8856
#
#
#
# Elastic Compliance Matrix: (Units=1/GPa)
#
#
# Indices 1 2 3 4 5 6 
#
# 1 0.013693 -0.006872 -0.000577 0.000000 0.000000 0.000000
# 2 -0.006872 0.012154 -0.002757 0.000000 0.000000 0.000000
# 3 -0.000577 -0.002757 0.014115 0.000000 0.000000 0.000000
# 4 0.000000 0.000000 0.000000 0.027998 0.000000 0.000000
# 5 0.000000 0.000000 0.000000 0.000000 0.028806 0.000000
# 6 0.000000 0.000000 0.000000 0.000000 0.000000 0.034619
#
#
# Mechanical properties :
#
#
# Convention : Reuss Voigt Hill
#
# Bulk Modulus (GPa) = 51.15032 57.87262 54.51147
# Shear Modulus (GPa) = 31.58312 33.16855 32.37584
#
# Velocity S-wave (km/s) = 3.73769 3.83036 3.78431
# Velocity P-wave (km/s) = 6.42283 6.72022 6.57321
#
# Compressibility (1/GPa) = 0.01955022
#
# Stress axis : x y z
#
# Youngs Moduli (GPa) = 73.03208 82.27956 70.84792
#
# Poissons Ratio (x) = 0.56543 0.04085
# Poissons Ratio (y) = 0.50188 0.19531
# Poissons Ratio (z) = 0.04211 0.22683
#
# Static dielectric constant tensor:
#      x y z
#    x 4.420170 0.000000 0.000000 
#    y 0.000000 3.943610 0.000000 
#    z 0.000000 0.000000 3.871350 
# 
# 
# High freq. dielectric constant tensor:
#      x y z
#    x 1.910570 0.000000 0.000000 
#    y 0.000000 1.900950 0.000000 
#    z 0.000000 0.000000 1.878150 
# 
# From -- ./inp_files/20303.got.cif
#   From: 2010.03.12/outbox.cif.g09.slc.cpg/sg56_11_cif.got.tgz:20303.got - 2010.04.16 15:33:40.
