data_PCOD8229127
_publ_section_title
;
Structure prediction by ZEFSAII (Michael W. Deem and Ramdas Pophale) SiO2 
 PCOD8229127
Probable space group: P C C N
;
_chemical_formula_sum "Si O2"
_cell_formula_units_Z 56
_cell_length_a 14.506678
_cell_length_b 13.258660
_cell_length_c 13.096388
_cell_angle_alpha 90.000000
_cell_angle_beta 90.000000
_cell_angle_gamma 90.000000
_cell_volume 2518.947630
_symmetry_space_group_name_H-M "P C C N"
_symmetry_group_IT_number 56
_symmetry_cell_setting 'orthorhombic'
loop_
_space_group_symop_operation_xyz
x,y,z
1/2-x,1/2-y,z
1/2+x,-y,1/2-z
-x,1/2+y,1/2-z
-x,-y,-z
1/2+x,1/2+y,-z
1/2-x,y,1/2+z
x,1/2-y,1/2+z
loop_
_atom_site_type_symbol
_atom_site_label
_atom_site_fract_x
_atom_site_fract_y
_atom_site_fract_z
Si Si1 0.345301 0.690238 0.503361
Si Si2 0.379853 0.068887 0.468466
Si Si3 0.873473 0.519255 0.105769
Si Si4 0.290688 0.354106 0.551480
Si Si5 0.561740 0.411361 0.313340
Si Si6 0.799669 0.928210 0.237404
Si Si7 0.962630 0.142374 0.090646
O O1 0.250000 0.750000 0.526213
O O2 0.336768 0.585615 0.441524
O O3 0.402736 0.673091 0.607622
O O4 0.403126 0.760252 0.428775
O O5 0.285257 0.058164 0.531279
O O6 0.360551 0.114675 0.355916
O O7 0.440568 0.149538 0.531220
O O8 0.417309 0.956799 0.457918
O O9 0.804222 0.547720 0.198852
O O10 0.979761 0.516608 0.143208
O O11 0.875960 0.606502 0.017069
O O12 0.250000 0.250000 0.507634
O O13 0.306144 0.345076 0.672892
O O14 0.653465 0.472458 0.284449
O O15 0.520782 0.360475 0.211686
#
# Coordination Sequence:
#
# PCOD8229127 Si02
#       7
#     8   8   8   8   8   8   8
#     4  12  25  44  72 105 145 185 237 305 360 441
#     4   9  21  44  65  91 138 175 223 289 344 422
#     4  11  25  47  69 100 153 182 235 308 365 424
#     4  11  23  39  66  95 135 177 233 281 355 422
#     4  11  24  45  71 105 139 189 240 293 372 431
#     4  10  22  42  69  96 136 188 231 285 367 424
#     4  10  23  45  67  99 134 181 237 281 357 431
#
# _framework density 22.231504999999999
#
# number of rings (size 3 to 8) (size 9 to 14) (size 15 to 20)
#    0.000    1.429    1.429    3.857    2.000    4.000 
#   10.286    0.000    0.000    0.000    0.000    0.000 
#    0.000    0.000    0.000    0.000    0.000    0.000 
#
# Total GULP energy -693984.057093 kJ/mol
# GULP energy per Si atom -12392.572448 kJ/mol
# Density = 2.218090 g / cm^3
# Si number density = 22.231505 Si / 1000 Ang^3
#
#
#
# Elastic Constant Matrix: (Units=GPa)
#
#
# Indices 1 2 3 4 5 6 
#
# 1 91.8088 25.3352 36.3953 0.0000 0.0000 0.0000
# 2 25.3352 86.4450 39.1262 0.0000 0.0000 0.0000
# 3 36.3953 39.1262 134.8106 0.0000 0.0000 0.0000
# 4 0.0000 0.0000 0.0000 18.3075 0.0000 0.0000
# 5 0.0000 0.0000 0.0000 0.0000 35.6271 0.0000
# 6 0.0000 0.0000 0.0000 0.0000 0.0000 35.3811
#
#
#
# Elastic Compliance Matrix: (Units=1/GPa)
#
#
# Indices 1 2 3 4 5 6 
#
# 1 0.012646 -0.002488 -0.002692 0.000000 0.000000 0.000000
# 2 -0.002488 0.013807 -0.003336 0.000000 0.000000 0.000000
# 3 -0.002692 -0.003336 0.009113 0.000000 0.000000 0.000000
# 4 0.000000 0.000000 0.000000 0.054623 0.000000 0.000000
# 5 0.000000 0.000000 0.000000 0.000000 0.028069 0.000000
# 6 0.000000 0.000000 0.000000 0.000000 0.000000 0.028264
#
#
# Mechanical properties :
#
#
# Convention : Reuss Voigt Hill
#
# Bulk Modulus (GPa) = 53.95277 57.19751 55.57514
# Shear Modulus (GPa) = 29.45868 32.01030 30.73449
#
# Velocity S-wave (km/s) = 3.64412 3.79867 3.72220
# Velocity P-wave (km/s) = 6.48286 6.70998 6.59740
#
# Compressibility (1/GPa) = 0.01853473
#
# Stress axis : x y z
#
# Youngs Moduli (GPa) = 79.07690 72.42766 109.73733
#
# Poissons Ratio (x) = 0.18019 0.29542
# Poissons Ratio (y) = 0.19673 0.36603
# Poissons Ratio (z) = 0.21288 0.24159
#
# Static dielectric constant tensor:
#      x y z
#    x 4.284350 0.000000 0.000000 
#    y 0.000000 3.711460 0.000000 
#    z 0.000000 0.000000 4.379460 
# 
# 
# High freq. dielectric constant tensor:
#      x y z
#    x 1.884940 0.000000 0.000000 
#    y 0.000000 1.856730 0.000000 
#    z 0.000000 0.000000 1.889440 
# 
# From -- ./inp_files/7910.got.cif
#   From: 2010.03.12/outbox.cif.g09.slc.cpg/sg56_4_cif.got.tgz:7910.got - 2010.04.16 15:33:40.
