data_PCOD8229593
_publ_section_title
;
Structure prediction by ZEFSAII (Michael W. Deem and Ramdas Pophale) SiO2 
 PCOD8229593
Probable space group: P C C N
;
_chemical_formula_sum "Si O2"
_cell_formula_units_Z 64
_cell_length_a 17.759354
_cell_length_b 6.409169
_cell_length_c 27.164341
_cell_angle_alpha 90.000000
_cell_angle_beta 90.000000
_cell_angle_gamma 90.000000
_cell_volume 3091.918667
_symmetry_space_group_name_H-M "P C C N"
_symmetry_group_IT_number 56
_symmetry_cell_setting 'orthorhombic'
loop_
_space_group_symop_operation_xyz
x,y,z
1/2-x,1/2-y,z
1/2+x,-y,1/2-z
-x,1/2+y,1/2-z
-x,-y,-z
1/2+x,1/2+y,-z
1/2-x,y,1/2+z
x,1/2-y,1/2+z
loop_
_atom_site_type_symbol
_atom_site_label
_atom_site_fract_x
_atom_site_fract_y
_atom_site_fract_z
Si Si1 0.331398 0.312500 0.736596
Si Si2 0.674256 0.128711 0.851356
Si Si3 0.418421 0.483595 0.168571
Si Si4 0.075215 0.385006 0.484612
Si Si5 0.412054 0.081362 0.333714
Si Si6 0.442306 0.443800 0.401874
Si Si7 0.903208 0.674714 0.914784
Si Si8 0.336224 0.683697 0.917667
O O1 0.250000 0.250000 0.757876
O O2 0.314409 0.470723 0.692930
O O3 0.380623 0.117926 0.716866
O O4 0.375998 0.423472 0.780097
O O5 0.750000 0.250000 0.861767
O O6 0.605052 0.276235 0.836153
O O7 0.656614 0.005819 0.902002
O O8 0.508381 0.463772 0.171046
O O9 0.387965 0.373693 0.119366
O O10 0.047174 0.234790 0.441967
O O11 0.107439 0.245379 0.529077
O O12 0.137883 0.549700 0.465606
O O13 0.000000 0.500000 0.500000
O O14 0.423909 0.321712 0.351087
O O15 0.356587 0.952321 0.369577
O O16 0.515498 0.586718 0.399839
O O17 0.374588 0.592076 0.416609
O O18 0.250000 0.750000 0.920716
#
# Coordination Sequence:
#
# PCOD8229593 Si02
#       8
#     8   8   8   8   8   8   8   8
#     4  11  26  42  65  98 135 175 220 274 338 396
#     4  11  24  44  65  92 138 176 214 281 332 385
#     4  11  23  43  64  97 136 165 226 273 324 393
#     4  11  23  41  72  98 127 170 227 269 325 401
#     4  11  25  41  67 101 127 178 227 270 328 408
#     4  11  22  42  69  97 131 171 220 272 324 394
#     4  11  22  40  71  97 126 175 223 267 330 397
#     4  11  26  45  66  97 141 172 214 281 335 390
#
# _framework density 20.699123
#
# number of rings (size 3 to 8) (size 9 to 14) (size 15 to 20)
#    0.000    1.000    5.000    1.125    3.500    3.000 
#    0.000    3.750    0.000    0.000    0.000    0.000 
#    0.000    0.000    0.000    0.000    0.000    0.000 
#
# Total GULP energy -793706.755663 kJ/mol
# GULP energy per Si atom -12401.668057 kJ/mol
# Density = 2.065201 g / cm^3
# Si number density = 20.699123 Si / 1000 Ang^3
#
#
#
# Elastic Constant Matrix: (Units=GPa)
#
#
# Indices 1 2 3 4 5 6 
#
# 1 125.5113 46.1143 45.5302 0.0000 0.0000 0.0000
# 2 46.1143 99.9469 28.8869 0.0000 0.0000 0.0000
# 3 45.5302 28.8869 94.1295 0.0000 0.0000 0.0000
# 4 0.0000 0.0000 0.0000 24.1556 0.0000 0.0000
# 5 0.0000 0.0000 0.0000 0.0000 22.7385 0.0000
# 6 0.0000 0.0000 0.0000 0.0000 0.0000 41.8787
#
#
#
# Elastic Compliance Matrix: (Units=1/GPa)
#
#
# Indices 1 2 3 4 5 6 
#
# 1 0.010852 -0.003830 -0.004074 0.000000 0.000000 0.000000
# 2 -0.003830 0.012331 -0.001932 0.000000 0.000000 0.000000
# 3 -0.004074 -0.001932 0.013187 0.000000 0.000000 0.000000
# 4 0.000000 0.000000 0.000000 0.041398 0.000000 0.000000
# 5 0.000000 0.000000 0.000000 0.000000 0.043978 0.000000
# 6 0.000000 0.000000 0.000000 0.000000 0.000000 0.023878
#
#
# Mechanical properties :
#
#
# Convention : Reuss Voigt Hill
#
# Bulk Modulus (GPa) = 59.88270 62.29451 61.08860
# Shear Modulus (GPa) = 29.26337 31.02498 30.14417
#
# Velocity S-wave (km/s) = 3.76406 3.87570 3.82029
# Velocity P-wave (km/s) = 6.91981 7.08440 7.00259
#
# Compressibility (1/GPa) = 0.01669932
#
# Stress axis : x y z
#
# Youngs Moduli (GPa) = 92.14592 81.09928 75.83208
#
# Poissons Ratio (x) = 0.31058 0.30894
# Poissons Ratio (y) = 0.35289 0.14648
# Poissons Ratio (z) = 0.37540 0.15666
#
# Static dielectric constant tensor:
#      x y z
#    x 3.792510 0.000000 0.000000 
#    y 0.000000 4.113220 0.000000 
#    z 0.000000 0.000000 3.752280 
# 
# 
# High freq. dielectric constant tensor:
#      x y z
#    x 1.811700 0.000000 0.000000 
#    y 0.000000 1.827790 0.000000 
#    z 0.000000 0.000000 1.804520 
# 
# From -- ./inp_files/23710.got.cif
#   From: 2010.03.12/outbox.cif.g09.slc.cpg/sg56_12_cif.got.tgz:23710.got - 2010.04.16 15:33:40.
