data_PCOD8229118
_publ_section_title
;
Structure prediction by ZEFSAII (Michael W. Deem and Ramdas Pophale) SiO2 
 PCOD8229118
Probable space group: P C C N
;
_chemical_formula_sum "Si O2"
_cell_formula_units_Z 56
_cell_length_a 12.076726
_cell_length_b 14.413503
_cell_length_c 14.206226
_cell_angle_alpha 90.000000
_cell_angle_beta 90.000000
_cell_angle_gamma 90.000000
_cell_volume 2472.848302
_symmetry_space_group_name_H-M "P C C N"
_symmetry_group_IT_number 56
_symmetry_cell_setting 'orthorhombic'
loop_
_space_group_symop_operation_xyz
x,y,z
1/2-x,1/2-y,z
1/2+x,-y,1/2-z
-x,1/2+y,1/2-z
-x,-y,-z
1/2+x,1/2+y,-z
1/2-x,y,1/2+z
x,1/2-y,1/2+z
loop_
_atom_site_type_symbol
_atom_site_label
_atom_site_fract_x
_atom_site_fract_y
_atom_site_fract_z
Si Si1 0.278953 0.611283 0.633585
Si Si2 0.767264 0.559559 0.149544
Si Si3 0.118148 0.547612 0.487069
Si Si4 0.152130 0.183884 0.509586
Si Si5 0.093172 0.735827 0.983542
Si Si6 0.617327 0.380934 0.701435
Si Si7 0.379544 0.066830 0.188261
O O1 0.200498 0.538270 0.576301
O O2 0.336521 0.691420 0.570376
O O3 0.199287 0.654518 0.715514
O O4 0.374160 0.546476 0.680940
O O5 0.665771 0.505818 0.101802
O O6 0.862738 0.485707 0.167840
O O7 0.721327 0.601947 0.246887
O O8 0.813948 0.644235 0.090876
O O9 0.119904 0.657267 0.468553
O O10 0.000000 0.500000 0.500000
O O11 0.250000 0.250000 0.546809
O O12 0.133406 0.101796 0.582369
O O13 0.036769 0.235942 0.494313
O O14 0.129133 0.686508 0.887528
O O15 0.490059 0.389431 0.735175
#
# Coordination Sequence:
#
# PCOD8229118 Si02
#       7
#     8   8   8   8   8   8   8
#     4  11  22  42  70  99 138 180 233 287 352 417
#     4  11  22  41  69  93 135 173 225 281 340 410
#     4  12  24  42  66  98 140 180 226 286 350 410
#     4  11  23  43  71  97 136 183 226 282 344 416
#     4  11  24  44  69 101 137 178 232 286 347 414
#     4  10  22  42  68 100 134 177 228 287 348 409
#     4  10  22  42  68 100 133 179 231 277 348 420
#
# _framework density 22.645949999999999
#
# number of rings (size 3 to 8) (size 9 to 14) (size 15 to 20)
#    0.000    1.143    2.857    3.000    0.000    2.857 
#   10.286    1.429    0.000    0.000    0.000    0.000 
#    0.000    0.000    0.000    0.000    0.000    0.000 
#
# Total GULP energy -694140.088855 kJ/mol
# GULP energy per Si atom -12395.358730 kJ/mol
# Density = 2.259441 g / cm^3
# Si number density = 22.645950 Si / 1000 Ang^3
#
#
#
# Elastic Constant Matrix: (Units=GPa)
#
#
# Indices 1 2 3 4 5 6 
#
# 1 120.8980 21.6422 23.9315 0.0000 0.0000 0.0000
# 2 21.6422 43.5152 7.4449 0.0000 0.0000 0.0000
# 3 23.9315 7.4449 77.9876 0.0000 0.0000 0.0000
# 4 0.0000 0.0000 0.0000 16.6576 0.0000 0.0000
# 5 0.0000 0.0000 0.0000 0.0000 39.3192 0.0000
# 6 0.0000 0.0000 0.0000 0.0000 0.0000 35.2545
#
#
#
# Elastic Compliance Matrix: (Units=1/GPa)
#
#
# Indices 1 2 3 4 5 6 
#
# 1 0.009542 -0.004315 -0.002516 0.000000 0.000000 0.000000
# 2 -0.004315 0.025314 -0.001092 0.000000 0.000000 0.000000
# 3 -0.002516 -0.001092 0.013699 0.000000 0.000000 0.000000
# 4 0.000000 0.000000 0.000000 0.060033 0.000000 0.000000
# 5 0.000000 0.000000 0.000000 0.000000 0.025433 0.000000
# 6 0.000000 0.000000 0.000000 0.000000 0.000000 0.028365
#
#
# Mechanical properties :
#
#
# Convention : Reuss Voigt Hill
#
# Bulk Modulus (GPa) = 30.57436 38.71532 34.64484
# Shear Modulus (GPa) = 26.43618 30.87175 28.65397
#
# Velocity S-wave (km/s) = 3.42038 3.69621 3.56097
# Velocity P-wave (km/s) = 5.39713 5.94550 5.67794
#
# Compressibility (1/GPa) = 0.03270714
#
# Stress axis : x y z
#
# Youngs Moduli (GPa) = 104.80020 39.50456 72.99840
#
# Poissons Ratio (x) = 0.17047 0.18367
# Poissons Ratio (y) = 0.45223 0.07974
# Poissons Ratio (z) = 0.26369 0.04315
#
# Static dielectric constant tensor:
#      x y z
#    x 4.525570 0.000000 0.000000 
#    y 0.000000 3.893330 0.000000 
#    z 0.000000 0.000000 4.674280 
# 
# 
# High freq. dielectric constant tensor:
#      x y z
#    x 1.908460 0.000000 0.000000 
#    y 0.000000 1.884170 0.000000 
#    z 0.000000 0.000000 1.896820 
# 
# From -- ./inp_files/11696.got.cif
#   From: 2010.03.12/outbox.cif.g09.slc.cpg/sg56_6_cif.got.tgz:11696.got - 2010.04.16 15:33:40.
