data_PCOD8229976
_publ_section_title
;
Structure prediction by ZEFSAII (Michael W. Deem and Ramdas Pophale) SiO2 
 PCOD8229976
Probable space group: P B C M
;
_chemical_formula_sum "Si O2"
_cell_formula_units_Z 48
_cell_length_a 15.209934
_cell_length_b 21.465930
_cell_length_c 8.716846
_cell_angle_alpha 90.000000
_cell_angle_beta 90.000000
_cell_angle_gamma 90.000000
_cell_volume 2846.009935
_symmetry_space_group_name_H-M "P B C M"
_symmetry_group_IT_number 57
_symmetry_cell_setting 'orthorhombic'
loop_
_space_group_symop_operation_xyz
x,y,z
-x,-y,1/2+z
x,1/2-y,-z
-x,1/2+y,1/2-z
-x,-y,-z
x,y,1/2-z
-x,1/2+y,z
x,1/2-y,1/2+z
loop_
_atom_site_type_symbol
_atom_site_label
_atom_site_fract_x
_atom_site_fract_y
_atom_site_fract_z
Si Si1 0.056844 0.910076 0.070575
Si Si2 0.341347 0.593816 0.429713
Si Si3 0.528094 0.934876 0.569712
Si Si4 0.190911 0.817976 0.568601
Si Si5 0.701089 0.544487 0.568392
Si Si6 0.116575 0.047609 0.070105
O O1 0.061089 0.896116 0.250000
O O2 0.103797 0.975062 0.027767
O O3 0.104121 0.854904 0.980175
O O4 0.956050 0.911342 0.016477
O O5 0.325148 0.590009 0.250000
O O6 0.444176 0.610461 0.464421
O O7 0.277277 0.646485 0.499045
O O8 0.315263 0.525692 0.494437
O O9 0.544817 0.941322 0.750000
O O10 0.618251 0.912875 0.487319
O O11 0.500000 0.000000 0.500000
O O12 0.188660 0.750000 0.500000
O O13 0.194220 0.812867 0.750000
O O14 0.709972 0.548650 0.750000
O O15 0.789135 0.570525 0.490401
O O16 0.107641 0.059347 0.250000
#
# Coordination Sequence:
#
# PCOD8229976 Si02
#       6
#     8   8   8   8   8   8
#     4  10  20  33  48  70  96 127 164 203 247 296
#     4   8  16  29  45  63  92 127 159 195 238 283
#     4   9  16  27  42  65  92 124 157 191 234 284
#     4  11  21  35  51  70  96 130 168 207 245 288
#     4  10  17  28  45  69  97 129 158 192 239 292
#     4  10  19  30  48  72  98 129 161 199 246 299
#
# _framework density 16.865717
#
# number of rings (size 3 to 8) (size 9 to 14) (size 15 to 20)
#    0.000    2.333    1.667    3.500    0.000    1.333 
#    0.000    2.500    0.000    0.000    0.000    1.167 
#    0.000    2.667    0.000    0.000    0.000    0.000 
#
# Total GULP energy -594986.429343 kJ/mol
# GULP energy per Si atom -12395.550611 kJ/mol
# Density = 1.682733 g / cm^3
# Si number density = 16.865717 Si / 1000 Ang^3
#
#
#
# Elastic Constant Matrix: (Units=GPa)
#
#
# Indices 1 2 3 4 5 6 
#
# 1 147.1527 37.4524 29.6676 0.0000 0.0000 0.0000
# 2 37.4524 59.6869 19.8315 0.0000 0.0000 0.0000
# 3 29.6676 19.8315 58.0253 0.0000 0.0000 0.0000
# 4 0.0000 0.0000 0.0000 17.3843 0.0000 0.0000
# 5 0.0000 0.0000 0.0000 0.0000 32.0932 0.0000
# 6 0.0000 0.0000 0.0000 0.0000 0.0000 10.7732
#
#
#
# Elastic Compliance Matrix: (Units=1/GPa)
#
#
# Indices 1 2 3 4 5 6 
#
# 1 0.008483 -0.004379 -0.002841 0.000000 0.000000 0.000000
# 2 -0.004379 0.021161 -0.004993 0.000000 0.000000 0.000000
# 3 -0.002841 -0.004993 0.020393 0.000000 0.000000 0.000000
# 4 0.000000 0.000000 0.000000 0.057523 0.000000 0.000000
# 5 0.000000 0.000000 0.000000 0.000000 0.031159 0.000000
# 6 0.000000 0.000000 0.000000 0.000000 0.000000 0.092823
#
#
# Mechanical properties :
#
#
# Convention : Reuss Voigt Hill
#
# Bulk Modulus (GPa) = 39.04600 48.75197 43.89899
# Shear Modulus (GPa) = 18.90327 23.91104 21.40715
#
# Velocity S-wave (km/s) = 3.35148 3.76936 3.56655
# Velocity P-wave (km/s) = 6.17883 6.92191 6.56090
#
# Compressibility (1/GPa) = 0.02561082
#
# Stress axis : x y z
#
# Youngs Moduli (GPa) = 117.88456 47.25689 49.03697
#
# Poissons Ratio (x) = 0.20694 0.13929
# Poissons Ratio (y) = 0.51622 0.24486
# Poissons Ratio (z) = 0.33486 0.23597
#
# Static dielectric constant tensor:
#      x y z
#    x 3.632290 0.000000 0.000000 
#    y 0.000000 2.772180 0.000000 
#    z 0.000000 0.000000 3.144050 
# 
# 
# High freq. dielectric constant tensor:
#      x y z
#    x 1.672620 0.000000 0.000000 
#    y 0.000000 1.581560 0.000000 
#    z 0.000000 0.000000 1.655360 
# 
# From -- ./inp_files/4835.got.cif
#   From: 2010.03.12/outbox.cif.g09.slc.cpg/sg57_3_cif.got.tgz:4835.got - 2010.04.16 15:48:40.
