data_PCOD8229538
_publ_section_title
;
Structure prediction by ZEFSAII (Michael W. Deem and Ramdas Pophale) SiO2 
 PCOD8229538
Probable space group: P C C N
;
_chemical_formula_sum "Si O2"
_cell_formula_units_Z 56
_cell_length_a 19.846752
_cell_length_b 15.048209
_cell_length_c 8.938627
_cell_angle_alpha 90.000000
_cell_angle_beta 90.000000
_cell_angle_gamma 90.000000
_cell_volume 2669.593107
_symmetry_space_group_name_H-M "P C C N"
_symmetry_group_IT_number 56
_symmetry_cell_setting 'orthorhombic'
loop_
_space_group_symop_operation_xyz
x,y,z
1/2-x,1/2-y,z
1/2+x,-y,1/2-z
-x,1/2+y,1/2-z
-x,-y,-z
1/2+x,1/2+y,-z
1/2-x,y,1/2+z
x,1/2-y,1/2+z
loop_
_atom_site_type_symbol
_atom_site_label
_atom_site_fract_x
_atom_site_fract_y
_atom_site_fract_z
Si Si1 0.373388 0.338708 0.208432
Si Si2 0.560613 0.143734 0.321837
Si Si3 0.312490 0.485382 0.588357
Si Si4 0.965143 0.997456 0.337983
Si Si5 0.817209 0.470001 0.246158
Si Si6 0.810878 0.704201 0.003988
Si Si7 0.523368 0.323845 0.158867
O O1 0.352369 0.440955 0.190546
O O2 0.373603 0.314772 0.385619
O O3 0.323482 0.272446 0.128028
O O4 0.444103 0.316976 0.134324
O O5 0.505622 0.071283 0.266901
O O6 0.637255 0.111380 0.300889
O O7 0.552499 0.234224 0.229869
O O8 0.555322 0.160159 0.497858
O O9 0.386763 0.471166 0.657720
O O10 0.316651 0.537270 0.432503
O O11 0.260052 0.537363 0.695894
O O12 0.283211 0.387410 0.564459
O O13 0.964527 0.095712 0.271796
O O14 0.000000 0.000000 0.500000
O O15 0.750000 0.750000 0.097819
#
# Coordination Sequence:
#
# PCOD8229538 Si02
#       7
#     8   8   8   8   8   8   8
#     4  11  22  40  61 100 137 177 221 280 347 422
#     4  12  26  48  74 106 140 183 239 294 359 424
#     4  11  25  41  69  99 142 190 228 298 353 422
#     4  12  23  47  74 105 144 186 238 296 356 418
#     4  11  25  44  69 100 142 183 233 287 362 424
#     4  11  21  36  60  95 137 178 221 273 345 425
#     4  12  26  44  75 103 138 185 236 298 352 423
#
# _framework density 20.976980000000001
#
# number of rings (size 3 to 8) (size 9 to 14) (size 15 to 20)
#    0.000    0.571    4.286    4.286    4.000    0.000 
#    0.000    0.714    0.000    0.000    0.000    0.000 
#    0.000    0.000    0.000    0.000    0.000    0.000 
#
# Total GULP energy -694277.699514 kJ/mol
# GULP energy per Si atom -12397.816063 kJ/mol
# Density = 2.092924 g / cm^3
# Si number density = 20.976980 Si / 1000 Ang^3
#
#
#
# Elastic Constant Matrix: (Units=GPa)
#
#
# Indices 1 2 3 4 5 6 
#
# 1 122.5320 32.5248 27.0239 0.0000 0.0000 0.0000
# 2 32.5248 108.4854 34.6576 0.0000 0.0000 0.0000
# 3 27.0239 34.6576 91.9414 0.0000 0.0000 0.0000
# 4 0.0000 0.0000 0.0000 30.8876 0.0000 0.0000
# 5 0.0000 0.0000 0.0000 0.0000 31.8386 0.0000
# 6 0.0000 0.0000 0.0000 0.0000 0.0000 33.2048
#
#
#
# Elastic Compliance Matrix: (Units=1/GPa)
#
#
# Indices 1 2 3 4 5 6 
#
# 1 0.009144 -0.002141 -0.001881 0.000000 0.000000 0.000000
# 2 -0.002141 0.010981 -0.003510 0.000000 0.000000 0.000000
# 3 -0.001881 -0.003510 0.012752 0.000000 0.000000 0.000000
# 4 0.000000 0.000000 0.000000 0.032375 0.000000 0.000000
# 5 0.000000 0.000000 0.000000 0.000000 0.031408 0.000000
# 6 0.000000 0.000000 0.000000 0.000000 0.000000 0.030116
#
#
# Mechanical properties :
#
#
# Convention : Reuss Voigt Hill
#
# Bulk Modulus (GPa) = 56.13406 56.81904 56.47655
# Shear Modulus (GPa) = 33.83433 34.43636 34.13535
#
# Velocity S-wave (km/s) = 4.02048 4.05609 4.03833
# Velocity P-wave (km/s) = 6.95488 7.00579 6.98038
#
# Compressibility (1/GPa) = 0.01781450
#
# Stress axis : x y z
#
# Youngs Moduli (GPa) = 109.35971 91.06651 78.41627
#
# Poissons Ratio (x) = 0.19494 0.14748
# Poissons Ratio (y) = 0.23410 0.27525
# Poissons Ratio (z) = 0.20568 0.31966
#
# Static dielectric constant tensor:
#      x y z
#    x 4.102780 0.000000 0.000000 
#    y 0.000000 3.819050 0.000000 
#    z 0.000000 0.000000 3.792480 
# 
# 
# High freq. dielectric constant tensor:
#      x y z
#    x 1.827160 0.000000 0.000000 
#    y 0.000000 1.818610 0.000000 
#    z 0.000000 0.000000 1.829560 
# 
# From -- ./inp_files/3570.got.cif
#   From: 2010.03.12/outbox.cif.g09.slc.cpg/sg56_2_cif.got.tgz:3570.got - 2010.04.16 15:33:40.
