data_PCOD8229411
_publ_section_title
;
Structure prediction by ZEFSAII (Michael W. Deem and Ramdas Pophale) SiO2 
 PCOD8229411
Probable space group: P C C N
;
_chemical_formula_sum "Si O2"
_cell_formula_units_Z 32
_cell_length_a 10.104929
_cell_length_b 7.461199
_cell_length_c 18.485271
_cell_angle_alpha 90.000000
_cell_angle_beta 90.000000
_cell_angle_gamma 90.000000
_cell_volume 1393.694902
_symmetry_space_group_name_H-M "P C C N"
_symmetry_group_IT_number 56
_symmetry_cell_setting 'orthorhombic'
loop_
_space_group_symop_operation_xyz
x,y,z
1/2-x,1/2-y,z
1/2+x,-y,1/2-z
-x,1/2+y,1/2-z
-x,-y,-z
1/2+x,1/2+y,-z
1/2-x,y,1/2+z
x,1/2-y,1/2+z
loop_
_atom_site_type_symbol
_atom_site_label
_atom_site_fract_x
_atom_site_fract_y
_atom_site_fract_z
Si Si1 0.207148 0.939735 0.707769
Si Si2 0.989770 0.529389 0.323551
Si Si3 0.470645 0.824417 0.086458
Si Si4 0.103994 0.684087 0.923957
O O1 0.250000 0.750000 0.741746
O O2 0.156624 0.914166 0.625187
O O3 0.088808 0.011381 0.757441
O O4 0.340328 0.058737 0.706460
O O5 0.011241 0.355693 0.373009
O O6 0.011296 0.710271 0.368155
O O7 0.590116 0.969923 0.088340
O O8 0.436423 0.768373 0.005331
O O9 0.250000 0.750000 0.907486
#
# Coordination Sequence:
#
# PCOD8229411 Si02
#       4
#     8   8   8   8
#     4  10  24  46  67 101 141 180 230 291 345 413
#     4  11  24  45  73  99 140 185 233 282 355 416
#     4  10  25  46  69 102 140 182 230 293 345 413
#     4  11  24  45  72 103 141 181 235 287 347 416
#
# _framework density 22.960550000000001
#
# number of rings (size 3 to 8) (size 9 to 14) (size 15 to 20)
#    0.000    1.500    0.000    3.750   10.500    2.000 
#    4.500    5.000    0.000    0.000    0.000    0.000 
#    0.000    0.000    0.000    0.000    0.000    0.000 
#
# Total GULP energy -396790.678315 kJ/mol
# GULP energy per Si atom -12399.708697 kJ/mol
# Density = 2.290829 g / cm^3
# Si number density = 22.960550 Si / 1000 Ang^3
#
#
#
# Elastic Constant Matrix: (Units=GPa)
#
#
# Indices 1 2 3 4 5 6 
#
# 1 119.0345 3.0983 38.2841 0.0000 0.0000 0.0000
# 2 3.0983 38.3566 11.8765 0.0000 0.0000 0.0000
# 3 38.2841 11.8765 121.8835 0.0000 0.0000 0.0000
# 4 0.0000 0.0000 0.0000 29.6827 0.0000 0.0000
# 5 0.0000 0.0000 0.0000 0.0000 30.5554 0.0000
# 6 0.0000 0.0000 0.0000 0.0000 0.0000 28.2405
#
#
#
# Elastic Compliance Matrix: (Units=1/GPa)
#
#
# Indices 1 2 3 4 5 6 
#
# 1 0.009346 0.000159 -0.002951 0.000000 0.000000 0.000000
# 2 0.000159 0.026885 -0.002670 0.000000 0.000000 0.000000
# 3 -0.002951 -0.002670 0.009392 0.000000 0.000000 0.000000
# 4 0.000000 0.000000 0.000000 0.033690 0.000000 0.000000
# 5 0.000000 0.000000 0.000000 0.000000 0.032727 0.000000
# 6 0.000000 0.000000 0.000000 0.000000 0.000000 0.035410
#
#
# Mechanical properties :
#
#
# Convention : Reuss Voigt Hill
#
# Bulk Modulus (GPa) = 28.81944 42.86581 35.84262
# Shear Modulus (GPa) = 29.42223 32.76344 31.09283
#
# Velocity S-wave (km/s) = 3.58358 3.78159 3.68392
# Velocity P-wave (km/s) = 5.44993 6.14631 5.80856
#
# Compressibility (1/GPa) = 0.03469880
#
# Stress axis : x y z
#
# Youngs Moduli (GPa) = 106.99856 37.19561 106.47784
#
# Poissons Ratio (x) = -0.00591 0.31422
# Poissons Ratio (y) = -0.01699 0.28425
# Poissons Ratio (z) = 0.31576 0.09930
#
# Static dielectric constant tensor:
#      x y z
#    x 4.208680 0.000000 0.000000 
#    y 0.000000 4.171920 0.000000 
#    z 0.000000 0.000000 4.237230 
# 
# 
# High freq. dielectric constant tensor:
#      x y z
#    x 1.905370 0.000000 0.000000 
#    y 0.000000 1.907460 0.000000 
#    z 0.000000 0.000000 1.921930 
# 
# From -- ./inp_files/17787.got.cif
#   From: 2010.03.12/outbox.cif.g09.slc.cpg/sg56_9_cif.got.tgz:17787.got - 2010.04.16 15:33:40.
