data_PCOD8229799
_publ_section_title
;
Structure prediction by ZEFSAII (Michael W. Deem and Ramdas Pophale) SiO2 
 PCOD8229799
Probable space group: P C C N
;
_chemical_formula_sum "Si O2"
_cell_formula_units_Z 24
_cell_length_a 5.231093
_cell_length_b 13.438399
_cell_length_c 12.233122
_cell_angle_alpha 90.000000
_cell_angle_beta 90.000000
_cell_angle_gamma 90.000000
_cell_volume 859.958077
_symmetry_space_group_name_H-M "P C C N"
_symmetry_group_IT_number 56
_symmetry_cell_setting 'orthorhombic'
loop_
_space_group_symop_operation_xyz
x,y,z
1/2-x,1/2-y,z
1/2+x,-y,1/2-z
-x,1/2+y,1/2-z
-x,-y,-z
1/2+x,1/2+y,-z
1/2-x,y,1/2+z
x,1/2-y,1/2+z
loop_
_atom_site_type_symbol
_atom_site_label
_atom_site_fract_x
_atom_site_fract_y
_atom_site_fract_z
Si Si1 0.678258 0.530292 0.898438
Si Si2 0.107044 0.651752 0.222124
Si Si3 0.512684 0.808477 0.989170
O O1 0.702942 0.432613 0.824708
O O2 0.545694 0.613746 0.825352
O O3 0.500000 0.500000 0.000000
O O4 0.954642 0.579869 0.936315
O O5 0.250000 0.750000 0.266619
O O6 0.935191 0.682236 0.118737
O O7 0.750000 0.750000 0.938444
O O8 0.250000 0.750000 0.965088
#
# Coordination Sequence:
#
# PCOD8229799 Si02
#       3
#     8   8   8
#     4  12  26  48  82 121 166 224 283 351 430 515
#     4  11  27  50  77 118 163 213 277 346 415 503
#     4  11  26  50  81 119 164 217 274 339 420 506
#
# _framework density 27.908335999999998
#
# number of rings (size 3 to 8) (size 9 to 14) (size 15 to 20)
#    0.000    0.667    0.000    7.000    0.000   12.000 
#    0.000    1.667    0.000    0.000    0.000    0.000 
#    0.000    0.000    0.000    0.000    0.000    0.000 
#
# Total GULP energy -297339.948952 kJ/mol
# GULP energy per Si atom -12389.164540 kJ/mol
# Density = 2.784482 g / cm^3
# Si number density = 27.908336 Si / 1000 Ang^3
#
#
#
# Elastic Constant Matrix: (Units=GPa)
#
#
# Indices 1 2 3 4 5 6 
#
# 1 159.7926 98.3877 48.7528 0.0000 0.0000 0.0000
# 2 98.3877 229.7842 60.4038 0.0000 0.0000 0.0000
# 3 48.7528 60.4038 137.4602 0.0000 0.0000 0.0000
# 4 0.0000 0.0000 0.0000 40.0461 0.0000 0.0000
# 5 0.0000 0.0000 0.0000 0.0000 -39.7447 0.0000
# 6 0.0000 0.0000 0.0000 0.0000 0.0000 64.7169
#
#
#
# Elastic Compliance Matrix: (Units=1/GPa)
#
#
# Indices 1 2 3 4 5 6 
#
# 1 0.008822 -0.003341 -0.001661 0.000000 0.000000 0.000000
# 2 -0.003341 0.006185 -0.001533 0.000000 0.000000 0.000000
# 3 -0.001661 -0.001533 0.008538 0.000000 0.000000 0.000000
# 4 0.000000 0.000000 0.000000 0.024971 0.000000 0.000000
# 5 0.000000 0.000000 0.000000 0.000000 -0.025161 0.000000
# 6 0.000000 0.000000 0.000000 0.000000 0.000000 0.015452
#
#
# Mechanical properties :
#
#
# Convention : Reuss Voigt Hill
#
# Bulk Modulus (GPa) = 95.46219 104.68064 100.07142
# Shear Modulus (GPa) = 90.30435 34.30317 62.30376
#
# Velocity S-wave (km/s) = 5.69453 3.50971 4.73000
# Velocity P-wave (km/s) = 8.80437 7.34944 8.10960
#
# Compressibility (1/GPa) = 0.01047535
#
# Stress axis : x y z
#
# Youngs Moduli (GPa) = 113.35622 161.67295 117.12907
#
# Poissons Ratio (x) = 0.54010 0.19453
# Poissons Ratio (y) = 0.37869 0.17958
# Poissons Ratio (z) = 0.18826 0.24787
#
# Static dielectric constant tensor:
#      x y z
#    x 4.687690 0.000000 0.000000 
#    y 0.000000 6.133450 0.000000 
#    z 0.000000 0.000000 5.491790 
# 
# 
# High freq. dielectric constant tensor:
#      x y z
#    x 2.102090 0.000000 0.000000 
#    y 0.000000 2.165860 0.000000 
#    z 0.000000 0.000000 2.157540 
# 
# From -- ./inp_files/9289.got.cif
#   From: 2010.03.12/outbox.cif.g09.slc.cpg/sg56_5_cif.got.tgz:9289.got - 2010.04.16 15:33:40.
