data_PCOD8229768
_publ_section_title
;
Structure prediction by ZEFSAII (Michael W. Deem and Ramdas Pophale) SiO2 
 PCOD8229768
Probable space group: P C C N
;
_chemical_formula_sum "Si O2"
_cell_formula_units_Z 60
_cell_length_a 9.331149
_cell_length_b 24.612651
_cell_length_c 11.681115
_cell_angle_alpha 90.000000
_cell_angle_beta 90.000000
_cell_angle_gamma 90.000000
_cell_volume 2682.735260
_symmetry_space_group_name_H-M "P C C N"
_symmetry_group_IT_number 56
_symmetry_cell_setting 'orthorhombic'
loop_
_space_group_symop_operation_xyz
x,y,z
1/2-x,1/2-y,z
1/2+x,-y,1/2-z
-x,1/2+y,1/2-z
-x,-y,-z
1/2+x,1/2+y,-z
1/2-x,y,1/2+z
x,1/2-y,1/2+z
loop_
_atom_site_type_symbol
_atom_site_label
_atom_site_fract_x
_atom_site_fract_y
_atom_site_fract_z
Si Si1 0.570567 0.400785 0.986177
Si Si2 0.123810 0.552458 0.753711
Si Si3 0.354032 0.849532 0.917869
Si Si4 0.494225 0.150698 0.843104
Si Si5 0.316044 0.334825 0.882510
Si Si6 0.750000 0.750000 0.444720
Si Si7 0.502412 0.240187 0.217609
Si Si8 0.068673 0.544828 0.288608
O O1 0.688233 0.358836 0.041736
O O2 0.518307 0.443611 0.081720
O O3 0.641185 0.430168 0.878380
O O4 0.421702 0.375689 0.944623
O O5 0.085844 0.603123 0.835153
O O6 0.268855 0.524874 0.795564
O O7 0.010591 0.504725 0.771105
O O8 0.368291 0.793290 0.844022
O O9 0.460678 0.847541 0.024654
O O10 0.323228 0.139553 0.819232
O O11 0.555658 0.206716 0.786563
O O12 0.571355 0.100121 0.784339
O O13 0.411354 0.298543 0.799851
O O14 0.226216 0.301670 0.975995
O O15 0.893256 0.737559 0.376012
#
# Coordination Sequence:
#
# PCOD8229768 Si02
#       8
#     8   8   8   8   8   4   8   8
#     4  11  25  48  71 104 145 185 236 306 362 438
#     4  11  25  49  73 102 144 186 242 304 361 438
#     4  11  25  48  74 103 149 190 236 301 363 434
#     4  12  24  44  72 109 144 189 242 295 360 436
#     4  12  23  39  70 102 137 185 237 289 350 425
#     4  12  20  40  62 104 142 178 232 286 334 416
#     4  12  22  42  72 101 145 189 235 291 356 425
#     4  11  27  46  73 105 141 186 241 301 368 435
#
# _framework density 22.365233
#
# number of rings (size 3 to 8) (size 9 to 14) (size 15 to 20)
#    0.000    0.533    6.667    1.200    1.867    1.600 
#    0.000   14.667    0.000    0.000    0.000    0.000 
#    0.000    0.000    0.000    0.000    0.000    0.000 
#
# Total GULP energy -743704.357403 kJ/mol
# GULP energy per Si atom -12395.072623 kJ/mol
# Density = 2.231433 g / cm^3
# Si number density = 22.365233 Si / 1000 Ang^3
#
#
#
# Elastic Constant Matrix: (Units=GPa)
#
#
# Indices 1 2 3 4 5 6 
#
# 1 69.5448 41.7222 8.9898 0.0000 0.0000 0.0000
# 2 41.7222 97.6480 36.0955 0.0000 0.0000 0.0000
# 3 8.9898 36.0955 106.4686 0.0000 0.0000 0.0000
# 4 0.0000 0.0000 0.0000 33.6406 0.0000 0.0000
# 5 0.0000 0.0000 0.0000 0.0000 58.7481 0.0000
# 6 0.0000 0.0000 0.0000 0.0000 0.0000 36.0068
#
#
#
# Elastic Compliance Matrix: (Units=1/GPa)
#
#
# Indices 1 2 3 4 5 6 
#
# 1 0.019503 -0.008831 0.001347 0.000000 0.000000 0.000000
# 2 -0.008831 0.015707 -0.004579 0.000000 0.000000 0.000000
# 3 0.001347 -0.004579 0.010831 0.000000 0.000000 0.000000
# 4 0.000000 0.000000 0.000000 0.029726 0.000000 0.000000
# 5 0.000000 0.000000 0.000000 0.000000 0.017022 0.000000
# 6 0.000000 0.000000 0.000000 0.000000 0.000000 0.027773
#
#
# Mechanical properties :
#
#
# Convention : Reuss Voigt Hill
#
# Bulk Modulus (GPa) = 45.63150 49.69737 47.66444
# Shear Modulus (GPa) = 32.89624 38.13604 35.51614
#
# Velocity S-wave (km/s) = 3.83935 4.13382 3.98930
# Velocity P-wave (km/s) = 6.33256 6.71221 6.52514
#
# Compressibility (1/GPa) = 0.02191469
#
# Stress axis : x y z
#
# Youngs Moduli (GPa) = 51.27374 63.66629 92.32587
#
# Poissons Ratio (x) = 0.56224 -0.12438
# Poissons Ratio (y) = 0.45280 0.42279
# Poissons Ratio (z) = -0.06908 0.29155
#
# Static dielectric constant tensor:
#      x y z
#    x 2.253410 0.000000 0.000000 
#    y 0.000000 3.815190 0.000000 
#    z 0.000000 0.000000 4.376000 
# 
# 
# High freq. dielectric constant tensor:
#      x y z
#    x 1.884590 0.000000 0.000000 
#    y 0.000000 1.869050 0.000000 
#    z 0.000000 0.000000 1.898960 
# 
# From -- ./inp_files/6553.got.cif
#   From: 2010.03.12/outbox.cif.g09.slc.cpg/sg56_4_cif.got.tgz:6553.got - 2010.04.16 15:33:40.
