data_PCOD8229691
_publ_section_title
;
Structure prediction by ZEFSAII (Michael W. Deem and Ramdas Pophale) SiO2 
 PCOD8229691
Probable space group: P C C N
;
_chemical_formula_sum "Si O2"
_cell_formula_units_Z 24
_cell_length_a 9.049929
_cell_length_b 7.130203
_cell_length_c 16.678683
_cell_angle_alpha 90.000000
_cell_angle_beta 90.000000
_cell_angle_gamma 90.000000
_cell_volume 1076.239236
_symmetry_space_group_name_H-M "P C C N"
_symmetry_group_IT_number 56
_symmetry_cell_setting 'orthorhombic'
loop_
_space_group_symop_operation_xyz
x,y,z
1/2-x,1/2-y,z
1/2+x,-y,1/2-z
-x,1/2+y,1/2-z
-x,-y,-z
1/2+x,1/2+y,-z
1/2-x,y,1/2+z
x,1/2-y,1/2+z
loop_
_atom_site_type_symbol
_atom_site_label
_atom_site_fract_x
_atom_site_fract_y
_atom_site_fract_z
Si Si1 0.441114 0.922380 0.083091
Si Si2 0.114564 0.548264 0.641330
Si Si3 0.907512 0.297881 0.184871
O O1 0.456919 0.695540 0.077879
O O2 0.277082 0.996194 0.107185
O O3 0.546500 0.000059 0.152531
O O4 0.500000 0.000000 0.000000
O O5 0.113900 0.679536 0.720426
O O6 0.024697 0.359139 0.656422
O O7 0.750000 0.250000 0.145522
#
# Coordination Sequence:
#
# PCOD8229691 Si02
#       3
#     8   8   8
#     4  11  26  46  69 106 150 186 239 301 374 438
#     4  11  23  47  73 101 141 192 243 297 363 437
#     4  12  23  43  74 104 137 187 246 304 356 438
#
# _framework density 22.299872000000001
#
# number of rings (size 3 to 8) (size 9 to 14) (size 15 to 20)
#    0.000    0.667    6.667    1.000    4.667    2.667 
#    6.000    0.000    0.000    0.000    0.000    0.000 
#    0.000    0.000    0.000    0.000    0.000    0.000 
#
# Total GULP energy -297367.730048 kJ/mol
# GULP energy per Si atom -12390.322085 kJ/mol
# Density = 2.224912 g / cm^3
# Si number density = 22.299872 Si / 1000 Ang^3
#
#
#
# Elastic Constant Matrix: (Units=GPa)
#
#
# Indices 1 2 3 4 5 6 
#
# 1 142.8608 44.9960 46.6635 0.0000 0.0000 0.0000
# 2 44.9960 75.1542 23.5544 0.0000 0.0000 0.0000
# 3 46.6635 23.5544 103.5974 0.0000 0.0000 0.0000
# 4 0.0000 0.0000 0.0000 21.9201 0.0000 0.0000
# 5 0.0000 0.0000 0.0000 0.0000 35.4070 0.0000
# 6 0.0000 0.0000 0.0000 0.0000 0.0000 43.1137
#
#
#
# Elastic Compliance Matrix: (Units=1/GPa)
#
#
# Indices 1 2 3 4 5 6 
#
# 1 0.009533 -0.004696 -0.003226 0.000000 0.000000 0.000000
# 2 -0.004696 0.016641 -0.001668 0.000000 0.000000 0.000000
# 3 -0.003226 -0.001668 0.011485 0.000000 0.000000 0.000000
# 4 0.000000 0.000000 0.000000 0.045620 0.000000 0.000000
# 5 0.000000 0.000000 0.000000 0.000000 0.028243 0.000000
# 6 0.000000 0.000000 0.000000 0.000000 0.000000 0.023194
#
#
# Mechanical properties :
#
#
# Convention : Reuss Voigt Hill
#
# Bulk Modulus (GPa) = 54.12004 61.33780 57.72892
# Shear Modulus (GPa) = 31.23902 33.84806 32.54354
#
# Velocity S-wave (km/s) = 3.74687 3.90020 3.82430
# Velocity P-wave (km/s) = 6.56053 6.91720 6.74123
#
# Compressibility (1/GPa) = 0.01847745
#
# Stress axis : x y z
#
# Youngs Moduli (GPa) = 104.90174 60.09427 87.06898
#
# Poissons Ratio (x) = 0.28222 0.28089
# Poissons Ratio (y) = 0.49265 0.14524
# Poissons Ratio (z) = 0.33842 0.10024
#
# Static dielectric constant tensor:
#      x y z
#    x 4.050050 0.000000 0.000000 
#    y 0.000000 4.914100 0.000000 
#    z 0.000000 0.000000 4.006940 
# 
# 
# High freq. dielectric constant tensor:
#      x y z
#    x 1.881770 0.000000 0.000000 
#    y 0.000000 1.891430 0.000000 
#    z 0.000000 0.000000 1.873740 
# 
# From -- ./inp_files/9921.got.cif
#   From: 2010.03.12/outbox.cif.g09.slc.cpg/sg56_5_cif.got.tgz:9921.got - 2010.04.16 15:33:40.
