data_PCOD8229561
_publ_section_title
;
Structure prediction by ZEFSAII (Michael W. Deem and Ramdas Pophale) SiO2 
 PCOD8229561
Probable space group: P C C N
;
_chemical_formula_sum "Si O2"
_cell_formula_units_Z 48
_cell_length_a 10.323826
_cell_length_b 8.690608
_cell_length_c 24.853914
_cell_angle_alpha 90.000000
_cell_angle_beta 90.000000
_cell_angle_gamma 90.000000
_cell_volume 2229.901237
_symmetry_space_group_name_H-M "P C C N"
_symmetry_group_IT_number 56
_symmetry_cell_setting 'orthorhombic'
loop_
_space_group_symop_operation_xyz
x,y,z
1/2-x,1/2-y,z
1/2+x,-y,1/2-z
-x,1/2+y,1/2-z
-x,-y,-z
1/2+x,1/2+y,-z
1/2-x,y,1/2+z
x,1/2-y,1/2+z
loop_
_atom_site_type_symbol
_atom_site_label
_atom_site_fract_x
_atom_site_fract_y
_atom_site_fract_z
Si Si1 0.771368 0.428296 0.648146
Si Si2 0.507964 0.884368 0.134164
Si Si3 0.483557 0.887842 0.427864
Si Si4 0.612649 0.669189 0.218618
Si Si5 0.389965 0.178267 0.160896
Si Si6 0.101660 0.802526 0.040711
O O1 0.750000 0.250000 0.661182
O O2 0.636906 0.514383 0.638565
O O3 0.847835 0.459361 0.592214
O O4 0.858463 0.496900 0.697097
O O5 0.509364 0.752493 0.179702
O O6 0.490477 0.805056 0.076565
O O7 0.386776 0.000043 0.142404
O O8 0.523876 0.777069 0.379332
O O9 0.455017 0.786297 0.480680
O O10 0.589630 0.019365 0.440258
O O11 0.750000 0.750000 0.217047
O O12 0.552283 0.674701 0.278370
O O13 0.250000 0.250000 0.160845
O O14 0.250000 0.750000 0.044519
#
# Coordination Sequence:
#
# PCOD8229561 Si02
#       6
#     8   8   8   8   8   8
#     4  11  21  43  68  99 129 173 226 271 332 401
#     4  11  23  40  70  97 130 181 214 276 332 396
#     4  11  24  45  68  95 137 172 226 286 325 408
#     4   9  22  41  65  98 134 167 225 267 329 403
#     4  11  24  43  63  99 137 177 221 276 333 400
#     4  11  25  45  67  98 134 177 223 282 340 400
#
# _framework density 21.525617
#
# number of rings (size 3 to 8) (size 9 to 14) (size 15 to 20)
#    0.000    1.333    3.333    1.500    2.333    0.667 
#    6.000    4.167    0.000    0.000    0.000    0.000 
#    0.000    0.000    0.000    0.000    0.000    0.000 
#
# Total GULP energy -595023.361386 kJ/mol
# GULP energy per Si atom -12396.320029 kJ/mol
# Density = 2.147662 g / cm^3
# Si number density = 21.525617 Si / 1000 Ang^3
#
#
#
# Elastic Constant Matrix: (Units=GPa)
#
#
# Indices 1 2 3 4 5 6 
#
# 1 70.4495 52.9470 52.6405 0.0000 0.0000 0.0000
# 2 52.9470 139.3941 80.3957 0.0000 0.0000 0.0000
# 3 52.6405 80.3957 197.3589 0.0000 0.0000 0.0000
# 4 0.0000 0.0000 0.0000 37.0775 0.0000 0.0000
# 5 0.0000 0.0000 0.0000 0.0000 28.8823 0.0000
# 6 0.0000 0.0000 0.0000 0.0000 0.0000 38.5299
#
#
#
# Elastic Compliance Matrix: (Units=1/GPa)
#
#
# Indices 1 2 3 4 5 6 
#
# 1 0.021230 -0.006272 -0.003108 0.000000 0.000000 0.000000
# 2 -0.006272 0.011230 -0.002902 0.000000 0.000000 0.000000
# 3 -0.003108 -0.002902 0.007078 0.000000 0.000000 0.000000
# 4 0.000000 0.000000 0.000000 0.026971 0.000000 0.000000
# 5 0.000000 0.000000 0.000000 0.000000 0.034623 0.000000
# 6 0.000000 0.000000 0.000000 0.000000 0.000000 0.025954
#
#
# Mechanical properties :
#
#
# Convention : Reuss Voigt Hill
#
# Bulk Modulus (GPa) = 66.77566 86.57432 76.67499
# Shear Modulus (GPa) = 31.92042 35.64589 33.78315
#
# Velocity S-wave (km/s) = 3.85503 4.07378 3.96591
# Velocity P-wave (km/s) = 7.13469 7.90153 7.52788
#
# Compressibility (1/GPa) = 0.01497552
#
# Stress axis : x y z
#
# Youngs Moduli (GPa) = 47.10261 89.05019 141.28514
#
# Poissons Ratio (x) = 0.55848 0.43910
# Poissons Ratio (y) = 0.29541 0.40997
# Poissons Ratio (z) = 0.14639 0.25840
#
# Static dielectric constant tensor:
#      x y z
#    x 3.903070 0.000000 0.000000 
#    y 0.000000 4.142640 0.000000 
#    z 0.000000 0.000000 4.167570 
# 
# 
# High freq. dielectric constant tensor:
#      x y z
#    x 1.834000 0.000000 0.000000 
#    y 0.000000 1.854210 0.000000 
#    z 0.000000 0.000000 1.854290 
# 
# From -- ./inp_files/22243.got.cif
#   From: 2010.03.12/outbox.cif.g09.slc.cpg/sg56_12_cif.got.tgz:22243.got - 2010.04.16 15:33:40.
