data_PCOD8229334
_publ_section_title
;
Structure prediction by ZEFSAII (Michael W. Deem and Ramdas Pophale) SiO2 
 PCOD8229334
Probable space group: P C C N
;
_chemical_formula_sum "Si O2"
_cell_formula_units_Z 52
_cell_length_a 24.497384
_cell_length_b 12.440792
_cell_length_c 8.623592
_cell_angle_alpha 90.000000
_cell_angle_beta 90.000000
_cell_angle_gamma 90.000000
_cell_volume 2628.185046
_symmetry_space_group_name_H-M "P C C N"
_symmetry_group_IT_number 56
_symmetry_cell_setting 'orthorhombic'
loop_
_space_group_symop_operation_xyz
x,y,z
1/2-x,1/2-y,z
1/2+x,-y,1/2-z
-x,1/2+y,1/2-z
-x,-y,-z
1/2+x,1/2+y,-z
1/2-x,y,1/2+z
x,1/2-y,1/2+z
loop_
_atom_site_type_symbol
_atom_site_label
_atom_site_fract_x
_atom_site_fract_y
_atom_site_fract_z
Si Si1 0.396544 0.556398 0.065583
Si Si2 0.534473 0.876077 0.287564
Si Si3 0.819855 0.157580 0.740436
Si Si4 0.418613 0.543544 0.733952
Si Si5 0.965860 0.841502 0.439256
Si Si6 0.410754 0.794955 0.987553
Si Si7 0.250000 0.750000 0.998885
O O1 0.444090 0.483130 0.131866
O O2 0.343871 0.547000 0.183957
O O3 0.417304 0.680445 0.072809
O O4 0.381748 0.523116 0.887992
O O5 0.468794 0.880792 0.291906
O O6 0.555934 0.773957 0.383951
O O7 0.555653 0.865530 0.111753
O O8 0.869684 0.219600 0.656771
O O9 0.769539 0.152000 0.617469
O O10 0.801790 0.220801 0.896627
O O11 0.441465 0.431281 0.672922
O O12 0.386449 0.612902 0.604609
O O13 0.031497 0.844126 0.431306
#
# Coordination Sequence:
#
# PCOD8229334 Si02
#       7
#     8   8   8   8   8   8   4
#     4  12  22  35  57  82 113 159 197 238 290 349
#     4  11  23  35  53  78 117 162 210 247 280 323
#     4  11  22  38  57  83 116 152 188 236 298 367
#     4  11  23  34  55  80 114 160 208 242 280 331
#     4  11  23  38  52  80 121 163 208 246 272 323
#     4  11  22  36  57  82 116 161 200 240 288 344
#     4  10  24  38  58  84 116 150 178 242 314 366
#
# _framework density 19.785516999999999
#
# number of rings (size 3 to 8) (size 9 to 14) (size 15 to 20)
#    0.000    0.923    3.077    6.000    6.462    0.000 
#    0.000    0.000    0.000    0.000    0.000    0.000 
#    0.000   33.231    0.000    0.000    0.000    0.000 
#
# Total GULP energy -644265.615588 kJ/mol
# GULP energy per Si atom -12389.723377 kJ/mol
# Density = 1.974048 g / cm^3
# Si number density = 19.785517 Si / 1000 Ang^3
#
#
#
# Elastic Constant Matrix: (Units=GPa)
#
#
# Indices 1 2 3 4 5 6 
#
# 1 52.6483 24.3045 47.5358 0.0000 0.0000 0.0000
# 2 24.3045 98.3669 47.8712 0.0000 0.0000 0.0000
# 3 47.5358 47.8712 149.4871 0.0000 0.0000 0.0000
# 4 0.0000 0.0000 0.0000 39.4538 0.0000 0.0000
# 5 0.0000 0.0000 0.0000 0.0000 36.9306 0.0000
# 6 0.0000 0.0000 0.0000 0.0000 0.0000 14.3604
#
#
#
# Elastic Compliance Matrix: (Units=1/GPa)
#
#
# Indices 1 2 3 4 5 6 
#
# 1 0.027368 -0.002993 -0.007744 0.000000 0.000000 0.000000
# 2 -0.002993 0.012370 -0.003010 0.000000 0.000000 0.000000
# 3 -0.007744 -0.003010 0.010116 0.000000 0.000000 0.000000
# 4 0.000000 0.000000 0.000000 0.025346 0.000000 0.000000
# 5 0.000000 0.000000 0.000000 0.000000 0.027078 0.000000
# 6 0.000000 0.000000 0.000000 0.000000 0.000000 0.069636
#
#
# Mechanical properties :
#
#
# Convention : Reuss Voigt Hill
#
# Bulk Modulus (GPa) = 44.72271 59.99169 52.35720
# Shear Modulus (GPa) = 24.17076 30.20167 27.18621
#
# Velocity S-wave (km/s) = 3.49899 3.91122 3.71083
# Velocity P-wave (km/s) = 6.24313 7.12627 6.69927
#
# Compressibility (1/GPa) = 0.02236000
#
# Stress axis : x y z
#
# Youngs Moduli (GPa) = 36.53894 80.83929 98.85386
#
# Poissons Ratio (x) = 0.24197 0.76555
# Poissons Ratio (y) = 0.10937 0.29751
# Poissons Ratio (z) = 0.28297 0.24329
#
# Static dielectric constant tensor:
#      x y z
#    x 3.384080 0.000000 0.000000 
#    y 0.000000 3.399080 0.000000 
#    z 0.000000 0.000000 4.293000 
# 
# 
# High freq. dielectric constant tensor:
#      x y z
#    x 1.720180 0.000000 0.000000 
#    y 0.000000 1.738960 0.000000 
#    z 0.000000 0.000000 1.817810 
# 
# From -- ./inp_files/2866.got.cif
#   From: 2010.03.12/outbox.cif.g09.slc.cpg/sg56_2_cif.got.tgz:2866.got - 2010.04.16 15:33:40.
