data_PCOD8229748
_publ_section_title
;
Structure prediction by ZEFSAII (Michael W. Deem and Ramdas Pophale) SiO2 
 PCOD8229748
Probable space group: P C C N
;
_chemical_formula_sum "Si O2"
_cell_formula_units_Z 48
_cell_length_a 9.019733
_cell_length_b 8.136893
_cell_length_c 29.322802
_cell_angle_alpha 90.000000
_cell_angle_beta 90.000000
_cell_angle_gamma 90.000000
_cell_volume 2152.076746
_symmetry_space_group_name_H-M "P C C N"
_symmetry_group_IT_number 56
_symmetry_cell_setting 'orthorhombic'
loop_
_space_group_symop_operation_xyz
x,y,z
1/2-x,1/2-y,z
1/2+x,-y,1/2-z
-x,1/2+y,1/2-z
-x,-y,-z
1/2+x,1/2+y,-z
1/2-x,y,1/2+z
x,1/2-y,1/2+z
loop_
_atom_site_type_symbol
_atom_site_label
_atom_site_fract_x
_atom_site_fract_y
_atom_site_fract_z
Si Si1 0.592575 0.939323 0.865213
Si Si2 0.081878 0.054918 0.955014
Si Si3 0.073119 0.438084 0.953763
Si Si4 0.880406 0.631366 0.708104
Si Si5 0.936433 0.565649 0.366908
Si Si6 0.883261 0.137174 0.279358
O O1 0.559835 0.752971 0.850071
O O2 0.765054 0.983189 0.872786
O O3 0.500525 0.974509 0.910609
O O4 0.540582 0.048672 0.822712
O O5 0.050019 0.245463 0.946641
O O6 0.255189 0.015068 0.957440
O O7 0.013753 0.944825 0.915450
O O8 0.000000 0.000000 0.000000
O O9 0.000000 0.500000 0.000000
O O10 0.750000 0.750000 0.689261
O O11 0.821096 0.487321 0.741053
O O12 0.974652 0.554494 0.666909
O O13 0.986946 0.744950 0.739628
O O14 0.750000 0.250000 0.296343
#
# Coordination Sequence:
#
# PCOD8229748 Si02
#       6
#     8   8   8   8   8   8
#     4  11  25  45  72  99 140 187 243 289 354 431
#     4  11  25  44  69 103 144 180 232 291 353 423
#     4  11  25  44  70 103 140 186 233 286 353 424
#     4  12  27  44  72 104 145 185 244 302 363 434
#     4  11  25  45  70 103 139 187 238 296 356 423
#     4  12  25  47  71 102 140 193 239 296 367 427
#
# _framework density 22.304036
#
# number of rings (size 3 to 8) (size 9 to 14) (size 15 to 20)
#    0.000    0.667    1.667    5.000    7.000    6.667 
#    0.000    0.000    0.000    0.000    0.000    0.000 
#    0.000    0.000    0.000    0.000    0.000    0.000 
#
# Total GULP energy -595227.312958 kJ/mol
# GULP energy per Si atom -12400.569020 kJ/mol
# Density = 2.225327 g / cm^3
# Si number density = 22.304036 Si / 1000 Ang^3
#
#
#
# Elastic Constant Matrix: (Units=GPa)
#
#
# Indices 1 2 3 4 5 6 
#
# 1 134.3796 70.9039 48.1359 0.0000 0.0000 0.0000
# 2 70.9039 109.2032 42.3138 0.0000 0.0000 0.0000
# 3 48.1359 42.3138 122.7502 0.0000 0.0000 0.0000
# 4 0.0000 0.0000 0.0000 33.7121 0.0000 0.0000
# 5 0.0000 0.0000 0.0000 0.0000 37.3786 0.0000
# 6 0.0000 0.0000 0.0000 0.0000 0.0000 45.9672
#
#
#
# Elastic Compliance Matrix: (Units=1/GPa)
#
#
# Indices 1 2 3 4 5 6 
#
# 1 0.011858 -0.006807 -0.002304 0.000000 0.000000 0.000000
# 2 -0.006807 0.014476 -0.002321 0.000000 0.000000 0.000000
# 3 -0.002304 -0.002321 0.009850 0.000000 0.000000 0.000000
# 4 0.000000 0.000000 0.000000 0.029663 0.000000 0.000000
# 5 0.000000 0.000000 0.000000 0.000000 0.026753 0.000000
# 6 0.000000 0.000000 0.000000 0.000000 0.000000 0.021755
#
#
# Mechanical properties :
#
#
# Convention : Reuss Voigt Hill
#
# Bulk Modulus (GPa) = 75.06594 76.56000 75.81297
# Shear Modulus (GPa) = 35.29608 37.07687 36.18647
#
# Velocity S-wave (km/s) = 3.98238 4.08160 4.03230
# Velocity P-wave (km/s) = 7.40774 7.52415 7.46617
#
# Compressibility (1/GPa) = 0.01332162
#
# Stress axis : x y z
#
# Youngs Moduli (GPa) = 84.32864 69.07958 101.52197
#
# Poissons Ratio (x) = 0.47021 0.23389
# Poissons Ratio (y) = 0.57401 0.23562
# Poissons Ratio (z) = 0.19428 0.16032
#
# Static dielectric constant tensor:
#      x y z
#    x 4.151240 0.000000 0.000000 
#    y 0.000000 9.532240 0.000000 
#    z 0.000000 0.000000 4.088640 
# 
# 
# High freq. dielectric constant tensor:
#      x y z
#    x 1.889330 0.000000 0.000000 
#    y 0.000000 1.901290 0.000000 
#    z 0.000000 0.000000 1.878410 
# 
# From -- ./inp_files/23238.got.cif
#   From: 2010.03.12/outbox.cif.g09.slc.cpg/sg56_12_cif.got.tgz:23238.got - 2010.04.16 15:33:40.
