data_PCOD8229595
_publ_section_title
;
Structure prediction by ZEFSAII (Michael W. Deem and Ramdas Pophale) SiO2 
 PCOD8229595
Probable space group: P C C N
;
_chemical_formula_sum "Si O2"
_cell_formula_units_Z 40
_cell_length_a 8.395846
_cell_length_b 10.562662
_cell_length_c 20.681576
_cell_angle_alpha 90.000000
_cell_angle_beta 90.000000
_cell_angle_gamma 90.000000
_cell_volume 1834.093522
_symmetry_space_group_name_H-M "P C C N"
_symmetry_group_IT_number 56
_symmetry_cell_setting 'orthorhombic'
loop_
_space_group_symop_operation_xyz
x,y,z
1/2-x,1/2-y,z
1/2+x,-y,1/2-z
-x,1/2+y,1/2-z
-x,-y,-z
1/2+x,1/2+y,-z
1/2-x,y,1/2+z
x,1/2-y,1/2+z
loop_
_atom_site_type_symbol
_atom_site_label
_atom_site_fract_x
_atom_site_fract_y
_atom_site_fract_z
Si Si1 0.414711 0.184239 0.000187
Si Si2 0.920487 0.014516 0.592041
Si Si3 0.426973 0.904910 0.448456
Si Si4 0.069875 0.106136 0.191533
Si Si5 0.560831 0.894922 0.780612
O O1 0.250000 0.250000 0.016675
O O2 0.416615 0.135197 0.925695
O O3 0.431420 0.069018 0.050851
O O4 0.565678 0.272885 0.013339
O O5 0.752201 0.069850 0.570335
O O6 0.945199 0.040049 0.666904
O O7 0.534610 0.890729 0.384400
O O8 0.500000 0.000000 0.500000
O O9 0.256618 0.085759 0.201077
O O10 0.020583 0.243200 0.224462
O O11 0.976011 0.981703 0.218013
#
# Coordination Sequence:
#
# PCOD8229595 Si02
#       5
#     8   8   8   8   8
#     4  11  22  41  63  98 139 175 222 275 336 404
#     4  11  24  40  70  98 134 181 227 276 342 407
#     4  12  24  41  69 101 137 179 225 273 341 402
#     4  11  26  46  73  99 135 181 227 289 337 409
#     4  11  25  48  72  99 136 178 233 281 346 403
#
# _framework density 21.809138000000001
#
# number of rings (size 3 to 8) (size 9 to 14) (size 15 to 20)
#    0.000    0.800    4.000    3.000    2.800    4.000 
#    3.600    0.000    0.000    0.000    0.000    0.000 
#    0.000    0.000    0.000    0.000    0.000    0.000 
#
# Total GULP energy -495606.485988 kJ/mol
# GULP energy per Si atom -12390.162150 kJ/mol
# Density = 2.175950 g / cm^3
# Si number density = 21.809138 Si / 1000 Ang^3
#
#
#
# Elastic Constant Matrix: (Units=GPa)
#
#
# Indices 1 2 3 4 5 6 
#
# 1 115.5823 46.8130 33.5931 0.0000 0.0000 0.0000
# 2 46.8130 133.4394 59.9595 0.0000 0.0000 0.0000
# 3 33.5931 59.9595 63.1201 0.0000 0.0000 0.0000
# 4 0.0000 0.0000 0.0000 37.8918 0.0000 0.0000
# 5 0.0000 0.0000 0.0000 0.0000 32.1969 0.0000
# 6 0.0000 0.0000 0.0000 0.0000 0.0000 35.5706
#
#
#
# Elastic Compliance Matrix: (Units=1/GPa)
#
#
# Indices 1 2 3 4 5 6 
#
# 1 0.010548 -0.002055 -0.003662 0.000000 0.000000 0.000000
# 2 -0.002055 0.013475 -0.011707 0.000000 0.000000 0.000000
# 3 -0.003662 -0.011707 0.028912 0.000000 0.000000 0.000000
# 4 0.000000 0.000000 0.000000 0.026391 0.000000 0.000000
# 5 0.000000 0.000000 0.000000 0.000000 0.031059 0.000000
# 6 0.000000 0.000000 0.000000 0.000000 0.000000 0.028113
#
#
# Mechanical properties :
#
#
# Convention : Reuss Voigt Hill
#
# Bulk Modulus (GPa) = 55.28333 65.87477 60.57905
# Shear Modulus (GPa) = 27.87442 32.58361 30.22901
#
# Velocity S-wave (km/s) = 3.57894 3.86947 3.72704
# Velocity P-wave (km/s) = 6.51783 7.08762 6.80869
#
# Compressibility (1/GPa) = 0.01808863
#
# Stress axis : x y z
#
# Youngs Moduli (GPa) = 94.80021 74.20938 34.58752
#
# Poissons Ratio (x) = 0.15252 0.12665
# Poissons Ratio (y) = 0.19484 0.40491
# Poissons Ratio (z) = 0.34712 0.86875
#
# Static dielectric constant tensor:
#      x y z
#    x 4.391630 0.000000 0.000000 
#    y 0.000000 4.149840 0.000000 
#    z 0.000000 0.000000 3.926060 
# 
# 
# High freq. dielectric constant tensor:
#      x y z
#    x 1.868740 0.000000 0.000000 
#    y 0.000000 1.870470 0.000000 
#    z 0.000000 0.000000 1.844260 
# 
# From -- ./inp_files/15410.got.cif
#   From: 2010.03.12/outbox.cif.g09.slc.cpg/sg56_8_cif.got.tgz:15410.got - 2010.04.16 15:33:40.
