data_PCOD8229954
_publ_section_title
;
Structure prediction by ZEFSAII (Michael W. Deem and Ramdas Pophale) SiO2 
 PCOD8229954
Probable space group: P B C M
;
_chemical_formula_sum "Si O2"
_cell_formula_units_Z 56
_cell_length_a 17.527287
_cell_length_b 21.953860
_cell_length_c 9.072873
_cell_angle_alpha 90.000000
_cell_angle_beta 90.000000
_cell_angle_gamma 90.000000
_cell_volume 3491.165363
_symmetry_space_group_name_H-M "P B C M"
_symmetry_group_IT_number 57
_symmetry_cell_setting 'orthorhombic'
loop_
_space_group_symop_operation_xyz
x,y,z
-x,-y,1/2+z
x,1/2-y,-z
-x,1/2+y,1/2-z
-x,-y,-z
x,y,1/2-z
-x,1/2+y,z
x,1/2-y,1/2+z
loop_
_atom_site_type_symbol
_atom_site_label
_atom_site_fract_x
_atom_site_fract_y
_atom_site_fract_z
Si Si1 0.402788 0.043483 0.919394
Si Si2 0.907861 0.557390 0.085604
Si Si3 0.785441 0.393743 0.074768
Si Si4 0.539566 0.087272 0.422404
Si Si5 0.337591 0.685972 0.074038
Si Si6 0.952089 0.416620 0.413029
Si Si7 0.765704 0.978572 0.077949
O O1 0.424969 0.049593 0.750000
O O2 0.313575 0.057558 0.945626
O O3 0.419610 0.974830 0.975112
O O4 0.455385 0.091862 0.005851
O O5 0.889459 0.580570 0.250000
O O6 0.932517 0.487679 0.086429
O O7 0.832698 0.564505 0.984732
O O8 0.977677 0.597830 0.021966
O O9 0.770368 0.394483 0.250000
O O10 0.875075 0.381268 0.040171
O O11 0.740212 0.339992 0.994876
O O12 0.759923 0.458154 0.008578
O O13 0.527983 0.088780 0.250000
O O14 0.592134 0.143078 0.473092
O O15 0.328642 0.691283 0.250000
O O16 0.355454 0.750000 0.000000
O O17 0.977913 0.396634 0.250000
O O18 0.780166 0.992793 0.250000
#
# Coordination Sequence:
#
# PCOD8229954 Si02
#       7
#     8   8   8   8   8   8   8
#     4   9  17  29  45  66  89 117 151 186 227 277
#     4   9  16  24  36  58  84 114 150 180 213 257
#     4  10  19  30  45  64  85 115 154 189 225 269
#     4   9  18  32  46  64  88 115 149 188 230 274
#     4  11  22  36  50  67  91 119 154 192 233 274
#     4   8  15  26  38  55  81 113 147 180 215 256
#     4  10  17  27  42  62  91 121 149 185 225 269
#
# _framework density 16.040488
#
# number of rings (size 3 to 8) (size 9 to 14) (size 15 to 20)
#    0.000    2.571    1.429    2.571    0.000    6.286 
#    0.000    0.000    0.000    0.000    0.000    0.000 
#    0.000    1.143    0.000    8.000    0.000    6.000 
#
# Total GULP energy -694192.651994 kJ/mol
# GULP energy per Si atom -12396.297357 kJ/mol
# Density = 1.600398 g / cm^3
# Si number density = 16.040488 Si / 1000 Ang^3
#
#
#
# Elastic Constant Matrix: (Units=GPa)
#
#
# Indices 1 2 3 4 5 6 
#
# 1 130.8389 44.1932 62.5492 0.0000 0.0000 0.0000
# 2 44.1932 51.4829 32.2216 0.0000 0.0000 0.0000
# 3 62.5492 32.2216 88.9510 0.0000 0.0000 0.0000
# 4 0.0000 0.0000 0.0000 18.0153 0.0000 0.0000
# 5 0.0000 0.0000 0.0000 0.0000 33.1815 0.0000
# 6 0.0000 0.0000 0.0000 0.0000 0.0000 15.4545
#
#
#
# Elastic Compliance Matrix: (Units=1/GPa)
#
#
# Indices 1 2 3 4 5 6 
#
# 1 0.013297 -0.007193 -0.006745 0.000000 0.000000 0.000000
# 2 -0.007193 0.029010 -0.005451 0.000000 0.000000 0.000000
# 3 -0.006745 -0.005451 0.017959 0.000000 0.000000 0.000000
# 4 0.000000 0.000000 0.000000 0.055508 0.000000 0.000000
# 5 0.000000 0.000000 0.000000 0.000000 0.030137 0.000000
# 6 0.000000 0.000000 0.000000 0.000000 0.000000 0.064706
#
#
# Mechanical properties :
#
#
# Convention : Reuss Voigt Hill
#
# Bulk Modulus (GPa) = 46.53386 61.02233 53.77810
# Shear Modulus (GPa) = 19.48884 22.15082 20.81983
#
# Velocity S-wave (km/s) = 3.48943 3.72012 3.60662
# Velocity P-wave (km/s) = 6.73113 7.52181 7.13743
#
# Compressibility (1/GPa) = 0.02148973
#
# Stress axis : x y z
#
# Youngs Moduli (GPa) = 75.20573 34.47133 55.68145
#
# Poissons Ratio (x) = 0.24795 0.37555
# Poissons Ratio (y) = 0.54094 0.30349
# Poissons Ratio (z) = 0.50724 0.18789
#
# Static dielectric constant tensor:
#      x y z
#    x 3.339670 0.000000 0.000000 
#    y 0.000000 2.538690 0.000000 
#    z 0.000000 0.000000 3.188130 
# 
# 
# High freq. dielectric constant tensor:
#      x y z
#    x 1.629880 0.000000 0.000000 
#    y 0.000000 1.541770 0.000000 
#    z 0.000000 0.000000 1.630230 
# 
# From -- ./inp_files/7059.got.cif
#   From: 2010.03.12/outbox.cif.g09.slc.cpg/sg57_4_cif.got.tgz:7059.got - 2010.04.16 15:48:40.
