data_PCOD8229666
_publ_section_title
;
Structure prediction by ZEFSAII (Michael W. Deem and Ramdas Pophale) SiO2 
 PCOD8229666
Probable space group: P C C N
;
_chemical_formula_sum "Si O2"
_cell_formula_units_Z 56
_cell_length_a 28.460696
_cell_length_b 6.524063
_cell_length_c 13.561969
_cell_angle_alpha 90.000000
_cell_angle_beta 90.000000
_cell_angle_gamma 90.000000
_cell_volume 2518.177910
_symmetry_space_group_name_H-M "P C C N"
_symmetry_group_IT_number 56
_symmetry_cell_setting 'orthorhombic'
loop_
_space_group_symop_operation_xyz
x,y,z
1/2-x,1/2-y,z
1/2+x,-y,1/2-z
-x,1/2+y,1/2-z
-x,-y,-z
1/2+x,1/2+y,-z
1/2-x,y,1/2+z
x,1/2-y,1/2+z
loop_
_atom_site_type_symbol
_atom_site_label
_atom_site_fract_x
_atom_site_fract_y
_atom_site_fract_z
Si Si1 0.663721 0.850438 0.560791
Si Si2 0.697180 0.705566 0.358305
Si Si3 0.039165 0.624662 0.805953
Si Si4 0.199740 0.644541 0.282593
Si Si5 0.431356 0.561764 0.961153
Si Si6 0.862913 0.970232 0.718939
Si Si7 0.496913 0.757163 0.103967
O O1 0.692204 0.734428 0.475034
O O2 0.640808 0.670745 0.623473
O O3 0.700167 0.982784 0.626657
O O4 0.622626 0.999931 0.521147
O O5 0.750000 0.750000 0.323413
O O6 0.686540 0.475666 0.319137
O O7 0.661583 0.869024 0.312506
O O8 0.061440 0.823840 0.857218
O O9 0.081756 0.491370 0.760358
O O10 0.004545 0.683075 0.717536
O O11 0.009658 0.498599 0.889207
O O12 0.250000 0.750000 0.273227
O O13 0.159861 0.810145 0.302913
O O14 0.462932 0.357201 0.958772
O O15 0.447083 0.712512 0.050627
#
# Coordination Sequence:
#
# PCOD8229666 Si02
#       7
#     8   8   8   8   8   8   8
#     4  11  25  44  69 100 135 179 223 281 337 403
#     4  11  25  44  68 100 137 174 228 276 334 405
#     4  12  22  44  67  98 131 178 228 269 349 397
#     4  11  24  46  70  96 137 178 221 279 341 397
#     4  11  23  44  63 100 136 169 227 276 329 401
#     4  11  24  44  68  99 137 174 223 286 331 402
#     4  11  24  40  68  94 134 177 220 280 331 401
#
# _framework density 22.238302999999998
#
# number of rings (size 3 to 8) (size 9 to 14) (size 15 to 20)
#    0.000    0.857    5.714    1.286    2.000    1.143 
#    2.571    0.000    0.000    0.000    0.000    0.000 
#    0.000    0.000    0.000    0.000    0.000    0.000 
#
# Total GULP energy -694543.896086 kJ/mol
# GULP energy per Si atom -12402.569573 kJ/mol
# Density = 2.218769 g / cm^3
# Si number density = 22.238303 Si / 1000 Ang^3
#
#
#
# Elastic Constant Matrix: (Units=GPa)
#
#
# Indices 1 2 3 4 5 6 
#
# 1 69.2039 27.1386 15.0687 0.0000 0.0000 0.0000
# 2 27.1386 94.1081 19.4831 0.0000 0.0000 0.0000
# 3 15.0687 19.4831 77.8963 0.0000 0.0000 0.0000
# 4 0.0000 0.0000 0.0000 17.1971 0.0000 0.0000
# 5 0.0000 0.0000 0.0000 0.0000 28.7217 0.0000
# 6 0.0000 0.0000 0.0000 0.0000 0.0000 37.6584
#
#
#
# Elastic Compliance Matrix: (Units=1/GPa)
#
#
# Indices 1 2 3 4 5 6 
#
# 1 0.016620 -0.004353 -0.002126 0.000000 0.000000 0.000000
# 2 -0.004353 0.012346 -0.002246 0.000000 0.000000 0.000000
# 3 -0.002126 -0.002246 0.013811 0.000000 0.000000 0.000000
# 4 0.000000 0.000000 0.000000 0.058149 0.000000 0.000000
# 5 0.000000 0.000000 0.000000 0.000000 0.034817 0.000000
# 6 0.000000 0.000000 0.000000 0.000000 0.000000 0.026555
#
#
# Mechanical properties :
#
#
# Convention : Reuss Voigt Hill
#
# Bulk Modulus (GPa) = 39.48374 40.50992 39.99683
# Shear Modulus (GPa) = 26.56890 28.68329 27.62610
#
# Velocity S-wave (km/s) = 3.46025 3.59530 3.52842
# Velocity P-wave (km/s) = 5.81014 5.95741 5.88424
#
# Compressibility (1/GPa) = 0.02532688
#
# Stress axis : x y z
#
# Youngs Moduli (GPa) = 60.16866 80.99619 72.40771
#
# Poissons Ratio (x) = 0.35254 0.15397
# Poissons Ratio (y) = 0.26189 0.16263
# Poissons Ratio (z) = 0.12794 0.18192
#
# Static dielectric constant tensor:
#      x y z
#    x 3.899390 0.000000 0.000000 
#    y 0.000000 4.128880 0.000000 
#    z 0.000000 0.000000 3.831420 
# 
# 
# High freq. dielectric constant tensor:
#      x y z
#    x 1.873910 0.000000 0.000000 
#    y 0.000000 1.882390 0.000000 
#    z 0.000000 0.000000 1.869530 
# 
# From -- ./inp_files/13479.got.cif
#   From: 2010.03.12/outbox.cif.g09.slc.cpg/sg56_7_cif.got.tgz:13479.got - 2010.04.16 15:33:40.
