data_PCOD8229877
_publ_section_title
;
Structure prediction by ZEFSAII (Michael W. Deem and Ramdas Pophale) SiO2 
 PCOD8229877
Probable space group: P C C N
;
_chemical_formula_sum "Si O2"
_cell_formula_units_Z 32
_cell_length_a 10.586222
_cell_length_b 10.586234
_cell_length_c 14.101683
_cell_angle_alpha 90.000000
_cell_angle_beta 90.000000
_cell_angle_gamma 90.000000
_cell_volume 1580.350559
_symmetry_space_group_name_H-M "P C C N"
_symmetry_group_IT_number 56
_symmetry_cell_setting 'orthorhombic'
loop_
_space_group_symop_operation_xyz
x,y,z
1/2-x,1/2-y,z
1/2+x,-y,1/2-z
-x,1/2+y,1/2-z
-x,-y,-z
1/2+x,1/2+y,-z
1/2-x,y,1/2+z
x,1/2-y,1/2+z
loop_
_atom_site_type_symbol
_atom_site_label
_atom_site_fract_x
_atom_site_fract_y
_atom_site_fract_z
Si Si1 0.044616 0.749060 0.749036
Si Si2 0.106038 0.101725 0.604236
Si Si3 0.250941 0.955383 0.749036
Si Si4 0.101725 0.393962 0.895764
O O1 0.125870 0.874129 0.772053
O O2 0.134108 0.634108 0.715728
O O3 0.970247 0.713817 0.844674
O O4 0.941774 0.773067 0.666317
O O5 0.149461 0.149461 0.500000
O O6 0.226934 0.058226 0.666317
O O7 0.021738 0.978262 0.591684
O O8 0.286183 0.029753 0.844675
#
# Coordination Sequence:
#
# PCOD8229877 Si02
#       4
#     8   8   8   8
#     4   9  18  33  52  74 102 133 164 203 248 292
#     4   9  18  33  53  76 101 131 168 206 246 296
#     4   9  18  33  52  74 102 133 164 203 248 292
#     4   9  18  33  53  76 101 131 168 206 246 296
#
# _framework density 20.248671999999999
#
# number of rings (size 3 to 8) (size 9 to 14) (size 15 to 20)
#    0.000    3.000    0.000    0.000    0.000    3.000 
#    0.000   15.000    0.000    9.000    0.000    0.000 
#    0.000    0.000    0.000    0.000    0.000    0.000 
#
# Total GULP energy -396663.296765 kJ/mol
# GULP energy per Si atom -12395.728024 kJ/mol
# Density = 2.020259 g / cm^3
# Si number density = 20.248672 Si / 1000 Ang^3
#
#
#
# Elastic Constant Matrix: (Units=GPa)
#
#
# Indices 1 2 3 4 5 6 
#
# 1 62.8445 44.4997 53.6700 0.0000 0.0000 0.0000
# 2 44.4997 62.8452 53.6705 0.0000 0.0000 0.0000
# 3 53.6700 53.6705 179.7882 0.0000 0.0000 0.0000
# 4 0.0000 0.0000 0.0000 15.1475 0.0000 0.0000
# 5 0.0000 0.0000 0.0000 0.0000 15.1473 0.0000
# 6 0.0000 0.0000 0.0000 0.0000 0.0000 32.6921
#
#
#
# Elastic Compliance Matrix: (Units=1/GPa)
#
#
# Indices 1 2 3 4 5 6 
#
# 1 0.033895 -0.020615 -0.003964 0.000000 0.000000 0.000000
# 2 -0.020615 0.033895 -0.003964 0.000000 0.000000 0.000000
# 3 -0.003964 -0.003964 0.007929 0.000000 0.000000 0.000000
# 4 0.000000 0.000000 0.000000 0.066017 0.000000 0.000000
# 5 0.000000 0.000000 0.000000 0.000000 0.066018 0.000000
# 6 0.000000 0.000000 0.000000 0.000000 0.000000 0.030588
#
#
# Mechanical properties :
#
#
# Convention : Reuss Voigt Hill
#
# Bulk Modulus (GPa) = 53.67226 67.68425 60.67825
# Shear Modulus (GPa) = 16.57597 22.83990 19.70794
#
# Velocity S-wave (km/s) = 2.86426 3.36217 3.12315
# Velocity P-wave (km/s) = 6.12395 6.96931 6.56026
#
# Compressibility (1/GPa) = 0.01863160
#
# Stress axis : x y z
#
# Youngs Moduli (GPa) = 29.50263 29.50297 126.11995
#
# Poissons Ratio (x) = 0.60821 0.49998
# Poissons Ratio (y) = 0.60820 0.49998
# Poissons Ratio (z) = 0.11696 0.11696
#
# Static dielectric constant tensor:
#      x y z
#    x 3.611510 0.000000 0.000000 
#    y 0.000000 3.611510 0.000000 
#    z 0.000000 0.000000 3.957620 
# 
# 
# High freq. dielectric constant tensor:
#      x y z
#    x 1.785200 0.000000 0.000000 
#    y 0.000000 1.785200 0.000000 
#    z 0.000000 0.000000 1.781250 
# 
# From -- ./inp_files/6757.got.cif
#   From: 2010.03.12/outbox.cif.g09.slc.cpg/sg56_4_cif.got.tgz:6757.got - 2010.04.16 15:33:40.
