data_PCOD8229023
_publ_section_title
;
Structure prediction by ZEFSAII (Michael W. Deem and Ramdas Pophale) SiO2 
 PCOD8229023
Probable space group: P C C N
;
_chemical_formula_sum "Si O2"
_cell_formula_units_Z 64
_cell_length_a 14.943870
_cell_length_b 21.857838
_cell_length_c 8.942008
_cell_angle_alpha 90.000000
_cell_angle_beta 90.000000
_cell_angle_gamma 90.000000
_cell_volume 2920.823659
_symmetry_space_group_name_H-M "P C C N"
_symmetry_group_IT_number 56
_symmetry_cell_setting 'orthorhombic'
loop_
_space_group_symop_operation_xyz
x,y,z
1/2-x,1/2-y,z
1/2+x,-y,1/2-z
-x,1/2+y,1/2-z
-x,-y,-z
1/2+x,1/2+y,-z
1/2-x,y,1/2+z
x,1/2-y,1/2+z
loop_
_atom_site_type_symbol
_atom_site_label
_atom_site_fract_x
_atom_site_fract_y
_atom_site_fract_z
Si Si1 0.492107 0.215587 0.106574
Si Si2 0.693616 0.490859 0.870449
Si Si3 0.553460 0.408321 0.706954
Si Si4 0.329910 0.116360 0.785294
Si Si5 0.612412 0.435632 0.386405
Si Si6 0.570522 0.981440 0.622340
Si Si7 0.295720 0.189045 0.072751
Si Si8 0.984030 0.327812 0.787142
O O1 0.557512 0.164395 0.180180
O O2 0.388809 0.206502 0.155595
O O3 0.531300 0.281762 0.150224
O O4 0.490500 0.214246 0.927727
O O5 0.631670 0.435427 0.811513
O O6 0.697803 0.546220 0.751158
O O7 0.787620 0.459446 0.902674
O O8 0.664375 0.518754 0.033356
O O9 0.559688 0.441057 0.544015
O O10 0.458625 0.418670 0.794581
O O11 0.272320 0.164478 0.694483
O O12 0.435079 0.125199 0.749348
O O13 0.312213 0.132965 0.958020
O O14 0.561960 0.472225 0.258721
O O15 0.606324 0.365546 0.325709
O O16 0.500000 0.000000 0.500000
O O17 0.250000 0.250000 0.000787
#
# Coordination Sequence:
#
# PCOD8229023 Si02
#       8
#     8   8   8   8   8   8   8   8
#     4  10  23  39  65  91 127 175 218 265 334 396
#     4  11  25  42  64 101 131 173 227 281 335 403
#     4  10  23  43  65  93 133 175 219 275 341 402
#     4  11  25  39  63  95 131 171 218 266 331 395
#     4  11  23  41  66  93 135 175 223 283 332 399
#     4  10  22  40  63  91 129 172 215 267 337 396
#     4  11  23  40  61  92 130 172 213 270 324 398
#     4  10  22  43  63  94 128 174 220 272 329 406
#
# _framework density 21.911626999999999
#
# number of rings (size 3 to 8) (size 9 to 14) (size 15 to 20)
#    0.000    1.500    1.250    3.000    7.000    4.000 
#    0.000    0.625    0.000    3.000    0.000    0.000 
#    0.000    0.000    0.000    0.000    0.000    0.000 
#
# Total GULP energy -793076.026320 kJ/mol
# GULP energy per Si atom -12391.812911 kJ/mol
# Density = 2.186176 g / cm^3
# Si number density = 21.911627 Si / 1000 Ang^3
#
#
#
# Elastic Constant Matrix: (Units=GPa)
#
#
# Indices 1 2 3 4 5 6 
#
# 1 80.8867 38.9757 24.5645 0.0000 0.0000 0.0000
# 2 38.9757 73.7864 7.8116 0.0000 0.0000 0.0000
# 3 24.5645 7.8116 63.8642 0.0000 0.0000 0.0000
# 4 0.0000 0.0000 0.0000 33.5887 0.0000 0.0000
# 5 0.0000 0.0000 0.0000 0.0000 24.8635 0.0000
# 6 0.0000 0.0000 0.0000 0.0000 0.0000 34.1394
#
#
#
# Elastic Compliance Matrix: (Units=1/GPa)
#
#
# Indices 1 2 3 4 5 6 
#
# 1 0.018632 -0.009202 -0.006041 0.000000 0.000000 0.000000
# 2 -0.009202 0.018275 0.001304 0.000000 0.000000 0.000000
# 3 -0.006041 0.001304 0.017822 0.000000 0.000000 0.000000
# 4 0.000000 0.000000 0.000000 0.029772 0.000000 0.000000
# 5 0.000000 0.000000 0.000000 0.000000 0.040220 0.000000
# 6 0.000000 0.000000 0.000000 0.000000 0.000000 0.029292
#
#
# Mechanical properties :
#
#
# Convention : Reuss Voigt Hill
#
# Bulk Modulus (GPa) = 37.24188 40.13789 38.68988
# Shear Modulus (GPa) = 26.19989 28.33070 27.26529
#
# Velocity S-wave (km/s) = 3.46165 3.59967 3.53133
# Velocity P-wave (km/s) = 5.74549 5.96948 5.85855
#
# Compressibility (1/GPa) = 0.02685149
#
# Stress axis : x y z
#
# Youngs Moduli (GPa) = 53.67221 54.71850 56.10969
#
# Poissons Ratio (x) = 0.50353 0.33895
# Poissons Ratio (y) = 0.49390 -0.07317
# Poissons Ratio (z) = 0.32422 -0.07136
#
# Static dielectric constant tensor:
#      x y z
#    x 4.016790 0.000000 0.000000 
#    y 0.000000 3.791220 0.000000 
#    z 0.000000 0.000000 3.415620 
# 
# 
# High freq. dielectric constant tensor:
#      x y z
#    x 1.843400 0.000000 0.000000 
#    y 0.000000 1.854190 0.000000 
#    z 0.000000 0.000000 1.873580 
# 
# From -- ./inp_files/3717.got.cif
#   From: 2010.03.12/outbox.cif.g09.slc.cpg/sg56_2_cif.got.tgz:3717.got - 2010.04.16 15:33:40.
