data_PCOD8229391
_publ_section_title
;
Structure prediction by ZEFSAII (Michael W. Deem and Ramdas Pophale) SiO2 
 PCOD8229391
Probable space group: P C C N
;
_chemical_formula_sum "Si O2"
_cell_formula_units_Z 40
_cell_length_a 14.573957
_cell_length_b 12.524348
_cell_length_c 9.970377
_cell_angle_alpha 90.000000
_cell_angle_beta 90.000000
_cell_angle_gamma 90.000000
_cell_volume 1819.886026
_symmetry_space_group_name_H-M "P C C N"
_symmetry_group_IT_number 56
_symmetry_cell_setting 'orthorhombic'
loop_
_space_group_symop_operation_xyz
x,y,z
1/2-x,1/2-y,z
1/2+x,-y,1/2-z
-x,1/2+y,1/2-z
-x,-y,-z
1/2+x,1/2+y,-z
1/2-x,y,1/2+z
x,1/2-y,1/2+z
loop_
_atom_site_type_symbol
_atom_site_label
_atom_site_fract_x
_atom_site_fract_y
_atom_site_fract_z
Si Si1 0.175454 0.620908 0.857322
Si Si2 0.986757 0.244153 0.238293
Si Si3 0.606328 0.796044 0.511878
Si Si4 0.285553 0.420794 0.501344
Si Si5 0.825880 0.117821 0.348637
O O1 0.076966 0.655542 0.801267
O O2 0.182290 0.491272 0.872124
O O3 0.254155 0.664163 0.758581
O O4 0.191033 0.672202 0.005336
O O5 0.928234 0.146805 0.301027
O O6 0.058182 0.292409 0.344017
O O7 0.034601 0.192316 0.108817
O O8 0.659282 0.686779 0.489876
O O9 0.676640 0.895769 0.507927
O O10 0.310211 0.489756 0.634973
#
# Coordination Sequence:
#
# PCOD8229391 Si02
#       5
#     8   8   8   8   8
#     4  10  24  44  69  97 143 185 226 284 348 415
#     4  12  25  43  68 110 136 180 232 299 329 416
#     4  11  25  42  77  96 146 177 240 281 351 402
#     4   9  25  48  67 104 138 193 222 290 351 415
#     4  10  24  44  69  97 143 185 226 284 348 415
#
# _framework density 21.979399000000001
#
# number of rings (size 3 to 8) (size 9 to 14) (size 15 to 20)
#    1.200    0.400    2.000    0.600    8.400    6.400 
#    0.000    2.000    0.000    0.000    0.000    0.000 
#    0.000    0.000    0.000    0.000    0.000    0.000 
#
# Total GULP energy -495714.819979 kJ/mol
# GULP energy per Si atom -12392.870499 kJ/mol
# Density = 2.192937 g / cm^3
# Si number density = 21.979399 Si / 1000 Ang^3
#
#
#
# Elastic Constant Matrix: (Units=GPa)
#
#
# Indices 1 2 3 4 5 6 
#
# 1 106.3138 38.3531 17.2979 0.0000 0.0000 0.0000
# 2 38.3531 101.1781 1.0119 0.0000 0.0000 0.0000
# 3 17.2979 1.0119 97.7039 0.0000 0.0000 0.0000
# 4 0.0000 0.0000 0.0000 25.2987 0.0000 0.0000
# 5 0.0000 0.0000 0.0000 0.0000 30.1661 0.0000
# 6 0.0000 0.0000 0.0000 0.0000 0.0000 32.8376
#
#
#
# Elastic Compliance Matrix: (Units=1/GPa)
#
#
# Indices 1 2 3 4 5 6 
#
# 1 0.011255 -0.004247 -0.001949 0.000000 0.000000 0.000000
# 2 -0.004247 0.011487 0.000633 0.000000 0.000000 0.000000
# 3 -0.001949 0.000633 0.010573 0.000000 0.000000 0.000000
# 4 0.000000 0.000000 0.000000 0.039528 0.000000 0.000000
# 5 0.000000 0.000000 0.000000 0.000000 0.033150 0.000000
# 6 0.000000 0.000000 0.000000 0.000000 0.000000 0.030453
#
#
# Mechanical properties :
#
#
# Convention : Reuss Voigt Hill
#
# Bulk Modulus (GPa) = 45.06463 46.50240 45.78351
# Shear Modulus (GPa) = 32.26457 34.22932 33.24695
#
# Velocity S-wave (km/s) = 3.83554 3.95059 3.89349
# Velocity P-wave (km/s) = 6.33741 6.48172 6.40997
#
# Compressibility (1/GPa) = 0.02219035
#
# Stress axis : x y z
#
# Youngs Moduli (GPa) = 88.84700 87.05398 94.57644
#
# Poissons Ratio (x) = 0.36972 0.18430
# Poissons Ratio (y) = 0.37733 -0.05986
# Poissons Ratio (z) = 0.17314 -0.05510
#
# Static dielectric constant tensor:
#      x y z
#    x 3.981270 0.000000 0.000000 
#    y 0.000000 3.724550 0.000000 
#    z 0.000000 0.000000 4.018870 
# 
# 
# High freq. dielectric constant tensor:
#      x y z
#    x 1.864750 0.000000 0.000000 
#    y 0.000000 1.857920 0.000000 
#    z 0.000000 0.000000 1.871730 
# 
# From -- ./inp_files/3213.got.cif
#   From: 2010.03.12/outbox.cif.g09.slc.cpg/sg56_2_cif.got.tgz:3213.got - 2010.04.16 15:33:40.
