data_PCOD8229893
_publ_section_title
;
Structure prediction by ZEFSAII (Michael W. Deem and Ramdas Pophale) SiO2 
 PCOD8229893
Probable space group: P B C M
;
_chemical_formula_sum "Si O2"
_cell_formula_units_Z 48
_cell_length_a 9.477340
_cell_length_b 17.579599
_cell_length_c 15.673982
_cell_angle_alpha 90.000000
_cell_angle_beta 90.000000
_cell_angle_gamma 90.000000
_cell_volume 2611.408235
_symmetry_space_group_name_H-M "P B C M"
_symmetry_group_IT_number 57
_symmetry_cell_setting 'orthorhombic'
loop_
_space_group_symop_operation_xyz
x,y,z
-x,-y,1/2+z
x,1/2-y,-z
-x,1/2+y,1/2-z
-x,-y,-z
x,y,1/2-z
-x,1/2+y,z
x,1/2-y,1/2+z
loop_
_atom_site_type_symbol
_atom_site_label
_atom_site_fract_x
_atom_site_fract_y
_atom_site_fract_z
Si Si1 0.838241 0.574548 0.154556
Si Si2 0.839593 0.167479 0.524640
Si Si3 0.857229 0.628577 0.980070
Si Si4 0.665816 0.425631 0.151935
Si Si5 0.655539 0.585110 0.846569
Si Si6 0.130805 0.972462 0.906661
O O1 0.810195 0.607770 0.250000
O O2 0.727072 0.508535 0.132839
O O3 0.996805 0.541158 0.153976
O O4 0.817120 0.639667 0.080818
O O5 0.778968 0.250000 0.500000
O O6 0.752052 0.140386 0.605668
O O7 0.820460 0.106585 0.448816
O O8 0.006439 0.177644 0.546715
O O9 0.730546 0.644746 0.912972
O O10 0.904364 0.538970 0.976420
O O11 0.678635 0.404383 0.250000
O O12 0.503651 0.426250 0.121822
O O13 0.662428 0.617204 0.750000
O O14 0.737992 0.504247 0.850344
#
# Coordination Sequence:
#
# PCOD8229893 Si02
#       6
#     8   8   8   8   8   8
#     4  10  16  27  50  73 100 127 160 215 262 293
#     4  11  20  33  49  73 104 139 168 208 258 312
#     4   9  18  33  50  75  98 129 175 216 246 301
#     4  10  18  31  50  80 102 126 170 212 256 307
#     4   9  18  30  54  78  99 126 168 219 258 294
#     4   9  17  32  50  74  98 125 172 216 253 292
#
# _framework density 18.380887999999999
#
# number of rings (size 3 to 8) (size 9 to 14) (size 15 to 20)
#    1.000    1.333    3.333    1.500    0.000    3.333 
#    0.000    5.000    0.000    0.000    0.000   10.500 
#    0.000    0.000    0.000    0.000    0.000    0.000 
#
# Total GULP energy -594668.633481 kJ/mol
# GULP energy per Si atom -12388.929864 kJ/mol
# Density = 1.833905 g / cm^3
# Si number density = 18.380888 Si / 1000 Ang^3
#
#
#
# Elastic Constant Matrix: (Units=GPa)
#
#
# Indices 1 2 3 4 5 6 
#
# 1 116.2325 4.7722 44.9053 0.0000 0.0000 0.0000
# 2 4.7722 34.9614 5.3525 0.0000 0.0000 0.0000
# 3 44.9053 5.3525 85.4906 0.0000 0.0000 0.0000
# 4 0.0000 0.0000 0.0000 9.1147 0.0000 0.0000
# 5 0.0000 0.0000 0.0000 0.0000 30.1954 0.0000
# 6 0.0000 0.0000 0.0000 0.0000 0.0000 4.3025
#
#
#
# Elastic Compliance Matrix: (Units=1/GPa)
#
#
# Indices 1 2 3 4 5 6 
#
# 1 0.010807 -0.000612 -0.005638 0.000000 0.000000 0.000000
# 2 -0.000612 0.028914 -0.001489 0.000000 0.000000 0.000000
# 3 -0.005638 -0.001489 0.014752 0.000000 0.000000 0.000000
# 4 0.000000 0.000000 0.000000 0.109713 0.000000 0.000000
# 5 0.000000 0.000000 0.000000 0.000000 0.033118 0.000000
# 6 0.000000 0.000000 0.000000 0.000000 0.000000 0.232425
#
#
# Mechanical properties :
#
#
# Convention : Reuss Voigt Hill
#
# Bulk Modulus (GPa) = 25.64411 38.52715 32.08563
# Shear Modulus (GPa) = 10.91214 20.83280 15.87247
#
# Velocity S-wave (km/s) = 2.43917 3.37025 2.94178
# Velocity P-wave (km/s) = 4.68130 6.01254 5.38819
#
# Compressibility (1/GPa) = 0.03899531
#
# Stress axis : x y z
#
# Youngs Moduli (GPa) = 92.53424 34.58479 67.78773
#
# Poissons Ratio (x) = 0.02116 0.38220
# Poissons Ratio (y) = 0.05662 0.10093
# Poissons Ratio (z) = 0.52172 0.05149
#
# Static dielectric constant tensor:
#      x y z
#    x 3.439000 0.000000 0.000000 
#    y 0.000000 2.856120 0.000000 
#    z 0.000000 0.000000 3.372070 
# 
# 
# High freq. dielectric constant tensor:
#      x y z
#    x 1.713030 0.000000 0.000000 
#    y 0.000000 1.658460 0.000000 
#    z 0.000000 0.000000 1.717920 
# 
# From -- ./inp_files/21097.got.cif
#   From: 2010.03.12/outbox.cif.g09.slc.cpg/sg57_11_cif.got.tgz:21097.got - 2010.04.16 15:48:40.
