data_PCOD8229312
_publ_section_title
;
Structure prediction by ZEFSAII (Michael W. Deem and Ramdas Pophale) SiO2 
 PCOD8229312
Probable space group: P C C N
;
_chemical_formula_sum "Si O2"
_cell_formula_units_Z 40
_cell_length_a 10.361981
_cell_length_b 9.085575
_cell_length_c 18.799048
_cell_angle_alpha 90.000000
_cell_angle_beta 90.000000
_cell_angle_gamma 90.000000
_cell_volume 1769.828018
_symmetry_space_group_name_H-M "P C C N"
_symmetry_group_IT_number 56
_symmetry_cell_setting 'orthorhombic'
loop_
_space_group_symop_operation_xyz
x,y,z
1/2-x,1/2-y,z
1/2+x,-y,1/2-z
-x,1/2+y,1/2-z
-x,-y,-z
1/2+x,1/2+y,-z
1/2-x,y,1/2+z
x,1/2-y,1/2+z
loop_
_atom_site_type_symbol
_atom_site_label
_atom_site_fract_x
_atom_site_fract_y
_atom_site_fract_z
Si Si1 0.884711 0.302443 0.879705
Si Si2 0.972009 0.884006 0.366511
Si Si3 0.615099 0.676274 0.214126
Si Si4 0.257615 0.590106 0.848511
Si Si5 0.065673 0.850510 0.974284
O O1 0.750000 0.250000 0.844661
O O2 0.879772 0.480105 0.886161
O O3 0.001937 0.239711 0.833848
O O4 0.891123 0.242003 0.958795
O O5 0.110247 0.965169 0.353067
O O6 0.973777 0.756326 0.426337
O O7 0.920816 0.802752 0.296043
O O8 0.750000 0.750000 0.193673
O O9 0.641639 0.504303 0.197689
O O10 0.250000 0.750000 0.811439
O O11 0.309378 0.604104 0.929005
O O12 0.000000 0.000000 0.000000
#
# Coordination Sequence:
#
# PCOD8229312 Si02
#       5
#     8   8   8   8   8
#     4  12  27  45  73 109 152 195 246 306 375 448
#     4  11  27  44  75 105 153 191 252 308 377 445
#     4  12  27  47  74 111 144 198 252 308 375 440
#     4  10  23  45  74 100 144 194 245 306 371 444
#     4  11  24  47  76 107 147 196 254 307 378 450
#
# _framework density 22.601065999999999
#
# number of rings (size 3 to 8) (size 9 to 14) (size 15 to 20)
#    0.000    0.800    4.000    2.400    8.400    1.600 
#    0.000    3.000    0.000    0.000    0.000    0.000 
#    0.000    0.000    0.000    0.000    0.000    0.000 
#
# Total GULP energy -495918.321455 kJ/mol
# GULP energy per Si atom -12397.958036 kJ/mol
# Density = 2.254962 g / cm^3
# Si number density = 22.601066 Si / 1000 Ang^3
#
#
#
# Elastic Constant Matrix: (Units=GPa)
#
#
# Indices 1 2 3 4 5 6 
#
# 1 143.8587 56.9208 49.6979 0.0000 0.0000 0.0000
# 2 56.9208 137.0325 40.5240 0.0000 0.0000 0.0000
# 3 49.6979 40.5240 102.9023 0.0000 0.0000 0.0000
# 4 0.0000 0.0000 0.0000 31.6748 0.0000 0.0000
# 5 0.0000 0.0000 0.0000 0.0000 36.3310 0.0000
# 6 0.0000 0.0000 0.0000 0.0000 0.0000 37.5516
#
#
#
# Elastic Compliance Matrix: (Units=1/GPa)
#
#
# Indices 1 2 3 4 5 6 
#
# 1 0.009231 -0.002847 -0.003337 0.000000 0.000000 0.000000
# 2 -0.002847 0.009138 -0.002223 0.000000 0.000000 0.000000
# 3 -0.003337 -0.002223 0.012205 0.000000 0.000000 0.000000
# 4 0.000000 0.000000 0.000000 0.031571 0.000000 0.000000
# 5 0.000000 0.000000 0.000000 0.000000 0.027525 0.000000
# 6 0.000000 0.000000 0.000000 0.000000 0.000000 0.026630
#
#
# Mechanical properties :
#
#
# Convention : Reuss Voigt Hill
#
# Bulk Modulus (GPa) = 72.68253 75.34210 74.01231
# Shear Modulus (GPa) = 36.31074 36.88818 36.59946
#
# Velocity S-wave (km/s) = 4.01258 4.04436 4.02850
# Velocity P-wave (km/s) = 7.32779 7.43083 7.37949
#
# Compressibility (1/GPa) = 0.01375847
#
# Stress axis : x y z
#
# Youngs Moduli (GPa) = 108.33488 109.43512 81.93354
#
# Poissons Ratio (x) = 0.31162 0.27339
# Poissons Ratio (y) = 0.30848 0.18217
# Poissons Ratio (z) = 0.36148 0.24331
#
# Static dielectric constant tensor:
#      x y z
#    x 4.596650 0.000000 0.000000 
#    y 0.000000 4.238250 0.000000 
#    z 0.000000 0.000000 3.998390 
# 
# 
# High freq. dielectric constant tensor:
#      x y z
#    x 1.893400 0.000000 0.000000 
#    y 0.000000 1.905670 0.000000 
#    z 0.000000 0.000000 1.893860 
# 
# From -- ./inp_files/18604.got.cif
#   From: 2010.03.12/outbox.cif.g09.slc.cpg/sg56_10_cif.got.tgz:18604.got - 2010.04.16 15:33:40.
