data_PCOD8229992
_publ_section_title
;
Structure prediction by ZEFSAII (Michael W. Deem and Ramdas Pophale) SiO2 
 PCOD8229992
Probable space group: P B C M
;
_chemical_formula_sum "Si O2"
_cell_formula_units_Z 44
_cell_length_a 22.068441
_cell_length_b 5.295588
_cell_length_c 18.110391
_cell_angle_alpha 90.000000
_cell_angle_beta 90.000000
_cell_angle_gamma 90.000000
_cell_volume 2116.477569
_symmetry_space_group_name_H-M "P B C M"
_symmetry_group_IT_number 57
_symmetry_cell_setting 'orthorhombic'
loop_
_space_group_symop_operation_xyz
x,y,z
-x,-y,1/2+z
x,1/2-y,-z
-x,1/2+y,1/2-z
-x,-y,-z
x,y,1/2-z
-x,1/2+y,z
x,1/2-y,1/2+z
loop_
_atom_site_type_symbol
_atom_site_label
_atom_site_fract_x
_atom_site_fract_y
_atom_site_fract_z
Si Si1 0.239946 0.535767 0.337810
Si Si2 0.640037 0.116495 0.074578
Si Si3 0.550068 0.750000 0.000000
Si Si4 0.170031 0.464171 0.662554
Si Si5 0.477078 0.798992 0.862192
Si Si6 0.966311 0.530163 0.338104
O O1 0.249361 0.535412 0.250000
O O2 0.304219 0.521499 0.377327
O O3 0.202783 0.290572 0.364673
O O4 0.205529 0.787756 0.364992
O O5 0.594078 0.281030 0.126741
O O6 0.663820 0.250000 0.000000
O O7 0.596252 0.890978 0.053708
O O8 0.506414 0.901416 0.942083
O O9 0.166853 0.466180 0.750000
O O10 0.102010 0.469300 0.630465
O O11 0.511390 0.567697 0.819926
O O12 0.966256 0.530415 0.250000
O O13 0.999832 0.279807 0.367982
#
# Coordination Sequence:
#
# PCOD8229992 Si02
#       6
#     8   8   4   8   8   8
#     4  10  22  35  50  70 106 151 173 196 250 322
#     4  11  20  32  54  77 102 127 179 219 256 303
#     4  10  18  32  50  80  98 124 158 222 278 312
#     4   9  18  34  48  68 106 146 172 199 256 314
#     4  10  17  30  48  74  96 120 155 210 271 314
#     4   9  15  24  45  73  97 126 169 216 250 287
#
# _framework density 20.789256999999999
#
# number of rings (size 3 to 8) (size 9 to 14) (size 15 to 20)
#    0.000    2.182    2.727    2.182    2.545    4.364 
#    0.000    0.000    0.000    4.364    0.000    0.000 
#    0.000   14.545    0.000    0.000    0.000    0.000 
#
# Total GULP energy -545139.986299 kJ/mol
# GULP energy per Si atom -12389.545143 kJ/mol
# Density = 2.074194 g / cm^3
# Si number density = 20.789257 Si / 1000 Ang^3
#
#
#
# Elastic Constant Matrix: (Units=GPa)
#
#
# Indices 1 2 3 4 5 6 
#
# 1 195.8933 78.5139 30.7269 0.0000 0.0000 0.0000
# 2 78.5139 166.8056 14.1541 0.0000 0.0000 0.0000
# 3 30.7269 14.1541 31.3249 0.0000 0.0000 0.0000
# 4 0.0000 0.0000 0.0000 -4.0422 0.0000 0.0000
# 5 0.0000 0.0000 0.0000 0.0000 11.3228 0.0000
# 6 0.0000 0.0000 0.0000 0.0000 0.0000 -18.1928
#
#
#
# Elastic Compliance Matrix: (Units=1/GPa)
#
#
# Indices 1 2 3 4 5 6 
#
# 1 0.007158 -0.002884 -0.005718 0.000000 0.000000 0.000000
# 2 -0.002884 0.007396 -0.000513 0.000000 0.000000 0.000000
# 3 -0.005718 -0.000513 0.037764 0.000000 0.000000 0.000000
# 4 0.000000 0.000000 0.000000 -0.247391 0.000000 0.000000
# 5 0.000000 0.000000 0.000000 0.000000 0.088317 0.000000
# 6 0.000000 0.000000 0.000000 0.000000 0.000000 -0.054967
#
#
# Mechanical properties :
#
#
# Convention : Reuss Voigt Hill
#
# Bulk Modulus (GPa) = 29.33584 71.20152 50.26868
# Shear Modulus (GPa) = -37.84118 15.85949 -10.99084
#
# Velocity S-wave (km/s) = -4.27104 2.76501 -2.30180
# Velocity P-wave (km/s) = 3.19072 6.67212 4.14346
#
# Compressibility (1/GPa) = 0.03408800
#
# Stress axis : x y z
#
# Youngs Moduli (GPa) = 139.71332 135.20969 26.48024
#
# Poissons Ratio (x) = 0.38992 0.15141
# Poissons Ratio (y) = 0.40290 0.01359
# Poissons Ratio (z) = 0.79886 0.06938
#
# Static dielectric constant tensor:
#      x y z
#    x 3.865440 0.000000 0.000000 
#    y 0.000000 4.033040 0.000000 
#    z 0.000000 0.000000 3.098300 
# 
# 
# High freq. dielectric constant tensor:
#      x y z
#    x 1.820290 0.000000 0.000000 
#    y 0.000000 1.835480 0.000000 
#    z 0.000000 0.000000 1.749400 
# 
# From -- ./inp_files/27532.got.cif
#   From: 2010.03.12/outbox.cif.g09.slc.cpg/sg57_14_cif.got.tgz:27532.got - 2010.04.16 15:48:40.
