data_PCOD8229494
_publ_section_title
;
Structure prediction by ZEFSAII (Michael W. Deem and Ramdas Pophale) SiO2 
 PCOD8229494
Probable space group: P C C N
;
_chemical_formula_sum "Si O2"
_cell_formula_units_Z 48
_cell_length_a 15.146134
_cell_length_b 12.042740
_cell_length_c 13.614748
_cell_angle_alpha 90.000000
_cell_angle_beta 90.000000
_cell_angle_gamma 90.000000
_cell_volume 2483.343020
_symmetry_space_group_name_H-M "P C C N"
_symmetry_group_IT_number 56
_symmetry_cell_setting 'orthorhombic'
loop_
_space_group_symop_operation_xyz
x,y,z
1/2-x,1/2-y,z
1/2+x,-y,1/2-z
-x,1/2+y,1/2-z
-x,-y,-z
1/2+x,1/2+y,-z
1/2-x,y,1/2+z
x,1/2-y,1/2+z
loop_
_atom_site_type_symbol
_atom_site_label
_atom_site_fract_x
_atom_site_fract_y
_atom_site_fract_z
Si Si1 0.462498 0.109314 0.052530
Si Si2 0.217088 0.376718 0.962330
Si Si3 0.371547 0.491314 0.065890
Si Si4 0.005838 0.168335 0.957136
Si Si5 0.391916 0.332708 0.749332
Si Si6 0.696481 0.898740 0.247949
O O1 0.466222 0.119313 0.172027
O O2 0.356946 0.123897 0.044543
O O3 0.511849 0.208440 0.996441
O O4 0.500000 0.000000 0.000000
O O5 0.250000 0.250000 0.943834
O O6 0.169151 0.422219 0.864323
O O7 0.291442 0.463722 0.993172
O O8 0.408891 0.615148 0.053981
O O9 0.339937 0.490652 0.178624
O O10 0.446392 0.400495 0.043284
O O11 0.061852 0.168628 0.856185
O O12 0.352273 0.213768 0.716985
O O13 0.303273 0.406119 0.753771
#
# Coordination Sequence:
#
# PCOD8229494 Si02
#       6
#     8   8   8   8   8   8
#     4  12  25  40  60  93 128 162 205 267 313 368
#     4  12  19  38  61  93 120 158 213 255 307 372
#     4  11  22  36  63  89 128 158 203 257 317 367
#     4  11  23  39  56  96 128 161 202 261 322 369
#     4  11  20  35  62  92 120 155 210 257 308 363
#     4  11  18  33  63  91 114 155 208 260 299 367
#
# _framework density 19.328783000000001
#
# number of rings (size 3 to 8) (size 9 to 14) (size 15 to 20)
#    0.000    0.667   10.000    0.000    2.333    0.000 
#    0.000    0.833    0.000    0.000    4.333    0.000 
#    0.000    0.000    0.000    0.000    0.000    0.000 
#
# Total GULP energy -594672.911796 kJ/mol
# GULP energy per Si atom -12389.018996 kJ/mol
# Density = 1.928479 g / cm^3
# Si number density = 19.328783 Si / 1000 Ang^3
#
#
#
# Elastic Constant Matrix: (Units=GPa)
#
#
# Indices 1 2 3 4 5 6 
#
# 1 62.1889 37.3569 20.3834 0.0000 0.0000 0.0000
# 2 37.3569 94.7405 24.0472 0.0000 0.0000 0.0000
# 3 20.3834 24.0472 105.1423 0.0000 0.0000 0.0000
# 4 0.0000 0.0000 0.0000 17.0891 0.0000 0.0000
# 5 0.0000 0.0000 0.0000 0.0000 29.6481 0.0000
# 6 0.0000 0.0000 0.0000 0.0000 0.0000 34.2915
#
#
#
# Elastic Compliance Matrix: (Units=1/GPa)
#
#
# Indices 1 2 3 4 5 6 
#
# 1 0.021617 -0.007920 -0.002379 0.000000 0.000000 0.000000
# 2 -0.007920 0.014107 -0.001691 0.000000 0.000000 0.000000
# 3 -0.002379 -0.001691 0.010359 0.000000 0.000000 0.000000
# 4 0.000000 0.000000 0.000000 0.058517 0.000000 0.000000
# 5 0.000000 0.000000 0.000000 0.000000 0.033729 0.000000
# 6 0.000000 0.000000 0.000000 0.000000 0.000000 0.029162
#
#
# Mechanical properties :
#
#
# Convention : Reuss Voigt Hill
#
# Bulk Modulus (GPa) = 45.24339 47.29407 46.26873
# Shear Modulus (GPa) = 25.14587 28.22469 26.68528
#
# Velocity S-wave (km/s) = 3.61079 3.82546 3.71967
# Velocity P-wave (km/s) = 6.39076 6.63577 6.51442
#
# Compressibility (1/GPa) = 0.02210267
#
# Stress axis : x y z
#
# Youngs Moduli (GPa) = 46.25891 70.88543 96.53448
#
# Poissons Ratio (x) = 0.56141 0.22970
# Poissons Ratio (y) = 0.36637 0.16325
# Poissons Ratio (z) = 0.11007 0.11987
#
# Static dielectric constant tensor:
#      x y z
#    x 3.459940 0.000000 0.000000 
#    y 0.000000 3.232350 0.000000 
#    z 0.000000 0.000000 3.813870 
# 
# 
# High freq. dielectric constant tensor:
#      x y z
#    x 1.736710 0.000000 0.000000 
#    y 0.000000 1.707220 0.000000 
#    z 0.000000 0.000000 1.779460 
# 
# From -- ./inp_files/12221.got.cif
#   From: 2010.03.12/outbox.cif.g09.slc.cpg/sg56_7_cif.got.tgz:12221.got - 2010.04.16 15:33:40.
