data_PCOD8229460
_publ_section_title
;
Structure prediction by ZEFSAII (Michael W. Deem and Ramdas Pophale) SiO2 
 PCOD8229460
Probable space group: P C C N
;
_chemical_formula_sum "Si O2"
_cell_formula_units_Z 64
_cell_length_a 14.337658
_cell_length_b 8.712469
_cell_length_c 24.509263
_cell_angle_alpha 90.000000
_cell_angle_beta 90.000000
_cell_angle_gamma 90.000000
_cell_volume 3061.608922
_symmetry_space_group_name_H-M "P C C N"
_symmetry_group_IT_number 56
_symmetry_cell_setting 'orthorhombic'
loop_
_space_group_symop_operation_xyz
x,y,z
1/2-x,1/2-y,z
1/2+x,-y,1/2-z
-x,1/2+y,1/2-z
-x,-y,-z
1/2+x,1/2+y,-z
1/2-x,y,1/2+z
x,1/2-y,1/2+z
loop_
_atom_site_type_symbol
_atom_site_label
_atom_site_fract_x
_atom_site_fract_y
_atom_site_fract_z
Si Si1 0.106240 0.110813 0.907657
Si Si2 0.449400 0.681035 0.644052
Si Si3 0.354306 0.687707 0.757508
Si Si4 0.155682 0.164233 0.030208
Si Si5 0.235552 0.418271 0.311159
Si Si6 0.920790 0.409253 0.158679
Si Si7 0.847869 0.307967 0.456140
Si Si8 0.960484 0.217890 0.061415
O O1 0.199177 0.087743 0.873006
O O2 0.039819 0.221076 0.872350
O O3 0.052750 0.953003 0.916570
O O4 0.137724 0.178651 0.965551
O O5 0.398242 0.727938 0.699496
O O6 0.483748 0.506636 0.654456
O O7 0.371905 0.709133 0.597651
O O8 0.250000 0.750000 0.762366
O O9 0.339065 0.507945 0.772705
O O10 0.426868 0.763709 0.800512
O O11 0.250000 0.250000 0.046707
O O12 0.071304 0.250825 0.061216
O O13 0.158504 0.990258 0.052455
O O14 0.250000 0.250000 0.285294
O O15 0.336816 0.491964 0.317465
O O16 0.904539 0.339986 0.098241
O O17 0.750000 0.250000 0.479439
O O18 0.926693 0.267388 0.499645
#
# Coordination Sequence:
#
# PCOD8229460 Si02
#       8
#     8   8   8   8   8   8   8   8
#     4  11  21  41  69  94 134 169 221 268 332 393
#     4  12  24  43  66  94 130 178 217 265 334 400
#     4  10  25  46  65  94 132 168 223 280 326 391
#     4  11  24  42  66  99 134 177 219 274 330 398
#     4  11  22  42  68  99 126 168 220 279 331 386
#     4  11  26  38  69 100 127 170 220 273 332 382
#     4  11  25  41  66  95 135 181 214 267 339 402
#     4  11  23  44  64  99 136 171 218 277 326 403
#
# _framework density 20.904042
#
# number of rings (size 3 to 8) (size 9 to 14) (size 15 to 20)
#    0.000    1.000    5.000    1.500    7.000    0.500 
#    0.000    1.250    0.000    0.000    0.000    0.000 
#    0.000    0.000    0.000    0.000    0.000    0.000 
#
# Total GULP energy -793290.757603 kJ/mol
# GULP energy per Si atom -12395.168088 kJ/mol
# Density = 2.085646 g / cm^3
# Si number density = 20.904042 Si / 1000 Ang^3
#
#
#
# Elastic Constant Matrix: (Units=GPa)
#
#
# Indices 1 2 3 4 5 6 
#
# 1 92.6925 39.5912 21.4027 0.0000 0.0000 0.0000
# 2 39.5912 100.8078 50.3946 0.0000 0.0000 0.0000
# 3 21.4027 50.3946 98.0467 0.0000 0.0000 0.0000
# 4 0.0000 0.0000 0.0000 33.6845 0.0000 0.0000
# 5 0.0000 0.0000 0.0000 0.0000 39.7540 0.0000
# 6 0.0000 0.0000 0.0000 0.0000 0.0000 25.2723
#
#
#
# Elastic Compliance Matrix: (Units=1/GPa)
#
#
# Indices 1 2 3 4 5 6 
#
# 1 0.012969 -0.004950 -0.000287 0.000000 0.000000 0.000000
# 2 -0.004950 0.015239 -0.006752 0.000000 0.000000 0.000000
# 3 -0.000287 -0.006752 0.013732 0.000000 0.000000 0.000000
# 4 0.000000 0.000000 0.000000 0.029687 0.000000 0.000000
# 5 0.000000 0.000000 0.000000 0.000000 0.025155 0.000000
# 6 0.000000 0.000000 0.000000 0.000000 0.000000 0.039569
#
#
# Mechanical properties :
#
#
# Convention : Reuss Voigt Hill
#
# Bulk Modulus (GPa) = 55.67140 57.14712 56.40926
# Shear Modulus (GPa) = 30.06300 31.75273 30.90787
#
# Velocity S-wave (km/s) = 3.79640 3.90163 3.84938
# Velocity P-wave (km/s) = 6.77544 6.90610 6.84108
#
# Compressibility (1/GPa) = 0.01796254
#
# Stress axis : x y z
#
# Youngs Moduli (GPa) = 77.10786 65.61903 72.82044
#
# Poissons Ratio (x) = 0.32482 0.02088
# Poissons Ratio (y) = 0.38169 0.49171
# Poissons Ratio (z) = 0.02211 0.44308
#
# Static dielectric constant tensor:
#      x y z
#    x 3.869810 0.000000 0.000000 
#    y 0.000000 4.005560 0.000000 
#    z 0.000000 0.000000 3.729550 
# 
# 
# High freq. dielectric constant tensor:
#      x y z
#    x 1.823880 0.000000 0.000000 
#    y 0.000000 1.819590 0.000000 
#    z 0.000000 0.000000 1.808700 
# 
# From -- ./inp_files/21151.got.cif
#   From: 2010.03.12/outbox.cif.g09.slc.cpg/sg56_11_cif.got.tgz:21151.got - 2010.04.16 15:33:40.
