data_PCOD8229311
_publ_section_title
;
Structure prediction by ZEFSAII (Michael W. Deem and Ramdas Pophale) SiO2 
 PCOD8229311
Probable space group: P C C N
;
_chemical_formula_sum "Si O2"
_cell_formula_units_Z 36
_cell_length_a 7.222752
_cell_length_b 19.738764
_cell_length_c 9.822187
_cell_angle_alpha 90.000000
_cell_angle_beta 90.000000
_cell_angle_gamma 90.000000
_cell_volume 1400.331493
_symmetry_space_group_name_H-M "P C C N"
_symmetry_group_IT_number 56
_symmetry_cell_setting 'orthorhombic'
loop_
_space_group_symop_operation_xyz
x,y,z
1/2-x,1/2-y,z
1/2+x,-y,1/2-z
-x,1/2+y,1/2-z
-x,-y,-z
1/2+x,1/2+y,-z
1/2-x,y,1/2+z
x,1/2-y,1/2+z
loop_
_atom_site_type_symbol
_atom_site_label
_atom_site_fract_x
_atom_site_fract_y
_atom_site_fract_z
Si Si1 0.750000 0.250000 0.201961
Si Si2 0.269670 0.390736 0.854672
Si Si3 0.706800 0.025424 0.527342
Si Si4 0.384237 0.309024 0.119289
Si Si5 0.823006 0.394220 0.275393
O O1 0.584974 0.275181 0.103801
O O2 0.804636 0.313367 0.298163
O O3 0.180059 0.459166 0.921463
O O4 0.120992 0.362248 0.746256
O O5 0.456807 0.410068 0.772483
O O6 0.320005 0.339649 0.976333
O O7 0.780008 0.061028 0.390489
O O8 0.720754 0.085743 0.636212
O O9 0.500000 0.000000 0.500000
O O10 0.250000 0.250000 0.166632
#
# Coordination Sequence:
#
# PCOD8229311 Si02
#       5
#     4   8   8   8   8
#     4  12  26  46  78 110 156 196 264 312 402 468
#     4  11  25  49  76 112 155 202 262 329 386 473
#     4  10  23  45  73 109 156 195 265 319 396 462
#     4  12  26  50  77 114 157 202 258 323 394 468
#     4  11  24  45  74 111 150 210 249 327 387 469
#
# _framework density 25.708200000000001
#
# number of rings (size 3 to 8) (size 9 to 14) (size 15 to 20)
#    0.000    0.889    2.222    4.667    0.000    7.111 
#    0.000    6.667    0.000    0.000    0.000    0.000 
#    0.000    0.000    0.000    0.000    0.000    0.000 
#
# Total GULP energy -446283.048658 kJ/mol
# GULP energy per Si atom -12396.751352 kJ/mol
# Density = 2.564969 g / cm^3
# Si number density = 25.708200 Si / 1000 Ang^3
#
#
#
# Elastic Constant Matrix: (Units=GPa)
#
#
# Indices 1 2 3 4 5 6 
#
# 1 69.1931 32.6890 36.6665 0.0000 0.0000 0.0000
# 2 32.6890 134.3594 21.7823 0.0000 0.0000 0.0000
# 3 36.6665 21.7823 127.3008 0.0000 0.0000 0.0000
# 4 0.0000 0.0000 0.0000 38.6736 0.0000 0.0000
# 5 0.0000 0.0000 0.0000 0.0000 20.1093 0.0000
# 6 0.0000 0.0000 0.0000 0.0000 0.0000 35.2109
#
#
#
# Elastic Compliance Matrix: (Units=1/GPa)
#
#
# Indices 1 2 3 4 5 6 
#
# 1 0.018765 -0.003794 -0.004756 0.000000 0.000000 0.000000
# 2 -0.003794 0.008422 -0.000348 0.000000 0.000000 0.000000
# 3 -0.004756 -0.000348 0.009285 0.000000 0.000000 0.000000
# 4 0.000000 0.000000 0.000000 0.025857 0.000000 0.000000
# 5 0.000000 0.000000 0.000000 0.000000 0.049728 0.000000
# 6 0.000000 0.000000 0.000000 0.000000 0.000000 0.028400
#
#
# Mechanical properties :
#
#
# Convention : Reuss Voigt Hill
#
# Bulk Modulus (GPa) = 53.54609 57.01435 55.28022
# Shear Modulus (GPa) = 30.39887 34.77980 32.58934
#
# Velocity S-wave (km/s) = 3.44242 3.68213 3.56429
# Velocity P-wave (km/s) = 6.05590 6.34847 6.20391
#
# Compressibility (1/GPa) = 0.01867550
#
# Stress axis : x y z
#
# Youngs Moduli (GPa) = 53.29066 118.73162 107.70336
#
# Poissons Ratio (x) = 0.45052 0.51220
# Poissons Ratio (y) = 0.20221 0.03750
# Poissons Ratio (z) = 0.25343 0.04134
#
# Static dielectric constant tensor:
#      x y z
#    x 4.417480 0.000000 0.000000 
#    y 0.000000 5.606590 0.000000 
#    z 0.000000 0.000000 4.500710 
# 
# 
# High freq. dielectric constant tensor:
#      x y z
#    x 2.014950 0.000000 0.000000 
#    y 0.000000 2.053790 0.000000 
#    z 0.000000 0.000000 2.019830 
# 
# From -- ./inp_files/1982.got.cif
#   From: 2010.03.12/outbox.cif.g09.slc.cpg/sg56_1_cif.got.tgz:1982.got - 2010.04.16 15:33:40.
