data_PCOD8229639
_publ_section_title
;
Structure prediction by ZEFSAII (Michael W. Deem and Ramdas Pophale) SiO2 
 PCOD8229639
Probable space group: P C C N
;
_chemical_formula_sum "Si O2"
_cell_formula_units_Z 32
_cell_length_a 8.621286
_cell_length_b 4.972805
_cell_length_c 34.954651
_cell_angle_alpha 90.000000
_cell_angle_beta 90.000000
_cell_angle_gamma 90.000000
_cell_volume 1498.574893
_symmetry_space_group_name_H-M "P C C N"
_symmetry_group_IT_number 56
_symmetry_cell_setting 'orthorhombic'
loop_
_space_group_symop_operation_xyz
x,y,z
1/2-x,1/2-y,z
1/2+x,-y,1/2-z
-x,1/2+y,1/2-z
-x,-y,-z
1/2+x,1/2+y,-z
1/2-x,y,1/2+z
x,1/2-y,1/2+z
loop_
_atom_site_type_symbol
_atom_site_label
_atom_site_fract_x
_atom_site_fract_y
_atom_site_fract_z
Si Si1 0.081600 0.847366 0.145566
Si Si2 0.081591 0.653037 0.734239
Si Si3 0.581620 0.151006 0.114107
Si Si4 0.356351 0.988169 0.971995
O O1 0.250000 0.750000 0.131681
O O2 0.082391 0.928555 0.189891
O O3 0.958939 0.609657 0.138976
O O4 0.040509 0.110063 0.120992
O O5 0.250000 0.750000 0.748059
O O6 0.041690 0.388477 0.758340
O O7 0.750000 0.250000 0.127578
O O8 0.577430 0.072183 0.069861
O O9 0.250000 0.750000 0.987393
O O10 0.250000 0.250000 0.971433
O O11 0.500000 0.000000 0.000000
#
# Coordination Sequence:
#
# PCOD8229639 Si02
#       4
#     8   8   8   8
#     4  11  24  41  62  91 124 161 206 255 306 367
#     4  11  24  41  62  90 124 160 205 256 308 367
#     4  11  23  41  63  91 124 161 205 254 304 363
#     4  11  24  43  65  94 128 164 206 255 305 365
#
# _framework density 21.353622000000001
#
# number of rings (size 3 to 8) (size 9 to 14) (size 15 to 20)
#    0.000    1.000    0.000    7.500    0.000   13.000 
#    0.000    0.000    0.000    0.000    0.000    0.000 
#    0.000    0.000    0.000    0.000    0.000    0.000 
#
# Total GULP energy -397035.910967 kJ/mol
# GULP energy per Si atom -12407.372218 kJ/mol
# Density = 2.130502 g / cm^3
# Si number density = 21.353622 Si / 1000 Ang^3
#
#
#
# Elastic Constant Matrix: (Units=GPa)
#
#
# Indices 1 2 3 4 5 6 
#
# 1 96.2739 36.6315 62.5495 0.0000 0.0000 0.0000
# 2 36.6315 149.8253 44.0399 0.0000 0.0000 0.0000
# 3 62.5495 44.0399 74.8530 0.0000 0.0000 0.0000
# 4 0.0000 0.0000 0.0000 35.4649 0.0000 0.0000
# 5 0.0000 0.0000 0.0000 0.0000 78.1985 0.0000
# 6 0.0000 0.0000 0.0000 0.0000 0.0000 49.6876
#
#
#
# Elastic Compliance Matrix: (Units=1/GPa)
#
#
# Indices 1 2 3 4 5 6 
#
# 1 0.022724 0.000031 -0.019008 0.000000 0.000000 0.000000
# 2 0.000031 0.008070 -0.004774 0.000000 0.000000 0.000000
# 3 -0.019008 -0.004774 0.032052 0.000000 0.000000 0.000000
# 4 0.000000 0.000000 0.000000 0.028197 0.000000 0.000000
# 5 0.000000 0.000000 0.000000 0.000000 0.012788 0.000000
# 6 0.000000 0.000000 0.000000 0.000000 0.000000 0.020126
#
#
# Mechanical properties :
#
#
# Convention : Reuss Voigt Hill
#
# Bulk Modulus (GPa) = 65.16697 67.48822 66.32760
# Shear Modulus (GPa) = 28.31688 44.51894 36.41791
#
# Velocity S-wave (km/s) = 3.64551 4.57096 4.13421
# Velocity P-wave (km/s) = 6.95010 7.71569 7.34288
#
# Compressibility (1/GPa) = 0.01534520
#
# Stress axis : x y z
#
# Youngs Moduli (GPa) = 44.00542 123.91366 31.19960
#
# Poissons Ratio (x) = -0.00386 0.59303
# Poissons Ratio (y) = -0.00137 0.14895
# Poissons Ratio (z) = 0.83644 0.59157
#
# Static dielectric constant tensor:
#      x y z
#    x 3.789980 0.000000 0.000000 
#    y 0.000000 4.086150 0.000000 
#    z 0.000000 0.000000 3.734520 
# 
# 
# High freq. dielectric constant tensor:
#      x y z
#    x 1.850930 0.000000 0.000000 
#    y 0.000000 1.859240 0.000000 
#    z 0.000000 0.000000 1.833890 
# 
# From -- ./inp_files/22722.got.cif
#   From: 2010.03.12/outbox.cif.g09.slc.cpg/sg56_12_cif.got.tgz:22722.got - 2010.04.16 15:33:40.
