data_PCOD8229933
_publ_section_title
;
Structure prediction by ZEFSAII (Michael W. Deem and Ramdas Pophale) SiO2 
 PCOD8229933
Probable space group: P B C M
;
_chemical_formula_sum "Si O2"
_cell_formula_units_Z 64
_cell_length_a 5.229442
_cell_length_b 23.214940
_cell_length_c 29.153381
_cell_angle_alpha 90.000000
_cell_angle_beta 90.000000
_cell_angle_gamma 90.000000
_cell_volume 3539.254920
_symmetry_space_group_name_H-M "P B C M"
_symmetry_group_IT_number 57
_symmetry_cell_setting 'orthorhombic'
loop_
_space_group_symop_operation_xyz
x,y,z
-x,-y,1/2+z
x,1/2-y,-z
-x,1/2+y,1/2-z
-x,-y,-z
x,y,1/2-z
-x,1/2+y,z
x,1/2-y,1/2+z
loop_
_atom_site_type_symbol
_atom_site_label
_atom_site_fract_x
_atom_site_fract_y
_atom_site_fract_z
Si Si1 0.227068 0.263803 0.354663
Si Si2 0.727251 0.262691 0.301696
Si Si3 0.712727 0.956153 0.451983
Si Si4 0.786179 0.070402 0.005914
Si Si5 0.341265 0.814212 0.481589
Si Si6 0.270708 0.899628 0.198595
Si Si7 0.158065 0.217368 0.548255
Si Si8 0.229376 0.401375 0.145639
O O1 0.482072 0.240364 0.330265
O O2 0.211113 0.241290 0.407759
O O3 0.225495 0.332688 0.359865
O O4 0.985890 0.240574 0.325921
O O5 0.715284 0.237590 0.250000
O O6 0.725484 0.330967 0.299722
O O7 0.420410 0.941606 0.465337
O O8 0.780993 0.933099 0.402496
O O9 0.921906 0.933074 0.488490
O O10 0.739759 0.026462 0.452296
O O11 0.727544 0.137548 0.020051
O O12 0.391768 0.750000 0.500000
O O13 0.610233 0.829186 0.456318
O O14 0.112667 0.815374 0.443736
O O15 0.274399 0.924561 0.250000
O O16 0.519482 0.922538 0.172332
O O17 0.016846 0.922365 0.173883
O O18 0.112862 0.250000 0.500000
#
# Coordination Sequence:
#
# PCOD8229933 Si02
#       8
#     8   8   8   8   8   8   8   8
#     4  10  17  26  42  58  81 116 145 180 220 263
#     4   9  17  27  39  58  81 109 146 180 218 268
#     4  10  20  30  45  65  89 123 155 187 223 265
#     4  10  19  32  45  63  91 120 155 193 227 263
#     4  10  19  31  47  64  87 121 157 192 230 268
#     4   9  17  27  39  57  83 112 142 182 221 256
#     4  10  20  31  44  65  89 117 154 192 231 274
#     4  10  17  26  41  60  81 112 154 178 208 269
#
# _framework density 18.082903000000002
#
# number of rings (size 3 to 8) (size 9 to 14) (size 15 to 20)
#    0.000    2.250    0.000    4.500    0.000    5.000 
#    0.000    0.000    0.000    0.000    0.000    0.000 
#    0.000    0.000    0.000   90.000    0.000   23.250 
#
# Total GULP energy -792942.374379 kJ/mol
# GULP energy per Si atom -12389.724600 kJ/mol
# Density = 1.804175 g / cm^3
# Si number density = 18.082903 Si / 1000 Ang^3
#
#
#
# Elastic Constant Matrix: (Units=GPa)
#
#
# Indices 1 2 3 4 5 6 
#
# 1 150.5554 -3.4939 29.8343 0.0000 0.0000 0.0000
# 2 -3.4939 42.7277 -2.2512 0.0000 0.0000 0.0000
# 3 29.8343 -2.2512 102.3864 0.0000 0.0000 0.0000
# 4 0.0000 0.0000 0.0000 17.6684 0.0000 0.0000
# 5 0.0000 0.0000 0.0000 0.0000 26.4323 0.0000
# 6 0.0000 0.0000 0.0000 0.0000 0.0000 5.0741
#
#
#
# Elastic Compliance Matrix: (Units=1/GPa)
#
#
# Indices 1 2 3 4 5 6 
#
# 1 0.007058 0.000469 -0.002046 0.000000 0.000000 0.000000
# 2 0.000469 0.023462 0.000379 0.000000 0.000000 0.000000
# 3 -0.002046 0.000379 0.010372 0.000000 0.000000 0.000000
# 4 0.000000 0.000000 0.000000 0.056598 0.000000 0.000000
# 5 0.000000 0.000000 0.000000 0.000000 0.037833 0.000000
# 6 0.000000 0.000000 0.000000 0.000000 0.000000 0.197081
#
#
# Mechanical properties :
#
#
# Convention : Reuss Voigt Hill
#
# Bulk Modulus (GPa) = 25.97638 38.20531 32.09085
# Shear Modulus (GPa) = 14.38303 27.94031 21.16167
#
# Velocity S-wave (km/s) = 2.82333 3.93507 3.42462
# Velocity P-wave (km/s) = 5.00246 6.46685 5.78121
#
# Compressibility (1/GPa) = 0.03849651
#
# Stress axis : x y z
#
# Youngs Moduli (GPa) = 141.67330 42.62140 96.41743
#
# Poissons Ratio (x) = -0.02001 0.19731
# Poissons Ratio (y) = -0.06650 -0.03655
# Poissons Ratio (z) = 0.28993 -0.01616
#
# Static dielectric constant tensor:
#      x y z
#    x 4.153470 0.000000 0.000000 
#    y 0.000000 3.000900 0.000000 
#    z 0.000000 0.000000 3.330740 
# 
# 
# High freq. dielectric constant tensor:
#      x y z
#    x 1.740550 0.000000 0.000000 
#    y 0.000000 1.631250 0.000000 
#    z 0.000000 0.000000 1.682990 
# 
# From -- ./inp_files/26388.got.cif
#   From: 2010.03.12/outbox.cif.g09.slc.cpg/sg57_14_cif.got.tgz:26388.got - 2010.04.16 15:48:40.
