data_PCOD8229612
_publ_section_title
;
Structure prediction by ZEFSAII (Michael W. Deem and Ramdas Pophale) SiO2 
 PCOD8229612
Probable space group: P C C N
;
_chemical_formula_sum "Si O2"
_cell_formula_units_Z 64
_cell_length_a 10.667355
_cell_length_b 9.071319
_cell_length_c 29.556365
_cell_angle_alpha 90.000000
_cell_angle_beta 90.000000
_cell_angle_gamma 90.000000
_cell_volume 2860.080184
_symmetry_space_group_name_H-M "P C C N"
_symmetry_group_IT_number 56
_symmetry_cell_setting 'orthorhombic'
loop_
_space_group_symop_operation_xyz
x,y,z
1/2-x,1/2-y,z
1/2+x,-y,1/2-z
-x,1/2+y,1/2-z
-x,-y,-z
1/2+x,1/2+y,-z
1/2-x,y,1/2+z
x,1/2-y,1/2+z
loop_
_atom_site_type_symbol
_atom_site_label
_atom_site_fract_x
_atom_site_fract_y
_atom_site_fract_z
Si Si1 0.083212 0.898048 0.717856
Si Si2 0.124290 0.178932 0.894359
Si Si3 0.528490 0.454424 0.385983
Si Si4 0.864215 0.443371 0.272749
Si Si5 0.052366 0.048564 0.136784
Si Si6 0.758126 0.573603 0.441318
Si Si7 0.384117 0.771060 0.897346
Si Si8 0.373472 0.532606 0.974051
O O1 0.081797 0.721150 0.722072
O O2 0.216083 0.949368 0.741048
O O3 0.073731 0.947678 0.665898
O O4 0.959138 0.964959 0.741302
O O5 0.250000 0.250000 0.872780
O O6 0.159454 0.100654 0.940802
O O7 0.012900 0.294845 0.902703
O O8 0.067044 0.060472 0.859630
O O9 0.637086 0.517859 0.416309
O O10 0.407824 0.555151 0.398173
O O11 0.858153 0.525537 0.321078
O O12 0.122560 0.028817 0.089139
O O13 0.992653 0.211680 0.136170
O O14 0.750000 0.750000 0.449079
O O15 0.765229 0.479706 0.487854
O O16 0.250000 0.750000 0.873790
O O17 0.380084 0.688149 0.946706
O O18 0.500000 0.500000 0.000000
#
# Coordination Sequence:
#
# PCOD8229612 Si02
#       8
#     8   8   8   8   8   8   8   8
#     4  11  27  47  77 107 152 181 247 296 367 432
#     4  11  24  42  67  97 140 184 234 296 351 429
#     4  12  24  45  74 106 131 200 248 285 356 444
#     4  11  26  50  72 112 142 188 235 305 359 440
#     4  11  22  46  71  91 144 183 226 296 354 421
#     4  12  23  42  73 103 136 184 246 298 350 426
#     4  11  25  42  64  99 142 188 240 297 353 427
#     4  11  22  44  64  95 143 188 232 301 363 404
#
# _framework density 22.376995000000001
#
# number of rings (size 3 to 8) (size 9 to 14) (size 15 to 20)
#    0.000    0.750    6.250    1.875    1.750    4.000 
#    0.000    2.500    0.000    0.000    0.000    0.000 
#    0.000    0.000    0.000    0.000    0.000    0.000 
#
# Total GULP energy -793022.995268 kJ/mol
# GULP energy per Si atom -12390.984301 kJ/mol
# Density = 2.232606 g / cm^3
# Si number density = 22.376995 Si / 1000 Ang^3
#
#
#
# Elastic Constant Matrix: (Units=GPa)
#
#
# Indices 1 2 3 4 5 6 
#
# 1 95.2152 8.2456 20.9324 0.0000 0.0000 0.0000
# 2 8.2456 63.2396 30.2959 0.0000 0.0000 0.0000
# 3 20.9324 30.2959 85.1943 0.0000 0.0000 0.0000
# 4 0.0000 0.0000 0.0000 30.4845 0.0000 0.0000
# 5 0.0000 0.0000 0.0000 0.0000 -146.0563 0.0000
# 6 0.0000 0.0000 0.0000 0.0000 0.0000 42.9084
#
#
#
# Elastic Compliance Matrix: (Units=1/GPa)
#
#
# Indices 1 2 3 4 5 6 
#
# 1 0.011104 -0.000170 -0.002668 0.000000 0.000000 0.000000
# 2 -0.000170 0.019063 -0.006737 0.000000 0.000000 0.000000
# 3 -0.002668 -0.006737 0.014789 0.000000 0.000000 0.000000
# 4 0.000000 0.000000 0.000000 0.032804 0.000000 0.000000
# 5 0.000000 0.000000 0.000000 0.000000 -0.006847 0.000000
# 6 0.000000 0.000000 0.000000 0.000000 0.000000 0.023305
#
#
# Mechanical properties :
#
#
# Convention : Reuss Voigt Hill
#
# Bulk Modulus (GPa) = 38.75060 40.28854 39.51957
# Shear Modulus (GPa) = 40.99399 -2.25432 19.36983
#
# Velocity S-wave (km/s) = 4.28480 -1.00480 2.94532
# Velocity P-wave (km/s) = 6.46792 4.08624 5.40978
#
# Compressibility (1/GPa) = 0.02580605
#
# Stress axis : x y z
#
# Youngs Moduli (GPa) = 90.05981 52.45899 67.61714
#
# Poissons Ratio (x) = 0.00890 0.18039
# Poissons Ratio (y) = 0.01528 0.45554
# Poissons Ratio (z) = 0.24027 0.35342
#
# Static dielectric constant tensor:
#      x y z
#    x 3.848570 0.000000 0.000000 
#    y 0.000000 4.167080 0.000000 
#    z 0.000000 0.000000 4.060500 
# 
# 
# High freq. dielectric constant tensor:
#      x y z
#    x 1.899580 0.000000 0.000000 
#    y 0.000000 1.889760 0.000000 
#    z 0.000000 0.000000 1.862220 
# 
# From -- ./inp_files/23511.got.cif
#   From: 2010.03.12/outbox.cif.g09.slc.cpg/sg56_12_cif.got.tgz:23511.got - 2010.04.16 15:33:40.
