data_PCOD8229284
_publ_section_title
;
Structure prediction by ZEFSAII (Michael W. Deem and Ramdas Pophale) SiO2 
 PCOD8229284
Probable space group: P C C N
;
_chemical_formula_sum "Si O2"
_cell_formula_units_Z 40
_cell_length_a 7.096620
_cell_length_b 19.975337
_cell_length_c 11.759993
_cell_angle_alpha 90.000000
_cell_angle_beta 90.000000
_cell_angle_gamma 90.000000
_cell_volume 1667.065750
_symmetry_space_group_name_H-M "P C C N"
_symmetry_group_IT_number 56
_symmetry_cell_setting 'orthorhombic'
loop_
_space_group_symop_operation_xyz
x,y,z
1/2-x,1/2-y,z
1/2+x,-y,1/2-z
-x,1/2+y,1/2-z
-x,-y,-z
1/2+x,1/2+y,-z
1/2-x,y,1/2+z
x,1/2-y,1/2+z
loop_
_atom_site_type_symbol
_atom_site_label
_atom_site_fract_x
_atom_site_fract_y
_atom_site_fract_z
Si Si1 0.622030 0.084050 0.566089
Si Si2 0.905755 0.834812 0.312831
Si Si3 0.144129 0.439850 0.367587
Si Si4 0.013878 0.881676 0.552660
Si Si5 0.974715 0.195998 0.233656
O O1 0.442886 0.088710 0.484309
O O2 0.638845 0.150572 0.642607
O O3 0.808569 0.075165 0.489343
O O4 0.601669 0.018748 0.646675
O O5 0.950749 0.901736 0.239669
O O6 0.912032 0.847669 0.446235
O O7 0.696811 0.813619 0.281176
O O8 0.059024 0.775931 0.282766
O O9 0.368849 0.428471 0.377585
O O10 0.085262 0.823882 0.638704
#
# Coordination Sequence:
#
# PCOD8229284 Si02
#       5
#     8   8   8   8   8
#     4  11  24  43  68  99 137 173 230 285 338 409
#     4  10  23  43  71  94 140 183 224 283 339 412
#     4  10  24  45  67  98 135 180 226 283 342 403
#     4  11  24  44  68 100 134 181 228 284 346 412
#     4  10  24  44  68 101 135 185 230 277 345 413
#
# _framework density 23.994251999999999
#
# number of rings (size 3 to 8) (size 9 to 14) (size 15 to 20)
#    0.000    1.600    2.000    0.600    5.600    7.200 
#    0.000    0.000    0.000    0.000    0.000    0.000 
#    0.000    0.000    0.000    0.000    0.000    0.000 
#
# Total GULP energy -496081.130813 kJ/mol
# GULP energy per Si atom -12402.028270 kJ/mol
# Density = 2.393964 g / cm^3
# Si number density = 23.994252 Si / 1000 Ang^3
#
#
#
# Elastic Constant Matrix: (Units=GPa)
#
#
# Indices 1 2 3 4 5 6 
#
# 1 46.3483 26.7041 12.5864 0.0000 0.0000 0.0000
# 2 26.7041 112.2898 43.3043 0.0000 0.0000 0.0000
# 3 12.5864 43.3043 102.1551 0.0000 0.0000 0.0000
# 4 0.0000 0.0000 0.0000 39.3500 0.0000 0.0000
# 5 0.0000 0.0000 0.0000 0.0000 27.0488 0.0000
# 6 0.0000 0.0000 0.0000 0.0000 0.0000 29.5000
#
#
#
# Elastic Compliance Matrix: (Units=1/GPa)
#
#
# Indices 1 2 3 4 5 6 
#
# 1 0.025040 -0.005696 -0.000670 0.000000 0.000000 0.000000
# 2 -0.005696 0.011942 -0.004360 0.000000 0.000000 0.000000
# 3 -0.000670 -0.004360 0.011720 0.000000 0.000000 0.000000
# 4 0.000000 0.000000 0.000000 0.025413 0.000000 0.000000
# 5 0.000000 0.000000 0.000000 0.000000 0.036970 0.000000
# 6 0.000000 0.000000 0.000000 0.000000 0.000000 0.033898
#
#
# Mechanical properties :
#
#
# Convention : Reuss Voigt Hill
#
# Bulk Modulus (GPa) = 36.70070 47.33144 42.01607
# Shear Modulus (GPa) = 28.48683 31.05966 29.77324
#
# Velocity S-wave (km/s) = 3.44937 3.60177 3.52639
# Velocity P-wave (km/s) = 5.58507 6.08818 5.84204
#
# Compressibility (1/GPa) = 0.02724744
#
# Stress axis : x y z
#
# Youngs Moduli (GPa) = 39.93640 83.73978 85.32396
#
# Poissons Ratio (x) = 0.47700 0.05720
# Poissons Ratio (y) = 0.22749 0.37204
# Poissons Ratio (z) = 0.02678 0.36514
#
# Static dielectric constant tensor:
#      x y z
#    x 4.177060 0.000000 0.000000 
#    y 0.000000 4.503480 0.000000 
#    z 0.000000 0.000000 4.178590 
# 
# 
# High freq. dielectric constant tensor:
#      x y z
#    x 1.959480 0.000000 0.000000 
#    y 0.000000 1.947290 0.000000 
#    z 0.000000 0.000000 1.948960 
# 
# From -- ./inp_files/6157.got.cif
#   From: 2010.03.12/outbox.cif.g09.slc.cpg/sg56_4_cif.got.tgz:6157.got - 2010.04.16 15:33:40.
