data_PCOD8229476
_publ_section_title
;
Structure prediction by ZEFSAII (Michael W. Deem and Ramdas Pophale) SiO2 
 PCOD8229476
Probable space group: P C C N
;
_chemical_formula_sum "Si O2"
_cell_formula_units_Z 32
_cell_length_a 4.943090
_cell_length_b 13.331763
_cell_length_c 19.262554
_cell_angle_alpha 90.000000
_cell_angle_beta 90.000000
_cell_angle_gamma 90.000000
_cell_volume 1269.404319
_symmetry_space_group_name_H-M "P C C N"
_symmetry_group_IT_number 56
_symmetry_cell_setting 'orthorhombic'
loop_
_space_group_symop_operation_xyz
x,y,z
1/2-x,1/2-y,z
1/2+x,-y,1/2-z
-x,1/2+y,1/2-z
-x,-y,-z
1/2+x,1/2+y,-z
1/2-x,y,1/2+z
x,1/2-y,1/2+z
loop_
_atom_site_type_symbol
_atom_site_label
_atom_site_fract_x
_atom_site_fract_y
_atom_site_fract_z
Si Si1 0.125140 0.858742 0.608302
Si Si2 0.489584 0.180395 0.746981
Si Si3 0.929698 0.559032 0.384953
Si Si4 0.913855 0.353290 0.046027
O O1 0.250000 0.750000 0.609657
O O2 0.983346 0.868535 0.533195
O O3 0.930474 0.866639 0.675934
O O4 0.352301 0.943201 0.616015
O O5 0.250000 0.250000 0.722143
O O6 0.521365 0.090441 0.692305
O O7 0.750000 0.250000 0.747621
O O8 0.685919 0.633022 0.409422
O O9 0.193474 0.562169 0.434593
O O10 0.750000 0.250000 0.061517
#
# Coordination Sequence:
#
# PCOD8229476 Si02
#       4
#     8   8   8   8
#     4  10  26  45  67  98 137 176 219 271 329 391
#     4  11  25  45  67  97 134 174 220 273 329 391
#     4  12  24  44  71  99 131 175 222 271 327 391
#     4  11  24  44  70 100 132 171 220 275 330 389
#
# _framework density 25.208673000000001
#
# number of rings (size 3 to 8) (size 9 to 14) (size 15 to 20)
#    0.000    1.000    0.000    6.000    0.000   16.000 
#    0.000    0.000    0.000    0.000    0.000    0.000 
#    0.000    0.000    0.000    0.000    0.000    0.000 
#
# Total GULP energy -396672.262086 kJ/mol
# GULP energy per Si atom -12396.008190 kJ/mol
# Density = 2.515130 g / cm^3
# Si number density = 25.208673 Si / 1000 Ang^3
#
#
#
# Elastic Constant Matrix: (Units=GPa)
#
#
# Indices 1 2 3 4 5 6 
#
# 1 94.0699 -9.4879 33.5299 0.0000 0.0000 0.0000
# 2 -9.4879 95.3171 58.2748 0.0000 0.0000 0.0000
# 3 33.5299 58.2748 179.9519 0.0000 0.0000 0.0000
# 4 0.0000 0.0000 0.0000 21.2807 0.0000 0.0000
# 5 0.0000 0.0000 0.0000 0.0000 70.5889 0.0000
# 6 0.0000 0.0000 0.0000 0.0000 0.0000 26.1122
#
#
#
# Elastic Compliance Matrix: (Units=1/GPa)
#
#
# Indices 1 2 3 4 5 6 
#
# 1 0.012135 0.003230 -0.003307 0.000000 0.000000 0.000000
# 2 0.003230 0.013941 -0.005116 0.000000 0.000000 0.000000
# 3 -0.003307 -0.005116 0.007830 0.000000 0.000000 0.000000
# 4 0.000000 0.000000 0.000000 0.046991 0.000000 0.000000
# 5 0.000000 0.000000 0.000000 0.000000 0.014167 0.000000
# 6 0.000000 0.000000 0.000000 0.000000 0.000000 0.038296
#
#
# Mechanical properties :
#
#
# Convention : Reuss Voigt Hill
#
# Bulk Modulus (GPa) = 42.51954 59.33028 50.92491
# Shear Modulus (GPa) = 32.98457 42.73116 37.85787
#
# Velocity S-wave (km/s) = 3.62119 4.12162 3.87948
# Velocity P-wave (km/s) = 5.86410 6.79979 6.34920
#
# Compressibility (1/GPa) = 0.02351860
#
# Stress axis : x y z
#
# Youngs Moduli (GPa) = 82.40726 71.73198 127.71304
#
# Poissons Ratio (x) = -0.23167 0.42234
# Poissons Ratio (y) = -0.26615 0.65342
# Poissons Ratio (z) = 0.27252 0.36700
#
# Static dielectric constant tensor:
#      x y z
#    x 4.146900 0.000000 0.000000 
#    y 0.000000 4.603860 0.000000 
#    z 0.000000 0.000000 5.697720 
# 
# 
# High freq. dielectric constant tensor:
#      x y z
#    x 1.987530 0.000000 0.000000 
#    y 0.000000 2.014220 0.000000 
#    z 0.000000 0.000000 2.031150 
# 
# From -- ./inp_files/13755.got.cif
#   From: 2010.03.12/outbox.cif.g09.slc.cpg/sg56_7_cif.got.tgz:13755.got - 2010.04.16 15:33:40.
