data_PCOD8229053
_publ_section_title
;
Structure prediction by ZEFSAII (Michael W. Deem and Ramdas Pophale) SiO2 
 PCOD8229053
Probable space group: P C C N
;
_chemical_formula_sum "Si O2"
_cell_formula_units_Z 40
_cell_length_a 5.174560
_cell_length_b 19.342347
_cell_length_c 18.782498
_cell_angle_alpha 90.000000
_cell_angle_beta 90.000000
_cell_angle_gamma 90.000000
_cell_volume 1879.905197
_symmetry_space_group_name_H-M "P C C N"
_symmetry_group_IT_number 56
_symmetry_cell_setting 'orthorhombic'
loop_
_space_group_symop_operation_xyz
x,y,z
1/2-x,1/2-y,z
1/2+x,-y,1/2-z
-x,1/2+y,1/2-z
-x,-y,-z
1/2+x,1/2+y,-z
1/2-x,y,1/2+z
x,1/2-y,1/2+z
loop_
_atom_site_type_symbol
_atom_site_label
_atom_site_fract_x
_atom_site_fract_y
_atom_site_fract_z
Si Si1 0.148660 0.323838 0.902147
Si Si2 0.327816 0.892726 0.373831
Si Si3 0.818826 0.674028 0.934810
Si Si4 0.884280 0.101730 0.285808
Si Si5 0.874001 0.952003 0.158442
O O1 0.250000 0.250000 0.875608
O O2 0.357617 0.386290 0.895407
O O3 0.907977 0.340584 0.848793
O O4 0.073386 0.320297 0.984694
O O5 0.551693 0.867462 0.426959
O O6 0.372148 0.866062 0.293032
O O7 0.047626 0.862881 0.392633
O O8 0.337765 0.975648 0.382018
O O9 0.750000 0.750000 0.904881
O O10 0.642644 0.051982 0.299961
O O11 0.139225 0.053551 0.285165
#
# Coordination Sequence:
#
# PCOD8229053 Si02
#       5
#     8   8   8   8   8
#     4   9  24  45  66  92 133 174 221 263 325 393
#     4  12  23  42  69  95 136 166 218 273 328 389
#     4  11  26  44  63  94 134 175 212 274 330 385
#     4  10  22  41  65  96 127 170 217 267 324 387
#     4  10  22  40  68  97 127 172 218 268 327 379
#
# _framework density 21.277667000000001
#
# number of rings (size 3 to 8) (size 9 to 14) (size 15 to 20)
#    1.200    0.400    0.000    4.200    2.800    3.200 
#    3.600    0.000    0.000    0.000    0.000    0.000 
#    0.000    0.000    0.000    0.000    0.000    0.000 
#
# Total GULP energy -495547.296353 kJ/mol
# GULP energy per Si atom -12388.682409 kJ/mol
# Density = 2.122924 g / cm^3
# Si number density = 21.277667 Si / 1000 Ang^3
#
#
#
# Elastic Constant Matrix: (Units=GPa)
#
#
# Indices 1 2 3 4 5 6 
#
# 1 139.8934 47.5784 19.8075 0.0000 0.0000 0.0000
# 2 47.5784 152.7572 46.7629 0.0000 0.0000 0.0000
# 3 19.8075 46.7629 74.9916 0.0000 0.0000 0.0000
# 4 0.0000 0.0000 0.0000 28.9941 0.0000 0.0000
# 5 0.0000 0.0000 0.0000 0.0000 75.1757 0.0000
# 6 0.0000 0.0000 0.0000 0.0000 0.0000 19.1052
#
#
#
# Elastic Compliance Matrix: (Units=1/GPa)
#
#
# Indices 1 2 3 4 5 6 
#
# 1 0.008024 -0.002287 -0.000693 0.000000 0.000000 0.000000
# 2 -0.002287 0.008743 -0.004848 0.000000 0.000000 0.000000
# 3 -0.000693 -0.004848 0.016541 0.000000 0.000000 0.000000
# 4 0.000000 0.000000 0.000000 0.034490 0.000000 0.000000
# 5 0.000000 0.000000 0.000000 0.000000 0.013302 0.000000
# 6 0.000000 0.000000 0.000000 0.000000 0.000000 0.052342
#
#
# Mechanical properties :
#
#
# Convention : Reuss Voigt Hill
#
# Bulk Modulus (GPa) = 56.65144 66.21553 61.43348
# Shear Modulus (GPa) = 32.26196 41.55458 36.90827
#
# Velocity S-wave (km/s) = 3.89811 4.42403 4.16937
# Velocity P-wave (km/s) = 6.85150 7.56858 7.21895
#
# Compressibility (1/GPa) = 0.01765180
#
# Stress axis : x y z
#
# Youngs Moduli (GPa) = 124.62151 114.38174 60.45655
#
# Poissons Ratio (x) = 0.26160 0.04191
# Poissons Ratio (y) = 0.28501 0.29307
# Poissons Ratio (z) = 0.08640 0.55448
#
# Static dielectric constant tensor:
#      x y z
#    x 3.741480 0.000000 0.000000 
#    y 0.000000 3.708270 0.000000 
#    z 0.000000 0.000000 3.654900 
# 
# 
# High freq. dielectric constant tensor:
#      x y z
#    x 1.838060 0.000000 0.000000 
#    y 0.000000 1.841550 0.000000 
#    z 0.000000 0.000000 1.826680 
# 
# From -- ./inp_files/13822.got.cif
#   From: 2010.03.12/outbox.cif.g09.slc.cpg/sg56_7_cif.got.tgz:13822.got - 2010.04.16 15:33:40.
