data_PCOD8229683
_publ_section_title
;
Structure prediction by ZEFSAII (Michael W. Deem and Ramdas Pophale) SiO2 
 PCOD8229683
Probable space group: P C C N
;
_chemical_formula_sum "Si O2"
_cell_formula_units_Z 56
_cell_length_a 19.318529
_cell_length_b 8.682916
_cell_length_c 14.481352
_cell_angle_alpha 90.000000
_cell_angle_beta 90.000000
_cell_angle_gamma 90.000000
_cell_volume 2429.118849
_symmetry_space_group_name_H-M "P C C N"
_symmetry_group_IT_number 56
_symmetry_cell_setting 'orthorhombic'
loop_
_space_group_symop_operation_xyz
x,y,z
1/2-x,1/2-y,z
1/2+x,-y,1/2-z
-x,1/2+y,1/2-z
-x,-y,-z
1/2+x,1/2+y,-z
1/2-x,y,1/2+z
x,1/2-y,1/2+z
loop_
_atom_site_type_symbol
_atom_site_label
_atom_site_fract_x
_atom_site_fract_y
_atom_site_fract_z
Si Si1 0.092221 0.422192 0.582330
Si Si2 0.238265 0.421954 0.317980
Si Si3 0.290460 0.591664 0.491031
Si Si4 0.472144 0.373841 0.895663
Si Si5 0.282512 0.583256 0.154864
Si Si6 0.398018 0.370969 0.709476
Si Si7 0.558958 0.090775 0.948215
O O1 0.091091 0.381620 0.471239
O O2 0.142799 0.569363 0.602859
O O3 0.116178 0.273883 0.642151
O O4 0.012739 0.462873 0.609238
O O5 0.250000 0.250000 0.351120
O O6 0.248170 0.526572 0.406311
O O7 0.295537 0.480689 0.245687
O O8 0.166773 0.442030 0.264531
O O9 0.250000 0.750000 0.514477
O O10 0.273078 0.498215 0.585767
O O11 0.373431 0.599623 0.483720
O O12 0.448410 0.322955 0.793818
O O13 0.531296 0.259779 0.931267
O O14 0.250000 0.750000 0.184355
O O15 0.427479 0.510966 0.649817
O O16 0.500000 0.000000 0.000000
#
# Coordination Sequence:
#
# PCOD8229683 Si02
#       7
#     8   8   8   8   8   8   8
#     4  11  24  45  69 101 145 187 244 302 369 437
#     4  12  26  43  71 106 139 192 248 314 383 435
#     4  11  26  48  73 104 147 194 249 311 377 459
#     4  11  25  45  71 105 146 198 239 296 373 459
#     4  11  23  46  71  97 138 189 244 308 361 441
#     4  12  25  46  69 109 143 191 250 306 376 451
#     4  12  26  47  76 108 152 198 248 311 387 460
#
# _framework density 23.053628
#
# number of rings (size 3 to 8) (size 9 to 14) (size 15 to 20)
#    0.000    0.571    4.286    3.857    2.000    4.000 
#    2.571    0.000    0.000    0.000    0.000    0.000 
#    0.000    0.000    0.000    0.000    0.000    0.000 
#
# Total GULP energy -693738.925554 kJ/mol
# GULP energy per Si atom -12388.195099 kJ/mol
# Density = 2.300116 g / cm^3
# Si number density = 23.053628 Si / 1000 Ang^3
#
#
#
# Elastic Constant Matrix: (Units=GPa)
#
#
# Indices 1 2 3 4 5 6 
#
# 1 102.6478 29.3612 26.9837 0.0000 0.0000 0.0000
# 2 29.3612 64.9036 29.6554 0.0000 0.0000 0.0000
# 3 26.9837 29.6554 122.1988 0.0000 0.0000 0.0000
# 4 0.0000 0.0000 0.0000 29.6691 0.0000 0.0000
# 5 0.0000 0.0000 0.0000 0.0000 39.2376 0.0000
# 6 0.0000 0.0000 0.0000 0.0000 0.0000 38.4452
#
#
#
# Elastic Compliance Matrix: (Units=1/GPa)
#
#
# Indices 1 2 3 4 5 6 
#
# 1 0.011406 -0.004509 -0.001424 0.000000 0.000000 0.000000
# 2 -0.004509 0.019112 -0.003642 0.000000 0.000000 0.000000
# 3 -0.001424 -0.003642 0.009382 0.000000 0.000000 0.000000
# 4 0.000000 0.000000 0.000000 0.033705 0.000000 0.000000
# 5 0.000000 0.000000 0.000000 0.000000 0.025486 0.000000
# 6 0.000000 0.000000 0.000000 0.000000 0.000000 0.026011
#
#
# Mechanical properties :
#
#
# Convention : Reuss Voigt Hill
#
# Bulk Modulus (GPa) = 48.19770 51.30567 49.75169
# Shear Modulus (GPa) = 33.07547 35.05369 34.06458
#
# Velocity S-wave (km/s) = 3.79188 3.90363 3.84816
# Velocity P-wave (km/s) = 6.33429 6.52847 6.43212
#
# Compressibility (1/GPa) = 0.02074788
#
# Stress axis : x y z
#
# Youngs Moduli (GPa) = 87.67091 52.32436 106.58873
#
# Poissons Ratio (x) = 0.23594 0.15183
# Poissons Ratio (y) = 0.39532 0.38823
# Poissons Ratio (z) = 0.12488 0.19058
#
# Static dielectric constant tensor:
#      x y z
#    x 4.121350 0.000000 0.000000 
#    y 0.000000 4.048820 0.000000 
#    z 0.000000 0.000000 4.388060 
# 
# 
# High freq. dielectric constant tensor:
#      x y z
#    x 1.914120 0.000000 0.000000 
#    y 0.000000 1.903990 0.000000 
#    z 0.000000 0.000000 1.926860 
# 
# From -- ./inp_files/13086.got.cif
#   From: 2010.03.12/outbox.cif.g09.slc.cpg/sg56_7_cif.got.tgz:13086.got - 2010.04.16 15:33:40.
