data_PCOD8229801
_publ_section_title
;
Structure prediction by ZEFSAII (Michael W. Deem and Ramdas Pophale) SiO2 
 PCOD8229801
Probable space group: P C C N
;
_chemical_formula_sum "Si O2"
_cell_formula_units_Z 16
_cell_length_a 5.080018
_cell_length_b 8.793875
_cell_length_c 12.677895
_cell_angle_alpha 90.000000
_cell_angle_beta 90.000000
_cell_angle_gamma 90.000000
_cell_volume 566.360152
_symmetry_space_group_name_H-M "P C C N"
_symmetry_group_IT_number 56
_symmetry_cell_setting 'orthorhombic'
loop_
_space_group_symop_operation_xyz
x,y,z
1/2-x,1/2-y,z
1/2+x,-y,1/2-z
-x,1/2+y,1/2-z
-x,-y,-z
1/2+x,1/2+y,-z
1/2-x,y,1/2+z
x,1/2-y,1/2+z
loop_
_atom_site_type_symbol
_atom_site_label
_atom_site_fract_x
_atom_site_fract_y
_atom_site_fract_z
Si Si1 0.308438 0.577476 0.918033
Si Si2 0.005927 0.648472 0.191150
O O1 0.250000 0.750000 0.951709
O O2 0.449009 0.569455 0.803715
O O3 0.500000 0.500000 0.000000
O O4 0.961826 0.520380 0.099470
O O5 0.250000 0.750000 0.153894
O O6 0.750000 0.750000 0.200038
#
# Coordination Sequence:
#
# PCOD8229801 Si02
#       2
#     8   8
#     4  11  26  51  83 122 162 214 275 342 414 493
#     4  11  26  53  83 116 164 216 273 342 413 493
#
# _framework density 28.250572999999999
#
# number of rings (size 3 to 8) (size 9 to 14) (size 15 to 20)
#    0.000    1.000    0.000    6.000    0.000   10.000 
#    0.000   37.500    0.000    0.000    0.000    0.000 
#    0.000    0.000    0.000    0.000    0.000    0.000 
#
# Total GULP energy -198516.084619 kJ/mol
# GULP energy per Si atom -12407.255289 kJ/mol
# Density = 2.818627 g / cm^3
# Si number density = 28.250573 Si / 1000 Ang^3
#
#
#
# Elastic Constant Matrix: (Units=GPa)
#
#
# Indices 1 2 3 4 5 6 
#
# 1 194.1758 117.7489 62.5221 0.0000 0.0000 0.0000
# 2 117.7489 271.0687 91.9949 0.0000 0.0000 0.0000
# 3 62.5221 91.9949 170.3591 0.0000 0.0000 0.0000
# 4 0.0000 0.0000 0.0000 237.4980 0.0000 0.0000
# 5 0.0000 0.0000 0.0000 0.0000 -19.5266 0.0000
# 6 0.0000 0.0000 0.0000 0.0000 0.0000 56.4630
#
#
#
# Elastic Compliance Matrix: (Units=1/GPa)
#
#
# Indices 1 2 3 4 5 6 
#
# 1 0.007175 -0.002722 -0.001163 0.000000 0.000000 0.000000
# 2 -0.002722 0.005549 -0.001998 0.000000 0.000000 0.000000
# 3 -0.001163 -0.001998 0.007376 0.000000 0.000000 0.000000
# 4 0.000000 0.000000 0.000000 0.004211 0.000000 0.000000
# 5 0.000000 0.000000 0.000000 0.000000 -0.051212 0.000000
# 6 0.000000 0.000000 0.000000 0.000000 0.000000 0.017711
#
#
# Mechanical properties :
#
#
# Convention : Reuss Voigt Hill
#
# Bulk Modulus (GPa) = 119.98954 131.12615 125.55784
# Shear Modulus (GPa) = 933.87340 79.10939 506.49140
#
# Velocity S-wave (km/s) = 18.20125 5.29750 13.40427
# Velocity P-wave (km/s) = 22.00635 9.16156 16.85547
#
# Compressibility (1/GPa) = 0.00833406
#
# Stress axis : x y z
#
# Youngs Moduli (GPa) = 139.36903 180.19642 135.57939
#
# Poissons Ratio (x) = 0.49049 0.15774
# Poissons Ratio (y) = 0.37936 0.27086
# Poissons Ratio (z) = 0.16215 0.36000
#
# Static dielectric constant tensor:
#      x y z
#    x 4.875430 0.000000 0.000000 
#    y 0.000000 6.683410 0.000000 
#    z 0.000000 0.000000 5.620650 
# 
# 
# High freq. dielectric constant tensor:
#      x y z
#    x 2.153830 0.000000 0.000000 
#    y 0.000000 2.168080 0.000000 
#    z 0.000000 0.000000 2.171540 
# 
# From -- ./inp_files/5257.got.cif
#   From: 2010.03.12/outbox.cif.g09.slc.cpg/sg56_3_cif.got.tgz:5257.got - 2010.04.16 15:33:40.
