data_PCOD8229712
_publ_section_title
;
Structure prediction by ZEFSAII (Michael W. Deem and Ramdas Pophale) SiO2 
 PCOD8229712
Probable space group: P C C N
;
_chemical_formula_sum "Si O2"
_cell_formula_units_Z 48
_cell_length_a 17.235354
_cell_length_b 7.213317
_cell_length_c 18.379837
_cell_angle_alpha 90.000000
_cell_angle_beta 90.000000
_cell_angle_gamma 90.000000
_cell_volume 2285.056179
_symmetry_space_group_name_H-M "P C C N"
_symmetry_group_IT_number 56
_symmetry_cell_setting 'orthorhombic'
loop_
_space_group_symop_operation_xyz
x,y,z
1/2-x,1/2-y,z
1/2+x,-y,1/2-z
-x,1/2+y,1/2-z
-x,-y,-z
1/2+x,1/2+y,-z
1/2-x,y,1/2+z
x,1/2-y,1/2+z
loop_
_atom_site_type_symbol
_atom_site_label
_atom_site_fract_x
_atom_site_fract_y
_atom_site_fract_z
Si Si1 0.433467 0.460986 0.555048
Si Si2 0.327527 0.139568 0.515591
Si Si3 0.662864 0.271585 0.893348
Si Si4 0.956058 0.529797 0.182844
Si Si5 0.168288 0.158466 0.847781
Si Si6 0.592796 0.166924 0.741279
O O1 0.500000 0.500000 0.500000
O O2 0.401252 0.262793 0.533867
O O3 0.364444 0.613005 0.549864
O O4 0.471769 0.467431 0.633584
O O5 0.250000 0.250000 0.538448
O O6 0.324536 0.083182 0.430314
O O7 0.344448 0.965170 0.565917
O O8 0.750000 0.250000 0.868534
O O9 0.614493 0.249172 0.819987
O O10 0.900960 0.691725 0.152897
O O11 0.902577 0.348966 0.191182
O O12 0.002853 0.595050 0.255526
O O13 0.250000 0.250000 0.822771
O O14 0.149444 0.990133 0.792233
#
# Coordination Sequence:
#
# PCOD8229712 Si02
#       6
#     8   8   8   8   8   8
#     4  11  24  43  70 106 137 176 233 283 341 416
#     4  11  24  46  73 101 138 180 228 291 346 406
#     4  11  26  45  69 102 137 182 234 283 346 406
#     4  11  24  44  68  98 139 182 230 281 343 408
#     4  11  26  45  69 103 140 181 231 283 348 410
#     4  11  26  45  67  99 137 184 227 284 341 410
#
# _framework density 21.006046999999999
#
# number of rings (size 3 to 8) (size 9 to 14) (size 15 to 20)
#    0.000    1.000    5.000    0.000    7.000    0.667 
#    0.000    0.000    0.000    0.000    0.000    0.000 
#    0.000    0.000    0.000    0.000    0.000    0.000 
#
# Total GULP energy -594916.166159 kJ/mol
# GULP energy per Si atom -12394.086795 kJ/mol
# Density = 2.095824 g / cm^3
# Si number density = 21.006047 Si / 1000 Ang^3
#
#
#
# Elastic Constant Matrix: (Units=GPa)
#
#
# Indices 1 2 3 4 5 6 
#
# 1 92.1811 35.3223 30.6945 0.0000 0.0000 0.0000
# 2 35.3223 135.9734 62.8980 0.0000 0.0000 0.0000
# 3 30.6945 62.8980 87.1584 0.0000 0.0000 0.0000
# 4 0.0000 0.0000 0.0000 36.3227 0.0000 0.0000
# 5 0.0000 0.0000 0.0000 0.0000 3.1949 0.0000
# 6 0.0000 0.0000 0.0000 0.0000 0.0000 40.7790
#
#
#
# Elastic Compliance Matrix: (Units=1/GPa)
#
#
# Indices 1 2 3 4 5 6 
#
# 1 0.012586 -0.001830 -0.003112 0.000000 0.000000 0.000000
# 2 -0.001830 0.011306 -0.007514 0.000000 0.000000 0.000000
# 3 -0.003112 -0.007514 0.017992 0.000000 0.000000 0.000000
# 4 0.000000 0.000000 0.000000 0.027531 0.000000 0.000000
# 5 0.000000 0.000000 0.000000 0.000000 0.313002 0.000000
# 6 0.000000 0.000000 0.000000 0.000000 0.000000 0.024522
#
#
# Mechanical properties :
#
#
# Convention : Reuss Voigt Hill
#
# Bulk Modulus (GPa) = 58.92313 63.68252 61.30283
# Shear Modulus (GPa) = 11.42837 28.48585 19.95711
#
# Velocity S-wave (km/s) = 2.33502 3.68649 3.08566
# Velocity P-wave (km/s) = 5.94821 6.96437 6.47625
#
# Compressibility (1/GPa) = 0.01697126
#
# Stress axis : x y z
#
# Youngs Moduli (GPa) = 79.45619 88.45079 55.58063
#
# Poissons Ratio (x) = 0.16187 0.17294
# Poissons Ratio (y) = 0.14541 0.41765
# Poissons Ratio (z) = 0.24723 0.66465
#
# Static dielectric constant tensor:
#      x y z
#    x 3.857650 0.000000 0.000000 
#    y 0.000000 3.842970 0.000000 
#    z 0.000000 0.000000 3.565070 
# 
# 
# High freq. dielectric constant tensor:
#      x y z
#    x 1.835940 0.000000 0.000000 
#    y 0.000000 1.831580 0.000000 
#    z 0.000000 0.000000 1.817400 
# 
# From -- ./inp_files/19423.got.cif
#   From: 2010.03.12/outbox.cif.g09.slc.cpg/sg56_10_cif.got.tgz:19423.got - 2010.04.16 15:33:40.
