data_PCOD8229105
_publ_section_title
;
Structure prediction by ZEFSAII (Michael W. Deem and Ramdas Pophale) SiO2 
 PCOD8229105
Probable space group: P C C N
;
_chemical_formula_sum "Si O2"
_cell_formula_units_Z 40
_cell_length_a 21.008279
_cell_length_b 8.664991
_cell_length_c 10.533891
_cell_angle_alpha 90.000000
_cell_angle_beta 90.000000
_cell_angle_gamma 90.000000
_cell_volume 1917.553159
_symmetry_space_group_name_H-M "P C C N"
_symmetry_group_IT_number 56
_symmetry_cell_setting 'orthorhombic'
loop_
_space_group_symop_operation_xyz
x,y,z
1/2-x,1/2-y,z
1/2+x,-y,1/2-z
-x,1/2+y,1/2-z
-x,-y,-z
1/2+x,1/2+y,-z
1/2-x,y,1/2+z
x,1/2-y,1/2+z
loop_
_atom_site_type_symbol
_atom_site_label
_atom_site_fract_x
_atom_site_fract_y
_atom_site_fract_z
Si Si1 0.835255 0.496333 0.512376
Si Si2 0.028852 0.064584 0.371160
Si Si3 0.337620 0.491025 0.271929
Si Si4 0.750000 0.750000 0.117842
Si Si5 0.750000 0.250000 0.122124
Si Si6 0.965248 0.568699 0.622003
O O1 0.863961 0.501837 0.371195
O O2 0.781326 0.625573 0.525200
O O3 0.802698 0.331209 0.534797
O O4 0.890946 0.525477 0.613312
O O5 0.101170 0.001304 0.363537
O O6 0.025814 0.248535 0.373432
O O7 0.000000 0.000000 0.500000
O O8 0.988867 0.005935 0.251879
O O9 0.302482 0.328669 0.292689
O O10 0.287433 0.628539 0.290834
O O11 0.000000 0.500000 0.500000
#
# Coordination Sequence:
#
# PCOD8229105 Si02
#       6
#     8   8   8   4   4   8
#     4  11  23  44  71  95 137 173 229 279 347 409
#     4  12  28  45  72 103 142 186 237 290 350 409
#     4  11  23  45  69  98 136 172 230 277 349 406
#     4  10  22  42  66 100 126 176 222 280 340 410
#     4  10  26  42  66 108 132 178 216 290 342 420
#     4  12  26  47  72  99 140 186 233 289 347 414
#
# _framework density 20.859916999999999
#
# number of rings (size 3 to 8) (size 9 to 14) (size 15 to 20)
#    0.000    0.800    4.000    2.400    5.600    0.000 
#   14.400    0.000    0.000    0.000    0.000    0.000 
#    0.000    0.000    0.000    0.000    0.000    0.000 
#
# Total GULP energy -496183.883526 kJ/mol
# GULP energy per Si atom -12404.597088 kJ/mol
# Density = 2.081244 g / cm^3
# Si number density = 20.859917 Si / 1000 Ang^3
#
#
#
# Elastic Constant Matrix: (Units=GPa)
#
#
# Indices 1 2 3 4 5 6 
#
# 1 133.1782 48.7393 60.4334 0.0000 0.0000 0.0000
# 2 48.7393 136.5154 51.5323 0.0000 0.0000 0.0000
# 3 60.4334 51.5323 149.6045 0.0000 0.0000 0.0000
# 4 0.0000 0.0000 0.0000 29.5678 0.0000 0.0000
# 5 0.0000 0.0000 0.0000 0.0000 40.5189 0.0000
# 6 0.0000 0.0000 0.0000 0.0000 0.0000 31.7049
#
#
#
# Elastic Compliance Matrix: (Units=1/GPa)
#
#
# Indices 1 2 3 4 5 6 
#
# 1 0.009785 -0.002300 -0.003160 0.000000 0.000000 0.000000
# 2 -0.002300 0.008961 -0.002157 0.000000 0.000000 0.000000
# 3 -0.003160 -0.002157 0.008704 0.000000 0.000000 0.000000
# 4 0.000000 0.000000 0.000000 0.033821 0.000000 0.000000
# 5 0.000000 0.000000 0.000000 0.000000 0.024680 0.000000
# 6 0.000000 0.000000 0.000000 0.000000 0.000000 0.031541
#
#
# Mechanical properties :
#
#
# Convention : Reuss Voigt Hill
#
# Bulk Modulus (GPa) = 81.87616 82.30090 82.08853
# Shear Modulus (GPa) = 36.55030 37.59787 37.07409
#
# Velocity S-wave (km/s) = 4.19044 4.25007 4.22036
# Velocity P-wave (km/s) = 7.92141 7.97646 7.94898
#
# Compressibility (1/GPa) = 0.01221357
#
# Stress axis : x y z
#
# Youngs Moduli (GPa) = 102.20104 111.59637 114.89029
#
# Poissons Ratio (x) = 0.25672 0.36307
# Poissons Ratio (y) = 0.23511 0.24786
# Poissons Ratio (z) = 0.32297 0.24075
#
# Static dielectric constant tensor:
#      x y z
#    x 4.033370 0.000000 0.000000 
#    y 0.000000 3.991510 0.000000 
#    z 0.000000 0.000000 3.664720 
# 
# 
# High freq. dielectric constant tensor:
#      x y z
#    x 1.834640 0.000000 0.000000 
#    y 0.000000 1.831250 0.000000 
#    z 0.000000 0.000000 1.813320 
# 
# From -- ./inp_files/2079.got.cif
#   From: 2010.03.12/outbox.cif.g09.slc.cpg/sg56_2_cif.got.tgz:2079.got - 2010.04.16 15:33:40.
