data_PCOD8229592
_publ_section_title
;
Structure prediction by ZEFSAII (Michael W. Deem and Ramdas Pophale) SiO2 
 PCOD8229592
Probable space group: P C C N
;
_chemical_formula_sum "Si O2"
_cell_formula_units_Z 56
_cell_length_a 8.651356
_cell_length_b 14.944641
_cell_length_c 20.199496
_cell_angle_alpha 90.000000
_cell_angle_beta 90.000000
_cell_angle_gamma 90.000000
_cell_volume 2611.621311
_symmetry_space_group_name_H-M "P C C N"
_symmetry_group_IT_number 56
_symmetry_cell_setting 'orthorhombic'
loop_
_space_group_symop_operation_xyz
x,y,z
1/2-x,1/2-y,z
1/2+x,-y,1/2-z
-x,1/2+y,1/2-z
-x,-y,-z
1/2+x,1/2+y,-z
1/2-x,y,1/2+z
x,1/2-y,1/2+z
loop_
_atom_site_type_symbol
_atom_site_label
_atom_site_fract_x
_atom_site_fract_y
_atom_site_fract_z
Si Si1 0.533946 0.922575 0.551490
Si Si2 0.124563 0.392350 0.973600
Si Si3 0.047980 0.670829 0.331692
Si Si4 0.608754 0.007675 0.320611
Si Si5 0.396219 0.866136 0.804248
Si Si6 0.924901 0.271436 0.525140
Si Si7 0.419572 0.011017 0.104348
O O1 0.700114 0.873442 0.547325
O O2 0.512722 0.959984 0.624701
O O3 0.414546 0.843434 0.534038
O O4 0.500000 0.000000 0.500000
O O5 0.031503 0.309001 0.001550
O O6 0.037755 0.429313 0.908015
O O7 0.144559 0.465474 0.031826
O O8 0.041342 0.764845 0.291064
O O9 0.219267 0.631523 0.326076
O O10 0.000523 0.687105 0.408200
O O11 0.928584 0.596533 0.302801
O O12 0.579200 0.070812 0.258462
O O13 0.783080 0.019237 0.346574
O O14 0.492021 0.904046 0.865843
O O15 0.750000 0.250000 0.544433
#
# Coordination Sequence:
#
# PCOD8229592 Si02
#       7
#     8   8   8   8   8   8   8
#     4  12  24  41  68 101 139 174 220 286 348 405
#     4  11  23  40  68 100 138 171 226 281 344 403
#     4  11  22  44  72  91 130 182 226 283 343 412
#     4  12  25  43  67  99 139 183 227 283 346 412
#     4  11  24  44  67  97 134 181 235 279 341 424
#     4  12  22  41  70 100 131 174 226 284 344 405
#     4  11  22  40  68 101 132 175 225 284 337 405
#
# _framework density 21.442619000000001
#
# number of rings (size 3 to 8) (size 9 to 14) (size 15 to 20)
#    0.000    0.571    5.714    3.000    2.000    0.571 
#   10.286    0.000    3.143    0.000    0.000    0.000 
#    0.000    0.000    0.000    0.000    0.000    0.000 
#
# Total GULP energy -694359.290117 kJ/mol
# GULP energy per Si atom -12399.273038 kJ/mol
# Density = 2.139381 g / cm^3
# Si number density = 21.442619 Si / 1000 Ang^3
#
#
#
# Elastic Constant Matrix: (Units=GPa)
#
#
# Indices 1 2 3 4 5 6 
#
# 1 90.9103 35.9354 31.8348 0.0000 0.0000 0.0000
# 2 35.9354 123.1769 53.8940 0.0000 0.0000 0.0000
# 3 31.8348 53.8940 83.8961 0.0000 0.0000 0.0000
# 4 0.0000 0.0000 0.0000 44.8084 0.0000 0.0000
# 5 0.0000 0.0000 0.0000 0.0000 23.9225 0.0000
# 6 0.0000 0.0000 0.0000 0.0000 0.0000 42.0531
#
#
#
# Elastic Compliance Matrix: (Units=1/GPa)
#
#
# Indices 1 2 3 4 5 6 
#
# 1 0.013137 -0.002297 -0.003509 0.000000 0.000000 0.000000
# 2 -0.002297 0.011694 -0.006640 0.000000 0.000000 0.000000
# 3 -0.003509 -0.006640 0.017517 0.000000 0.000000 0.000000
# 4 0.000000 0.000000 0.000000 0.022317 0.000000 0.000000
# 5 0.000000 0.000000 0.000000 0.000000 0.041802 0.000000
# 6 0.000000 0.000000 0.000000 0.000000 0.000000 0.023779
#
#
# Mechanical properties :
#
#
# Convention : Reuss Voigt Hill
#
# Bulk Modulus (GPa) = 57.29315 60.14575 58.71945
# Shear Modulus (GPa) = 31.06413 33.91139 32.48776
#
# Velocity S-wave (km/s) = 3.81032 3.98112 3.89665
# Velocity P-wave (km/s) = 6.79230 7.01733 6.90573
#
# Compressibility (1/GPa) = 0.01745409
#
# Stress axis : x y z
#
# Youngs Moduli (GPa) = 76.12262 85.51416 57.08798
#
# Poissons Ratio (x) = 0.19643 0.20033
# Poissons Ratio (y) = 0.17486 0.37909
# Poissons Ratio (z) = 0.26713 0.56785
#
# Static dielectric constant tensor:
#      x y z
#    x 3.938200 0.000000 0.000000 
#    y 0.000000 4.092190 0.000000 
#    z 0.000000 0.000000 4.058170 
# 
# 
# High freq. dielectric constant tensor:
#      x y z
#    x 1.845370 0.000000 0.000000 
#    y 0.000000 1.850480 0.000000 
#    z 0.000000 0.000000 1.824620 
# 
# From -- ./inp_files/18210.got.cif
#   From: 2010.03.12/outbox.cif.g09.slc.cpg/sg56_10_cif.got.tgz:18210.got - 2010.04.16 15:33:40.
