data_PCOD8229888
_publ_section_title
;
Structure prediction by ZEFSAII (Michael W. Deem and Ramdas Pophale) SiO2 
 PCOD8229888
Probable space group: P B C M
;
_chemical_formula_sum "Si O2"
_cell_formula_units_Z 40
_cell_length_a 24.506191
_cell_length_b 5.254377
_cell_length_c 15.196291
_cell_angle_alpha 90.000000
_cell_angle_beta 90.000000
_cell_angle_gamma 90.000000
_cell_volume 1956.746860
_symmetry_space_group_name_H-M "P B C M"
_symmetry_group_IT_number 57
_symmetry_cell_setting 'orthorhombic'
loop_
_space_group_symop_operation_xyz
x,y,z
-x,-y,1/2+z
x,1/2-y,-z
-x,1/2+y,1/2-z
-x,-y,-z
x,y,1/2-z
-x,1/2+y,z
x,1/2-y,1/2+z
loop_
_atom_site_type_symbol
_atom_site_label
_atom_site_fract_x
_atom_site_fract_y
_atom_site_fract_z
Si Si1 0.035543 0.243842 0.250000
Si Si2 0.139755 0.272749 0.347791
Si Si3 0.464847 0.268819 0.750000
Si Si4 0.623585 0.753245 0.896893
Si Si5 0.690943 0.246973 0.397876
Si Si6 0.187352 0.772587 0.150425
O O1 0.073716 0.264722 0.337674
O O2 0.992140 0.468840 0.250000
O O3 0.167105 0.277508 0.250000
O O4 0.160978 0.525928 0.397991
O O5 0.163710 0.024792 0.398153
O O6 0.489830 0.550316 0.750000
O O7 0.430546 0.236288 0.660807
O O8 0.660924 0.513038 0.871537
O O9 0.654325 0.012421 0.871032
O O10 0.607431 0.750000 0.000000
O O11 0.704995 0.250000 0.500000
O O12 0.747556 0.263545 0.347030
O O13 0.164330 0.778274 0.250000
#
# Coordination Sequence:
#
# PCOD8229888 Si02
#       6
#     4   8   4   8   8   8
#     4  10  16  26  41  60  97 136 168 220 278 318
#     4   8  17  27  39  67  98 130 168 210 258 319
#     4  12  26  42  63  88 109 146 194 226 276 330
#     4  10  23  41  59  85 116 142 182 232 269 320
#     4  10  21  36  56  82 112 145 177 210 266 328
#     4  10  17  29  47  71 103 137 160 207 258 317
#
# _framework density 20.442093
#
# number of rings (size 3 to 8) (size 9 to 14) (size 15 to 20)
#    0.600    1.600    0.000    3.600    2.800    0.800 
#    0.000    0.000    0.000    0.000    0.000    0.000 
#    0.000   16.000    0.000    0.000    0.000    0.000 
#
# Total GULP energy -495778.527052 kJ/mol
# GULP energy per Si atom -12394.463176 kJ/mol
# Density = 2.039557 g / cm^3
# Si number density = 20.442093 Si / 1000 Ang^3
#
#
#
# Elastic Constant Matrix: (Units=GPa)
#
#
# Indices 1 2 3 4 5 6 
#
# 1 99.8557 31.7740 21.2703 0.0000 0.0000 0.0000
# 2 31.7740 161.7930 11.6165 0.0000 0.0000 0.0000
# 3 21.2703 11.6165 37.6914 0.0000 0.0000 0.0000
# 4 0.0000 0.0000 0.0000 3.1361 0.0000 0.0000
# 5 0.0000 0.0000 0.0000 0.0000 -5.9236 0.0000
# 6 0.0000 0.0000 0.0000 0.0000 0.0000 47.9994
#
#
#
# Elastic Compliance Matrix: (Units=1/GPa)
#
#
# Indices 1 2 3 4 5 6 
#
# 1 0.011929 -0.001901 -0.006146 0.000000 0.000000 0.000000
# 2 -0.001901 0.006624 -0.000968 0.000000 0.000000 0.000000
# 3 -0.006146 -0.000968 0.030298 0.000000 0.000000 0.000000
# 4 0.000000 0.000000 0.000000 0.318864 0.000000 0.000000
# 5 0.000000 0.000000 0.000000 0.000000 -0.168816 0.000000
# 6 0.000000 0.000000 0.000000 0.000000 0.000000 0.020834
#
#
# Mechanical properties :
#
#
# Convention : Reuss Voigt Hill
#
# Bulk Modulus (GPa) = 32.44723 47.62908 40.03816
# Shear Modulus (GPa) = 20.15842 24.68767 22.42305
#
# Velocity S-wave (km/s) = 3.14367 3.47895 3.31555
# Velocity P-wave (km/s) = 5.39296 6.28391 5.85541
#
# Compressibility (1/GPa) = 0.03081927
#
# Stress axis : x y z
#
# Youngs Moduli (GPa) = 83.83254 150.97373 33.00562
#
# Poissons Ratio (x) = 0.28706 0.20284
# Poissons Ratio (y) = 0.15940 0.03196
# Poissons Ratio (z) = 0.51520 0.14621
#
# Static dielectric constant tensor:
#      x y z
#    x 3.452390 0.000000 0.000000 
#    y 0.000000 4.386230 0.000000 
#    z 0.000000 0.000000 3.271000 
# 
# 
# High freq. dielectric constant tensor:
#      x y z
#    x 1.789590 0.000000 0.000000 
#    y 0.000000 1.833020 0.000000 
#    z 0.000000 0.000000 1.757070 
# 
# From -- ./inp_files/19447.got.cif
#   From: 2010.03.12/outbox.cif.g09.slc.cpg/sg57_10_cif.got.tgz:19447.got - 2010.04.16 15:48:40.
