data_PCOD8229919
_publ_section_title
;
Structure prediction by ZEFSAII (Michael W. Deem and Ramdas Pophale) SiO2 
 PCOD8229919
Probable space group: P B C M
;
_chemical_formula_sum "Si O2"
_cell_formula_units_Z 64
_cell_length_a 20.227573
_cell_length_b 23.092408
_cell_length_c 9.145222
_cell_angle_alpha 90.000000
_cell_angle_beta 90.000000
_cell_angle_gamma 90.000000
_cell_volume 4271.764002
_symmetry_space_group_name_H-M "P B C M"
_symmetry_group_IT_number 57
_symmetry_cell_setting 'orthorhombic'
loop_
_space_group_symop_operation_xyz
x,y,z
-x,-y,1/2+z
x,1/2-y,-z
-x,1/2+y,1/2-z
-x,-y,-z
x,y,1/2-z
-x,1/2+y,z
x,1/2-y,1/2+z
loop_
_atom_site_type_symbol
_atom_site_label
_atom_site_fract_x
_atom_site_fract_y
_atom_site_fract_z
Si Si1 0.522804 0.055302 0.416344
Si Si2 0.660053 0.021006 0.422003
Si Si3 0.832077 0.606158 0.080789
Si Si4 0.208200 0.524382 0.579275
Si Si5 0.714565 0.810570 0.579042
Si Si6 0.612997 0.905609 0.579610
Si Si7 0.957971 0.919462 0.085241
Si Si8 0.918630 0.447010 0.915407
O O1 0.520431 0.036083 0.250000
O O2 0.600088 0.067585 0.454468
O O3 0.466730 0.104657 0.445336
O O4 0.500000 0.000000 0.500000
O O5 0.675824 0.015786 0.250000
O O6 0.723783 0.045287 0.505788
O O7 0.639854 0.958115 0.482364
O O8 0.851485 0.611359 0.250000
O O9 0.799774 0.543851 0.049560
O O10 0.779868 0.654450 0.031418
O O11 0.898336 0.616279 0.987734
O O12 0.208876 0.539125 0.750000
O O13 0.149134 0.560328 0.504755
O O14 0.712581 0.750000 0.500000
O O15 0.715200 0.798707 0.750000
O O16 0.649798 0.846999 0.532402
O O17 0.629009 0.919802 0.750000
O O18 0.968485 0.896962 0.250000
O O19 0.940403 0.986699 0.084194
O O20 0.024988 0.908736 0.994045
O O21 0.909036 0.424538 0.750000
#
# Coordination Sequence:
#
# PCOD8229919 Si02
#       8
#     8   8   8   8   8   8   8   8
#     4   8  15  25  39  56  75  98 127 161 196 238
#     4  10  17  24  37  60  81 100 130 166 200 236
#     4   9  17  29  41  53  71 100 134 166 201 239
#     4  10  17  26  39  54  77 108 136 162 194 235
#     4  10  20  32  44  59  77 102 136 174 213 247
#     4   9  16  30  44  54  73 103 133 163 203 247
#     4   9  16  25  38  55  73  97 129 162 196 232
#     4   9  16  25  36  54  77 101 129 162 193 225
#
# _framework density 14.982101
#
# number of rings (size 3 to 8) (size 9 to 14) (size 15 to 20)
#    0.000    2.750    1.250    1.500    0.000    5.000 
#    0.000    0.000    0.000    0.000    0.000    0.000 
#    0.000    0.000    0.000    1.125    0.000   15.250 
#
# Total GULP energy -793064.409606 kJ/mol
# GULP energy per Si atom -12391.631400 kJ/mol
# Density = 1.494800 g / cm^3
# Si number density = 14.982101 Si / 1000 Ang^3
#
#
#
# Elastic Constant Matrix: (Units=GPa)
#
#
# Indices 1 2 3 4 5 6 
#
# 1 160.8769 41.2920 71.4706 0.0000 0.0000 0.0000
# 2 41.2920 37.7584 21.3243 0.0000 0.0000 0.0000
# 3 71.4706 21.3243 88.7393 0.0000 0.0000 0.0000
# 4 0.0000 0.0000 0.0000 14.3853 0.0000 0.0000
# 5 0.0000 0.0000 0.0000 0.0000 26.9961 0.0000
# 6 0.0000 0.0000 0.0000 0.0000 0.0000 12.9245
#
#
#
# Elastic Compliance Matrix: (Units=1/GPa)
#
#
# Indices 1 2 3 4 5 6 
#
# 1 0.011697 -0.008644 -0.007344 0.000000 0.000000 0.000000
# 2 -0.008644 0.037031 -0.001936 0.000000 0.000000 0.000000
# 3 -0.007344 -0.001936 0.017649 0.000000 0.000000 0.000000
# 4 0.000000 0.000000 0.000000 0.069515 0.000000 0.000000
# 5 0.000000 0.000000 0.000000 0.000000 0.037042 0.000000
# 6 0.000000 0.000000 0.000000 0.000000 0.000000 0.077372
#
#
# Mechanical properties :
#
#
# Convention : Reuss Voigt Hill
#
# Bulk Modulus (GPa) = 32.75659 61.72761 47.24210
# Shear Modulus (GPa) = 16.87294 21.08036 18.97665
#
# Velocity S-wave (km/s) = 3.35954 3.75512 3.56282
# Velocity P-wave (km/s) = 6.07947 7.75187 6.96604
#
# Compressibility (1/GPa) = 0.03052820
#
# Stress axis : x y z
#
# Youngs Moduli (GPa) = 85.49111 27.00415 56.66109
#
# Poissons Ratio (x) = 0.23344 0.41609
# Poissons Ratio (y) = 0.73903 0.10972
# Poissons Ratio (z) = 0.62781 0.05229
#
# Static dielectric constant tensor:
#      x y z
#    x 3.388000 0.000000 0.000000 
#    y 0.000000 2.330550 0.000000 
#    z 0.000000 0.000000 3.017530 
# 
# 
# High freq. dielectric constant tensor:
#      x y z
#    x 1.594230 0.000000 0.000000 
#    y 0.000000 1.488580 0.000000 
#    z 0.000000 0.000000 1.587560 
# 
# From -- ./inp_files/8739.got.cif
#   From: 2010.03.12/outbox.cif.g09.slc.cpg/sg57_5_cif.got.tgz:8739.got - 2010.04.16 15:48:40.
