data_PCOD8229254
_publ_section_title
;
Structure prediction by ZEFSAII (Michael W. Deem and Ramdas Pophale) SiO2 
 PCOD8229254
Probable space group: P C C N
;
_chemical_formula_sum "Si O2"
_cell_formula_units_Z 60
_cell_length_a 8.647042
_cell_length_b 11.384637
_cell_length_c 26.974338
_cell_angle_alpha 90.000000
_cell_angle_beta 90.000000
_cell_angle_gamma 90.000000
_cell_volume 2655.446471
_symmetry_space_group_name_H-M "P C C N"
_symmetry_group_IT_number 56
_symmetry_cell_setting 'orthorhombic'
loop_
_space_group_symop_operation_xyz
x,y,z
1/2-x,1/2-y,z
1/2+x,-y,1/2-z
-x,1/2+y,1/2-z
-x,-y,-z
1/2+x,1/2+y,-z
1/2-x,y,1/2+z
x,1/2-y,1/2+z
loop_
_atom_site_type_symbol
_atom_site_label
_atom_site_fract_x
_atom_site_fract_y
_atom_site_fract_z
Si Si1 0.325138 0.128905 0.317009
Si Si2 0.750000 0.250000 0.077289
Si Si3 0.884103 0.048619 0.866438
Si Si4 0.187092 0.374789 0.200232
Si Si5 0.597807 0.058875 0.143886
Si Si6 0.613166 0.437154 0.431169
Si Si7 0.090316 0.966259 0.951327
Si Si8 0.165004 0.128431 0.488112
O O1 0.250000 0.250000 0.336413
O O2 0.504442 0.135390 0.335163
O O3 0.301103 0.115957 0.258835
O O4 0.248054 0.011048 0.338178
O O5 0.643854 0.169441 0.111197
O O6 0.852935 0.167688 0.041619
O O7 0.767509 0.117374 0.904942
O O8 0.791500 0.971833 0.826825
O O9 0.991783 0.968542 0.901375
O O10 0.250000 0.250000 0.181341
O O11 0.005584 0.390540 0.188690
O O12 0.493087 0.969123 0.114369
O O13 0.511238 0.352246 0.467332
O O14 0.661880 0.554518 0.461150
O O15 0.237850 0.054496 0.946867
O O16 0.000000 0.000000 0.000000
O O17 0.250000 0.250000 0.499471
#
# Coordination Sequence:
#
# PCOD8229254 Si02
#       8
#     8   4   8   8   8   8   8   8
#     4  11  24  46  71 102 146 186 233 302 375 427
#     4  12  24  44  70  94 140 186 242 292 342 432
#     4  11  22  44  70 101 143 181 245 289 351 434
#     4  10  23  42  72 106 141 184 236 302 361 439
#     4  11  23  42  70  99 134 183 238 288 361 425
#     4  10  23  42  63 101 131 178 241 284 348 418
#     4  12  25  42  65 103 135 188 236 290 352 417
#     4  11  24  43  66  93 141 185 230 293 353 416
#
# _framework density 22.595068999999999
#
# number of rings (size 3 to 8) (size 9 to 14) (size 15 to 20)
#    0.000    1.067    4.000    1.600    1.867    4.267 
#    0.000    5.333    0.000    0.000    0.000    0.000 
#    0.000    0.000    0.000    0.000    0.000    0.000 
#
# Total GULP energy -743653.711996 kJ/mol
# GULP energy per Si atom -12394.228533 kJ/mol
# Density = 2.254364 g / cm^3
# Si number density = 22.595069 Si / 1000 Ang^3
#
#
#
# Elastic Constant Matrix: (Units=GPa)
#
#
# Indices 1 2 3 4 5 6 
#
# 1 143.8120 49.0319 50.5580 0.0000 0.0000 0.0000
# 2 49.0319 101.5184 31.1465 0.0000 0.0000 0.0000
# 3 50.5580 31.1465 89.0182 0.0000 0.0000 0.0000
# 4 0.0000 0.0000 0.0000 25.4510 0.0000 0.0000
# 5 0.0000 0.0000 0.0000 0.0000 44.2320 0.0000
# 6 0.0000 0.0000 0.0000 0.0000 0.0000 34.8963
#
#
#
# Elastic Compliance Matrix: (Units=1/GPa)
#
#
# Indices 1 2 3 4 5 6 
#
# 1 0.009592 -0.003317 -0.004287 0.000000 0.000000 0.000000
# 2 -0.003317 0.012182 -0.002378 0.000000 0.000000 0.000000
# 3 -0.004287 -0.002378 0.014501 0.000000 0.000000 0.000000
# 4 0.000000 0.000000 0.000000 0.039291 0.000000 0.000000
# 5 0.000000 0.000000 0.000000 0.000000 0.022608 0.000000
# 6 0.000000 0.000000 0.000000 0.000000 0.000000 0.028656
#
#
# Mechanical properties :
#
#
# Convention : Reuss Voigt Hill
#
# Bulk Modulus (GPa) = 61.31459 66.20237 63.75848
# Shear Modulus (GPa) = 32.84466 34.49002 33.66734
#
# Velocity S-wave (km/s) = 3.81677 3.91121 3.86428
# Velocity P-wave (km/s) = 6.82780 7.05406 6.94185
#
# Compressibility (1/GPa) = 0.01630933
#
# Stress axis : x y z
#
# Youngs Moduli (GPa) = 104.25740 82.08585 68.96290
#
# Poissons Ratio (x) = 0.27231 0.29564
# Poissons Ratio (y) = 0.34586 0.16402
# Poissons Ratio (z) = 0.44694 0.19523
#
# Static dielectric constant tensor:
#      x y z
#    x 4.869890 0.000000 0.000000 
#    y 0.000000 3.905690 0.000000 
#    z 0.000000 0.000000 4.107460 
# 
# 
# High freq. dielectric constant tensor:
#      x y z
#    x 1.915650 0.000000 0.000000 
#    y 0.000000 1.866150 0.000000 
#    z 0.000000 0.000000 1.899840 
# 
# From -- ./inp_files/22139.got.cif
#   From: 2010.03.12/outbox.cif.g09.slc.cpg/sg56_12_cif.got.tgz:22139.got - 2010.04.16 15:33:40.
