data_PCOD8229011
_publ_section_title
;
Structure prediction by ZEFSAII (Michael W. Deem and Ramdas Pophale) SiO2 
 PCOD8229011
Probable space group: P C C N
;
_chemical_formula_sum "Si O2"
_cell_formula_units_Z 56
_cell_length_a 22.554747
_cell_length_b 8.308959
_cell_length_c 13.910247
_cell_angle_alpha 90.000000
_cell_angle_beta 90.000000
_cell_angle_gamma 90.000000
_cell_volume 2606.870260
_symmetry_space_group_name_H-M "P C C N"
_symmetry_group_IT_number 56
_symmetry_cell_setting 'orthorhombic'
loop_
_space_group_symop_operation_xyz
x,y,z
1/2-x,1/2-y,z
1/2+x,-y,1/2-z
-x,1/2+y,1/2-z
-x,-y,-z
1/2+x,1/2+y,-z
1/2-x,y,1/2+z
x,1/2-y,1/2+z
loop_
_atom_site_type_symbol
_atom_site_label
_atom_site_fract_x
_atom_site_fract_y
_atom_site_fract_z
Si Si1 0.188505 0.327860 0.927916
Si Si2 0.380351 0.368125 0.778445
Si Si3 0.522459 0.865394 0.572238
Si Si4 0.811450 0.306806 0.021744
Si Si5 0.895833 0.333752 0.373926
Si Si6 0.107782 0.207458 0.080238
Si Si7 0.683765 0.189697 0.724090
O O1 0.250000 0.250000 0.900855
O O2 0.146403 0.278922 0.839397
O O3 0.193681 0.518502 0.931767
O O4 0.169358 0.263769 0.033068
O O5 0.435171 0.436132 0.842941
O O6 0.406206 0.296931 0.679349
O O7 0.331832 0.504138 0.749852
O O8 0.465402 0.784563 0.624068
O O9 0.558009 0.745439 0.500367
O O10 0.500000 0.000000 0.500000
O O11 0.750000 0.250000 0.971542
O O12 0.823950 0.187989 0.109907
O O13 0.863453 0.291472 0.945139
O O14 0.887038 0.516716 0.405300
O O15 0.866181 0.305866 0.270253
O O16 0.750000 0.250000 0.754806
#
# Coordination Sequence:
#
# PCOD8229011 Si02
#       7
#     8   8   8   8   8   8   8
#     4  11  22  39  62  89 121 162 203 253 314 375
#     4  11  23  41  63  91 126 163 208 259 312 373
#     4   9  21  41  63  88 123 165 207 255 310 369
#     4  11  22  39  60  88 122 158 200 252 309 371
#     4  11  22  39  63  90 122 161 205 254 307 370
#     4  10  22  40  59  88 122 159 203 252 306 369
#     4  11  23  39  60  90 123 160 205 257 313 375
#
# _framework density 21.481698000000002
#
# number of rings (size 3 to 8) (size 9 to 14) (size 15 to 20)
#    0.000    1.429    0.000    7.286    0.000    5.143 
#    0.000    6.429    0.000    0.000    0.000    0.000 
#    0.000    0.000    0.000    0.000    0.000    0.000 
#
# Total GULP energy -694090.010188 kJ/mol
# GULP energy per Si atom -12394.464468 kJ/mol
# Density = 2.143280 g / cm^3
# Si number density = 21.481698 Si / 1000 Ang^3
#
#
#
# Elastic Constant Matrix: (Units=GPa)
#
#
# Indices 1 2 3 4 5 6 
#
# 1 135.3102 29.1917 46.5425 0.0000 0.0000 0.0000
# 2 29.1917 89.0838 10.4727 0.0000 0.0000 0.0000
# 3 46.5425 10.4727 110.8523 0.0000 0.0000 0.0000
# 4 0.0000 0.0000 0.0000 26.0893 0.0000 0.0000
# 5 0.0000 0.0000 0.0000 0.0000 22.7533 0.0000
# 6 0.0000 0.0000 0.0000 0.0000 0.0000 27.2794
#
#
#
# Elastic Compliance Matrix: (Units=1/GPa)
#
#
# Indices 1 2 3 4 5 6 
#
# 1 0.009192 -0.002587 -0.003615 0.000000 0.000000 0.000000
# 2 -0.002587 0.012080 -0.000055 0.000000 0.000000 0.000000
# 3 -0.003615 -0.000055 0.010544 0.000000 0.000000 0.000000
# 4 0.000000 0.000000 0.000000 0.038330 0.000000 0.000000
# 5 0.000000 0.000000 0.000000 0.000000 0.043950 0.000000
# 6 0.000000 0.000000 0.000000 0.000000 0.000000 0.036658
#
#
# Mechanical properties :
#
#
# Convention : Reuss Voigt Hill
#
# Bulk Modulus (GPa) = 51.80948 56.40668 54.10808
# Shear Modulus (GPa) = 29.46361 31.82702 30.64532
#
# Velocity S-wave (km/s) = 3.70749 3.85332 3.78110
# Velocity P-wave (km/s) = 6.51902 6.79061 6.65620
#
# Compressibility (1/GPa) = 0.01930149
#
# Stress axis : x y z
#
# Youngs Moduli (GPa) = 108.79038 82.78409 94.84092
#
# Poissons Ratio (x) = 0.21417 0.34284
# Poissons Ratio (y) = 0.28145 0.00522
# Poissons Ratio (z) = 0.39327 0.00455
#
# Static dielectric constant tensor:
#      x y z
#    x 4.477060 0.000000 0.000000 
#    y 0.000000 3.780110 0.000000 
#    z 0.000000 0.000000 3.971830 
# 
# 
# High freq. dielectric constant tensor:
#      x y z
#    x 1.846950 0.000000 0.000000 
#    y 0.000000 1.826330 0.000000 
#    z 0.000000 0.000000 1.853850 
# 
# From -- ./inp_files/13076.got.cif
#   From: 2010.03.12/outbox.cif.g09.slc.cpg/sg56_7_cif.got.tgz:13076.got - 2010.04.16 15:33:40.
