data_PCOD8229817
_publ_section_title
;
Structure prediction by ZEFSAII (Michael W. Deem and Ramdas Pophale) SiO2 
 PCOD8229817
Probable space group: P C C N
;
_chemical_formula_sum "Si O2"
_cell_formula_units_Z 48
_cell_length_a 4.874309
_cell_length_b 16.242818
_cell_length_c 27.892615
_cell_angle_alpha 90.000000
_cell_angle_beta 90.000000
_cell_angle_gamma 90.000000
_cell_volume 2208.328451
_symmetry_space_group_name_H-M "P C C N"
_symmetry_group_IT_number 56
_symmetry_cell_setting 'orthorhombic'
loop_
_space_group_symop_operation_xyz
x,y,z
1/2-x,1/2-y,z
1/2+x,-y,1/2-z
-x,1/2+y,1/2-z
-x,-y,-z
1/2+x,1/2+y,-z
1/2-x,y,1/2+z
x,1/2-y,1/2+z
loop_
_atom_site_type_symbol
_atom_site_label
_atom_site_fract_x
_atom_site_fract_y
_atom_site_fract_z
Si Si1 0.011484 0.455928 0.228923
Si Si2 0.040085 0.102653 0.886790
Si Si3 0.999788 0.693799 0.709142
Si Si4 0.001800 0.910828 0.476015
Si Si5 0.947127 0.508211 0.880903
Si Si6 0.029187 0.677489 0.514485
O O1 0.203879 0.523076 0.254521
O O2 0.083856 0.364463 0.246698
O O3 0.038045 0.454647 0.172017
O O4 0.853710 0.022941 0.895150
O O5 0.005985 0.170900 0.928176
O O6 0.929916 0.140075 0.837265
O O7 0.351144 0.070328 0.885482
O O8 0.750000 0.750000 0.693901
O O9 0.250000 0.750000 0.725475
O O10 0.315552 0.896896 0.490354
O O11 0.786850 0.836338 0.493693
O O12 0.997419 0.917901 0.418364
O O13 0.000000 0.000000 0.500000
O O14 0.250000 0.750000 0.501761
#
# Coordination Sequence:
#
# PCOD8229817 Si02
#       6
#     8   8   8   8   8   8
#     4  12  23  44  68  93 131 173 223 270 324 403
#     4  12  22  40  67  97 134 163 215 280 335 394
#     4  12  25  41  64  98 134 168 208 272 343 394
#     4  12  23  42  68  93 135 174 227 268 320 400
#     4  12  23  40  69 100 121 171 232 274 314 387
#     4  12  25  42  64 100 137 177 211 273 342 395
#
# _framework density 21.735897000000001
#
# number of rings (size 3 to 8) (size 9 to 14) (size 15 to 20)
#    0.000    0.000    6.667    4.500    0.000    1.333 
#    0.000    2.500    0.000    0.000    0.000    0.000 
#    0.000    0.000    0.000    0.000    0.000    0.000 
#
# Total GULP energy -594678.754044 kJ/mol
# GULP energy per Si atom -12389.140709 kJ/mol
# Density = 2.168643 g / cm^3
# Si number density = 21.735897 Si / 1000 Ang^3
#
#
#
# Elastic Constant Matrix: (Units=GPa)
#
#
# Indices 1 2 3 4 5 6 
#
# 1 102.3134 9.6268 17.8380 0.0000 0.0000 0.0000
# 2 9.6268 39.7272 16.9106 0.0000 0.0000 0.0000
# 3 17.8380 16.9106 141.7646 0.0000 0.0000 0.0000
# 4 0.0000 0.0000 0.0000 24.1265 0.0000 0.0000
# 5 0.0000 0.0000 0.0000 0.0000 30.8951 0.0000
# 6 0.0000 0.0000 0.0000 0.0000 0.0000 41.9117
#
#
#
# Elastic Compliance Matrix: (Units=1/GPa)
#
#
# Indices 1 2 3 4 5 6 
#
# 1 0.010144 -0.002017 -0.001036 0.000000 0.000000 0.000000
# 2 -0.002017 0.026919 -0.002957 0.000000 0.000000 0.000000
# 3 -0.001036 -0.002957 0.007537 0.000000 0.000000 0.000000
# 4 0.000000 0.000000 0.000000 0.041448 0.000000 0.000000
# 5 0.000000 0.000000 0.000000 0.000000 0.032368 0.000000
# 6 0.000000 0.000000 0.000000 0.000000 0.000000 0.023860
#
#
# Mechanical properties :
#
#
# Convention : Reuss Voigt Hill
#
# Bulk Modulus (GPa) = 30.69374 41.39510 36.04442
# Shear Modulus (GPa) = 30.27424 35.34865 32.81144
#
# Velocity S-wave (km/s) = 3.73610 4.03709 3.88951
# Velocity P-wave (km/s) = 5.72391 6.38880 6.06547
#
# Compressibility (1/GPa) = 0.03257994
#
# Stress axis : x y z
#
# Youngs Moduli (GPa) = 98.57759 37.14801 132.67809
#
# Poissons Ratio (x) = 0.07494 0.13743
# Poissons Ratio (y) = 0.19886 0.39237
# Poissons Ratio (z) = 0.10211 0.10986
#
# Static dielectric constant tensor:
#      x y z
#    x 4.190290 0.000000 0.000000 
#    y 0.000000 3.670810 0.000000 
#    z 0.000000 0.000000 3.877030 
# 
# 
# High freq. dielectric constant tensor:
#      x y z
#    x 1.879230 0.000000 0.000000 
#    y 0.000000 1.842860 0.000000 
#    z 0.000000 0.000000 1.852230 
# 
# From -- ./inp_files/21684.got.cif
#   From: 2010.03.12/outbox.cif.g09.slc.cpg/sg56_11_cif.got.tgz:21684.got - 2010.04.16 15:33:40.
