data_PCOD8229466
_publ_section_title
;
Structure prediction by ZEFSAII (Michael W. Deem and Ramdas Pophale) SiO2 
 PCOD8229466
Probable space group: P C C N
;
_chemical_formula_sum "Si O2"
_cell_formula_units_Z 40
_cell_length_a 9.039334
_cell_length_b 19.354448
_cell_length_c 9.736152
_cell_angle_alpha 90.000000
_cell_angle_beta 90.000000
_cell_angle_gamma 90.000000
_cell_volume 1703.352643
_symmetry_space_group_name_H-M "P C C N"
_symmetry_group_IT_number 56
_symmetry_cell_setting 'orthorhombic'
loop_
_space_group_symop_operation_xyz
x,y,z
1/2-x,1/2-y,z
1/2+x,-y,1/2-z
-x,1/2+y,1/2-z
-x,-y,-z
1/2+x,1/2+y,-z
1/2-x,y,1/2+z
x,1/2-y,1/2+z
loop_
_atom_site_type_symbol
_atom_site_label
_atom_site_fract_x
_atom_site_fract_y
_atom_site_fract_z
Si Si1 0.924692 0.286654 0.868492
Si Si2 0.966915 0.640723 0.589001
Si Si3 0.776581 0.334986 0.605181
Si Si4 0.636605 0.592022 0.569431
Si Si5 0.435456 0.550392 0.329208
O O1 0.796118 0.302845 0.756928
O O2 0.836732 0.285777 0.015415
O O3 0.011726 0.215038 0.834226
O O4 0.044456 0.346106 0.867125
O O5 0.800326 0.621891 0.550131
O O6 0.060533 0.650176 0.451556
O O7 0.031442 0.577790 0.677550
O O8 0.702898 0.409719 0.607535
O O9 0.581182 0.564076 0.421856
O O10 0.615725 0.529243 0.677215
#
# Coordination Sequence:
#
# PCOD8229466 Si02
#       5
#     8   8   8   8   8
#     4  11  26  46  72 108 143 189 242 300 357 438
#     4  12  26  42  78 100 144 189 246 298 366 425
#     4  11  25  44  73 104 142 190 244 294 363 430
#     4  10  26  48  69 106 148 189 239 301 363 434
#     4  10  25  47  71 104 149 189 243 297 362 445
#
# _framework density 23.483098999999999
#
# number of rings (size 3 to 8) (size 9 to 14) (size 15 to 20)
#    0.000    1.200    2.000    1.200   14.000    2.400 
#    0.000    0.000    0.000    0.000    0.000    0.000 
#    0.000    0.000    0.000    0.000    0.000    0.000 
#
# Total GULP energy -495890.969467 kJ/mol
# GULP energy per Si atom -12397.274237 kJ/mol
# Density = 2.342965 g / cm^3
# Si number density = 23.483099 Si / 1000 Ang^3
#
#
#
# Elastic Constant Matrix: (Units=GPa)
#
#
# Indices 1 2 3 4 5 6 
#
# 1 174.8614 82.1879 18.2367 0.0000 0.0000 0.0000
# 2 82.1879 126.3622 -9.0643 0.0000 0.0000 0.0000
# 3 18.2367 -9.0643 60.4517 0.0000 0.0000 0.0000
# 4 0.0000 0.0000 0.0000 1.5618 0.0000 0.0000
# 5 0.0000 0.0000 0.0000 0.0000 26.1382 0.0000
# 6 0.0000 0.0000 0.0000 0.0000 0.0000 42.6471
#
#
#
# Elastic Compliance Matrix: (Units=1/GPa)
#
#
# Indices 1 2 3 4 5 6 
#
# 1 0.008955 -0.006084 -0.003614 0.000000 0.000000 0.000000
# 2 -0.006084 0.012133 0.003655 0.000000 0.000000 0.000000
# 3 -0.003614 0.003655 0.018180 0.000000 0.000000 0.000000
# 4 0.000000 0.000000 0.000000 0.640280 0.000000 0.000000
# 5 0.000000 0.000000 0.000000 0.000000 0.038258 0.000000
# 6 0.000000 0.000000 0.000000 0.000000 0.000000 0.023448
#
#
# Mechanical properties :
#
#
# Convention : Reuss Voigt Hill
#
# Bulk Modulus (GPa) = 36.78858 60.48843 48.63851
# Shear Modulus (GPa) = 6.55822 32.09043 19.32433
#
# Velocity S-wave (km/s) = 1.67296 3.70068 2.87174
# Velocity P-wave (km/s) = 4.40814 6.63884 5.63498
#
# Compressibility (1/GPa) = 0.02718235
#
# Stress axis : x y z
#
# Youngs Moduli (GPa) = 111.66688 82.42041 55.00465
#
# Poissons Ratio (x) = 0.50143 0.19877
# Poissons Ratio (y) = 0.67936 -0.20102
# Poissons Ratio (z) = 0.40354 -0.30121
#
# Static dielectric constant tensor:
#      x y z
#    x 4.308980 0.000000 0.000000 
#    y 0.000000 4.670270 0.000000 
#    z 0.000000 0.000000 4.030680 
# 
# 
# High freq. dielectric constant tensor:
#      x y z
#    x 1.935150 0.000000 0.000000 
#    y 0.000000 1.957710 0.000000 
#    z 0.000000 0.000000 1.913000 
# 
# From -- ./inp_files/6189.got.cif
#   From: 2010.03.12/outbox.cif.g09.slc.cpg/sg56_4_cif.got.tgz:6189.got - 2010.04.16 15:33:40.
