data_PCOD8229807
_publ_section_title
;
Structure prediction by ZEFSAII (Michael W. Deem and Ramdas Pophale) SiO2 
 PCOD8229807
Probable space group: P C C N
;
_chemical_formula_sum "Si O2"
_cell_formula_units_Z 28
_cell_length_a 15.751516
_cell_length_b 8.324772
_cell_length_c 7.552214
_cell_angle_alpha 90.000000
_cell_angle_beta 90.000000
_cell_angle_gamma 90.000000
_cell_volume 990.305051
_symmetry_space_group_name_H-M "P C C N"
_symmetry_group_IT_number 56
_symmetry_cell_setting 'orthorhombic'
loop_
_space_group_symop_operation_xyz
x,y,z
1/2-x,1/2-y,z
1/2+x,-y,1/2-z
-x,1/2+y,1/2-z
-x,-y,-z
1/2+x,1/2+y,-z
1/2-x,y,1/2+z
x,1/2-y,1/2+z
loop_
_atom_site_type_symbol
_atom_site_label
_atom_site_fract_x
_atom_site_fract_y
_atom_site_fract_z
Si Si1 0.750000 0.250000 0.424046
Si Si2 0.897527 0.638243 0.611292
Si Si3 0.918117 0.116936 0.806262
Si Si4 0.650888 0.532669 0.489686
O O1 0.661378 0.241000 0.314651
O O2 0.736335 0.421749 0.527046
O O3 0.900651 0.528888 0.438872
O O4 0.835962 0.788556 0.568857
O O5 0.993344 0.704185 0.650077
O O6 0.867204 0.539605 0.781411
O O7 0.923440 0.053202 0.604122
#
# Coordination Sequence:
#
# PCOD8229807 Si02
#       4
#     4   8   8   8
#     4  12  32  48  82 116 168 202 270 342 420 464
#     4  11  27  50  84 111 159 215 277 316 409 483
#     4  11  28  50  76 123 156 213 265 335 397 491
#     4  12  27  52  79 119 159 217 263 340 396 492
#
# _framework density 28.274115999999999
#
# number of rings (size 3 to 8) (size 9 to 14) (size 15 to 20)
#    0.000    0.571    2.857    1.714   16.000    1.143 
#    0.000    0.000    0.000    0.000    0.000    0.000 
#    0.000    0.000    0.000    0.000    0.000    0.000 
#
# Total GULP energy -346894.148594 kJ/mol
# GULP energy per Si atom -12389.076735 kJ/mol
# Density = 2.820976 g / cm^3
# Si number density = 28.274116 Si / 1000 Ang^3
#
#
#
# Elastic Constant Matrix: (Units=GPa)
#
#
# Indices 1 2 3 4 5 6 
#
# 1 139.2970 64.7423 28.3450 0.0000 0.0000 0.0000
# 2 64.7423 178.7511 48.3419 0.0000 0.0000 0.0000
# 3 28.3450 48.3419 161.9840 0.0000 0.0000 0.0000
# 4 0.0000 0.0000 0.0000 27.3396 0.0000 0.0000
# 5 0.0000 0.0000 0.0000 0.0000 28.8352 0.0000
# 6 0.0000 0.0000 0.0000 0.0000 0.0000 54.3619
#
#
#
# Elastic Compliance Matrix: (Units=1/GPa)
#
#
# Indices 1 2 3 4 5 6 
#
# 1 0.008691 -0.002977 -0.000632 0.000000 0.000000 0.000000
# 2 -0.002977 0.007105 -0.001600 0.000000 0.000000 0.000000
# 3 -0.000632 -0.001600 0.006761 0.000000 0.000000 0.000000
# 4 0.000000 0.000000 0.000000 0.036577 0.000000 0.000000
# 5 0.000000 0.000000 0.000000 0.000000 0.034680 0.000000
# 6 0.000000 0.000000 0.000000 0.000000 0.000000 0.018395
#
#
# Mechanical properties :
#
#
# Convention : Reuss Voigt Hill
#
# Bulk Modulus (GPa) = 82.37110 84.76560 83.56835
# Shear Modulus (GPa) = 39.47136 44.68088 42.07612
#
# Velocity S-wave (km/s) = 3.74039 3.97958 3.86184
# Velocity P-wave (km/s) = 6.91740 7.15270 7.03603
#
# Compressibility (1/GPa) = 0.01214018
#
# Stress axis : x y z
#
# Youngs Moduli (GPa) = 115.05927 140.74320 147.89680
#
# Poissons Ratio (x) = 0.41897 0.09354
# Poissons Ratio (y) = 0.34251 0.23656
# Poissons Ratio (z) = 0.07277 0.22512
#
# Static dielectric constant tensor:
#      x y z
#    x 5.249380 0.000000 0.000000 
#    y 0.000000 5.236800 0.000000 
#    z 0.000000 0.000000 5.071020 
# 
# 
# High freq. dielectric constant tensor:
#      x y z
#    x 2.131760 0.000000 0.000000 
#    y 0.000000 2.157530 0.000000 
#    z 0.000000 0.000000 2.149450 
# 
# From -- ./inp_files/3837.got.cif
#   From: 2010.03.12/outbox.cif.g09.slc.cpg/sg56_2_cif.got.tgz:3837.got - 2010.04.16 15:33:40.
