data_PCOD8229027
_publ_section_title
;
Structure prediction by ZEFSAII (Michael W. Deem and Ramdas Pophale) SiO2 
 PCOD8229027
Probable space group: P C C N
;
_chemical_formula_sum "Si O2"
_cell_formula_units_Z 56
_cell_length_a 10.491803
_cell_length_b 14.559320
_cell_length_c 18.019473
_cell_angle_alpha 90.000000
_cell_angle_beta 90.000000
_cell_angle_gamma 90.000000
_cell_volume 2752.537880
_symmetry_space_group_name_H-M "P C C N"
_symmetry_group_IT_number 56
_symmetry_cell_setting 'orthorhombic'
loop_
_space_group_symop_operation_xyz
x,y,z
1/2-x,1/2-y,z
1/2+x,-y,1/2-z
-x,1/2+y,1/2-z
-x,-y,-z
1/2+x,1/2+y,-z
1/2-x,y,1/2+z
x,1/2-y,1/2+z
loop_
_atom_site_type_symbol
_atom_site_label
_atom_site_fract_x
_atom_site_fract_y
_atom_site_fract_z
Si Si1 0.460431 0.898606 0.878977
Si Si2 0.177990 0.342389 0.776689
Si Si3 0.706619 0.465468 0.194561
Si Si4 0.074958 0.910280 0.658343
Si Si5 0.438140 0.925384 0.449129
Si Si6 0.304729 0.651821 0.513725
Si Si7 0.613467 0.779106 0.381319
O O1 0.539707 0.810793 0.850684
O O2 0.333689 0.911018 0.829628
O O3 0.547694 0.988503 0.874004
O O4 0.426206 0.877525 0.964425
O O5 0.250000 0.250000 0.801407
O O6 0.271086 0.427974 0.789267
O O7 0.140491 0.341851 0.690272
O O8 0.054439 0.354329 0.827997
O O9 0.656967 0.414629 0.267300
O O10 0.596180 0.460481 0.132991
O O11 0.156937 0.853198 0.599425
O O12 0.310364 0.914553 0.495756
O O13 0.529466 0.835719 0.441136
O O14 0.500000 0.000000 0.500000
O O15 0.250000 0.750000 0.491109
O O16 0.750000 0.750000 0.417671
#
# Coordination Sequence:
#
# PCOD8229027 Si02
#       7
#     8   8   8   8   8   8   8
#     4  10  23  43  64  89 135 171 214 273 327 397
#     4  10  22  40  63  97 132 167 216 271 331 391
#     4  10  23  43  66  95 132 170 215 278 328 390
#     4  11  22  39  67  96 128 176 223 265 339 390
#     4  11  25  43  67  97 133 173 221 272 329 392
#     4  11  24  42  62  94 131 172 221 272 324 391
#     4  11  22  42  70  94 126 175 221 263 332 407
#
# _framework density 20.344860000000001
#
# number of rings (size 3 to 8) (size 9 to 14) (size 15 to 20)
#    0.000    1.429    2.857    2.143    4.000    2.286 
#    0.000    0.000    0.000    0.000    0.000    0.000 
#    0.000    0.000    0.000    0.000    0.000    0.000 
#
# Total GULP energy -694457.873621 kJ/mol
# GULP energy per Si atom -12401.033458 kJ/mol
# Density = 2.029855 g / cm^3
# Si number density = 20.344860 Si / 1000 Ang^3
#
#
#
# Elastic Constant Matrix: (Units=GPa)
#
#
# Indices 1 2 3 4 5 6 
#
# 1 91.7785 38.1640 35.8304 0.0000 0.0000 0.0000
# 2 38.1640 90.1113 13.1996 0.0000 0.0000 0.0000
# 3 35.8304 13.1996 95.0479 0.0000 0.0000 0.0000
# 4 0.0000 0.0000 0.0000 33.1311 0.0000 0.0000
# 5 0.0000 0.0000 0.0000 0.0000 17.1268 0.0000
# 6 0.0000 0.0000 0.0000 0.0000 0.0000 32.3885
#
#
#
# Elastic Compliance Matrix: (Units=1/GPa)
#
#
# Indices 1 2 3 4 5 6 
#
# 1 0.015199 -0.005714 -0.004936 0.000000 0.000000 0.000000
# 2 -0.005714 0.013476 0.000283 0.000000 0.000000 0.000000
# 3 -0.004936 0.000283 0.012343 0.000000 0.000000 0.000000
# 4 0.000000 0.000000 0.000000 0.030183 0.000000 0.000000
# 5 0.000000 0.000000 0.000000 0.000000 0.058388 0.000000
# 6 0.000000 0.000000 0.000000 0.000000 0.000000 0.030875
#
#
# Mechanical properties :
#
#
# Convention : Reuss Voigt Hill
#
# Bulk Modulus (GPa) = 49.30371 50.14730 49.72550
# Shear Modulus (GPa) = 26.60149 29.17887 27.89018
#
# Velocity S-wave (km/s) = 3.61990 3.79121 3.70654
# Velocity P-wave (km/s) = 6.46206 6.62318 6.54311
#
# Compressibility (1/GPa) = 0.02028245
#
# Stress axis : x y z
#
# Youngs Moduli (GPa) = 65.79436 74.20603 81.02081
#
# Poissons Ratio (x) = 0.42401 0.39992
# Poissons Ratio (y) = 0.37595 -0.02289
# Poissons Ratio (z) = 0.32476 -0.02097
#
# Static dielectric constant tensor:
#      x y z
#    x 2.987620 0.000000 0.000000 
#    y 0.000000 3.723000 0.000000 
#    z 0.000000 0.000000 3.561680 
# 
# 
# High freq. dielectric constant tensor:
#      x y z
#    x 1.810910 0.000000 0.000000 
#    y 0.000000 1.797790 0.000000 
#    z 0.000000 0.000000 1.785490 
# 
# From -- ./inp_files/11659.got.cif
#   From: 2010.03.12/outbox.cif.g09.slc.cpg/sg56_6_cif.got.tgz:11659.got - 2010.04.16 15:33:40.
