data_PCOD8229974
_publ_section_title
;
Structure prediction by ZEFSAII (Michael W. Deem and Ramdas Pophale) SiO2 
 PCOD8229974
Probable space group: P B C M
;
_chemical_formula_sum "Si O2"
_cell_formula_units_Z 48
_cell_length_a 15.143724
_cell_length_b 21.537011
_cell_length_c 9.019002
_cell_angle_alpha 90.000000
_cell_angle_beta 90.000000
_cell_angle_gamma 90.000000
_cell_volume 2941.552466
_symmetry_space_group_name_H-M "P B C M"
_symmetry_group_IT_number 57
_symmetry_cell_setting 'orthorhombic'
loop_
_space_group_symop_operation_xyz
x,y,z
-x,-y,1/2+z
x,1/2-y,-z
-x,1/2+y,1/2-z
-x,-y,-z
x,y,1/2-z
-x,1/2+y,z
x,1/2-y,1/2+z
loop_
_atom_site_type_symbol
_atom_site_label
_atom_site_fract_x
_atom_site_fract_y
_atom_site_fract_z
Si Si1 0.937384 0.420960 0.919601
Si Si2 0.805667 0.184948 0.078082
Si Si3 0.871849 0.959795 0.578365
Si Si4 0.659818 0.406432 0.922350
Si Si5 0.471905 0.436751 0.576281
Si Si6 0.302657 0.454399 0.074479
O O1 0.919683 0.442334 0.750000
O O2 0.895285 0.353813 0.949729
O O3 0.042129 0.417094 0.950957
O O4 0.891156 0.470365 0.026017
O O5 0.789754 0.198106 0.250000
O O6 0.722214 0.146907 0.008238
O O7 0.816330 0.250000 0.000000
O O8 0.845730 0.961405 0.750000
O O9 0.791138 0.930011 0.485938
O O10 0.682508 0.409480 0.750000
O O11 0.555846 0.390542 0.949469
O O12 0.685078 0.474729 0.983597
O O13 0.500000 0.500000 0.500000
O O14 0.455453 0.447327 0.750000
O O15 0.381919 0.413020 0.497899
O O16 0.307658 0.447116 0.250000
#
# Coordination Sequence:
#
# PCOD8229974 Si02
#       6
#     8   8   8   8   8   8
#     4   9  18  32  46  62  92 125 150 187 239 281
#     4  10  19  33  48  65  90 124 158 189 227 272
#     4  10  18  27  45  70  91 118 155 190 227 283
#     4   8  15  28  44  59  87 123 149 177 225 269
#     4   9  16  26  41  64  89 119 151 181 218 269
#     4  10  17  28  44  64  92 126 148 179 231 277
#
# _framework density 16.317913999999998
#
# number of rings (size 3 to 8) (size 9 to 14) (size 15 to 20)
#    0.000    2.667    1.667    2.500    0.000    1.333 
#    0.000    1.667    0.000    0.000    0.000    1.167 
#    0.000    0.000    0.000    0.000    0.000    0.000 
#
# Total GULP energy -594848.767568 kJ/mol
# GULP energy per Si atom -12392.682658 kJ/mol
# Density = 1.628077 g / cm^3
# Si number density = 16.317914 Si / 1000 Ang^3
#
#
#
# Elastic Constant Matrix: (Units=GPa)
#
#
# Indices 1 2 3 4 5 6 
#
# 1 152.8405 38.2775 56.2703 0.0000 0.0000 0.0000
# 2 38.2775 58.1181 22.7604 0.0000 0.0000 0.0000
# 3 56.2703 22.7604 76.9052 0.0000 0.0000 0.0000
# 4 0.0000 0.0000 0.0000 17.7408 0.0000 0.0000
# 5 0.0000 0.0000 0.0000 0.0000 29.3492 0.0000
# 6 0.0000 0.0000 0.0000 0.0000 0.0000 16.5603
#
#
#
# Elastic Compliance Matrix: (Units=1/GPa)
#
#
# Indices 1 2 3 4 5 6 
#
# 1 0.009750 -0.004103 -0.005919 0.000000 0.000000 0.000000
# 2 -0.004103 0.021189 -0.003269 0.000000 0.000000 0.000000
# 3 -0.005919 -0.003269 0.018301 0.000000 0.000000 0.000000
# 4 0.000000 0.000000 0.000000 0.056367 0.000000 0.000000
# 5 0.000000 0.000000 0.000000 0.000000 0.034072 0.000000
# 6 0.000000 0.000000 0.000000 0.000000 0.000000 0.060385
#
#
# Mechanical properties :
#
#
# Convention : Reuss Voigt Hill
#
# Bulk Modulus (GPa) = 44.13527 58.05337 51.09432
# Shear Modulus (GPa) = 21.34927 24.10042 22.72485
#
# Velocity S-wave (km/s) = 3.62101 3.84725 3.73585
# Velocity P-wave (km/s) = 6.67744 7.44237 7.07025
#
# Compressibility (1/GPa) = 0.02265762
#
# Stress axis : x y z
#
# Youngs Moduli (GPa) = 102.56796 47.19462 54.64035
#
# Poissons Ratio (x) = 0.19365 0.32343
# Poissons Ratio (y) = 0.42085 0.17861
# Poissons Ratio (z) = 0.60713 0.15427
#
# Static dielectric constant tensor:
#      x y z
#    x 4.096590 0.000000 0.000000 
#    y 0.000000 2.630300 0.000000 
#    z 0.000000 0.000000 3.069060 
# 
# 
# High freq. dielectric constant tensor:
#      x y z
#    x 1.652520 0.000000 0.000000 
#    y 0.000000 1.556250 0.000000 
#    z 0.000000 0.000000 1.625800 
# 
# From -- ./inp_files/4875.got.cif
#   From: 2010.03.12/outbox.cif.g09.slc.cpg/sg57_3_cif.got.tgz:4875.got - 2010.04.16 15:48:40.
