data_PCOD8229943
_publ_section_title
;
Structure prediction by ZEFSAII (Michael W. Deem and Ramdas Pophale) SiO2 
 PCOD8229943
Probable space group: P B C M
;
_chemical_formula_sum "Si O2"
_cell_formula_units_Z 40
_cell_length_a 13.154191
_cell_length_b 18.682685
_cell_length_c 8.760045
_cell_angle_alpha 90.000000
_cell_angle_beta 90.000000
_cell_angle_gamma 90.000000
_cell_volume 2152.830175
_symmetry_space_group_name_H-M "P B C M"
_symmetry_group_IT_number 57
_symmetry_cell_setting 'orthorhombic'
loop_
_space_group_symop_operation_xyz
x,y,z
-x,-y,1/2+z
x,1/2-y,-z
-x,1/2+y,1/2-z
-x,-y,-z
x,y,1/2-z
-x,1/2+y,z
x,1/2-y,1/2+z
loop_
_atom_site_type_symbol
_atom_site_label
_atom_site_fract_x
_atom_site_fract_y
_atom_site_fract_z
Si Si1 0.495251 0.577621 0.929931
Si Si2 0.686901 0.828100 0.069307
Si Si3 0.687999 0.327509 0.427920
Si Si4 0.911226 0.172362 0.571900
Si Si5 0.108805 0.170618 0.068842
O O1 0.488618 0.569802 0.750000
O O2 0.594216 0.621791 0.979762
O O3 0.395745 0.618271 0.995152
O O4 0.500000 0.500000 0.000000
O O5 0.698664 0.820912 0.250000
O O6 0.667544 0.750000 0.000000
O O7 0.788814 0.864804 0.998806
O O8 0.674236 0.250000 0.500000
O O9 0.669674 0.315901 0.250000
O O10 0.800126 0.362665 0.457474
O O11 0.902560 0.250000 0.500000
O O12 0.936582 0.177967 0.750000
O O13 0.005116 0.130578 0.488812
O O14 0.113399 0.171049 0.250000
O O15 0.104443 0.250000 0.000000
#
# Coordination Sequence:
#
# PCOD8229943 Si02
#       5
#     8   8   8   8   8
#     4  10  22  37  52  72  99 131 166 204 247 294
#     4  10  19  32  51  75 101 129 164 203 243 289
#     4   9  18  32  51  76 102 129 163 202 244 290
#     4   9  15  25  43  68  99 128 155 193 239 286
#     4  10  17  26  43  69 100 129 159 196 239 287
#
# _framework density 18.580193999999999
#
# number of rings (size 3 to 8) (size 9 to 14) (size 15 to 20)
#    0.000    2.400    0.000    6.000    0.000    3.200 
#    0.000    0.000    0.000    1.200    0.000    0.000 
#    0.000    0.000    0.000    0.000    0.000    0.000 
#
# Total GULP energy -495668.432753 kJ/mol
# GULP energy per Si atom -12391.710819 kJ/mol
# Density = 1.853790 g / cm^3
# Si number density = 18.580194 Si / 1000 Ang^3
#
#
#
# Elastic Constant Matrix: (Units=GPa)
#
#
# Indices 1 2 3 4 5 6 
#
# 1 216.5609 67.9387 70.9176 0.0000 0.0000 0.0000
# 2 67.9387 73.1164 29.5791 0.0000 0.0000 0.0000
# 3 70.9176 29.5791 94.5862 0.0000 0.0000 0.0000
# 4 0.0000 0.0000 0.0000 21.3621 0.0000 0.0000
# 5 0.0000 0.0000 0.0000 0.0000 27.9987 0.0000
# 6 0.0000 0.0000 0.0000 0.0000 0.0000 3.0988
#
#
#
# Elastic Compliance Matrix: (Units=1/GPa)
#
#
# Indices 1 2 3 4 5 6 
#
# 1 0.007657 -0.005486 -0.004025 0.000000 0.000000 0.000000
# 2 -0.005486 0.019589 -0.002012 0.000000 0.000000 0.000000
# 3 -0.004025 -0.002012 0.014220 0.000000 0.000000 0.000000
# 4 0.000000 0.000000 0.000000 0.046812 0.000000 0.000000
# 5 0.000000 0.000000 0.000000 0.000000 0.035716 0.000000
# 6 0.000000 0.000000 0.000000 0.000000 0.000000 0.322701
#
#
# Mechanical properties :
#
#
# Convention : Reuss Voigt Hill
#
# Bulk Modulus (GPa) = 54.29614 80.12604 67.21109
# Shear Modulus (GPa) = 10.50682 24.88047 17.69365
#
# Velocity S-wave (km/s) = 2.38057 3.66332 3.08926
# Velocity P-wave (km/s) = 6.06978 7.81737 6.99834
#
# Compressibility (1/GPa) = 0.01841752
#
# Stress axis : x y z
#
# Youngs Moduli (GPa) = 130.60052 51.04981 70.32523
#
# Poissons Ratio (x) = 0.28008 0.28308
# Poissons Ratio (y) = 0.71652 0.14152
# Poissons Ratio (z) = 0.52570 0.10273
#
# Static dielectric constant tensor:
#      x y z
#    x 4.889880 0.000000 0.000000 
#    y 0.000000 2.917640 0.000000 
#    z 0.000000 0.000000 3.425670 
# 
# 
# High freq. dielectric constant tensor:
#      x y z
#    x 1.759410 0.000000 0.000000 
#    y 0.000000 1.651800 0.000000 
#    z 0.000000 0.000000 1.728460 
# 
# From -- ./inp_files/4274.got.cif
#   From: 2010.03.12/outbox.cif.g09.slc.cpg/sg57_3_cif.got.tgz:4274.got - 2010.04.16 15:48:40.
