data_PCOD8229237
_publ_section_title
;
Structure prediction by ZEFSAII (Michael W. Deem and Ramdas Pophale) SiO2 
 PCOD8229237
Probable space group: P C C N
;
_chemical_formula_sum "Si O2"
_cell_formula_units_Z 56
_cell_length_a 5.480329
_cell_length_b 32.794533
_cell_length_c 14.464665
_cell_angle_alpha 90.000000
_cell_angle_beta 90.000000
_cell_angle_gamma 90.000000
_cell_volume 2599.659462
_symmetry_space_group_name_H-M "P C C N"
_symmetry_group_IT_number 56
_symmetry_cell_setting 'orthorhombic'
loop_
_space_group_symop_operation_xyz
x,y,z
1/2-x,1/2-y,z
1/2+x,-y,1/2-z
-x,1/2+y,1/2-z
-x,-y,-z
1/2+x,1/2+y,-z
1/2-x,y,1/2+z
x,1/2-y,1/2+z
loop_
_atom_site_type_symbol
_atom_site_label
_atom_site_fract_x
_atom_site_fract_y
_atom_site_fract_z
Si Si1 0.184552 0.054101 0.669363
Si Si2 0.988918 0.971234 0.663100
Si Si3 0.699846 0.678781 0.555267
Si Si4 0.621636 0.092443 0.316250
Si Si5 0.750000 0.250000 0.694595
Si Si6 0.216655 0.680008 0.663137
Si Si7 0.727820 0.911413 0.523864
Si Si8 0.250000 0.250000 0.085885
O O1 0.354332 0.029170 0.738834
O O2 0.320231 0.074182 0.581460
O O3 0.067958 0.090404 0.730602
O O4 0.006817 0.018350 0.630392
O O5 0.241511 0.950025 0.688598
O O6 0.875084 0.945660 0.579449
O O7 0.456398 0.694401 0.607584
O O8 0.639763 0.632608 0.521901
O O9 0.722009 0.708599 0.470142
O O10 0.953402 0.681350 0.612170
O O11 0.773481 0.133927 0.300869
O O12 0.521204 0.095093 0.420871
O O13 0.692625 0.290263 0.751708
O O14 0.500911 0.242489 0.639750
#
# Coordination Sequence:
#
# PCOD8229237 Si02
#       8
#     8   8   8   8   4   8   8   4
#     4  11  23  39  63  92 128 171 216 284 329 392
#     4  11  21  42  59  93 127 167 222 269 335 396
#     4  11  23  45  68  95 133 177 219 272 330 402
#     4  10  23  41  63  93 128 168 220 272 327 407
#     4  12  26  42  70 104 132 174 214 276 332 400
#     4  11  23  45  70  93 134 180 219 265 342 399
#     4  10  24  40  64  91 126 172 223 264 339 396
#     4  12  26  42  66 106 136 162 228 276 324 406
#
# _framework density 21.541284000000001
#
# number of rings (size 3 to 8) (size 9 to 14) (size 15 to 20)
#    0.000    1.143    2.857    3.000    2.000    2.857 
#    0.000    0.000    0.000    0.000    0.000    0.000 
#    0.000    0.000    0.000    0.000    0.000    0.000 
#
# Total GULP energy -693810.238329 kJ/mol
# GULP energy per Si atom -12389.468542 kJ/mol
# Density = 2.149225 g / cm^3
# Si number density = 21.541284 Si / 1000 Ang^3
#
#
#
# Elastic Constant Matrix: (Units=GPa)
#
#
# Indices 1 2 3 4 5 6 
#
# 1 112.1493 19.5122 39.0761 0.0000 0.0000 0.0000
# 2 19.5122 106.2576 58.5365 0.0000 0.0000 0.0000
# 3 39.0761 58.5365 114.8100 0.0000 0.0000 0.0000
# 4 0.0000 0.0000 0.0000 29.9048 0.0000 0.0000
# 5 0.0000 0.0000 0.0000 0.0000 -16.5623 0.0000
# 6 0.0000 0.0000 0.0000 0.0000 0.0000 28.4336
#
#
#
# Elastic Compliance Matrix: (Units=1/GPa)
#
#
# Indices 1 2 3 4 5 6 
#
# 1 0.010117 0.000054 -0.003471 0.000000 0.000000 0.000000
# 2 0.000054 0.013087 -0.006691 0.000000 0.000000 0.000000
# 3 -0.003471 -0.006691 0.013303 0.000000 0.000000 0.000000
# 4 0.000000 0.000000 0.000000 0.033439 0.000000 0.000000
# 5 0.000000 0.000000 0.000000 0.000000 -0.060378 0.000000
# 6 0.000000 0.000000 0.000000 0.000000 0.000000 0.035170
#
#
# Mechanical properties :
#
#
# Convention : Reuss Voigt Hill
#
# Bulk Modulus (GPa) = 61.38217 63.05182 62.21699
# Shear Modulus (GPa) = 71.03934 22.76136 46.90035
#
# Velocity S-wave (km/s) = 5.74890 3.25412 4.67114
# Velocity P-wave (km/s) = 8.52194 6.59188 7.61828
#
# Compressibility (1/GPa) = 0.01629138
#
# Stress axis : x y z
#
# Youngs Moduli (GPa) = 98.84732 76.41066 75.17155
#
# Poissons Ratio (x) = -0.00416 0.26092
# Poissons Ratio (y) = -0.00538 0.50298
# Poissons Ratio (z) = 0.34310 0.51127
#
# Static dielectric constant tensor:
#      x y z
#    x 3.900190 0.000000 0.000000 
#    y 0.000000 4.603760 0.000000 
#    z 0.000000 0.000000 3.766710 
# 
# 
# High freq. dielectric constant tensor:
#      x y z
#    x 1.843130 0.000000 0.000000 
#    y 0.000000 1.868890 0.000000 
#    z 0.000000 0.000000 1.839070 
# 
# From -- ./inp_files/9841.got.cif
#   From: 2010.03.12/outbox.cif.g09.slc.cpg/sg56_5_cif.got.tgz:9841.got - 2010.04.16 15:33:40.
