data_PCOD8229776
_publ_section_title
;
Structure prediction by ZEFSAII (Michael W. Deem and Ramdas Pophale) SiO2 
 PCOD8229776
Probable space group: P C C N
;
_chemical_formula_sum "Si O2"
_cell_formula_units_Z 40
_cell_length_a 21.518874
_cell_length_b 7.126138
_cell_length_c 9.582676
_cell_angle_alpha 90.000000
_cell_angle_beta 90.000000
_cell_angle_gamma 90.000000
_cell_volume 1469.469497
_symmetry_space_group_name_H-M "P C C N"
_symmetry_group_IT_number 56
_symmetry_cell_setting 'orthorhombic'
loop_
_space_group_symop_operation_xyz
x,y,z
1/2-x,1/2-y,z
1/2+x,-y,1/2-z
-x,1/2+y,1/2-z
-x,-y,-z
1/2+x,1/2+y,-z
1/2-x,y,1/2+z
x,1/2-y,1/2+z
loop_
_atom_site_type_symbol
_atom_site_label
_atom_site_fract_x
_atom_site_fract_y
_atom_site_fract_z
Si Si1 0.432100 0.437868 0.162900
Si Si2 0.624490 0.436118 0.483837
Si Si3 0.815118 0.350246 0.687886
Si Si4 0.501765 0.794688 0.074638
Si Si5 0.184230 0.183240 0.019998
O O1 0.453695 0.651870 0.150149
O O2 0.446390 0.363946 0.316900
O O3 0.466681 0.309384 0.052351
O O4 0.357531 0.423410 0.136879
O O5 0.638169 0.277165 0.597773
O O6 0.654886 0.389452 0.336237
O O7 0.548529 0.458151 0.470889
O O8 0.648821 0.634605 0.537908
O O9 0.750000 0.250000 0.711830
O O10 0.803717 0.546379 0.610100
O O11 0.250000 0.250000 0.086208
#
# Coordination Sequence:
#
# PCOD8229776 Si02
#       5
#     8   8   8   8   8
#     4  11  26  46  75 110 156 193 263 314 390 463
#     4  12  27  49  83 113 154 206 257 327 388 464
#     4  12  27  51  76 113 158 206 259 317 390 468
#     4  11  25  49  76 112 149 203 253 326 384 461
#     4  12  28  49  75 118 154 207 260 323 388 475
#
# _framework density 27.220706
#
# number of rings (size 3 to 8) (size 9 to 14) (size 15 to 20)
#    0.000    0.400    4.000    3.000    5.600    7.200 
#    0.000    0.000    0.000    0.000    0.000    0.000 
#    0.000    0.000    0.000    0.000    0.000    0.000 
#
# Total GULP energy -496351.472457 kJ/mol
# GULP energy per Si atom -12408.786811 kJ/mol
# Density = 2.715875 g / cm^3
# Si number density = 27.220706 Si / 1000 Ang^3
#
#
#
# Elastic Constant Matrix: (Units=GPa)
#
#
# Indices 1 2 3 4 5 6 
#
# 1 217.3775 42.3392 48.5093 0.0000 0.0000 0.0000
# 2 42.3392 115.1337 29.4076 0.0000 0.0000 0.0000
# 3 48.5093 29.4076 149.8487 0.0000 0.0000 0.0000
# 4 0.0000 0.0000 0.0000 24.2265 0.0000 0.0000
# 5 0.0000 0.0000 0.0000 0.0000 33.7439 0.0000
# 6 0.0000 0.0000 0.0000 0.0000 0.0000 51.5139
#
#
#
# Elastic Compliance Matrix: (Units=1/GPa)
#
#
# Indices 1 2 3 4 5 6 
#
# 1 0.005213 -0.001564 -0.001381 0.000000 0.000000 0.000000
# 2 -0.001564 0.009613 -0.001380 0.000000 0.000000 0.000000
# 3 -0.001381 -0.001380 0.007391 0.000000 0.000000 0.000000
# 4 0.000000 0.000000 0.000000 0.041277 0.000000 0.000000
# 5 0.000000 0.000000 0.000000 0.000000 0.029635 0.000000
# 6 0.000000 0.000000 0.000000 0.000000 0.000000 0.019412
#
#
# Mechanical properties :
#
#
# Convention : Reuss Voigt Hill
#
# Bulk Modulus (GPa) = 73.70666 80.31912 77.01289
# Shear Modulus (GPa) = 39.77257 46.03711 42.90484
#
# Velocity S-wave (km/s) = 3.82660 4.11695 3.97443
# Velocity P-wave (km/s) = 6.83081 7.22286 7.02957
#
# Compressibility (1/GPa) = 0.01356729
#
# Stress axis : x y z
#
# Youngs Moduli (GPa) = 191.82498 104.02168 135.29644
#
# Poissons Ratio (x) = 0.16273 0.18679
# Poissons Ratio (y) = 0.30010 0.18673
# Poissons Ratio (z) = 0.26483 0.14357
#
# Static dielectric constant tensor:
#      x y z
#    x 5.699570 0.000000 0.000000 
#    y 0.000000 5.816170 0.000000 
#    z 0.000000 0.000000 4.901270 
# 
# 
# High freq. dielectric constant tensor:
#      x y z
#    x 2.127310 0.000000 0.000000 
#    y 0.000000 2.133990 0.000000 
#    z 0.000000 0.000000 2.101420 
# 
# From -- ./inp_files/4679.got.cif
#   From: 2010.03.12/outbox.cif.g09.slc.cpg/sg56_3_cif.got.tgz:4679.got - 2010.04.16 15:33:40.
