data_PCOD8229131
_publ_section_title
;
Structure prediction by ZEFSAII (Michael W. Deem and Ramdas Pophale) SiO2 
 PCOD8229131
Probable space group: P C C N
;
_chemical_formula_sum "Si O2"
_cell_formula_units_Z 48
_cell_length_a 8.426946
_cell_length_b 11.458558
_cell_length_c 21.683862
_cell_angle_alpha 90.000000
_cell_angle_beta 90.000000
_cell_angle_gamma 90.000000
_cell_volume 2093.807798
_symmetry_space_group_name_H-M "P C C N"
_symmetry_group_IT_number 56
_symmetry_cell_setting 'orthorhombic'
loop_
_space_group_symop_operation_xyz
x,y,z
1/2-x,1/2-y,z
1/2+x,-y,1/2-z
-x,1/2+y,1/2-z
-x,-y,-z
1/2+x,1/2+y,-z
1/2-x,y,1/2+z
x,1/2-y,1/2+z
loop_
_atom_site_type_symbol
_atom_site_label
_atom_site_fract_x
_atom_site_fract_y
_atom_site_fract_z
Si Si1 0.496857 0.866236 0.915161
Si Si2 0.093677 0.978976 0.797362
Si Si3 0.250000 0.750000 0.614883
Si Si4 0.250000 0.750000 0.830128
Si Si5 0.538569 0.771655 0.538750
Si Si6 0.225111 0.425062 0.912238
Si Si7 0.725010 0.497468 0.329469
O O1 0.404282 0.780981 0.869949
O O2 0.371134 0.964009 0.937062
O O3 0.653951 0.923506 0.884692
O O4 0.548344 0.790139 0.973155
O O5 0.184375 0.855541 0.789315
O O6 0.115818 0.033698 0.729424
O O7 0.191013 0.054858 0.846690
O O8 0.909328 0.971297 0.816763
O O9 0.370527 0.805334 0.565556
O O10 0.300406 0.640209 0.656786
O O11 0.606536 0.684619 0.592025
O O12 0.642188 0.890606 0.536475
#
# Coordination Sequence:
#
# PCOD8229131 Si02
#       7
#     8   8   4   4   8   8   8
#     4  11  24  47  69 105 142 188 234 299 351 426
#     4  11  24  47  68 106 139 189 232 295 353 434
#     4  12  24  44  70 112 136 188 240 296 362 430
#     4  10  24  46  68 100 146 182 240 286 358 420
#     4  11  23  43  68 104 139 185 241 289 350 425
#     4  10  22  42  71  95 141 185 231 287 352 413
#     4  12  26  44  76 103 147 182 240 293 369 420
#
# _framework density 22.92474
#
# number of rings (size 3 to 8) (size 9 to 14) (size 15 to 20)
#    0.000    1.000    3.333    3.500    0.000    3.333 
#    0.000    3.333    0.000    0.000    0.000    0.000 
#    0.000    0.000    0.000    0.000    0.000    0.000 
#
# Total GULP energy -594808.204508 kJ/mol
# GULP energy per Si atom -12391.837594 kJ/mol
# Density = 2.287256 g / cm^3
# Si number density = 22.924740 Si / 1000 Ang^3
#
#
#
# Elastic Constant Matrix: (Units=GPa)
#
#
# Indices 1 2 3 4 5 6 
#
# 1 125.3187 7.6008 53.1346 0.0000 0.0000 0.0000
# 2 7.6008 47.5846 40.0727 0.0000 0.0000 0.0000
# 3 53.1346 40.0727 132.2999 0.0000 0.0000 0.0000
# 4 0.0000 0.0000 0.0000 20.6201 0.0000 0.0000
# 5 0.0000 0.0000 0.0000 0.0000 21.3335 0.0000
# 6 0.0000 0.0000 0.0000 0.0000 0.0000 40.3619
#
#
#
# Elastic Compliance Matrix: (Units=1/GPa)
#
#
# Indices 1 2 3 4 5 6 
#
# 1 0.009809 0.002350 -0.004652 0.000000 0.000000 0.000000
# 2 0.002350 0.028774 -0.009660 0.000000 0.000000 0.000000
# 3 -0.004652 -0.009660 0.012353 0.000000 0.000000 0.000000
# 4 0.000000 0.000000 0.000000 0.048496 0.000000 0.000000
# 5 0.000000 0.000000 0.000000 0.000000 0.046875 0.000000
# 6 0.000000 0.000000 0.000000 0.000000 0.000000 0.024776
#
#
# Mechanical properties :
#
#
# Convention : Reuss Voigt Hill
#
# Bulk Modulus (GPa) = 37.01662 56.31326 46.66494
# Shear Modulus (GPa) = 24.50866 30.08945 27.29906
#
# Velocity S-wave (km/s) = 3.27324 3.62682 3.45456
# Velocity P-wave (km/s) = 5.51974 6.49278 6.02593
#
# Compressibility (1/GPa) = 0.02701489
#
# Stress axis : x y z
#
# Youngs Moduli (GPa) = 101.94358 34.75308 80.95486
#
# Poissons Ratio (x) = -0.08168 0.37657
# Poissons Ratio (y) = -0.23961 0.78199
# Poissons Ratio (z) = 0.47420 0.33570
#
# Static dielectric constant tensor:
#      x y z
#    x 4.424880 0.000000 0.000000 
#    y 0.000000 4.219160 0.000000 
#    z 0.000000 0.000000 3.903260 
# 
# 
# High freq. dielectric constant tensor:
#      x y z
#    x 1.925880 0.000000 0.000000 
#    y 0.000000 1.901990 0.000000 
#    z 0.000000 0.000000 1.897990 
# 
# From -- ./inp_files/20540.got.cif
#   From: 2010.03.12/outbox.cif.g09.slc.cpg/sg56_11_cif.got.tgz:20540.got - 2010.04.16 15:33:40.
