data_PCOD8229517
_publ_section_title
;
Structure prediction by ZEFSAII (Michael W. Deem and Ramdas Pophale) SiO2 
 PCOD8229517
Probable space group: P C C N
;
_chemical_formula_sum "Si O2"
_cell_formula_units_Z 48
_cell_length_a 8.983688
_cell_length_b 25.010297
_cell_length_c 10.420995
_cell_angle_alpha 90.000000
_cell_angle_beta 90.000000
_cell_angle_gamma 90.000000
_cell_volume 2341.438188
_symmetry_space_group_name_H-M "P C C N"
_symmetry_group_IT_number 56
_symmetry_cell_setting 'orthorhombic'
loop_
_space_group_symop_operation_xyz
x,y,z
1/2-x,1/2-y,z
1/2+x,-y,1/2-z
-x,1/2+y,1/2-z
-x,-y,-z
1/2+x,1/2+y,-z
1/2-x,y,1/2+z
x,1/2-y,1/2+z
loop_
_atom_site_type_symbol
_atom_site_label
_atom_site_fract_x
_atom_site_fract_y
_atom_site_fract_z
Si Si1 0.898575 0.448695 0.014535
Si Si2 0.915389 0.744476 0.177179
Si Si3 0.697492 0.082926 0.281916
Si Si4 0.384852 0.136648 0.926597
Si Si5 0.941824 0.344703 0.695973
Si Si6 0.045078 0.139340 0.921346
O O1 0.811830 0.451865 0.150943
O O2 0.783365 0.448469 0.895320
O O3 0.000000 0.500000 0.000000
O O4 0.005674 0.396152 0.019834
O O5 0.750000 0.750000 0.237811
O O6 0.906174 0.701477 0.057264
O O7 0.027328 0.719135 0.284420
O O8 0.973709 0.801273 0.133338
O O9 0.781312 0.138757 0.251057
O O10 0.530264 0.097209 0.325665
O O11 0.431027 0.123485 0.778506
O O12 0.213501 0.121044 0.948508
O O13 0.950212 0.362894 0.550595
#
# Coordination Sequence:
#
# PCOD8229517 Si02
#       6
#     8   8   8   8   8   8
#     4  11  25  48  71  91 136 168 221 284 343 398
#     4   8  18  35  57  97 131 178 217 259 315 402
#     4  11  24  45  64 101 126 172 218 284 334 404
#     4   8  21  40  60  96 125 171 218 268 320 395
#     4   9  20  39  56  88 139 166 222 265 318 385
#     4  11  20  37  67  91 132 180 215 268 330 392
#
# _framework density 20.500222000000001
#
# number of rings (size 3 to 8) (size 9 to 14) (size 15 to 20)
#    1.000    1.333    1.667    0.000    2.333    5.333 
#    3.000    3.333    0.000    0.000    0.000    0.000 
#    0.000    0.000    0.000    0.000    0.000    0.000 
#
# Total GULP energy -594643.255735 kJ/mol
# GULP energy per Si atom -12388.401161 kJ/mol
# Density = 2.045356 g / cm^3
# Si number density = 20.500222 Si / 1000 Ang^3
#
#
#
# Elastic Constant Matrix: (Units=GPa)
#
#
# Indices 1 2 3 4 5 6 
#
# 1 85.8195 25.6472 33.2087 0.0000 0.0000 0.0000
# 2 25.6472 65.6952 23.6663 0.0000 0.0000 0.0000
# 3 33.2087 23.6663 121.3622 0.0000 0.0000 0.0000
# 4 0.0000 0.0000 0.0000 20.2672 0.0000 0.0000
# 5 0.0000 0.0000 0.0000 0.0000 27.8673 0.0000
# 6 0.0000 0.0000 0.0000 0.0000 0.0000 34.0352
#
#
#
# Elastic Compliance Matrix: (Units=1/GPa)
#
#
# Indices 1 2 3 4 5 6 
#
# 1 0.014141 -0.004439 -0.003004 0.000000 0.000000 0.000000
# 2 -0.004439 0.017765 -0.002250 0.000000 0.000000 0.000000
# 3 -0.003004 -0.002250 0.009501 0.000000 0.000000 0.000000
# 4 0.000000 0.000000 0.000000 0.049341 0.000000 0.000000
# 5 0.000000 0.000000 0.000000 0.000000 0.035884 0.000000
# 6 0.000000 0.000000 0.000000 0.000000 0.000000 0.029381
#
#
# Mechanical properties :
#
#
# Convention : Reuss Voigt Hill
#
# Bulk Modulus (GPa) = 45.40856 48.65793 47.03325
# Shear Modulus (GPa) = 27.36150 29.12425 28.24287
#
# Velocity S-wave (km/s) = 3.65731 3.77328 3.71575
# Velocity P-wave (km/s) = 6.32716 6.53991 6.43441
#
# Compressibility (1/GPa) = 0.02202228
#
# Stress axis : x y z
#
# Youngs Moduli (GPa) = 70.71514 56.29024 105.25762
#
# Poissons Ratio (x) = 0.24985 0.31619
# Poissons Ratio (y) = 0.31387 0.23680
# Poissons Ratio (z) = 0.21243 0.12664
#
# Static dielectric constant tensor:
#      x y z
#    x 3.677950 0.000000 0.000000 
#    y 0.000000 3.467530 0.000000 
#    z 0.000000 0.000000 3.556200 
# 
# 
# High freq. dielectric constant tensor:
#      x y z
#    x 1.802440 0.000000 0.000000 
#    y 0.000000 1.772570 0.000000 
#    z 0.000000 0.000000 1.790820 
# 
# From -- ./inp_files/6481.got.cif
#   From: 2010.03.12/outbox.cif.g09.slc.cpg/sg56_4_cif.got.tgz:6481.got - 2010.04.16 15:33:40.
