data_PCOD8229365
_publ_section_title
;
Structure prediction by ZEFSAII (Michael W. Deem and Ramdas Pophale) SiO2 
 PCOD8229365
Probable space group: P C C N
;
_chemical_formula_sum "Si O2"
_cell_formula_units_Z 48
_cell_length_a 8.785390
_cell_length_b 16.199144
_cell_length_c 14.135598
_cell_angle_alpha 90.000000
_cell_angle_beta 90.000000
_cell_angle_gamma 90.000000
_cell_volume 2011.718905
_symmetry_space_group_name_H-M "P C C N"
_symmetry_group_IT_number 56
_symmetry_cell_setting 'orthorhombic'
loop_
_space_group_symop_operation_xyz
x,y,z
1/2-x,1/2-y,z
1/2+x,-y,1/2-z
-x,1/2+y,1/2-z
-x,-y,-z
1/2+x,1/2+y,-z
1/2-x,y,1/2+z
x,1/2-y,1/2+z
loop_
_atom_site_type_symbol
_atom_site_label
_atom_site_fract_x
_atom_site_fract_y
_atom_site_fract_z
Si Si1 0.543230 0.334159 0.258970
Si Si2 0.273574 0.039770 0.027557
Si Si3 0.750000 0.250000 0.113617
Si Si4 0.750000 0.750000 0.714093
Si Si5 0.633597 0.983513 0.281018
Si Si6 0.375485 0.080448 0.350599
Si Si7 0.425333 0.634915 0.527307
O O1 0.674677 0.314763 0.185370
O O2 0.391431 0.284449 0.225762
O O3 0.512733 0.431149 0.250985
O O4 0.581519 0.319428 0.370169
O O5 0.221163 0.060666 0.133038
O O6 0.316234 0.943717 0.024691
O O7 0.127453 0.054661 0.960283
O O8 0.405916 0.103244 0.997632
O O9 0.872186 0.297852 0.049494
O O10 0.680520 0.825412 0.653515
O O11 0.753637 0.984295 0.195959
O O12 0.549086 0.070250 0.309139
#
# Coordination Sequence:
#
# PCOD8229365 Si02
#       7
#     8   8   4   4   8   8   8
#     4  11  25  49  66 111 143 190 246 298 375 432
#     4  11  24  45  72 102 147 189 246 309 360 441
#     4  12  28  44  80 104 148 200 234 298 384 440
#     4  10  24  42  68  98 148 188 232 318 368 416
#     4  11  24  42  73 101 138 196 248 292 370 441
#     4  11  24  45  67 107 140 195 247 308 370 440
#     4  11  25  47  71 109 147 186 249 309 361 444
#
# _framework density 23.860192000000001
#
# number of rings (size 3 to 8) (size 9 to 14) (size 15 to 20)
#    0.000    1.000    3.333    3.000    7.000    5.333 
#    0.000    0.000    0.000    0.000    0.000    0.000 
#    0.000    0.000    0.000    0.000    0.000    0.000 
#
# Total GULP energy -594782.726091 kJ/mol
# GULP energy per Si atom -12391.306794 kJ/mol
# Density = 2.380588 g / cm^3
# Si number density = 23.860192 Si / 1000 Ang^3
#
#
#
# Elastic Constant Matrix: (Units=GPa)
#
#
# Indices 1 2 3 4 5 6 
#
# 1 50.3875 35.5441 20.3415 0.0000 0.0000 0.0000
# 2 35.5441 67.7687 21.8857 0.0000 0.0000 0.0000
# 3 20.3415 21.8857 117.5470 0.0000 0.0000 0.0000
# 4 0.0000 0.0000 0.0000 28.9842 0.0000 0.0000
# 5 0.0000 0.0000 0.0000 0.0000 36.1703 0.0000
# 6 0.0000 0.0000 0.0000 0.0000 0.0000 38.7982
#
#
#
# Elastic Compliance Matrix: (Units=1/GPa)
#
#
# Indices 1 2 3 4 5 6 
#
# 1 0.032223 -0.016066 -0.002585 0.000000 0.000000 0.000000
# 2 -0.016066 0.023710 -0.001634 0.000000 0.000000 0.000000
# 3 -0.002585 -0.001634 0.009259 0.000000 0.000000 0.000000
# 4 0.000000 0.000000 0.000000 0.034502 0.000000 0.000000
# 5 0.000000 0.000000 0.000000 0.000000 0.027647 0.000000
# 6 0.000000 0.000000 0.000000 0.000000 0.000000 0.025774
#
#
# Mechanical properties :
#
#
# Convention : Reuss Voigt Hill
#
# Bulk Modulus (GPa) = 40.61446 43.47177 42.04311
# Shear Modulus (GPa) = 24.76567 31.31932 28.04250
#
# Velocity S-wave (km/s) = 3.22522 3.62694 3.43196
# Velocity P-wave (km/s) = 5.56131 5.98318 5.77610
#
# Compressibility (1/GPa) = 0.02462178
#
# Stress axis : x y z
#
# Youngs Moduli (GPa) = 31.03389 42.17578 108.00476
#
# Poissons Ratio (x) = 0.67759 0.27918
# Poissons Ratio (y) = 0.49859 0.17652
# Poissons Ratio (z) = 0.08022 0.06893
#
# Static dielectric constant tensor:
#      x y z
#    x 4.377520 0.000000 0.000000 
#    y 0.000000 4.196820 0.000000 
#    z 0.000000 0.000000 4.655560 
# 
# 
# High freq. dielectric constant tensor:
#      x y z
#    x 1.953370 0.000000 0.000000 
#    y 0.000000 1.937890 0.000000 
#    z 0.000000 0.000000 1.945690 
# 
# From -- ./inp_files/10710.got.cif
#   From: 2010.03.12/outbox.cif.g09.slc.cpg/sg56_6_cif.got.tgz:10710.got - 2010.04.16 15:33:40.
