data_PCOD8229318
_publ_section_title
;
Structure prediction by ZEFSAII (Michael W. Deem and Ramdas Pophale) SiO2 
 PCOD8229318
Probable space group: P C C N
;
_chemical_formula_sum "Si O2"
_cell_formula_units_Z 40
_cell_length_a 24.723073
_cell_length_b 11.717682
_cell_length_c 5.330418
_cell_angle_alpha 90.000000
_cell_angle_beta 90.000000
_cell_angle_gamma 90.000000
_cell_volume 1544.206676
_symmetry_space_group_name_H-M "P C C N"
_symmetry_group_IT_number 56
_symmetry_cell_setting 'orthorhombic'
loop_
_space_group_symop_operation_xyz
x,y,z
1/2-x,1/2-y,z
1/2+x,-y,1/2-z
-x,1/2+y,1/2-z
-x,-y,-z
1/2+x,1/2+y,-z
1/2-x,y,1/2+z
x,1/2-y,1/2+z
loop_
_atom_site_type_symbol
_atom_site_label
_atom_site_fract_x
_atom_site_fract_y
_atom_site_fract_z
Si Si1 0.811010 0.201392 0.403049
Si Si2 0.562498 0.319733 0.698716
Si Si3 0.728184 0.877885 0.276566
Si Si4 0.365813 0.486417 0.461472
Si Si5 0.562386 0.681715 0.274612
O O1 0.750000 0.250000 0.402695
O O2 0.840492 0.250433 0.654371
O O3 0.818241 0.065163 0.413868
O O4 0.576847 0.263977 0.428395
O O5 0.595158 0.438873 0.716074
O O6 0.499857 0.355233 0.710513
O O7 0.750000 0.750000 0.320804
O O8 0.738061 0.937177 0.547463
O O9 0.664697 0.889706 0.205930
O O10 0.400064 0.428671 0.683453
O O11 0.575666 0.769645 0.500256
#
# Coordination Sequence:
#
# PCOD8229318 Si02
#       5
#     8   8   8   8   8
#     4  10  24  42  60  91 127 167 223 271 315 377
#     4  10  23  46  69 103 137 167 219 279 329 402
#     4  10  26  44  62  93 135 170 228 277 317 386
#     4  12  25  42  76  92 136 182 225 260 348 391
#     4  10  25  44  69 103 137 167 219 278 333 399
#
# _framework density 25.903268000000001
#
# number of rings (size 3 to 8) (size 9 to 14) (size 15 to 20)
#    0.000    1.600    0.000    1.800   11.200    4.800 
#    0.000    6.000    0.000    0.000    0.000    0.000 
#    0.000    0.000    0.000    0.000    0.000    0.000 
#
# Total GULP energy -495738.815538 kJ/mol
# GULP energy per Si atom -12393.470388 kJ/mol
# Density = 2.584431 g / cm^3
# Si number density = 25.903268 Si / 1000 Ang^3
#
#
#
# Elastic Constant Matrix: (Units=GPa)
#
#
# Indices 1 2 3 4 5 6 
#
# 1 107.1339 54.1965 22.2733 0.0000 0.0000 0.0000
# 2 54.1965 102.0237 -1.5953 0.0000 0.0000 0.0000
# 3 22.2733 -1.5953 140.9745 0.0000 0.0000 0.0000
# 4 0.0000 0.0000 0.0000 -15.6417 0.0000 0.0000
# 5 0.0000 0.0000 0.0000 0.0000 31.0947 0.0000
# 6 0.0000 0.0000 0.0000 0.0000 0.0000 66.5957
#
#
#
# Elastic Compliance Matrix: (Units=1/GPa)
#
#
# Indices 1 2 3 4 5 6 
#
# 1 0.013414 -0.007160 -0.002200 0.000000 0.000000 0.000000
# 2 -0.007160 0.013625 0.001285 0.000000 0.000000 0.000000
# 3 -0.002200 0.001285 0.007456 0.000000 0.000000 0.000000
# 4 0.000000 0.000000 0.000000 -0.063932 0.000000 0.000000
# 5 0.000000 0.000000 0.000000 0.000000 0.032160 0.000000
# 6 0.000000 0.000000 0.000000 0.000000 0.000000 0.015016
#
#
# Mechanical properties :
#
#
# Convention : Reuss Voigt Hill
#
# Bulk Modulus (GPa) = 54.51119 55.54235 55.02677
# Shear Modulus (GPa) = 124.99095 34.76027 79.87561
#
# Velocity S-wave (km/s) = 6.95397 3.66720 5.55905
# Velocity P-wave (km/s) = 9.25023 6.27853 7.90527
#
# Compressibility (1/GPa) = 0.01834486
#
# Stress axis : x y z
#
# Youngs Moduli (GPa) = 74.55125 73.39345 134.12619
#
# Poissons Ratio (x) = 0.52549 0.29512
# Poissons Ratio (y) = 0.53378 -0.17241
# Poissons Ratio (z) = 0.16404 -0.09434
#
# Static dielectric constant tensor:
#      x y z
#    x 4.992740 0.000000 0.000000 
#    y 0.000000 4.549690 0.000000 
#    z 0.000000 0.000000 5.745460 
# 
# 
# High freq. dielectric constant tensor:
#      x y z
#    x 2.066830 0.000000 0.000000 
#    y 0.000000 2.011760 0.000000 
#    z 0.000000 0.000000 2.052590 
# 
# From -- ./inp_files/289.got.cif
#   From: 2010.03.12/outbox.cif.g09.slc.cpg/sg56_1_cif.got.tgz:289.got - 2010.04.16 15:33:40.
