data_PCOD8229096
_publ_section_title
;
Structure prediction by ZEFSAII (Michael W. Deem and Ramdas Pophale) SiO2 
 PCOD8229096
Probable space group: P C C N
;
_chemical_formula_sum "Si O2"
_cell_formula_units_Z 60
_cell_length_a 8.988907
_cell_length_b 30.341069
_cell_length_c 10.519759
_cell_angle_alpha 90.000000
_cell_angle_beta 90.000000
_cell_angle_gamma 90.000000
_cell_volume 2869.085931
_symmetry_space_group_name_H-M "P C C N"
_symmetry_group_IT_number 56
_symmetry_cell_setting 'orthorhombic'
loop_
_space_group_symop_operation_xyz
x,y,z
1/2-x,1/2-y,z
1/2+x,-y,1/2-z
-x,1/2+y,1/2-z
-x,-y,-z
1/2+x,1/2+y,-z
1/2-x,y,1/2+z
x,1/2-y,1/2+z
loop_
_atom_site_type_symbol
_atom_site_label
_atom_site_fract_x
_atom_site_fract_y
_atom_site_fract_z
Si Si1 0.047950 0.179889 0.128390
Si Si2 0.147965 0.914347 0.159255
Si Si3 0.316627 0.548826 0.892531
Si Si4 0.322890 0.054547 0.396295
Si Si5 0.635250 0.914436 0.335440
Si Si6 0.457381 0.728216 0.635493
Si Si7 0.675797 0.180994 0.410297
Si Si8 0.750000 0.750000 0.002286
O O1 0.138054 0.138186 0.180419
O O2 0.172825 0.213308 0.081931
O O3 0.947827 0.204302 0.230892
O O4 0.924556 0.164732 0.027368
O O5 0.192693 0.940200 0.287208
O O6 0.189649 0.862585 0.177454
O O7 0.972083 0.920436 0.144545
O O8 0.230397 0.933219 0.032498
O O9 0.346627 0.497269 0.904039
O O10 0.466779 0.570461 0.844488
O O11 0.198685 0.064896 0.292780
O O12 0.274352 0.071279 0.537247
O O13 0.412579 0.779121 0.657846
O O14 0.337605 0.701011 0.548842
O O15 0.624932 0.724895 0.584185
#
# Coordination Sequence:
#
# PCOD8229096 Si02
#       8
#     8   8   8   8   8   8   8   4
#     4  11  22  43  61  94 129 174 217 270 330 389
#     4  11  23  42  66  97 130 173 220 284 326 407
#     4  11  22  43  66  93 132 168 221 278 343 395
#     4  11  23  42  66  96 127 175 216 280 342 401
#     4  11  24  41  67  93 133 170 222 275 333 410
#     4  10  23  39  67  88 132 169 213 274 318 390
#     4  10  22  42  62  96 123 171 227 263 328 382
#     4  10  24  40  62  94 130 172 212 264 326 398
#
# _framework density 20.912585
#
# number of rings (size 3 to 8) (size 9 to 14) (size 15 to 20)
#    0.000    1.333    2.667    4.400    1.867    6.400 
#    2.400    2.667    0.000    0.000    0.000    0.000 
#    0.000    0.000    0.000    0.000    0.000    0.000 
#
# Total GULP energy -743900.025365 kJ/mol
# GULP energy per Si atom -12398.333756 kJ/mol
# Density = 2.086499 g / cm^3
# Si number density = 20.912585 Si / 1000 Ang^3
#
#
#
# Elastic Constant Matrix: (Units=GPa)
#
#
# Indices 1 2 3 4 5 6 
#
# 1 74.9750 18.3238 11.4716 0.0000 0.0000 0.0000
# 2 18.3238 133.4971 19.9326 0.0000 0.0000 0.0000
# 3 11.4716 19.9326 76.7925 0.0000 0.0000 0.0000
# 4 0.0000 0.0000 0.0000 34.9905 0.0000 0.0000
# 5 0.0000 0.0000 0.0000 0.0000 29.2047 0.0000
# 6 0.0000 0.0000 0.0000 0.0000 0.0000 29.4581
#
#
#
# Elastic Compliance Matrix: (Units=1/GPa)
#
#
# Indices 1 2 3 4 5 6 
#
# 1 0.014000 -0.001674 -0.001657 0.000000 0.000000 0.000000
# 2 -0.001674 0.007993 -0.001825 0.000000 0.000000 0.000000
# 3 -0.001657 -0.001825 0.013743 0.000000 0.000000 0.000000
# 4 0.000000 0.000000 0.000000 0.028579 0.000000 0.000000
# 5 0.000000 0.000000 0.000000 0.000000 0.034241 0.000000
# 6 0.000000 0.000000 0.000000 0.000000 0.000000 0.033947
#
#
# Mechanical properties :
#
#
# Convention : Reuss Voigt Hill
#
# Bulk Modulus (GPa) = 39.33106 42.74673 41.03890
# Shear Modulus (GPa) = 33.04909 34.43311 33.74110
#
# Velocity S-wave (km/s) = 3.97967 4.06214 4.02112
# Velocity P-wave (km/s) = 6.32180 6.51816 6.42073
#
# Compressibility (1/GPa) = 0.02542520
#
# Stress axis : x y z
#
# Youngs Moduli (GPa) = 71.42613 125.10873 72.76322
#
# Poissons Ratio (x) = 0.20947 0.12056
# Poissons Ratio (y) = 0.11959 0.13276
# Poissons Ratio (z) = 0.11834 0.22827
#
# Static dielectric constant tensor:
#      x y z
#    x 4.080050 0.000000 0.000000 
#    y 0.000000 3.869740 0.000000 
#    z 0.000000 0.000000 3.932740 
# 
# 
# High freq. dielectric constant tensor:
#      x y z
#    x 1.811860 0.000000 0.000000 
#    y 0.000000 1.841430 0.000000 
#    z 0.000000 0.000000 1.811370 
# 
# From -- ./inp_files/6603.got.cif
#   From: 2010.03.12/outbox.cif.g09.slc.cpg/sg56_4_cif.got.tgz:6603.got - 2010.04.16 15:33:40.
