data_PCOD8229102
_publ_section_title
;
Structure prediction by ZEFSAII (Michael W. Deem and Ramdas Pophale) SiO2 
 PCOD8229102
Probable space group: P C C N
;
_chemical_formula_sum "Si O2"
_cell_formula_units_Z 48
_cell_length_a 8.542569
_cell_length_b 8.637670
_cell_length_c 31.497609
_cell_angle_alpha 90.000000
_cell_angle_beta 90.000000
_cell_angle_gamma 90.000000
_cell_volume 2324.142170
_symmetry_space_group_name_H-M "P C C N"
_symmetry_group_IT_number 56
_symmetry_cell_setting 'orthorhombic'
loop_
_space_group_symop_operation_xyz
x,y,z
1/2-x,1/2-y,z
1/2+x,-y,1/2-z
-x,1/2+y,1/2-z
-x,-y,-z
1/2+x,1/2+y,-z
1/2-x,y,1/2+z
x,1/2-y,1/2+z
loop_
_atom_site_type_symbol
_atom_site_label
_atom_site_fract_x
_atom_site_fract_y
_atom_site_fract_z
Si Si1 0.750000 0.750000 0.590738
Si Si2 0.555296 0.997420 0.134456
Si Si3 0.887084 0.541764 0.295221
Si Si4 0.285899 0.569165 0.116287
Si Si5 0.750000 0.250000 0.086719
Si Si6 0.539901 0.003204 0.548908
Si Si7 0.965308 0.880281 0.280101
O O1 0.622068 0.669800 0.621202
O O2 0.837661 0.631259 0.560043
O O3 0.667239 0.127286 0.116469
O O4 0.553984 0.012480 0.185419
O O5 0.379305 0.021415 0.116610
O O6 0.890530 0.479644 0.343282
O O7 0.986937 0.700158 0.292516
O O8 0.714451 0.572545 0.278511
O O9 0.962488 0.409148 0.266086
O O10 0.250000 0.750000 0.117457
O O11 0.378874 0.518430 0.074569
O O12 0.880942 0.168766 0.057762
O O13 0.500000 0.000000 0.500000
#
# Coordination Sequence:
#
# PCOD8229102 Si02
#       7
#     4   8   8   8   4   8   8
#     4  10  22  42  64  98 130 172 220 268 332 396
#     4  10  22  42  67  93 131 173 218 262 329 387
#     4  10  24  39  61  91 127 168 218 265 325 381
#     4  11  23  43  69  93 130 180 221 270 335 404
#     4  10  24  42  64  98 132 166 212 280 328 394
#     4  11  25  42  68  98 132 171 221 274 339 399
#     4  10  23  40  60  93 127 169 218 267 315 386
#
# _framework density 20.652781999999998
#
# number of rings (size 3 to 8) (size 9 to 14) (size 15 to 20)
#    0.000    1.667    1.667    1.000    5.833    8.667 
#    0.000    3.333    0.000    0.000    0.000    0.000 
#    0.000    0.000    0.000    0.000    0.000    0.000 
#
# Total GULP energy -595434.474463 kJ/mol
# GULP energy per Si atom -12404.884885 kJ/mol
# Density = 2.060578 g / cm^3
# Si number density = 20.652782 Si / 1000 Ang^3
#
#
#
# Elastic Constant Matrix: (Units=GPa)
#
#
# Indices 1 2 3 4 5 6 
#
# 1 72.5430 22.5023 54.7300 0.0000 0.0000 0.0000
# 2 22.5023 94.4265 42.5384 0.0000 0.0000 0.0000
# 3 54.7300 42.5384 152.4616 0.0000 0.0000 0.0000
# 4 0.0000 0.0000 0.0000 21.1367 0.0000 0.0000
# 5 0.0000 0.0000 0.0000 0.0000 36.1836 0.0000
# 6 0.0000 0.0000 0.0000 0.0000 0.0000 36.6690
#
#
#
# Elastic Compliance Matrix: (Units=1/GPa)
#
#
# Indices 1 2 3 4 5 6 
#
# 1 0.019134 -0.001676 -0.006401 0.000000 0.000000 0.000000
# 2 -0.001676 0.012260 -0.002819 0.000000 0.000000 0.000000
# 3 -0.006401 -0.002819 0.009643 0.000000 0.000000 0.000000
# 4 0.000000 0.000000 0.000000 0.047311 0.000000 0.000000
# 5 0.000000 0.000000 0.000000 0.000000 0.027637 0.000000
# 6 0.000000 0.000000 0.000000 0.000000 0.000000 0.027271
#
#
# Mechanical properties :
#
#
# Convention : Reuss Voigt Hill
#
# Bulk Modulus (GPa) = 51.96164 62.10804 57.03484
# Shear Modulus (GPa) = 29.16083 32.10855 30.63469
#
# Velocity S-wave (km/s) = 3.76168 3.94723 3.85557
# Velocity P-wave (km/s) = 6.63937 7.13526 6.89177
#
# Compressibility (1/GPa) = 0.01924496
#
# Stress axis : x y z
#
# Youngs Moduli (GPa) = 52.26271 81.56910 103.69867
#
# Poissons Ratio (x) = 0.13672 0.66378
# Poissons Ratio (y) = 0.08760 0.29231
# Poissons Ratio (z) = 0.33453 0.22993
#
# Static dielectric constant tensor:
#      x y z
#    x 3.956910 0.000000 0.000000 
#    y 0.000000 4.021880 0.000000 
#    z 0.000000 0.000000 3.546880 
# 
# 
# High freq. dielectric constant tensor:
#      x y z
#    x 1.819530 0.000000 0.000000 
#    y 0.000000 1.816770 0.000000 
#    z 0.000000 0.000000 1.799000 
# 
# From -- ./inp_files/23260.got.cif
#   From: 2010.03.12/outbox.cif.g09.slc.cpg/sg56_12_cif.got.tgz:23260.got - 2010.04.16 15:33:40.
