data_PCOD8229348
_publ_section_title
;
Structure prediction by ZEFSAII (Michael W. Deem and Ramdas Pophale) SiO2 
 PCOD8229348
Probable space group: P C C N
;
_chemical_formula_sum "Si O2"
_cell_formula_units_Z 40
_cell_length_a 8.524381
_cell_length_b 17.663305
_cell_length_c 11.704606
_cell_angle_alpha 90.000000
_cell_angle_beta 90.000000
_cell_angle_gamma 90.000000
_cell_volume 1762.347796
_symmetry_space_group_name_H-M "P C C N"
_symmetry_group_IT_number 56
_symmetry_cell_setting 'orthorhombic'
loop_
_space_group_symop_operation_xyz
x,y,z
1/2-x,1/2-y,z
1/2+x,-y,1/2-z
-x,1/2+y,1/2-z
-x,-y,-z
1/2+x,1/2+y,-z
1/2-x,y,1/2+z
x,1/2-y,1/2+z
loop_
_atom_site_type_symbol
_atom_site_label
_atom_site_fract_x
_atom_site_fract_y
_atom_site_fract_z
Si Si1 0.992962 0.376478 0.201309
Si Si2 0.471175 0.076875 0.433804
Si Si3 0.823578 0.668622 0.005424
Si Si4 0.425805 0.726026 0.680364
Si Si5 0.313556 0.833150 0.403015
O O1 0.998476 0.441382 0.299053
O O2 0.133949 0.374760 0.111679
O O3 0.013880 0.301364 0.279399
O O4 0.833143 0.386186 0.129386
O O5 0.295892 0.110175 0.437458
O O6 0.592211 0.138111 0.486974
O O7 0.500000 0.000000 0.500000
O O8 0.750000 0.750000 0.976983
O O9 0.979866 0.682329 0.081316
O O10 0.250000 0.750000 0.641501
O O11 0.422934 0.670400 0.790551
O O12 0.250000 0.750000 0.432585
#
# Coordination Sequence:
#
# PCOD8229348 Si02
#       5
#     8   8   8   8   8
#     4  10  24  40  67  98 132 183 233 285 358 411
#     4  12  28  45  66 104 151 182 232 297 361 429
#     4  12  24  39  73 103 142 176 245 296 351 411
#     4   9  21  39  71 107 134 176 238 299 350 415
#     4   9  22  43  72  94 135 182 244 286 344 425
#
# _framework density 22.696995000000001
#
# number of rings (size 3 to 8) (size 9 to 14) (size 15 to 20)
#    0.000    2.000    2.000    2.400   11.200    3.200 
#    0.000    1.000    0.000    0.000    0.000    0.000 
#    0.000    0.000    0.000    0.000    0.000    0.000 
#
# Total GULP energy -495714.352768 kJ/mol
# GULP energy per Si atom -12392.858819 kJ/mol
# Density = 2.264534 g / cm^3
# Si number density = 22.696995 Si / 1000 Ang^3
#
#
#
# Elastic Constant Matrix: (Units=GPa)
#
#
# Indices 1 2 3 4 5 6 
#
# 1 114.2487 24.1671 54.9523 0.0000 0.0000 0.0000
# 2 24.1671 40.1796 -0.5904 0.0000 0.0000 0.0000
# 3 54.9523 -0.5904 136.3549 0.0000 0.0000 0.0000
# 4 0.0000 0.0000 0.0000 15.9689 0.0000 0.0000
# 5 0.0000 0.0000 0.0000 0.0000 20.5462 0.0000
# 6 0.0000 0.0000 0.0000 0.0000 0.0000 17.9782
#
#
#
# Elastic Compliance Matrix: (Units=1/GPa)
#
#
# Indices 1 2 3 4 5 6 
#
# 1 0.012940 -0.007860 -0.005249 0.000000 0.000000 0.000000
# 2 -0.007860 0.029665 0.003296 0.000000 0.000000 0.000000
# 3 -0.005249 0.003296 0.009464 0.000000 0.000000 0.000000
# 4 0.000000 0.000000 0.000000 0.062622 0.000000 0.000000
# 5 0.000000 0.000000 0.000000 0.000000 0.048671 0.000000
# 6 0.000000 0.000000 0.000000 0.000000 0.000000 0.055623
#
#
# Mechanical properties :
#
#
# Convention : Reuss Voigt Hill
#
# Bulk Modulus (GPa) = 30.82440 49.76015 40.29228
# Shear Modulus (GPa) = 20.04616 25.04894 22.54755
#
# Velocity S-wave (km/s) = 2.97511 3.32569 3.15527
# Velocity P-wave (km/s) = 5.04103 6.05955 5.57361
#
# Compressibility (1/GPa) = 0.03244183
#
# Stress axis : x y z
#
# Youngs Moduli (GPa) = 77.27782 33.71029 105.66898
#
# Poissons Ratio (x) = 0.26498 0.55467
# Poissons Ratio (y) = 0.60744 -0.34831
# Poissons Ratio (z) = 0.40564 -0.11112
#
# Static dielectric constant tensor:
#      x y z
#    x 4.140560 0.000000 0.000000 
#    y 0.000000 3.967890 0.000000 
#    z 0.000000 0.000000 4.578010 
# 
# 
# High freq. dielectric constant tensor:
#      x y z
#    x 1.897840 0.000000 0.000000 
#    y 0.000000 1.839660 0.000000 
#    z 0.000000 0.000000 1.926350 
# 
# From -- ./inp_files/6301.got.cif
#   From: 2010.03.12/outbox.cif.g09.slc.cpg/sg56_4_cif.got.tgz:6301.got - 2010.04.16 15:33:40.
