data_PCOD8229038
_publ_section_title
;
Structure prediction by ZEFSAII (Michael W. Deem and Ramdas Pophale) SiO2 
 PCOD8229038
Probable space group: P C C N
;
_chemical_formula_sum "Si O2"
_cell_formula_units_Z 60
_cell_length_a 17.609901
_cell_length_b 18.494582
_cell_length_c 8.834302
_cell_angle_alpha 90.000000
_cell_angle_beta 90.000000
_cell_angle_gamma 90.000000
_cell_volume 2877.224012
_symmetry_space_group_name_H-M "P C C N"
_symmetry_group_IT_number 56
_symmetry_cell_setting 'orthorhombic'
loop_
_space_group_symop_operation_xyz
x,y,z
1/2-x,1/2-y,z
1/2+x,-y,1/2-z
-x,1/2+y,1/2-z
-x,-y,-z
1/2+x,1/2+y,-z
1/2-x,y,1/2+z
x,1/2-y,1/2+z
loop_
_atom_site_type_symbol
_atom_site_label
_atom_site_fract_x
_atom_site_fract_y
_atom_site_fract_z
Si Si1 0.997009 0.687194 0.443558
Si Si2 0.971427 0.831322 0.601082
Si Si3 0.055480 0.053312 0.912242
Si Si4 0.168485 0.661124 0.530943
Si Si5 0.530087 0.439699 0.608802
Si Si6 0.750000 0.250000 0.721075
Si Si7 0.204229 0.004402 0.026645
Si Si8 0.653509 0.545797 0.659022
O O1 0.077317 0.665733 0.519574
O O2 0.955513 0.758096 0.509389
O O3 0.006078 0.689909 0.262677
O O4 0.938175 0.624613 0.485886
O O5 0.897960 0.884080 0.616139
O O6 0.036741 0.868606 0.496269
O O7 0.028657 0.072958 0.744511
O O8 0.139108 0.019111 0.901378
O O9 0.000000 0.000000 0.000000
O O10 0.189200 0.708121 0.677056
O O11 0.204665 0.692677 0.379112
O O12 0.202651 0.581316 0.556966
O O13 0.500000 0.500000 0.500000
O O14 0.609123 0.468915 0.672690
O O15 0.190083 0.052865 0.175952
O O16 0.283959 0.034515 0.968854
#
# Coordination Sequence:
#
# PCOD8229038 Si02
#       8
#     8   8   8   8   8   4   8   8
#     4  12  23  42  72  96 130 182 236 289 351 416
#     4  11  25  44  68 102 137 181 236 295 351 427
#     4  12  21  43  70  96 131 174 237 291 339 416
#     4  11  23  40  66  98 137 184 223 277 348 432
#     4  10  22  40  65  97 135 174 230 283 339 409
#     4  10  24  42  56 102 148 172 214 274 356 430
#     4  12  25  41  72  99 137 182 237 286 359 415
#     4  11  25  44  66 104 139 181 231 295 356 420
#
# _framework density 20.853434
#
# number of rings (size 3 to 8) (size 9 to 14) (size 15 to 20)
#    0.000    0.800    4.000    3.200    3.733    4.267 
#    0.000    0.667    0.000    0.000    0.000    0.000 
#    0.000    0.000    0.000    0.000    0.000    0.000 
#
# Total GULP energy -743812.009512 kJ/mol
# GULP energy per Si atom -12396.866825 kJ/mol
# Density = 2.080597 g / cm^3
# Si number density = 20.853434 Si / 1000 Ang^3
#
#
#
# Elastic Constant Matrix: (Units=GPa)
#
#
# Indices 1 2 3 4 5 6 
#
# 1 68.7944 18.7178 6.4479 0.0000 0.0000 0.0000
# 2 18.7178 124.2517 31.8613 0.0000 0.0000 0.0000
# 3 6.4479 31.8613 120.4776 0.0000 0.0000 0.0000
# 4 0.0000 0.0000 0.0000 38.2929 0.0000 0.0000
# 5 0.0000 0.0000 0.0000 0.0000 36.4821 0.0000
# 6 0.0000 0.0000 0.0000 0.0000 0.0000 28.0769
#
#
#
# Elastic Compliance Matrix: (Units=1/GPa)
#
#
# Indices 1 2 3 4 5 6 
#
# 1 0.015163 -0.002227 -0.000223 0.000000 0.000000 0.000000
# 2 -0.002227 0.008961 -0.002251 0.000000 0.000000 0.000000
# 3 -0.000223 -0.002251 0.008907 0.000000 0.000000 0.000000
# 4 0.000000 0.000000 0.000000 0.026114 0.000000 0.000000
# 5 0.000000 0.000000 0.000000 0.000000 0.027411 0.000000
# 6 0.000000 0.000000 0.000000 0.000000 0.000000 0.035616
#
#
# Mechanical properties :
#
#
# Convention : Reuss Voigt Hill
#
# Bulk Modulus (GPa) = 42.31797 47.50863 44.91330
# Shear Modulus (GPa) = 35.85514 37.67017 36.76265
#
# Velocity S-wave (km/s) = 4.15105 4.25482 4.20325
# Velocity P-wave (km/s) = 6.58119 6.85344 6.71869
#
# Compressibility (1/GPa) = 0.02363062
#
# Stress axis : x y z
#
# Youngs Moduli (GPa) = 65.95045 111.59736 112.26634
#
# Poissons Ratio (x) = 0.24854 0.02498
# Poissons Ratio (y) = 0.14688 0.25266
# Poissons Ratio (z) = 0.01468 0.25116
#
# Static dielectric constant tensor:
#      x y z
#    x 4.124010 0.000000 0.000000 
#    y 0.000000 5.341600 0.000000 
#    z 0.000000 0.000000 3.827180 
# 
# 
# High freq. dielectric constant tensor:
#      x y z
#    x 1.799280 0.000000 0.000000 
#    y 0.000000 1.820360 0.000000 
#    z 0.000000 0.000000 1.839340 
# 
# From -- ./inp_files/4157.got.cif
#   From: 2010.03.12/outbox.cif.g09.slc.cpg/sg56_3_cif.got.tgz:4157.got - 2010.04.16 15:33:40.
