data_PCOD8229997
_publ_section_title
;
Structure prediction by ZEFSAII (Michael W. Deem and Ramdas Pophale) SiO2 
 PCOD8229997
Probable space group: P B C M
;
_chemical_formula_sum "Si O2"
_cell_formula_units_Z 52
_cell_length_a 5.356159
_cell_length_b 13.754275
_cell_length_c 28.635219
_cell_angle_alpha 90.000000
_cell_angle_beta 90.000000
_cell_angle_gamma 90.000000
_cell_volume 2109.558984
_symmetry_space_group_name_H-M "P B C M"
_symmetry_group_IT_number 57
_symmetry_cell_setting 'orthorhombic'
loop_
_space_group_symop_operation_xyz
x,y,z
-x,-y,1/2+z
x,1/2-y,-z
-x,1/2+y,1/2-z
-x,-y,-z
x,y,1/2-z
-x,1/2+y,z
x,1/2-y,1/2+z
loop_
_atom_site_type_symbol
_atom_site_label
_atom_site_fract_x
_atom_site_fract_y
_atom_site_fract_z
Si Si1 0.371935 0.755782 0.352314
Si Si2 0.154681 0.030028 0.151209
Si Si3 0.873094 0.738952 0.102357
Si Si4 0.341308 0.963308 0.621845
Si Si5 0.139336 0.109966 0.250000
Si Si6 0.633475 0.268233 0.750000
Si Si7 0.748049 0.446588 0.984980
Si Si8 0.046482 0.750000 0.500000
O O1 0.622159 0.793126 0.379206
O O2 0.379639 0.637276 0.349174
O O3 0.353689 0.794097 0.298401
O O4 0.124553 0.792937 0.379436
O O5 0.125103 0.130623 0.122688
O O6 0.400927 0.975375 0.130257
O O7 0.178876 0.040915 0.206046
O O8 0.894031 0.973673 0.140915
O O9 0.870618 0.737232 0.045725
O O10 0.279647 0.933506 0.569728
O O11 0.355550 0.188996 0.250000
O O12 0.864486 0.156675 0.250000
O O13 0.767066 0.340262 0.007248
O O14 0.500000 0.500000 0.000000
O O15 0.000000 0.500000 0.000000
#
# Coordination Sequence:
#
# PCOD8229997 Si02
#       8
#     8   8   8   8   4   4   8   4
#     4  10  18  31  50  84 121 162 207 267 331 385
#     4  10  17  30  50  83 121 162 205 266 333 381
#     4  10  20  32  54  82 114 169 211 253 333 377
#     4  10  18  35  53  76 122 163 198 272 321 365
#     4  12  16  24  46  80 124 158 200 266 324 404
#     4  12  16  26  46  78 126 158 198 270 326 396
#     4  12  28  45  67  99 130 176 239 277 343 414
#     4  12  26  46  72  92 138 188 222 294 340 398
#
# _framework density 24.649701
#
# number of rings (size 3 to 8) (size 9 to 14) (size 15 to 20)
#    0.000    1.231    9.231    0.923    2.154    2.462 
#    0.000    0.000    0.000    0.000    0.000    0.000 
#    0.000   41.846    0.000    0.000    0.000    0.000 
#
# Total GULP energy -644325.214461 kJ/mol
# GULP energy per Si atom -12390.869509 kJ/mol
# Density = 2.459360 g / cm^3
# Si number density = 24.649701 Si / 1000 Ang^3
#
#
#
# Elastic Constant Matrix: (Units=GPa)
#
#
# Indices 1 2 3 4 5 6 
#
# 1 260.8888 39.5905 60.0704 0.0000 0.0000 0.0000
# 2 39.5905 45.5681 16.9817 0.0000 0.0000 0.0000
# 3 60.0704 16.9817 182.3440 0.0000 0.0000 0.0000
# 4 0.0000 0.0000 0.0000 4.4262 0.0000 0.0000
# 5 0.0000 0.0000 0.0000 0.0000 56.1608 0.0000
# 6 0.0000 0.0000 0.0000 0.0000 0.0000 29.6455
#
#
#
# Elastic Compliance Matrix: (Units=1/GPa)
#
#
# Indices 1 2 3 4 5 6 
#
# 1 0.004655 -0.003598 -0.001198 0.000000 0.000000 0.000000
# 2 -0.003598 0.025515 -0.001191 0.000000 0.000000 0.000000
# 3 -0.001198 -0.001191 0.005990 0.000000 0.000000 0.000000
# 4 0.000000 0.000000 0.000000 0.225928 0.000000 0.000000
# 5 0.000000 0.000000 0.000000 0.000000 0.017806 0.000000
# 6 0.000000 0.000000 0.000000 0.000000 0.000000 0.033732
#
#
# Mechanical properties :
#
#
# Convention : Reuss Voigt Hill
#
# Bulk Modulus (GPa) = 41.34741 80.23179 60.78960
# Shear Modulus (GPa) = 14.98525 42.85706 28.92115
#
# Velocity S-wave (km/s) = 2.46829 4.17423 3.42904
# Velocity P-wave (km/s) = 4.99337 7.47340 6.35553
#
# Compressibility (1/GPa) = 0.02418531
#
# Stress axis : x y z
#
# Youngs Moduli (GPa) = 214.82475 39.19299 166.94863
#
# Poissons Ratio (x) = 0.14100 0.20008
# Poissons Ratio (y) = 0.77288 0.19883
# Poissons Ratio (z) = 0.25746 0.04668
#
# Static dielectric constant tensor:
#      x y z
#    x 5.986260 0.000000 0.000000 
#    y 0.000000 3.729140 0.000000 
#    z 0.000000 0.000000 4.938550 
# 
# 
# High freq. dielectric constant tensor:
#      x y z
#    x 2.019720 0.000000 0.000000 
#    y 0.000000 1.920510 0.000000 
#    z 0.000000 0.000000 1.993680 
# 
# From -- ./inp_files/28062.got.cif
#   From: 2010.03.12/outbox.cif.g09.slc.cpg/sg57_15_cif.got.tgz:28062.got - 2010.04.16 15:48:40.
