data_PCOD8229815
_publ_section_title
;
Structure prediction by ZEFSAII (Michael W. Deem and Ramdas Pophale) SiO2 
 PCOD8229815
Probable space group: P C C N
;
_chemical_formula_sum "Si O2"
_cell_formula_units_Z 60
_cell_length_a 16.526968
_cell_length_b 14.744628
_cell_length_c 10.820826
_cell_angle_alpha 90.000000
_cell_angle_beta 90.000000
_cell_angle_gamma 90.000000
_cell_volume 2636.862110
_symmetry_space_group_name_H-M "P C C N"
_symmetry_group_IT_number 56
_symmetry_cell_setting 'orthorhombic'
loop_
_space_group_symop_operation_xyz
x,y,z
1/2-x,1/2-y,z
1/2+x,-y,1/2-z
-x,1/2+y,1/2-z
-x,-y,-z
1/2+x,1/2+y,-z
1/2-x,y,1/2+z
x,1/2-y,1/2+z
loop_
_atom_site_type_symbol
_atom_site_label
_atom_site_fract_x
_atom_site_fract_y
_atom_site_fract_z
Si Si1 0.882077 0.621109 0.913729
Si Si2 0.648834 0.907792 0.536961
Si Si3 0.993432 0.647186 0.686556
Si Si4 0.498423 0.647031 0.638694
Si Si5 0.102126 0.014541 0.215151
Si Si6 0.750000 0.750000 0.966583
Si Si7 0.249834 0.947760 0.343970
Si Si8 0.322569 0.921634 0.089798
O O1 0.945279 0.612349 0.804743
O O2 0.820572 0.704078 0.884055
O O3 0.828410 0.530472 0.923562
O O4 0.932220 0.644104 0.036328
O O5 0.558696 0.873497 0.564859
O O6 0.711929 0.826072 0.555327
O O7 0.650675 0.941882 0.397311
O O8 0.674213 0.986907 0.630734
O O9 0.013213 0.753350 0.696454
O O10 0.073936 0.586849 0.677692
O O11 0.526154 0.577128 0.745395
O O12 0.412097 0.619647 0.582651
O O13 0.167698 0.005032 0.323435
O O14 0.276141 0.893469 0.218314
O O15 0.229812 0.888203 0.468713
#
# Coordination Sequence:
#
# PCOD8229815 Si02
#       8
#     8   8   8   8   8   4   8   8
#     4  12  22  42  66 105 142 183 226 284 368 433
#     4  12  24  41  66 105 143 178 226 296 364 426
#     4  12  27  43  70 102 140 189 241 288 359 433
#     4  12  25  46  71 102 143 192 240 295 355 440
#     4  12  24  46  70  99 146 191 238 293 360 431
#     4  12  22  38  64 106 142 168 222 294 364 436
#     4  12  23  44  73 100 138 192 231 294 365 416
#     4  12  24  44  73 100 141 189 235 293 361 425
#
# _framework density 22.754317
#
# number of rings (size 3 to 8) (size 9 to 14) (size 15 to 20)
#    0.000    0.000    8.000    2.400    0.000    0.533 
#    0.000    0.667    2.933    0.000    0.000    0.000 
#    0.000    0.000    0.000    0.000    0.000    0.000 
#
# Total GULP energy -744000.001462 kJ/mol
# GULP energy per Si atom -12400.000024 kJ/mol
# Density = 2.270253 g / cm^3
# Si number density = 22.754317 Si / 1000 Ang^3
#
#
#
# Elastic Constant Matrix: (Units=GPa)
#
#
# Indices 1 2 3 4 5 6 
#
# 1 105.6851 35.6019 30.6869 0.0000 0.0000 0.0000
# 2 35.6019 78.3865 18.0530 0.0000 0.0000 0.0000
# 3 30.6869 18.0530 123.1767 0.0000 0.0000 0.0000
# 4 0.0000 0.0000 0.0000 12.4177 0.0000 0.0000
# 5 0.0000 0.0000 0.0000 0.0000 36.1232 0.0000
# 6 0.0000 0.0000 0.0000 0.0000 0.0000 39.0771
#
#
#
# Elastic Compliance Matrix: (Units=1/GPa)
#
#
# Indices 1 2 3 4 5 6 
#
# 1 0.011728 -0.004816 -0.002216 0.000000 0.000000 0.000000
# 2 -0.004816 0.015181 -0.001025 0.000000 0.000000 0.000000
# 3 -0.002216 -0.001025 0.008821 0.000000 0.000000 0.000000
# 4 0.000000 0.000000 0.000000 0.080530 0.000000 0.000000
# 5 0.000000 0.000000 0.000000 0.000000 0.027683 0.000000
# 6 0.000000 0.000000 0.000000 0.000000 0.000000 0.025590
#
#
# Mechanical properties :
#
#
# Convention : Reuss Voigt Hill
#
# Bulk Modulus (GPa) = 50.98137 52.88132 51.93135
# Shear Modulus (GPa) = 26.01647 32.38405 29.20026
#
# Velocity S-wave (km/s) = 3.38504 3.77663 3.58618
# Velocity P-wave (km/s) = 6.14262 6.50445 6.32612
#
# Compressibility (1/GPa) = 0.01961501
#
# Stress axis : x y z
#
# Youngs Moduli (GPa) = 85.26659 65.87244 113.36984
#
# Poissons Ratio (x) = 0.31726 0.25121
# Poissons Ratio (y) = 0.41067 0.11621
# Poissons Ratio (z) = 0.18894 0.06752
#
# Static dielectric constant tensor:
#      x y z
#    x 4.096630 0.000000 0.000000 
#    y 0.000000 3.855900 0.000000 
#    z 0.000000 0.000000 4.101120 
# 
# 
# High freq. dielectric constant tensor:
#      x y z
#    x 1.909060 0.000000 0.000000 
#    y 0.000000 1.868320 0.000000 
#    z 0.000000 0.000000 1.901270 
# 
# From -- ./inp_files/8032.got.cif
#   From: 2010.03.12/outbox.cif.g09.slc.cpg/sg56_5_cif.got.tgz:8032.got - 2010.04.16 15:33:40.
