data_PCOD8229756
_publ_section_title
;
Structure prediction by ZEFSAII (Michael W. Deem and Ramdas Pophale) SiO2 
 PCOD8229756
Probable space group: P C C N
;
_chemical_formula_sum "Si O2"
_cell_formula_units_Z 48
_cell_length_a 10.095223
_cell_length_b 17.540330
_cell_length_c 12.379674
_cell_angle_alpha 90.000000
_cell_angle_beta 90.000000
_cell_angle_gamma 90.000000
_cell_volume 2192.112734
_symmetry_space_group_name_H-M "P C C N"
_symmetry_group_IT_number 56
_symmetry_cell_setting 'orthorhombic'
loop_
_space_group_symop_operation_xyz
x,y,z
1/2-x,1/2-y,z
1/2+x,-y,1/2-z
-x,1/2+y,1/2-z
-x,-y,-z
1/2+x,1/2+y,-z
1/2-x,y,1/2+z
x,1/2-y,1/2+z
loop_
_atom_site_type_symbol
_atom_site_label
_atom_site_fract_x
_atom_site_fract_y
_atom_site_fract_z
Si Si1 0.389084 0.635041 0.002907
Si Si2 0.012480 0.825126 0.785323
Si Si3 0.313093 0.517594 0.459104
Si Si4 0.445227 0.510459 0.682572
Si Si5 0.250000 0.250000 0.289677
Si Si6 0.750000 0.250000 0.844506
Si Si7 0.863821 0.901180 0.130709
O O1 0.461157 0.685675 0.912654
O O2 0.302165 0.577010 0.931256
O O3 0.292980 0.681245 0.080125
O O4 0.494961 0.588942 0.073645
O O5 0.122960 0.774877 0.725004
O O6 0.863149 0.793747 0.776818
O O7 0.013692 0.912923 0.745705
O O8 0.350225 0.532072 0.583377
O O9 0.429178 0.531206 0.372589
O O10 0.254148 0.433096 0.444071
O O11 0.371626 0.448754 0.757572
O O12 0.330643 0.187880 0.358475
#
# Coordination Sequence:
#
# PCOD8229756 Si02
#       7
#     8   8   8   8   4   4   8
#     4  12  27  44  77 106 140 195 250 300 374 444
#     4  12  26  50  73 106 151 192 245 311 375 445
#     4  11  25  45  73 106 141 189 251 301 368 444
#     4  11  26  45  76 104 143 194 244 306 369 441
#     4  12  28  50  70 110 152 194 230 320 378 438
#     4  12  26  50  74 106 146 190 250 310 372 440
#     4  12  27  46  75 106 148 187 247 301 374 445
#
# _framework density 21.896684
#
# number of rings (size 3 to 8) (size 9 to 14) (size 15 to 20)
#    0.000    0.333    6.667    1.000    7.000    2.000 
#    0.000    0.000    0.000    0.000    0.000    0.000 
#    0.000    0.000    0.000    0.000    0.000    0.000 
#
# Total GULP energy -595223.017183 kJ/mol
# GULP energy per Si atom -12400.479525 kJ/mol
# Density = 2.184685 g / cm^3
# Si number density = 21.896684 Si / 1000 Ang^3
#
#
#
# Elastic Constant Matrix: (Units=GPa)
#
#
# Indices 1 2 3 4 5 6 
#
# 1 125.3017 32.7344 41.5505 0.0000 0.0000 0.0000
# 2 32.7344 100.5308 25.5375 0.0000 0.0000 0.0000
# 3 41.5505 25.5375 91.7526 0.0000 0.0000 0.0000
# 4 0.0000 0.0000 0.0000 23.3343 0.0000 0.0000
# 5 0.0000 0.0000 0.0000 0.0000 -0.3266 0.0000
# 6 0.0000 0.0000 0.0000 0.0000 0.0000 50.2988
#
#
#
# Elastic Compliance Matrix: (Units=1/GPa)
#
#
# Indices 1 2 3 4 5 6 
#
# 1 0.009834 -0.002228 -0.003833 0.000000 0.000000 0.000000
# 2 -0.002228 0.011209 -0.002111 0.000000 0.000000 0.000000
# 3 -0.003833 -0.002111 0.013222 0.000000 0.000000 0.000000
# 4 0.000000 0.000000 0.000000 0.042855 0.000000 0.000000
# 5 0.000000 0.000000 0.000000 0.000000 -3.061827 0.000000
# 6 0.000000 0.000000 0.000000 0.000000 0.000000 0.019881
#
#
# Mechanical properties :
#
#
# Convention : Reuss Voigt Hill
#
# Bulk Modulus (GPa) = 55.80113 57.46997 56.63555
# Shear Modulus (GPa) = -1.69923 29.17883 13.73980
#
# Velocity S-wave (km/s) = -0.88188 3.65440 2.50768
# Velocity P-wave (km/s) = 4.94997 6.64147 5.85710
#
# Compressibility (1/GPa) = 0.01792079
#
# Stress axis : x y z
#
# Youngs Moduli (GPa) = 101.68844 89.21441 75.63052
#
# Poissons Ratio (x) = 0.19880 0.28990
# Poissons Ratio (y) = 0.22660 0.15963
# Poissons Ratio (z) = 0.38978 0.18830
#
# Static dielectric constant tensor:
#      x y z
#    x 4.548160 0.000000 0.000000 
#    y 0.000000 3.869650 0.000000 
#    z 0.000000 0.000000 3.851650 
# 
# 
# High freq. dielectric constant tensor:
#      x y z
#    x 1.883090 0.000000 0.000000 
#    y 0.000000 1.859670 0.000000 
#    z 0.000000 0.000000 1.861370 
# 
# From -- ./inp_files/7202.got.cif
#   From: 2010.03.12/outbox.cif.g09.slc.cpg/sg56_4_cif.got.tgz:7202.got - 2010.04.16 15:33:40.
