data_PCOD8229037
_publ_section_title
;
Structure prediction by ZEFSAII (Michael W. Deem and Ramdas Pophale) SiO2 
 PCOD8229037
Probable space group: P C C N
;
_chemical_formula_sum "Si O2"
_cell_formula_units_Z 60
_cell_length_a 11.503032
_cell_length_b 9.274989
_cell_length_c 25.421728
_cell_angle_alpha 90.000000
_cell_angle_beta 90.000000
_cell_angle_gamma 90.000000
_cell_volume 2712.256751
_symmetry_space_group_name_H-M "P C C N"
_symmetry_group_IT_number 56
_symmetry_cell_setting 'orthorhombic'
loop_
_space_group_symop_operation_xyz
x,y,z
1/2-x,1/2-y,z
1/2+x,-y,1/2-z
-x,1/2+y,1/2-z
-x,-y,-z
1/2+x,1/2+y,-z
1/2-x,y,1/2+z
x,1/2-y,1/2+z
loop_
_atom_site_type_symbol
_atom_site_label
_atom_site_fract_x
_atom_site_fract_y
_atom_site_fract_z
Si Si1 0.428618 0.541342 0.893774
Si Si2 0.324689 0.107799 0.487266
Si Si3 0.569246 0.287158 0.868561
Si Si4 0.147007 0.559262 0.046847
Si Si5 0.509814 0.290021 0.539579
Si Si6 0.570950 0.056658 0.728185
Si Si7 0.890400 0.745382 0.218040
Si Si8 0.250000 0.750000 0.712787
O O1 0.328375 0.479528 0.932337
O O2 0.538115 0.431224 0.901055
O O3 0.450365 0.707821 0.908287
O O4 0.395429 0.548632 0.833139
O O5 0.250000 0.250000 0.477160
O O6 0.450296 0.164822 0.504545
O O7 0.274758 0.003724 0.533802
O O8 0.634798 0.165876 0.903672
O O9 0.450526 0.227465 0.840136
O O10 0.658175 0.336203 0.823283
O O11 0.069164 0.420679 0.058754
O O12 0.113663 0.644505 0.994173
O O13 0.444668 0.122512 0.743580
O O14 0.680477 0.135791 0.753115
O O15 0.568788 0.891647 0.747104
O O16 0.750000 0.750000 0.213085
#
# Coordination Sequence:
#
# PCOD8229037 Si02
#       8
#     8   8   8   8   8   8   8   4
#     4  11  23  40  65  97 129 171 228 280 331 413
#     4  10  22  40  65  94 137 175 221 283 344 407
#     4  10  23  42  68  99 129 185 230 282 348 421
#     4  10  22  41  64  92 133 181 217 276 344 406
#     4  10  22  41  58  95 135 165 219 276 328 411
#     4  10  25  45  70 102 137 178 234 289 351 417
#     4  10  24  46  73 101 138 184 229 292 356 410
#     4  10  24  44  68  94 140 174 230 296 348 410
#
# _framework density 22.121797999999998
#
# number of rings (size 3 to 8) (size 9 to 14) (size 15 to 20)
#    0.000    1.867    1.333    0.400    7.467    5.867 
#    0.000    2.000    0.000    0.000    0.000    0.000 
#    0.000    0.000    0.000    0.000    0.000    0.000 
#
# Total GULP energy -743323.945578 kJ/mol
# GULP energy per Si atom -12388.732426 kJ/mol
# Density = 2.207145 g / cm^3
# Si number density = 22.121798 Si / 1000 Ang^3
#
#
#
# Elastic Constant Matrix: (Units=GPa)
#
#
# Indices 1 2 3 4 5 6 
#
# 1 100.8494 35.8679 39.3948 0.0000 0.0000 0.0000
# 2 35.8679 139.1262 45.9225 0.0000 0.0000 0.0000
# 3 39.3948 45.9225 86.6625 0.0000 0.0000 0.0000
# 4 0.0000 0.0000 0.0000 36.3516 0.0000 0.0000
# 5 0.0000 0.0000 0.0000 0.0000 14.8819 0.0000
# 6 0.0000 0.0000 0.0000 0.0000 0.0000 26.0117
#
#
#
# Elastic Compliance Matrix: (Units=1/GPa)
#
#
# Indices 1 2 3 4 5 6 
#
# 1 0.012348 -0.001613 -0.004759 0.000000 0.000000 0.000000
# 2 -0.001613 0.008922 -0.003995 0.000000 0.000000 0.000000
# 3 -0.004759 -0.003995 0.015819 0.000000 0.000000 0.000000
# 4 0.000000 0.000000 0.000000 0.027509 0.000000 0.000000
# 5 0.000000 0.000000 0.000000 0.000000 0.067195 0.000000
# 6 0.000000 0.000000 0.000000 0.000000 0.000000 0.038444
#
#
# Mechanical properties :
#
#
# Convention : Reuss Voigt Hill
#
# Bulk Modulus (GPa) = 61.13544 63.22316 62.17930
# Shear Modulus (GPa) = 25.45532 29.14591 27.30062
#
# Velocity S-wave (km/s) = 3.39586 3.63370 3.51679
# Velocity P-wave (km/s) = 6.56290 6.80049 6.68275
#
# Compressibility (1/GPa) = 0.01635712
#
# Stress axis : x y z
#
# Youngs Moduli (GPa) = 80.98323 112.08183 63.21528
#
# Poissons Ratio (x) = 0.18076 0.30082
# Poissons Ratio (y) = 0.13061 0.25252
# Poissons Ratio (z) = 0.38537 0.44773
#
# Static dielectric constant tensor:
#      x y z
#    x 4.076570 0.000000 0.000000 
#    y 0.000000 4.333800 0.000000 
#    z 0.000000 0.000000 3.894960 
# 
# 
# High freq. dielectric constant tensor:
#      x y z
#    x 1.866870 0.000000 0.000000 
#    y 0.000000 1.885330 0.000000 
#    z 0.000000 0.000000 1.860660 
# 
# From -- ./inp_files/22321.got.cif
#   From: 2010.03.12/outbox.cif.g09.slc.cpg/sg56_12_cif.got.tgz:22321.got - 2010.04.16 15:33:40.
