data_PCOD8229615
_publ_section_title
;
Structure prediction by ZEFSAII (Michael W. Deem and Ramdas Pophale) SiO2 
 PCOD8229615
Probable space group: P C C N
;
_chemical_formula_sum "Si O2"
_cell_formula_units_Z 64
_cell_length_a 8.479504
_cell_length_b 22.517547
_cell_length_c 13.509706
_cell_angle_alpha 90.000000
_cell_angle_beta 90.000000
_cell_angle_gamma 90.000000
_cell_volume 2579.511244
_symmetry_space_group_name_H-M "P C C N"
_symmetry_group_IT_number 56
_symmetry_cell_setting 'orthorhombic'
loop_
_space_group_symop_operation_xyz
x,y,z
1/2-x,1/2-y,z
1/2+x,-y,1/2-z
-x,1/2+y,1/2-z
-x,-y,-z
1/2+x,1/2+y,-z
1/2-x,y,1/2+z
x,1/2-y,1/2+z
loop_
_atom_site_type_symbol
_atom_site_label
_atom_site_fract_x
_atom_site_fract_y
_atom_site_fract_z
Si Si1 0.529926 0.166406 0.588691
Si Si2 0.916910 0.131874 0.409170
Si Si3 0.072988 0.254668 0.946768
Si Si4 0.704891 0.427863 0.586659
Si Si5 0.895821 0.581330 0.263249
Si Si6 0.426531 0.238170 0.226177
Si Si7 0.610702 0.522996 0.173594
Si Si8 0.099478 0.879819 0.212376
O O1 0.498271 0.190143 0.476712
O O2 0.690564 0.131612 0.583126
O O3 0.396822 0.124935 0.640646
O O4 0.544750 0.227808 0.651887
O O5 0.899254 0.077221 0.487227
O O6 0.759016 0.142956 0.341234
O O7 0.967499 0.188370 0.479599
O O8 0.061523 0.116945 0.336615
O O9 0.250000 0.250000 0.989759
O O10 0.070179 0.268901 0.831564
O O11 0.795013 0.491883 0.582032
O O12 0.623576 0.424146 0.693938
O O13 0.723948 0.553483 0.254695
O O14 0.027231 0.531125 0.271609
O O15 0.250000 0.250000 0.182948
O O16 0.485606 0.171318 0.244589
O O17 0.493442 0.575607 0.135854
#
# Coordination Sequence:
#
# PCOD8229615 Si02
#       8
#     8   8   8   8   8   8   8   8
#     4  11  22  44  69  98 139 187 228 294 358 421
#     4  12  25  46  71 105 143 184 241 297 358 428
#     4  11  25  43  65 107 145 181 239 290 351 437
#     4  11  25  43  69 107 136 183 242 295 359 423
#     4  11  22  46  73 101 141 187 240 298 357 424
#     4  11  23  40  66 101 139 187 234 288 357 423
#     4  11  23  46  73 105 142 189 243 294 355 431
#     4  12  24  44  73 101 142 194 234 295 365 425
#
# _framework density 24.810901999999999
#
# number of rings (size 3 to 8) (size 9 to 14) (size 15 to 20)
#    0.000    0.750    5.000    2.625    1.750    6.500 
#    0.000    1.250    0.000    0.000    0.000    0.000 
#    0.000    0.000    0.000    0.000    0.000    0.000 
#
# Total GULP energy -792836.372940 kJ/mol
# GULP energy per Si atom -12388.068327 kJ/mol
# Density = 2.475443 g / cm^3
# Si number density = 24.810902 Si / 1000 Ang^3
#
#
#
# Elastic Constant Matrix: (Units=GPa)
#
#
# Indices 1 2 3 4 5 6 
#
# 1 76.1541 36.8253 7.3704 0.0000 0.0000 0.0000
# 2 36.8253 129.3658 -1.4239 0.0000 0.0000 0.0000
# 3 7.3704 -1.4239 44.4994 0.0000 0.0000 0.0000
# 4 0.0000 0.0000 0.0000 33.3521 0.0000 0.0000
# 5 0.0000 0.0000 0.0000 0.0000 -3.0030 0.0000
# 6 0.0000 0.0000 0.0000 0.0000 0.0000 50.3596
#
#
#
# Elastic Compliance Matrix: (Units=1/GPa)
#
#
# Indices 1 2 3 4 5 6 
#
# 1 0.015549 -0.004456 -0.002718 0.000000 0.000000 0.000000
# 2 -0.004456 0.009010 0.001026 0.000000 0.000000 0.000000
# 3 -0.002718 0.001026 0.022955 0.000000 0.000000 0.000000
# 4 0.000000 0.000000 0.000000 0.029983 0.000000 0.000000
# 5 0.000000 0.000000 0.000000 0.000000 -0.333002 0.000000
# 6 0.000000 0.000000 0.000000 0.000000 0.000000 0.019857
#
#
# Mechanical properties :
#
#
# Convention : Reuss Voigt Hill
#
# Bulk Modulus (GPa) = 28.39406 37.28478 32.83942
# Shear Modulus (GPa) = -23.62804 29.95825 3.16510
#
# Velocity S-wave (km/s) = -3.08932 3.47863 1.13069
# Velocity P-wave (km/s) = 1.12080 5.58522 3.86901
#
# Compressibility (1/GPa) = 0.03521863
#
# Stress axis : x y z
#
# Youngs Moduli (GPa) = 64.31224 110.99030 43.56307
#
# Poissons Ratio (x) = 0.49459 0.11840
# Poissons Ratio (y) = 0.28658 -0.04471
# Poissons Ratio (z) = 0.17480 -0.11392
#
# Static dielectric constant tensor:
#      x y z
#    x 4.537630 0.000000 0.000000 
#    y 0.000000 4.716260 0.000000 
#    z 0.000000 0.000000 4.464750 
# 
# 
# High freq. dielectric constant tensor:
#      x y z
#    x 1.976240 0.000000 0.000000 
#    y 0.000000 2.005070 0.000000 
#    z 0.000000 0.000000 1.975560 
# 
# From -- ./inp_files/11039.got.cif
#   From: 2010.03.12/outbox.cif.g09.slc.cpg/sg56_6_cif.got.tgz:11039.got - 2010.04.16 15:33:40.
