data_PCOD8229415
_publ_section_title
;
Structure prediction by ZEFSAII (Michael W. Deem and Ramdas Pophale) SiO2 
 PCOD8229415
Probable space group: P C C N
;
_chemical_formula_sum "Si O2"
_cell_formula_units_Z 40
_cell_length_a 6.145260
_cell_length_b 16.346588
_cell_length_c 16.752643
_cell_angle_alpha 90.000000
_cell_angle_beta 90.000000
_cell_angle_gamma 90.000000
_cell_volume 1682.870559
_symmetry_space_group_name_H-M "P C C N"
_symmetry_group_IT_number 56
_symmetry_cell_setting 'orthorhombic'
loop_
_space_group_symop_operation_xyz
x,y,z
1/2-x,1/2-y,z
1/2+x,-y,1/2-z
-x,1/2+y,1/2-z
-x,-y,-z
1/2+x,1/2+y,-z
1/2-x,y,1/2+z
x,1/2-y,1/2+z
loop_
_atom_site_type_symbol
_atom_site_label
_atom_site_fract_x
_atom_site_fract_y
_atom_site_fract_z
Si Si1 0.572782 0.373405 0.086999
Si Si2 0.938212 0.366191 0.952073
Si Si3 0.614852 0.107941 0.229443
Si Si4 0.775327 0.988221 0.363441
Si Si5 0.250000 0.750000 0.175799
Si Si6 0.750000 0.750000 0.962773
O O1 0.742722 0.368370 0.015199
O O2 0.676387 0.386277 0.173033
O O3 0.401272 0.448136 0.076769
O O4 0.449427 0.285399 0.088515
O O5 0.949848 0.458350 0.915422
O O6 0.162002 0.329750 0.987698
O O7 0.894022 0.308367 0.877792
O O8 0.403219 0.086466 0.177844
O O9 0.584369 0.196097 0.270788
O O10 0.651619 0.040067 0.296837
#
# Coordination Sequence:
#
# PCOD8229415 Si02
#       6
#     8   8   8   8   4   4
#     4  12  25  45  72 104 146 186 244 299 368 438
#     4  11  25  48  71 105 141 190 246 304 356 438
#     4  11  25  45  69 106 142 189 238 296 365 440
#     4  11  25  46  72 106 144 191 239 302 369 432
#     4  10  24  46  68  94 154 184 234 304 354 432
#     4  12  26  44  74 106 136 190 244 302 362 422
#
# _framework density 23.768910999999999
#
# number of rings (size 3 to 8) (size 9 to 14) (size 15 to 20)
#    0.000    0.800    4.000    1.800    5.600    6.400 
#    0.000    0.000    0.000    0.000    0.000    0.000 
#    0.000    0.000    0.000    0.000    0.000    0.000 
#
# Total GULP energy -495859.973210 kJ/mol
# GULP energy per Si atom -12396.499330 kJ/mol
# Density = 2.371481 g / cm^3
# Si number density = 23.768911 Si / 1000 Ang^3
#
#
#
# Elastic Constant Matrix: (Units=GPa)
#
#
# Indices 1 2 3 4 5 6 
#
# 1 89.3627 44.9269 44.7088 0.0000 0.0000 0.0000
# 2 44.9269 118.7495 68.4878 0.0000 0.0000 0.0000
# 3 44.7088 68.4878 89.2134 0.0000 0.0000 0.0000
# 4 0.0000 0.0000 0.0000 44.1200 0.0000 0.0000
# 5 0.0000 0.0000 0.0000 0.0000 6.6674 0.0000
# 6 0.0000 0.0000 0.0000 0.0000 0.0000 44.2585
#
#
#
# Elastic Compliance Matrix: (Units=1/GPa)
#
#
# Indices 1 2 3 4 5 6 
#
# 1 0.015324 -0.002456 -0.005794 0.000000 0.000000 0.000000
# 2 -0.002456 0.015506 -0.010673 0.000000 0.000000 0.000000
# 3 -0.005794 -0.010673 0.022306 0.000000 0.000000 0.000000
# 4 0.000000 0.000000 0.000000 0.022665 0.000000 0.000000
# 5 0.000000 0.000000 0.000000 0.000000 0.149985 0.000000
# 6 0.000000 0.000000 0.000000 0.000000 0.000000 0.022595
#
#
# Mechanical properties :
#
#
# Convention : Reuss Voigt Hill
#
# Bulk Modulus (GPa) = 65.40151 68.17472 66.78812
# Shear Modulus (GPa) = 17.16312 28.28930 22.72621
#
# Velocity S-wave (km/s) = 2.69007 3.45364 3.09549
# Velocity P-wave (km/s) = 6.10115 6.68192 6.39813
#
# Compressibility (1/GPa) = 0.01529017
#
# Stress axis : x y z
#
# Youngs Moduli (GPa) = 65.25759 64.49294 44.83072
#
# Poissons Ratio (x) = 0.15838 0.25976
# Poissons Ratio (y) = 0.16026 0.47847
# Poissons Ratio (z) = 0.37812 0.68831
#
# Static dielectric constant tensor:
#      x y z
#    x 4.013640 0.000000 0.000000 
#    y 0.000000 4.832960 0.000000 
#    z 0.000000 0.000000 4.503260 
# 
# 
# High freq. dielectric constant tensor:
#      x y z
#    x 1.922050 0.000000 0.000000 
#    y 0.000000 1.962940 0.000000 
#    z 0.000000 0.000000 1.951020 
# 
# From -- ./inp_files/13857.got.cif
#   From: 2010.03.12/outbox.cif.g09.slc.cpg/sg56_7_cif.got.tgz:13857.got - 2010.04.16 15:33:40.
