data_PCOD8229435
_publ_section_title
;
Structure prediction by ZEFSAII (Michael W. Deem and Ramdas Pophale) SiO2 
 PCOD8229435
Probable space group: P C C N
;
_chemical_formula_sum "Si O2"
_cell_formula_units_Z 40
_cell_length_a 9.176195
_cell_length_b 13.578129
_cell_length_c 14.046269
_cell_angle_alpha 90.000000
_cell_angle_beta 90.000000
_cell_angle_gamma 90.000000
_cell_volume 1750.102744
_symmetry_space_group_name_H-M "P C C N"
_symmetry_group_IT_number 56
_symmetry_cell_setting 'orthorhombic'
loop_
_space_group_symop_operation_xyz
x,y,z
1/2-x,1/2-y,z
1/2+x,-y,1/2-z
-x,1/2+y,1/2-z
-x,-y,-z
1/2+x,1/2+y,-z
1/2-x,y,1/2+z
x,1/2-y,1/2+z
loop_
_atom_site_type_symbol
_atom_site_label
_atom_site_fract_x
_atom_site_fract_y
_atom_site_fract_z
Si Si1 0.853114 0.030175 0.049796
Si Si2 0.378700 0.631202 0.571039
Si Si3 0.800861 0.644000 0.140058
Si Si4 0.750000 0.250000 0.265930
Si Si5 0.946507 0.239730 0.102797
Si Si6 0.250000 0.250000 0.677602
O O1 0.893653 0.126880 0.110015
O O2 0.815959 0.940109 0.118884
O O3 0.716084 0.043704 0.976644
O O4 0.000000 0.000000 0.000000
O O5 0.544076 0.604952 0.600505
O O6 0.298067 0.660485 0.667617
O O7 0.382532 0.720429 0.495675
O O8 0.750000 0.750000 0.094670
O O9 0.797379 0.657580 0.255279
O O10 0.879563 0.290464 0.197720
O O11 0.116564 0.266229 0.105723
#
# Coordination Sequence:
#
# PCOD8229435 Si02
#       6
#     8   8   8   4   8   4
#     4  12  26  45  70 114 142 193 250 297 366 446
#     4  12  24  46  77 104 144 197 235 311 369 435
#     4  10  24  48  69 101 148 188 238 301 366 423
#     4  12  20  48  76 100 144 184 248 298 366 430
#     4  12  25  47  76 105 143 191 246 297 374 438
#     4  10  26  46  70 106 140 196 236 306 368 434
#
# _framework density 22.855802000000001
#
# number of rings (size 3 to 8) (size 9 to 14) (size 15 to 20)
#    0.600    0.000    6.000    1.800    7.000    0.000 
#    7.200    0.000    0.000    0.000    0.000    0.000 
#    0.000    0.000    0.000    0.000    0.000    0.000 
#
# Total GULP energy -495675.745946 kJ/mol
# GULP energy per Si atom -12391.893649 kJ/mol
# Density = 2.280378 g / cm^3
# Si number density = 22.855802 Si / 1000 Ang^3
#
#
#
# Elastic Constant Matrix: (Units=GPa)
#
#
# Indices 1 2 3 4 5 6 
#
# 1 173.3132 36.4446 38.1836 0.0000 0.0000 0.0000
# 2 36.4446 80.3311 22.4956 0.0000 0.0000 0.0000
# 3 38.1836 22.4956 108.1033 0.0000 0.0000 0.0000
# 4 0.0000 0.0000 0.0000 13.2155 0.0000 0.0000
# 5 0.0000 0.0000 0.0000 0.0000 47.2493 0.0000
# 6 0.0000 0.0000 0.0000 0.0000 0.0000 39.8389
#
#
#
# Elastic Compliance Matrix: (Units=1/GPa)
#
#
# Indices 1 2 3 4 5 6 
#
# 1 0.006707 -0.002527 -0.001843 0.000000 0.000000 0.000000
# 2 -0.002527 0.014171 -0.002056 0.000000 0.000000 0.000000
# 3 -0.001843 -0.002056 0.010329 0.000000 0.000000 0.000000
# 4 0.000000 0.000000 0.000000 0.075668 0.000000 0.000000
# 5 0.000000 0.000000 0.000000 0.000000 0.021164 0.000000
# 6 0.000000 0.000000 0.000000 0.000000 0.000000 0.025101
#
#
# Mechanical properties :
#
#
# Convention : Reuss Voigt Hill
#
# Bulk Modulus (GPa) = 54.48240 61.77725 58.12983
# Shear Modulus (GPa) = 29.05078 37.70233 33.37656
#
# Velocity S-wave (km/s) = 3.56904 4.06590 3.82555
# Velocity P-wave (km/s) = 6.39322 7.00927 6.70832
#
# Compressibility (1/GPa) = 0.01835455
#
# Stress axis : x y z
#
# Youngs Moduli (GPa) = 149.09016 70.56825 96.81094
#
# Poissons Ratio (x) = 0.17831 0.17845
# Poissons Ratio (y) = 0.37672 0.19908
# Poissons Ratio (z) = 0.27482 0.14511
#
# Static dielectric constant tensor:
#      x y z
#    x 4.316700 0.000000 0.000000 
#    y 0.000000 1.631590 0.000000 
#    z 0.000000 0.000000 4.089330 
# 
# 
# High freq. dielectric constant tensor:
#      x y z
#    x 1.929030 0.000000 0.000000 
#    y 0.000000 1.864840 0.000000 
#    z 0.000000 0.000000 1.906380 
# 
# From -- ./inp_files/10427.got.cif
#   From: 2010.03.12/outbox.cif.g09.slc.cpg/sg56_6_cif.got.tgz:10427.got - 2010.04.16 15:33:40.
