data_PCOD8229422
_publ_section_title
;
Structure prediction by ZEFSAII (Michael W. Deem and Ramdas Pophale) SiO2 
 PCOD8229422
Probable space group: P C C N
;
_chemical_formula_sum "Si O2"
_cell_formula_units_Z 40
_cell_length_a 8.719165
_cell_length_b 11.244531
_cell_length_c 18.026462
_cell_angle_alpha 90.000000
_cell_angle_beta 90.000000
_cell_angle_gamma 90.000000
_cell_volume 1767.366992
_symmetry_space_group_name_H-M "P C C N"
_symmetry_group_IT_number 56
_symmetry_cell_setting 'orthorhombic'
loop_
_space_group_symop_operation_xyz
x,y,z
1/2-x,1/2-y,z
1/2+x,-y,1/2-z
-x,1/2+y,1/2-z
-x,-y,-z
1/2+x,1/2+y,-z
1/2-x,y,1/2+z
x,1/2-y,1/2+z
loop_
_atom_site_type_symbol
_atom_site_label
_atom_site_fract_x
_atom_site_fract_y
_atom_site_fract_z
Si Si1 0.742422 0.892167 0.804386
Si Si2 0.942440 0.984138 0.168569
Si Si3 0.567636 0.736608 0.078734
Si Si4 0.150277 0.641673 0.465563
Si Si5 0.392767 0.535812 0.567252
O O1 0.750000 0.750000 0.793865
O O2 0.915089 0.936786 0.808295
O O3 0.672815 0.965078 0.736130
O O4 0.640934 0.927194 0.876638
O O5 0.859100 0.048078 0.100080
O O6 0.989316 0.853803 0.141465
O O7 0.750000 0.750000 0.075394
O O8 0.484725 0.856861 0.106228
O O9 0.511668 0.692265 0.996845
O O10 0.250000 0.750000 0.434059
O O11 0.229756 0.579574 0.536264
O O12 0.500000 0.500000 0.500000
#
# Coordination Sequence:
#
# PCOD8229422 Si02
#       5
#     8   8   8   8   8
#     4  12  32  50  74 114 150 207 253 316 382 461
#     4  12  28  49  74 105 157 197 257 307 385 453
#     4  11  24  45  80 110 151 197 250 313 378 447
#     4  10  24  46  73 117 144 200 249 315 375 453
#     4  11  26  46  78 110 152 193 254 312 384 452
#
# _framework density 22.632538
#
# number of rings (size 3 to 8) (size 9 to 14) (size 15 to 20)
#    0.000    0.800    2.000    2.400   16.800    0.000 
#    0.000    0.000    0.000    0.000    0.000    0.000 
#    0.000    0.000    0.000    0.000    0.000    0.000 
#
# Total GULP energy -495991.058298 kJ/mol
# GULP energy per Si atom -12399.776457 kJ/mol
# Density = 2.258103 g / cm^3
# Si number density = 22.632538 Si / 1000 Ang^3
#
#
#
# Elastic Constant Matrix: (Units=GPa)
#
#
# Indices 1 2 3 4 5 6 
#
# 1 129.7916 45.9032 33.2526 0.0000 0.0000 0.0000
# 2 45.9032 116.6059 21.0795 0.0000 0.0000 0.0000
# 3 33.2526 21.0795 69.8415 0.0000 0.0000 0.0000
# 4 0.0000 0.0000 0.0000 12.2957 0.0000 0.0000
# 5 0.0000 0.0000 0.0000 0.0000 12.3869 0.0000
# 6 0.0000 0.0000 0.0000 0.0000 0.0000 38.4111
#
#
#
# Elastic Compliance Matrix: (Units=1/GPa)
#
#
# Indices 1 2 3 4 5 6 
#
# 1 0.009776 -0.003181 -0.003695 0.000000 0.000000 0.000000
# 2 -0.003181 0.010106 -0.001536 0.000000 0.000000 0.000000
# 3 -0.003695 -0.001536 0.016541 0.000000 0.000000 0.000000
# 4 0.000000 0.000000 0.000000 0.081329 0.000000 0.000000
# 5 0.000000 0.000000 0.000000 0.000000 0.080731 0.000000
# 6 0.000000 0.000000 0.000000 0.000000 0.000000 0.026034
#
#
# Mechanical properties :
#
#
# Convention : Reuss Voigt Hill
#
# Bulk Modulus (GPa) = 51.01890 57.41216 54.21553
# Shear Modulus (GPa) = 20.17172 27.01898 23.59535
#
# Velocity S-wave (km/s) = 2.98865 3.45891 3.23234
# Velocity P-wave (km/s) = 5.87372 6.43228 6.15934
#
# Compressibility (1/GPa) = 0.01960058
#
# Stress axis : x y z
#
# Youngs Moduli (GPa) = 102.29052 98.95515 60.45695
#
# Poissons Ratio (x) = 0.31473 0.22336
# Poissons Ratio (y) = 0.32534 0.09285
# Poissons Ratio (z) = 0.37792 0.15197
#
# Static dielectric constant tensor:
#      x y z
#    x 4.396800 0.000000 0.000000 
#    y 0.000000 4.784320 0.000000 
#    z 0.000000 0.000000 4.032460 
# 
# 
# High freq. dielectric constant tensor:
#      x y z
#    x 1.904410 0.000000 0.000000 
#    y 0.000000 1.912360 0.000000 
#    z 0.000000 0.000000 1.883530 
# 
# From -- ./inp_files/14408.got.cif
#   From: 2010.03.12/outbox.cif.g09.slc.cpg/sg56_8_cif.got.tgz:14408.got - 2010.04.16 15:33:40.
