data_PCOD8229505
_publ_section_title
;
Structure prediction by ZEFSAII (Michael W. Deem and Ramdas Pophale) SiO2 
 PCOD8229505
Probable space group: P C C N
;
_chemical_formula_sum "Si O2"
_cell_formula_units_Z 48
_cell_length_a 8.690257
_cell_length_b 15.083802
_cell_length_c 17.777564
_cell_angle_alpha 90.000000
_cell_angle_beta 90.000000
_cell_angle_gamma 90.000000
_cell_volume 2330.320705
_symmetry_space_group_name_H-M "P C C N"
_symmetry_group_IT_number 56
_symmetry_cell_setting 'orthorhombic'
loop_
_space_group_symop_operation_xyz
x,y,z
1/2-x,1/2-y,z
1/2+x,-y,1/2-z
-x,1/2+y,1/2-z
-x,-y,-z
1/2+x,1/2+y,-z
1/2-x,y,1/2+z
x,1/2-y,1/2+z
loop_
_atom_site_type_symbol
_atom_site_label
_atom_site_fract_x
_atom_site_fract_y
_atom_site_fract_z
Si Si1 0.622490 0.103329 0.625453
Si Si2 0.172651 0.011012 0.471877
Si Si3 0.621994 0.682520 0.611596
Si Si4 0.870196 0.038747 0.894843
Si Si5 0.329116 0.657310 0.707606
Si Si6 0.916754 0.208330 0.989036
O O1 0.675521 0.143441 0.703713
O O2 0.549845 0.183384 0.576064
O O3 0.772107 0.073990 0.576564
O O4 0.504628 0.022303 0.639335
O O5 0.201187 0.092969 0.416438
O O6 0.275983 0.021335 0.546270
O O7 0.000000 0.000000 0.500000
O O8 0.750000 0.750000 0.643533
O O9 0.503904 0.661261 0.678619
O O10 0.540099 0.719753 0.536936
O O11 0.759967 0.074226 0.828767
O O12 0.943661 0.121592 0.937974
O O13 0.250000 0.750000 0.685743
O O14 0.750000 0.250000 0.975085
#
# Coordination Sequence:
#
# PCOD8229505 Si02
#       6
#     8   8   8   8   8   8
#     4  11  26  40  65  96 129 171 216 269 324 386
#     4  11  22  40  68 101 125 163 220 267 320 383
#     4  12  22  39  66  95 126 168 218 270 318 386
#     4  11  21  43  64  90 130 171 213 259 322 393
#     4  12  25  44  63  93 133 179 212 262 338 393
#     4  11  19  43  67  89 122 169 216 258 317 392
#
# _framework density 20.598023000000001
#
# number of rings (size 3 to 8) (size 9 to 14) (size 15 to 20)
#    0.000    0.667    5.000    5.500    2.333    0.000 
#    0.000    4.167    0.000    0.000    0.000    0.000 
#    0.000    0.000    0.000    0.000    0.000    0.000 
#
# Total GULP energy -595334.699322 kJ/mol
# GULP energy per Si atom -12402.806236 kJ/mol
# Density = 2.055114 g / cm^3
# Si number density = 20.598023 Si / 1000 Ang^3
#
#
#
# Elastic Constant Matrix: (Units=GPa)
#
#
# Indices 1 2 3 4 5 6 
#
# 1 88.6294 15.7866 21.0599 0.0000 0.0000 0.0000
# 2 15.7866 52.8628 12.7339 0.0000 0.0000 0.0000
# 3 21.0599 12.7339 119.8605 0.0000 0.0000 0.0000
# 4 0.0000 0.0000 0.0000 31.8970 0.0000 0.0000
# 5 0.0000 0.0000 0.0000 0.0000 21.5346 0.0000
# 6 0.0000 0.0000 0.0000 0.0000 0.0000 32.4079
#
#
#
# Elastic Compliance Matrix: (Units=1/GPa)
#
#
# Indices 1 2 3 4 5 6 
#
# 1 0.012290 -0.003233 -0.001816 0.000000 0.000000 0.000000
# 2 -0.003233 0.020264 -0.001585 0.000000 0.000000 0.000000
# 3 -0.001816 -0.001585 0.008830 0.000000 0.000000 0.000000
# 4 0.000000 0.000000 0.000000 0.031351 0.000000 0.000000
# 5 0.000000 0.000000 0.000000 0.000000 0.046437 0.000000
# 6 0.000000 0.000000 0.000000 0.000000 0.000000 0.030857
#
#
# Mechanical properties :
#
#
# Convention : Reuss Voigt Hill
#
# Bulk Modulus (GPa) = 35.56499 40.05705 37.81102
# Shear Modulus (GPa) = 28.95714 31.28608 30.12161
#
# Velocity S-wave (km/s) = 3.75350 3.90152 3.82822
# Velocity P-wave (km/s) = 6.00739 6.30754 6.15929
#
# Compressibility (1/GPa) = 0.02811754
#
# Stress axis : x y z
#
# Youngs Moduli (GPa) = 81.36514 49.34842 113.24416
#
# Poissons Ratio (x) = 0.15954 0.20565
# Poissons Ratio (y) = 0.26304 0.17947
# Poissons Ratio (z) = 0.14776 0.07821
#
# Static dielectric constant tensor:
#      x y z
#    x 3.788980 0.000000 0.000000 
#    y 0.000000 3.982300 0.000000 
#    z 0.000000 0.000000 3.594670 
# 
# 
# High freq. dielectric constant tensor:
#      x y z
#    x 1.805720 0.000000 0.000000 
#    y 0.000000 1.813160 0.000000 
#    z 0.000000 0.000000 1.794720 
# 
# From -- ./inp_files/14951.got.cif
#   From: 2010.03.12/outbox.cif.g09.slc.cpg/sg56_8_cif.got.tgz:14951.got - 2010.04.16 15:33:40.
