data_PCOD8229242
_publ_section_title
;
Structure prediction by ZEFSAII (Michael W. Deem and Ramdas Pophale) SiO2 
 PCOD8229242
Probable space group: P C C N
;
_chemical_formula_sum "Si O2"
_cell_formula_units_Z 56
_cell_length_a 14.052760
_cell_length_b 12.960859
_cell_length_c 14.604119
_cell_angle_alpha 90.000000
_cell_angle_beta 90.000000
_cell_angle_gamma 90.000000
_cell_volume 2659.933495
_symmetry_space_group_name_H-M "P C C N"
_symmetry_group_IT_number 56
_symmetry_cell_setting 'orthorhombic'
loop_
_space_group_symop_operation_xyz
x,y,z
1/2-x,1/2-y,z
1/2+x,-y,1/2-z
-x,1/2+y,1/2-z
-x,-y,-z
1/2+x,1/2+y,-z
1/2-x,y,1/2+z
x,1/2-y,1/2+z
loop_
_atom_site_type_symbol
_atom_site_label
_atom_site_fract_x
_atom_site_fract_y
_atom_site_fract_z
Si Si1 0.338384 0.183920 0.851929
Si Si2 0.400958 0.155411 0.204153
Si Si3 0.344905 0.812619 0.319877
Si Si4 0.360134 0.769515 0.515334
Si Si5 0.079335 0.863033 0.195143
Si Si6 0.246456 0.493596 0.751400
Si Si7 0.516062 0.621276 0.493449
O O1 0.250000 0.250000 0.891847
O O2 0.376839 0.236425 0.756750
O O3 0.300140 0.068063 0.835461
O O4 0.420041 0.171935 0.927150
O O5 0.476938 0.094985 0.270559
O O6 0.304240 0.089302 0.190525
O O7 0.444127 0.165442 0.102827
O O8 0.250000 0.750000 0.337497
O O9 0.383514 0.831049 0.422021
O O10 0.409293 0.742487 0.254395
O O11 0.326424 0.923977 0.278174
O O12 0.250000 0.750000 0.542834
O O13 0.418146 0.834451 0.589578
O O14 0.407751 0.657731 0.506113
O O15 0.160130 0.949454 0.202014
O O16 0.500000 0.500000 0.500000
#
# Coordination Sequence:
#
# PCOD8229242 Si02
#       7
#     8   8   8   8   8   8   8
#     4  10  24  46  68  95 140 179 224 277 331 399
#     4  11  24  43  67  96 134 178 221 275 335 396
#     4   9  20  37  60  89 131 162 208 276 334 386
#     4  11  23  39  64  98 133 166 217 276 344 383
#     4  11  21  40  64  94 131 168 215 281 334 390
#     4  10  23  41  66  96 128 179 222 268 334 402
#     4  12  26  42  73 103 131 180 233 273 332 415
#
# _framework density 21.053159000000001
#
# number of rings (size 3 to 8) (size 9 to 14) (size 15 to 20)
#    0.000    1.429    2.857    2.143    8.000    2.857 
#    0.000    2.143    0.000    0.000    0.000    0.000 
#    0.000    0.000    0.000    0.000    0.000    0.000 
#
# Total GULP energy -693821.740094 kJ/mol
# GULP energy per Si atom -12389.673930 kJ/mol
# Density = 2.100524 g / cm^3
# Si number density = 21.053159 Si / 1000 Ang^3
#
#
#
# Elastic Constant Matrix: (Units=GPa)
#
#
# Indices 1 2 3 4 5 6 
#
# 1 109.3204 30.4410 19.1700 0.0000 0.0000 0.0000
# 2 30.4410 87.9174 18.8442 0.0000 0.0000 0.0000
# 3 19.1700 18.8442 87.6546 0.0000 0.0000 0.0000
# 4 0.0000 0.0000 0.0000 10.6554 0.0000 0.0000
# 5 0.0000 0.0000 0.0000 0.0000 22.5252 0.0000
# 6 0.0000 0.0000 0.0000 0.0000 0.0000 33.1108
#
#
#
# Elastic Compliance Matrix: (Units=1/GPa)
#
#
# Indices 1 2 3 4 5 6 
#
# 1 0.010323 -0.003240 -0.001561 0.000000 0.000000 0.000000
# 2 -0.003240 0.012940 -0.002073 0.000000 0.000000 0.000000
# 3 -0.001561 -0.002073 0.012196 0.000000 0.000000 0.000000
# 4 0.000000 0.000000 0.000000 0.093849 0.000000 0.000000
# 5 0.000000 0.000000 0.000000 0.000000 0.044395 0.000000
# 6 0.000000 0.000000 0.000000 0.000000 0.000000 0.030202
#
#
# Mechanical properties :
#
#
# Convention : Reuss Voigt Hill
#
# Bulk Modulus (GPa) = 46.06052 46.86697 46.46375
# Shear Modulus (GPa) = 22.23299 27.68741 24.96020
#
# Velocity S-wave (km/s) = 3.25320 3.63039 3.44696
# Velocity P-wave (km/s) = 6.00307 6.31526 6.16114
#
# Compressibility (1/GPa) = 0.02171057
#
# Stress axis : x y z
#
# Youngs Moduli (GPa) = 96.86796 77.27685 81.99681
#
# Poissons Ratio (x) = 0.25036 0.12801
# Poissons Ratio (y) = 0.31383 0.17001
# Poissons Ratio (z) = 0.15123 0.16023
#
# Static dielectric constant tensor:
#      x y z
#    x 4.087120 0.000000 0.000000 
#    y 0.000000 3.975040 0.000000 
#    z 0.000000 0.000000 3.795440 
# 
# 
# High freq. dielectric constant tensor:
#      x y z
#    x 1.840630 0.000000 0.000000 
#    y 0.000000 1.815770 0.000000 
#    z 0.000000 0.000000 1.817710 
# 
# From -- ./inp_files/12264.got.cif
#   From: 2010.03.12/outbox.cif.g09.slc.cpg/sg56_7_cif.got.tgz:12264.got - 2010.04.16 15:33:40.
