data_PCOD8229719
_publ_section_title
;
Structure prediction by ZEFSAII (Michael W. Deem and Ramdas Pophale) SiO2 
 PCOD8229719
Probable space group: P C C N
;
_chemical_formula_sum "Si O2"
_cell_formula_units_Z 24
_cell_length_a 5.219228
_cell_length_b 8.572384
_cell_length_c 22.763281
_cell_angle_alpha 90.000000
_cell_angle_beta 90.000000
_cell_angle_gamma 90.000000
_cell_volume 1018.457113
_symmetry_space_group_name_H-M "P C C N"
_symmetry_group_IT_number 56
_symmetry_cell_setting 'orthorhombic'
loop_
_space_group_symop_operation_xyz
x,y,z
1/2-x,1/2-y,z
1/2+x,-y,1/2-z
-x,1/2+y,1/2-z
-x,-y,-z
1/2+x,1/2+y,-z
1/2-x,y,1/2+z
x,1/2-y,1/2+z
loop_
_atom_site_type_symbol
_atom_site_label
_atom_site_fract_x
_atom_site_fract_y
_atom_site_fract_z
Si Si1 0.745969 0.568701 0.470410
Si Si2 0.234869 0.926620 0.653837
Si Si3 0.500011 0.146824 0.731145
O O1 0.750000 0.750000 0.481944
O O2 0.500000 0.500000 0.500000
O O3 0.703238 0.537896 0.401570
O O4 0.000000 0.500000 0.500000
O O5 0.250000 0.750000 0.629880
O O6 0.006513 0.923353 0.702468
O O7 0.484887 0.994510 0.688512
O O8 0.250000 0.250000 0.719766
O O9 0.750000 0.250000 0.717534
#
# Coordination Sequence:
#
# PCOD8229719 Si02
#       3
#     8   8   8
#     4  12  28  50  74 102 139 186 238 290 348 415
#     4  11  24  44  72 104 143 184 233 288 348 415
#     4  11  25  44  69 104 144 186 230 284 351 418
#
# _framework density 23.565058000000001
#
# number of rings (size 3 to 8) (size 9 to 14) (size 15 to 20)
#    0.000    0.667    0.000    8.000    0.000   14.667 
#    0.000    0.000    0.000    0.000    0.000    0.000 
#    0.000    0.000    0.000    0.000    0.000    0.000 
#
# Total GULP energy -297327.635510 kJ/mol
# GULP energy per Si atom -12388.651480 kJ/mol
# Density = 2.351142 g / cm^3
# Si number density = 23.565058 Si / 1000 Ang^3
#
#
#
# Elastic Constant Matrix: (Units=GPa)
#
#
# Indices 1 2 3 4 5 6 
#
# 1 175.6650 85.2409 50.2504 0.0000 0.0000 0.0000
# 2 85.2409 189.1268 47.6621 0.0000 0.0000 0.0000
# 3 50.2504 47.6621 140.6907 0.0000 0.0000 0.0000
# 4 0.0000 0.0000 0.0000 -60.0352 0.0000 0.0000
# 5 0.0000 0.0000 0.0000 0.0000 40.3450 0.0000
# 6 0.0000 0.0000 0.0000 0.0000 0.0000 54.4634
#
#
#
# Elastic Compliance Matrix: (Units=1/GPa)
#
#
# Indices 1 2 3 4 5 6 
#
# 1 0.007644 -0.003015 -0.001709 0.000000 0.000000 0.000000
# 2 -0.003015 0.006970 -0.001284 0.000000 0.000000 0.000000
# 3 -0.001709 -0.001284 0.008153 0.000000 0.000000 0.000000
# 4 0.000000 0.000000 0.000000 -0.016657 0.000000 0.000000
# 5 0.000000 0.000000 0.000000 0.000000 0.024786 0.000000
# 6 0.000000 0.000000 0.000000 0.000000 0.000000 0.018361
#
#
# Mechanical properties :
#
#
# Convention : Reuss Voigt Hill
#
# Bulk Modulus (GPa) = 93.01236 96.86548 94.93892
# Shear Modulus (GPa) = 77.09135 28.44323 52.76729
#
# Velocity S-wave (km/s) = 5.72584 3.47797 4.73717
# Velocity P-wave (km/s) = 9.12523 7.57121 8.38430
#
# Compressibility (1/GPa) = 0.01075126
#
# Stress axis : x y z
#
# Youngs Moduli (GPa) = 130.81447 143.47409 122.64901
#
# Poissons Ratio (x) = 0.43253 0.20961
# Poissons Ratio (y) = 0.39437 0.15754
# Poissons Ratio (z) = 0.22357 0.18429
#
# Static dielectric constant tensor:
#      x y z
#    x 3.658170 0.000000 0.000000 
#    y 0.000000 4.943310 0.000000 
#    z 0.000000 0.000000 4.563110 
# 
# 
# High freq. dielectric constant tensor:
#      x y z
#    x 1.928160 0.000000 0.000000 
#    y 0.000000 1.970050 0.000000 
#    z 0.000000 0.000000 1.933040 
# 
# From -- ./inp_files/19735.got.cif
#   From: 2010.03.12/outbox.cif.g09.slc.cpg/sg56_10_cif.got.tgz:19735.got - 2010.04.16 15:33:40.
