data_PCOD8229276
_publ_section_title
;
Structure prediction by ZEFSAII (Michael W. Deem and Ramdas Pophale) SiO2 
 PCOD8229276
Probable space group: P C C N
;
_chemical_formula_sum "Si O2"
_cell_formula_units_Z 64
_cell_length_a 18.627772
_cell_length_b 11.031553
_cell_length_c 13.850921
_cell_angle_alpha 90.000000
_cell_angle_beta 90.000000
_cell_angle_gamma 90.000000
_cell_volume 2846.270828
_symmetry_space_group_name_H-M "P C C N"
_symmetry_group_IT_number 56
_symmetry_cell_setting 'orthorhombic'
loop_
_space_group_symop_operation_xyz
x,y,z
1/2-x,1/2-y,z
1/2+x,-y,1/2-z
-x,1/2+y,1/2-z
-x,-y,-z
1/2+x,1/2+y,-z
1/2-x,y,1/2+z
x,1/2-y,1/2+z
loop_
_atom_site_type_symbol
_atom_site_label
_atom_site_fract_x
_atom_site_fract_y
_atom_site_fract_z
Si Si1 0.103170 0.428261 0.270229
Si Si2 0.098560 0.818056 0.829628
Si Si3 0.400417 0.078623 0.754931
Si Si4 0.551271 0.726890 0.384842
Si Si5 0.877260 0.334599 0.336559
Si Si6 0.209981 0.876066 0.983048
Si Si7 0.752054 0.608006 0.133582
Si Si8 0.477597 0.266184 0.395638
O O1 0.069198 0.560511 0.280040
O O2 0.087831 0.392844 0.159225
O O3 0.187852 0.421138 0.292710
O O4 0.064099 0.341645 0.344996
O O5 0.150431 0.750894 0.751596
O O6 0.136384 0.863358 0.925717
O O7 0.031705 0.732209 0.852619
O O8 0.403680 0.161770 0.659237
O O9 0.323321 0.089396 0.805152
O O10 0.460961 0.112809 0.834252
O O11 0.415974 0.945717 0.716092
O O12 0.556861 0.721226 0.499228
O O13 0.810970 0.377931 0.403241
O O14 0.937341 0.261285 0.398282
O O15 0.250000 0.750000 0.960237
O O16 0.249507 0.002869 0.951980
O O17 0.750000 0.750000 0.095208
#
# Coordination Sequence:
#
# PCOD8229276 Si02
#       8
#     8   8   8   8   8   8   8   8
#     4  10  23  43  68 102 140 188 230 299 363 423
#     4  11  23  44  69  99 143 184 238 305 348 430
#     4  11  25  43  72 104 145 189 232 308 361 427
#     4  11  22  40  70 105 138 184 230 291 373 426
#     4  12  25  45  71 102 142 193 240 293 369 438
#     4  11  27  48  76 105 139 201 250 296 362 446
#     4  11  22  49  71 103 149 183 238 306 359 429
#     4  11  23  42  69 107 141 175 244 293 362 430
#
# _framework density 22.485562000000002
#
# number of rings (size 3 to 8) (size 9 to 14) (size 15 to 20)
#    0.000    1.000    6.250    1.500    3.500    3.500 
#    6.750    3.125    0.000    0.000    0.000    0.000 
#    0.000    0.000    0.000    0.000    0.000    0.000 
#
# Total GULP energy -793087.140864 kJ/mol
# GULP energy per Si atom -12391.986576 kJ/mol
# Density = 2.243438 g / cm^3
# Si number density = 22.485562 Si / 1000 Ang^3
#
#
#
# Elastic Constant Matrix: (Units=GPa)
#
#
# Indices 1 2 3 4 5 6 
#
# 1 58.1043 1.1964 4.6573 0.0000 0.0000 0.0000
# 2 1.1964 92.2301 41.0629 0.0000 0.0000 0.0000
# 3 4.6573 41.0629 127.4720 0.0000 0.0000 0.0000
# 4 0.0000 0.0000 0.0000 22.8023 0.0000 0.0000
# 5 0.0000 0.0000 0.0000 0.0000 25.0108 0.0000
# 6 0.0000 0.0000 0.0000 0.0000 0.0000 28.6191
#
#
#
# Elastic Compliance Matrix: (Units=1/GPa)
#
#
# Indices 1 2 3 4 5 6 
#
# 1 0.017261 0.000066 -0.000652 0.000000 0.000000 0.000000
# 2 0.000066 0.012658 -0.004080 0.000000 0.000000 0.000000
# 3 -0.000652 -0.004080 0.009183 0.000000 0.000000 0.000000
# 4 0.000000 0.000000 0.000000 0.043855 0.000000 0.000000
# 5 0.000000 0.000000 0.000000 0.000000 0.039983 0.000000
# 6 0.000000 0.000000 0.000000 0.000000 0.000000 0.034942
#
#
# Mechanical properties :
#
#
# Convention : Reuss Voigt Hill
#
# Bulk Modulus (GPa) = 33.58963 41.29327 37.44145
# Shear Modulus (GPa) = 28.22671 30.67908 29.45290
#
# Velocity S-wave (km/s) = 3.54690 3.69777 3.62312
# Velocity P-wave (km/s) = 5.63425 6.05273 5.84724
#
# Compressibility (1/GPa) = 0.02977109
#
# Stress axis : x y z
#
# Youngs Moduli (GPa) = 57.93296 79.00081 108.89701
#
# Poissons Ratio (x) = -0.00524 0.07101
# Poissons Ratio (y) = -0.00385 0.44430
# Poissons Ratio (z) = 0.03777 0.32232
#
# Static dielectric constant tensor:
#      x y z
#    x 3.971960 0.000000 0.000000 
#    y 0.000000 4.425760 0.000000 
#    z 0.000000 0.000000 4.142950 
# 
# 
# High freq. dielectric constant tensor:
#      x y z
#    x 1.880620 0.000000 0.000000 
#    y 0.000000 1.896800 0.000000 
#    z 0.000000 0.000000 1.880240 
# 
# From -- ./inp_files/12846.got.cif
#   From: 2010.03.12/outbox.cif.g09.slc.cpg/sg56_7_cif.got.tgz:12846.got - 2010.04.16 15:33:40.
