data_PCOD8229326
_publ_section_title
;
Structure prediction by ZEFSAII (Michael W. Deem and Ramdas Pophale) SiO2 
 PCOD8229326
Probable space group: P C C N
;
_chemical_formula_sum "Si O2"
_cell_formula_units_Z 40
_cell_length_a 8.583283
_cell_length_b 18.918553
_cell_length_c 10.920335
_cell_angle_alpha 90.000000
_cell_angle_beta 90.000000
_cell_angle_gamma 90.000000
_cell_volume 1773.279973
_symmetry_space_group_name_H-M "P C C N"
_symmetry_group_IT_number 56
_symmetry_cell_setting 'orthorhombic'
loop_
_space_group_symop_operation_xyz
x,y,z
1/2-x,1/2-y,z
1/2+x,-y,1/2-z
-x,1/2+y,1/2-z
-x,-y,-z
1/2+x,1/2+y,-z
1/2-x,y,1/2+z
x,1/2-y,1/2+z
loop_
_atom_site_type_symbol
_atom_site_label
_atom_site_fract_x
_atom_site_fract_y
_atom_site_fract_z
Si Si1 0.419938 0.611316 0.516087
Si Si2 0.612230 0.460844 0.908504
Si Si3 0.391648 0.410550 0.263926
Si Si4 0.552574 0.646733 0.253541
Si Si5 0.094009 0.787358 0.719996
O O1 0.275150 0.557273 0.527036
O O2 0.566652 0.577800 0.592036
O O3 0.467571 0.622090 0.377087
O O4 0.377489 0.687451 0.579026
O O5 0.630088 0.513292 0.794249
O O6 0.534326 0.389502 0.860074
O O7 0.500000 0.500000 0.000000
O O8 0.233035 0.369161 0.245554
O O9 0.532488 0.359299 0.209129
O O10 0.542541 0.730305 0.230919
O O11 0.250000 0.750000 0.774315
#
# Coordination Sequence:
#
# PCOD8229326 Si02
#       5
#     8   8   8   8   8
#     4  10  27  48  73 108 148 198 249 304 372 447
#     4  12  28  44  74 109 146 201 252 306 377 440
#     4  10  26  47  68 111 145 192 251 303 373 440
#     4  12  25  48  77 103 158 193 250 313 371 447
#     4  10  23  49  72 107 143 193 245 301 374 432
#
# _framework density 22.557068000000001
#
# number of rings (size 3 to 8) (size 9 to 14) (size 15 to 20)
#    1.200    0.000    2.000    1.800   11.200    4.000 
#    3.600    0.000    0.000    0.000    0.000    0.000 
#    0.000    0.000    0.000    0.000    0.000    0.000 
#
# Total GULP energy -495575.743227 kJ/mol
# GULP energy per Si atom -12389.393581 kJ/mol
# Density = 2.250573 g / cm^3
# Si number density = 22.557068 Si / 1000 Ang^3
#
#
#
# Elastic Constant Matrix: (Units=GPa)
#
#
# Indices 1 2 3 4 5 6 
#
# 1 117.2139 34.4822 27.8922 0.0000 0.0000 0.0000
# 2 34.4822 74.8697 32.1392 0.0000 0.0000 0.0000
# 3 27.8922 32.1392 90.1016 0.0000 0.0000 0.0000
# 4 0.0000 0.0000 0.0000 24.9598 0.0000 0.0000
# 5 0.0000 0.0000 0.0000 0.0000 35.0961 0.0000
# 6 0.0000 0.0000 0.0000 0.0000 0.0000 31.2675
#
#
#
# Elastic Compliance Matrix: (Units=1/GPa)
#
#
# Indices 1 2 3 4 5 6 
#
# 1 0.010092 -0.003905 -0.001731 0.000000 0.000000 0.000000
# 2 -0.003905 0.017282 -0.004956 0.000000 0.000000 0.000000
# 3 -0.001731 -0.004956 0.013402 0.000000 0.000000 0.000000
# 4 0.000000 0.000000 0.000000 0.040064 0.000000 0.000000
# 5 0.000000 0.000000 0.000000 0.000000 0.028493 0.000000
# 6 0.000000 0.000000 0.000000 0.000000 0.000000 0.031982
#
#
# Mechanical properties :
#
#
# Convention : Reuss Voigt Hill
#
# Bulk Modulus (GPa) = 51.03912 52.35692 51.69802
# Shear Modulus (GPa) = 29.58034 30.77614 30.17824
#
# Velocity S-wave (km/s) = 3.62519 3.69774 3.66165
# Velocity P-wave (km/s) = 6.34023 6.44145 6.39104
#
# Compressibility (1/GPa) = 0.01959281
#
# Stress axis : x y z
#
# Youngs Moduli (GPa) = 99.08710 57.86256 74.61426
#
# Poissons Ratio (x) = 0.22595 0.12918
# Poissons Ratio (y) = 0.38692 0.36977
# Poissons Ratio (z) = 0.17155 0.28676
#
# Static dielectric constant tensor:
#      x y z
#    x 4.141710 0.000000 0.000000 
#    y 0.000000 4.659060 0.000000 
#    z 0.000000 0.000000 3.938220 
# 
# 
# High freq. dielectric constant tensor:
#      x y z
#    x 1.898440 0.000000 0.000000 
#    y 0.000000 1.906160 0.000000 
#    z 0.000000 0.000000 1.863750 
# 
# From -- ./inp_files/6187.got.cif
#   From: 2010.03.12/outbox.cif.g09.slc.cpg/sg56_4_cif.got.tgz:6187.got - 2010.04.16 15:33:40.
