data_PCOD8229555
_publ_section_title
;
Structure prediction by ZEFSAII (Michael W. Deem and Ramdas Pophale) SiO2 
 PCOD8229555
Probable space group: P C C N
;
_chemical_formula_sum "Si O2"
_cell_formula_units_Z 64
_cell_length_a 9.295584
_cell_length_b 13.499416
_cell_length_c 22.613981
_cell_angle_alpha 90.000000
_cell_angle_beta 90.000000
_cell_angle_gamma 90.000000
_cell_volume 2837.714397
_symmetry_space_group_name_H-M "P C C N"
_symmetry_group_IT_number 56
_symmetry_cell_setting 'orthorhombic'
loop_
_space_group_symop_operation_xyz
x,y,z
1/2-x,1/2-y,z
1/2+x,-y,1/2-z
-x,1/2+y,1/2-z
-x,-y,-z
1/2+x,1/2+y,-z
1/2-x,y,1/2+z
x,1/2-y,1/2+z
loop_
_atom_site_type_symbol
_atom_site_label
_atom_site_fract_x
_atom_site_fract_y
_atom_site_fract_z
Si Si1 0.704907 0.136183 0.882955
Si Si2 0.087485 0.266319 0.578754
Si Si3 0.544488 0.992474 0.431462
Si Si4 0.763972 0.943993 0.223305
Si Si5 0.446431 0.607458 0.740661
Si Si6 0.453411 0.192201 0.956132
Si Si7 0.687816 0.876103 0.599843
Si Si8 0.411281 0.290026 0.705918
O O1 0.750000 0.250000 0.874497
O O2 0.629475 0.098158 0.823247
O O3 0.587330 0.129390 0.934446
O O4 0.829924 0.064498 0.907340
O O5 0.250000 0.250000 0.560471
O O6 0.072501 0.382399 0.590141
O O7 0.001524 0.226843 0.521850
O O8 0.039864 0.205891 0.637135
O O9 0.500000 0.000000 0.500000
O O10 0.398060 0.022163 0.399304
O O11 0.601209 0.948177 0.247780
O O12 0.747192 0.873107 0.165685
O O13 0.890785 0.898365 0.265988
O O14 0.830043 0.054776 0.215110
O O15 0.473372 0.722367 0.758678
O O16 0.310652 0.123439 0.951208
O O17 0.420893 0.285097 0.912507
O O18 0.250000 0.250000 0.709366
#
# Coordination Sequence:
#
# PCOD8229555 Si02
#       8
#     8   8   8   8   8   8   8   8
#     4  12  25  42  70 104 139 177 234 294 344 414
#     4  11  21  41  68  97 134 179 230 277 351 419
#     4  12  24  42  68 103 134 182 228 282 352 423
#     4  11  24  42  67  96 141 181 233 287 354 415
#     4  11  25  42  64 105 134 181 235 288 346 423
#     4  11  21  42  69 101 134 180 231 295 342 418
#     4  11  21  40  70  94 134 177 233 285 348 413
#     4   9  22  39  64  93 134 180 223 278 347 411
#
# _framework density 22.553362
#
# number of rings (size 3 to 8) (size 9 to 14) (size 15 to 20)
#    0.000    1.000    5.000    1.500   10.500    0.000 
#    0.000    3.750    0.000    3.750    0.000    0.000 
#    0.000    0.000    0.000    0.000    0.000    0.000 
#
# Total GULP energy -792893.672601 kJ/mol
# GULP energy per Si atom -12388.963634 kJ/mol
# Density = 2.250203 g / cm^3
# Si number density = 22.553362 Si / 1000 Ang^3
#
#
#
# Elastic Constant Matrix: (Units=GPa)
#
#
# Indices 1 2 3 4 5 6 
#
# 1 97.0577 46.1368 31.4594 0.0000 0.0000 0.0000
# 2 46.1368 78.6034 25.9719 0.0000 0.0000 0.0000
# 3 31.4594 25.9719 120.7395 0.0000 0.0000 0.0000
# 4 0.0000 0.0000 0.0000 34.3501 0.0000 0.0000
# 5 0.0000 0.0000 0.0000 0.0000 33.1192 0.0000
# 6 0.0000 0.0000 0.0000 0.0000 0.0000 32.0585
#
#
#
# Elastic Compliance Matrix: (Units=1/GPa)
#
#
# Indices 1 2 3 4 5 6 
#
# 1 0.014786 -0.007972 -0.002138 0.000000 0.000000 0.000000
# 2 -0.007972 0.017994 -0.001793 0.000000 0.000000 0.000000
# 3 -0.002138 -0.001793 0.009225 0.000000 0.000000 0.000000
# 4 0.000000 0.000000 0.000000 0.029112 0.000000 0.000000
# 5 0.000000 0.000000 0.000000 0.000000 0.030194 0.000000
# 6 0.000000 0.000000 0.000000 0.000000 0.000000 0.031193
#
#
# Mechanical properties :
#
#
# Convention : Reuss Voigt Hill
#
# Bulk Modulus (GPa) = 54.95055 55.94853 55.44954
# Shear Modulus (GPa) = 30.79269 32.76107 31.77688
#
# Velocity S-wave (km/s) = 3.69904 3.81544 3.75769
# Velocity P-wave (km/s) = 6.53157 6.65365 6.59290
#
# Compressibility (1/GPa) = 0.01819818
#
# Stress axis : x y z
#
# Youngs Moduli (GPa) = 67.63312 55.57402 108.40067
#
# Poissons Ratio (x) = 0.44305 0.23172
# Poissons Ratio (y) = 0.53919 0.19441
# Poissons Ratio (z) = 0.14457 0.09967
#
# Static dielectric constant tensor:
#      x y z
#    x 4.173050 0.000000 0.000000 
#    y 0.000000 4.149710 0.000000 
#    z 0.000000 0.000000 4.293410 
# 
# 
# High freq. dielectric constant tensor:
#      x y z
#    x 1.883460 0.000000 0.000000 
#    y 0.000000 1.878800 0.000000 
#    z 0.000000 0.000000 1.894560 
# 
# From -- ./inp_files/20658.got.cif
#   From: 2010.03.12/outbox.cif.g09.slc.cpg/sg56_11_cif.got.tgz:20658.got - 2010.04.16 15:33:40.
