data_PCOD8229929
_publ_section_title
;
Structure prediction by ZEFSAII (Michael W. Deem and Ramdas Pophale) SiO2 
 PCOD8229929
Probable space group: P B C M
;
_chemical_formula_sum "Si O2"
_cell_formula_units_Z 64
_cell_length_a 30.530784
_cell_length_b 5.150164
_cell_length_c 25.920719
_cell_angle_alpha 90.000000
_cell_angle_beta 90.000000
_cell_angle_gamma 90.000000
_cell_volume 4075.736132
_symmetry_space_group_name_H-M "P B C M"
_symmetry_group_IT_number 57
_symmetry_cell_setting 'orthorhombic'
loop_
_space_group_symop_operation_xyz
x,y,z
-x,-y,1/2+z
x,1/2-y,-z
-x,1/2+y,1/2-z
-x,-y,-z
x,y,1/2-z
-x,1/2+y,z
x,1/2-y,1/2+z
loop_
_atom_site_type_symbol
_atom_site_label
_atom_site_fract_x
_atom_site_fract_y
_atom_site_fract_z
Si Si1 0.679219 0.244263 0.191981
Si Si2 0.974352 0.210153 0.311566
Si Si3 0.329661 0.211008 0.442155
Si Si4 0.376805 0.708981 0.094863
Si Si5 0.472112 0.762426 0.059846
Si Si6 0.176943 0.266621 0.688822
Si Si7 0.273628 0.254479 0.844821
Si Si8 0.876230 0.270563 0.689067
O O1 0.661830 0.209951 0.250000
O O2 0.637543 0.221936 0.154555
O O3 0.702002 0.523122 0.187308
O O4 0.714889 0.024449 0.179099
O O5 0.973089 0.213051 0.250000
O O6 0.925131 0.216674 0.334330
O O7 0.001161 0.456166 0.332523
O O8 0.312179 0.250000 0.500000
O O9 0.365465 0.429516 0.428848
O O10 0.287878 0.232357 0.404653
O O11 0.352583 0.931569 0.437783
O O12 0.428727 0.744323 0.094061
O O13 0.504719 0.530849 0.074101
O O14 0.458416 0.750000 0.000000
O O15 0.186358 0.262632 0.750000
O O16 0.221962 0.295168 0.658034
O O17 0.146259 0.504041 0.672253
O O18 0.152822 0.008873 0.668862
O O19 0.879888 0.290829 0.750000
#
# Coordination Sequence:
#
# PCOD8229929 Si02
#       8
#     8   8   8   8   8   8   8   8
#     4  10  19  32  48  66  88 113 147 183 213 247
#     4   9  15  23  34  47  66  93 131 174 206 239
#     4  10  19  32  49  68  91 115 144 178 212 255
#     4  10  20  32  49  70  91 117 144 175 214 254
#     4  10  19  30  46  67  90 114 139 171 214 260
#     4  10  17  26  38  53  79 106 135 172 204 243
#     4  10  20  30  45  67  86 114 147 177 218 255
#     4   9  17  25  35  52  72 102 137 170 210 245
#
# _framework density 15.702686
#
# number of rings (size 3 to 8) (size 9 to 14) (size 15 to 20)
#    0.000    2.250    0.000    4.500    0.000    5.000 
#    0.000    0.000    0.000    0.750    0.000    0.000 
#    0.000    0.000    0.000    0.000    0.000   12.500 
#
# Total GULP energy -793753.833236 kJ/mol
# GULP energy per Si atom -12402.403644 kJ/mol
# Density = 1.566695 g / cm^3
# Si number density = 15.702686 Si / 1000 Ang^3
#
#
#
# Elastic Constant Matrix: (Units=GPa)
#
#
# Indices 1 2 3 4 5 6 
#
# 1 105.5818 11.5024 29.2057 0.0000 0.0000 0.0000
# 2 11.5024 71.0030 9.8565 0.0000 0.0000 0.0000
# 3 29.2057 9.8565 65.8749 0.0000 0.0000 0.0000
# 4 0.0000 0.0000 0.0000 9.8338 0.0000 0.0000
# 5 0.0000 0.0000 0.0000 0.0000 12.1788 0.0000
# 6 0.0000 0.0000 0.0000 0.0000 0.0000 19.8807
#
#
#
# Elastic Compliance Matrix: (Units=1/GPa)
#
#
# Indices 1 2 3 4 5 6 
#
# 1 0.010881 -0.001116 -0.004657 0.000000 0.000000 0.000000
# 2 -0.001116 0.014497 -0.001674 0.000000 0.000000 0.000000
# 3 -0.004657 -0.001674 0.017496 0.000000 0.000000 0.000000
# 4 0.000000 0.000000 0.000000 0.101691 0.000000 0.000000
# 5 0.000000 0.000000 0.000000 0.000000 0.082110 0.000000
# 6 0.000000 0.000000 0.000000 0.000000 0.000000 0.050300
#
#
# Mechanical properties :
#
#
# Convention : Reuss Voigt Hill
#
# Bulk Modulus (GPa) = 35.74162 38.17656 36.95909
# Shear Modulus (GPa) = 16.60050 21.17165 18.88608
#
# Velocity S-wave (km/s) = 3.25495 3.67588 3.47180
# Velocity P-wave (km/s) = 6.07759 6.51007 6.29755
#
# Compressibility (1/GPa) = 0.02797859
#
# Stress axis : x y z
#
# Youngs Moduli (GPa) = 91.90168 68.97902 57.15734
#
# Poissons Ratio (x) = 0.07700 0.26619
# Poissons Ratio (y) = 0.10258 0.09570
# Poissons Ratio (z) = 0.42800 0.11549
#
# Static dielectric constant tensor:
#      x y z
#    x 2.974090 0.000000 0.000000 
#    y 0.000000 3.296190 0.000000 
#    z 0.000000 0.000000 2.677540 
# 
# 
# High freq. dielectric constant tensor:
#      x y z
#    x 1.601370 0.000000 0.000000 
#    y 0.000000 1.630540 0.000000 
#    z 0.000000 0.000000 1.546510 
# 
# From -- ./inp_files/27709.got.cif
#   From: 2010.03.12/outbox.cif.g09.slc.cpg/sg57_14_cif.got.tgz:27709.got - 2010.04.16 15:48:40.
