data_PCOD8229089
_publ_section_title
;
Structure prediction by ZEFSAII (Michael W. Deem and Ramdas Pophale) SiO2 
 PCOD8229089
Probable space group: P C C N
;
_chemical_formula_sum "Si O2"
_cell_formula_units_Z 48
_cell_length_a 13.015355
_cell_length_b 32.018099
_cell_length_c 5.229934
_cell_angle_alpha 90.000000
_cell_angle_beta 90.000000
_cell_angle_gamma 90.000000
_cell_volume 2179.454313
_symmetry_space_group_name_H-M "P C C N"
_symmetry_group_IT_number 56
_symmetry_cell_setting 'orthorhombic'
loop_
_space_group_symop_operation_xyz
x,y,z
1/2-x,1/2-y,z
1/2+x,-y,1/2-z
-x,1/2+y,1/2-z
-x,-y,-z
1/2+x,1/2+y,-z
1/2-x,y,1/2+z
x,1/2-y,1/2+z
loop_
_atom_site_type_symbol
_atom_site_label
_atom_site_fract_x
_atom_site_fract_y
_atom_site_fract_z
Si Si1 0.634066 0.267254 0.900042
Si Si2 0.813850 0.953642 0.498234
Si Si3 0.204746 0.297095 0.466530
Si Si4 0.504789 0.338695 0.004483
Si Si5 0.502044 0.892132 0.994087
Si Si6 0.686391 0.047755 0.045528
O O1 0.750000 0.250000 0.864314
O O2 0.578790 0.257578 0.631032
O O3 0.616416 0.316505 0.956440
O O4 0.772954 0.946152 0.211960
O O5 0.903136 0.921490 0.556382
O O6 0.857290 0.000755 0.521003
O O7 0.250000 0.250000 0.454053
O O8 0.255295 0.320340 0.710668
O O9 0.081740 0.302056 0.482887
O O10 0.486137 0.373276 0.789122
O O11 0.503930 0.356976 0.288387
O O12 0.400552 0.919196 0.011296
O O13 0.725841 0.055071 0.333507
#
# Coordination Sequence:
#
# PCOD8229089 Si02
#       6
#     8   8   8   8   8   8
#     4  10  23  45  67  88 117 165 222 263 329 391
#     4  10  22  41  71  97 135 182 220 255 312 392
#     4  10  23  40  63  88 118 163 208 260 327 389
#     4  12  26  41  67  98 129 166 217 280 331 381
#     4  12  25  43  64 103 138 168 213 276 333 374
#     4  10  22  44  67  98 135 182 220 255 312 392
#
# _framework density 22.023859999999999
#
# number of rings (size 3 to 8) (size 9 to 14) (size 15 to 20)
#    0.000    1.333    0.000    4.500    4.667    4.000 
#   18.000    6.667    0.000    0.000    0.000    0.000 
#    0.000    0.000    0.000    0.000    0.000    0.000 
#
# Total GULP energy -594885.654555 kJ/mol
# GULP energy per Si atom -12393.451137 kJ/mol
# Density = 2.197373 g / cm^3
# Si number density = 22.023860 Si / 1000 Ang^3
#
#
#
# Elastic Constant Matrix: (Units=GPa)
#
#
# Indices 1 2 3 4 5 6 
#
# 1 77.4354 46.1320 -3.7805 0.0000 0.0000 0.0000
# 2 46.1320 81.8464 3.7914 0.0000 0.0000 0.0000
# 3 -3.7805 3.7914 138.8473 0.0000 0.0000 0.0000
# 4 0.0000 0.0000 0.0000 28.7067 0.0000 0.0000
# 5 0.0000 0.0000 0.0000 0.0000 17.5423 0.0000
# 6 0.0000 0.0000 0.0000 0.0000 0.0000 46.4568
#
#
#
# Elastic Compliance Matrix: (Units=1/GPa)
#
#
# Indices 1 2 3 4 5 6 
#
# 1 0.019538 -0.011051 0.000834 0.000000 0.000000 0.000000
# 2 -0.011051 0.018484 -0.000806 0.000000 0.000000 0.000000
# 3 0.000834 -0.000806 0.007247 0.000000 0.000000 0.000000
# 4 0.000000 0.000000 0.000000 0.034835 0.000000 0.000000
# 5 0.000000 0.000000 0.000000 0.000000 0.057005 0.000000
# 6 0.000000 0.000000 0.000000 0.000000 0.000000 0.021525
#
#
# Mechanical properties :
#
#
# Convention : Reuss Voigt Hill
#
# Bulk Modulus (GPa) = 43.06027 43.37942 43.21985
# Shear Modulus (GPa) = 26.53608 35.34025 30.93816
#
# Velocity S-wave (km/s) = 3.47490 4.01013 3.75207
# Velocity P-wave (km/s) = 5.97445 6.41723 6.19979
#
# Compressibility (1/GPa) = 0.02322326
#
# Stress axis : x y z
#
# Youngs Moduli (GPa) = 51.18104 54.09996 137.99091
#
# Poissons Ratio (x) = 0.59788 -0.11505
# Poissons Ratio (y) = 0.56562 0.11117
# Poissons Ratio (z) = -0.04267 0.04358
#
# Static dielectric constant tensor:
#      x y z
#    x 3.772080 0.000000 0.000000 
#    y 0.000000 3.950940 0.000000 
#    z 0.000000 0.000000 5.263010 
# 
# 
# High freq. dielectric constant tensor:
#      x y z
#    x 1.851560 0.000000 0.000000 
#    y 0.000000 1.858330 0.000000 
#    z 0.000000 0.000000 1.904210 
# 
# From -- ./inp_files/516.got.cif
#   From: 2010.03.12/outbox.cif.g09.slc.cpg/sg56_1_cif.got.tgz:516.got - 2010.04.16 15:33:40.
