data_PCOD8229230
_publ_section_title
;
Structure prediction by ZEFSAII (Michael W. Deem and Ramdas Pophale) SiO2 
 PCOD8229230
Probable space group: P C C N
;
_chemical_formula_sum "Si O2"
_cell_formula_units_Z 32
_cell_length_a 6.913673
_cell_length_b 39.540566
_cell_length_c 5.139168
_cell_angle_alpha 90.000000
_cell_angle_beta 90.000000
_cell_angle_gamma 90.000000
_cell_volume 1404.897150
_symmetry_space_group_name_H-M "P C C N"
_symmetry_group_IT_number 56
_symmetry_cell_setting 'orthorhombic'
loop_
_space_group_symop_operation_xyz
x,y,z
1/2-x,1/2-y,z
1/2+x,-y,1/2-z
-x,1/2+y,1/2-z
-x,-y,-z
1/2+x,1/2+y,-z
1/2-x,y,1/2+z
x,1/2-y,1/2+z
loop_
_atom_site_type_symbol
_atom_site_label
_atom_site_fract_x
_atom_site_fract_y
_atom_site_fract_z
Si Si1 0.624340 0.165463 0.526920
Si Si2 0.874992 0.599850 0.466674
Si Si3 0.377459 0.966426 0.467228
Si Si4 0.536051 0.735211 0.068391
O O1 0.796574 0.168632 0.319140
O O2 0.523247 0.129868 0.480990
O O3 0.466396 0.195104 0.483778
O O4 0.701282 0.602336 0.672695
O O5 0.982639 0.564872 0.514890
O O6 0.205809 0.965254 0.676398
O O7 0.500000 0.000000 0.500000
O O8 0.750000 0.750000 0.123579
O O9 0.427380 0.755816 0.838477
#
# Coordination Sequence:
#
# PCOD8229230 Si02
#       4
#     8   8   8   8
#     4  12  26  44  68  99 133 170 222 284 340 394
#     4  12  26  44  71  99 136 183 228 269 339 400
#     4  12  24  44  71 103 145 179 229 278 330 393
#     4  10  23  40  66  91 128 167 219 264 344 395
#
# _framework density 22.777467000000001
#
# number of rings (size 3 to 8) (size 9 to 14) (size 15 to 20)
#    0.000    0.500    0.000    8.250    7.000    3.000 
#    0.000    0.000    0.000    0.000    0.000    0.000 
#    0.000    0.000    0.000    0.000    0.000    0.000 
#
# Total GULP energy -396924.818926 kJ/mol
# GULP energy per Si atom -12403.900591 kJ/mol
# Density = 2.272562 g / cm^3
# Si number density = 22.777467 Si / 1000 Ang^3
#
#
#
# Elastic Constant Matrix: (Units=GPa)
#
#
# Indices 1 2 3 4 5 6 
#
# 1 70.9827 33.7475 0.2813 0.0000 0.0000 0.0000
# 2 33.7475 162.1919 9.9513 0.0000 0.0000 0.0000
# 3 0.2813 9.9513 128.6354 0.0000 0.0000 0.0000
# 4 0.0000 0.0000 0.0000 33.5510 0.0000 0.0000
# 5 0.0000 0.0000 0.0000 0.0000 28.9841 0.0000
# 6 0.0000 0.0000 0.0000 0.0000 0.0000 49.1001
#
#
#
# Elastic Compliance Matrix: (Units=1/GPa)
#
#
# Indices 1 2 3 4 5 6 
#
# 1 0.015641 -0.003268 0.000219 0.000000 0.000000 0.000000
# 2 -0.003268 0.006878 -0.000525 0.000000 0.000000 0.000000
# 3 0.000219 -0.000525 0.007814 0.000000 0.000000 0.000000
# 4 0.000000 0.000000 0.000000 0.029805 0.000000 0.000000
# 5 0.000000 0.000000 0.000000 0.000000 0.034502 0.000000
# 6 0.000000 0.000000 0.000000 0.000000 0.000000 0.020367
#
#
# Mechanical properties :
#
#
# Convention : Reuss Voigt Hill
#
# Bulk Modulus (GPa) = 43.13288 49.97448 46.55368
# Shear Modulus (GPa) = 38.49643 43.51572 41.00607
#
# Velocity S-wave (km/s) = 4.11555 4.37564 4.24759
# Velocity P-wave (km/s) = 6.44682 6.89320 6.67374
#
# Compressibility (1/GPa) = 0.02318417
#
# Stress axis : x y z
#
# Youngs Moduli (GPa) = 63.93585 145.39798 127.97474
#
# Poissons Ratio (x) = 0.47513 -0.02797
# Poissons Ratio (y) = 0.20893 0.06718
# Poissons Ratio (z) = -0.01398 0.07632
#
# Static dielectric constant tensor:
#      x y z
#    x 4.166460 0.000000 0.000000 
#    y 0.000000 4.262740 0.000000 
#    z 0.000000 0.000000 4.857010 
# 
# 
# High freq. dielectric constant tensor:
#      x y z
#    x 1.895290 0.000000 0.000000 
#    y 0.000000 1.916630 0.000000 
#    z 0.000000 0.000000 1.930590 
# 
# From -- ./inp_files/129.got.cif
#   From: 2010.03.12/outbox.cif.g09.slc.cpg/sg56_1_cif.got.tgz:129.got - 2010.04.16 15:33:40.
