data_PCOD8229738
_publ_section_title
;
Structure prediction by ZEFSAII (Michael W. Deem and Ramdas Pophale) SiO2 
 PCOD8229738
Probable space group: P C C N
;
_chemical_formula_sum "Si O2"
_cell_formula_units_Z 48
_cell_length_a 16.936975
_cell_length_b 8.613000
_cell_length_c 13.939414
_cell_angle_alpha 90.000000
_cell_angle_beta 90.000000
_cell_angle_gamma 90.000000
_cell_volume 2033.456145
_symmetry_space_group_name_H-M "P C C N"
_symmetry_group_IT_number 56
_symmetry_cell_setting 'orthorhombic'
loop_
_space_group_symop_operation_xyz
x,y,z
1/2-x,1/2-y,z
1/2+x,-y,1/2-z
-x,1/2+y,1/2-z
-x,-y,-z
1/2+x,1/2+y,-z
1/2-x,y,1/2+z
x,1/2-y,1/2+z
loop_
_atom_site_type_symbol
_atom_site_label
_atom_site_fract_x
_atom_site_fract_y
_atom_site_fract_z
Si Si1 0.058412 0.634796 0.959796
Si Si2 0.714584 0.088780 0.145575
Si Si3 0.513205 0.675060 0.112724
Si Si4 0.684687 0.876760 0.535268
Si Si5 0.485391 0.168233 0.696020
Si Si6 0.186151 0.125290 0.180774
O O1 0.148847 0.581742 0.940683
O O2 0.035541 0.699311 0.855561
O O3 0.000000 0.500000 0.000000
O O4 0.052688 0.783382 0.032197
O O5 0.750000 0.250000 0.178984
O O6 0.795578 0.015364 0.106653
O O7 0.681458 0.012650 0.242673
O O8 0.597519 0.687450 0.058901
O O9 0.501121 0.812711 0.190180
O O10 0.501467 0.505854 0.158490
O O11 0.750000 0.750000 0.560078
O O12 0.697971 0.937416 0.426818
O O13 0.395622 0.217364 0.678331
O O14 0.250000 0.250000 0.213870
#
# Coordination Sequence:
#
# PCOD8229738 Si02
#       6
#     8   8   8   8   8   8
#     4  12  26  47  71 106 148 195 247 303 366 435
#     4  12  27  46  70 108 149 185 238 309 370 422
#     4  12  25  47  76 107 151 187 252 299 368 433
#     4  11  24  47  77 101 139 195 243 294 353 444
#     4  12  25  45  74 109 143 197 237 307 362 433
#     4  11  25  46  74 102 138 193 247 288 359 440
#
# _framework density 23.605129999999999
#
# number of rings (size 3 to 8) (size 9 to 14) (size 15 to 20)
#    0.000    0.333    1.667    8.000    4.667    0.667 
#    6.000    0.000    0.000    0.000    0.000    0.000 
#    0.000    0.000    0.000    0.000    0.000    0.000 
#
# Total GULP energy -595009.401751 kJ/mol
# GULP energy per Si atom -12396.029203 kJ/mol
# Density = 2.355140 g / cm^3
# Si number density = 23.605130 Si / 1000 Ang^3
#
#
#
# Elastic Constant Matrix: (Units=GPa)
#
#
# Indices 1 2 3 4 5 6 
#
# 1 90.9887 27.6350 35.5766 0.0000 0.0000 0.0000
# 2 27.6350 99.9014 54.3369 0.0000 0.0000 0.0000
# 3 35.5766 54.3369 146.2833 0.0000 0.0000 0.0000
# 4 0.0000 0.0000 0.0000 35.6993 0.0000 0.0000
# 5 0.0000 0.0000 0.0000 0.0000 34.9465 0.0000
# 6 0.0000 0.0000 0.0000 0.0000 0.0000 37.9546
#
#
#
# Elastic Compliance Matrix: (Units=1/GPa)
#
#
# Indices 1 2 3 4 5 6 
#
# 1 0.012543 -0.002269 -0.002208 0.000000 0.000000 0.000000
# 2 -0.002269 0.012955 -0.004260 0.000000 0.000000 0.000000
# 3 -0.002208 -0.004260 0.008955 0.000000 0.000000 0.000000
# 4 0.000000 0.000000 0.000000 0.028012 0.000000 0.000000
# 5 0.000000 0.000000 0.000000 0.000000 0.028615 0.000000
# 6 0.000000 0.000000 0.000000 0.000000 0.000000 0.026347
#
#
# Mechanical properties :
#
#
# Convention : Reuss Voigt Hill
#
# Bulk Modulus (GPa) = 58.89521 63.58560 61.24040
# Shear Modulus (GPa) = 35.57201 36.36177 35.96689
#
# Velocity S-wave (km/s) = 3.88617 3.92907 3.90768
# Velocity P-wave (km/s) = 6.71869 6.89777 6.80882
#
# Compressibility (1/GPa) = 0.01697931
#
# Stress axis : x y z
#
# Youngs Moduli (GPa) = 79.72797 77.19252 111.66424
#
# Poissons Ratio (x) = 0.17514 0.24652
# Poissons Ratio (y) = 0.18089 0.47571
# Poissons Ratio (z) = 0.17601 0.32886
#
# Static dielectric constant tensor:
#      x y z
#    x 4.713580 0.000000 0.000000 
#    y 0.000000 3.961370 0.000000 
#    z 0.000000 0.000000 4.534190 
# 
# 
# High freq. dielectric constant tensor:
#      x y z
#    x 1.939250 0.000000 0.000000 
#    y 0.000000 1.933490 0.000000 
#    z 0.000000 0.000000 1.952630 
# 
# From -- ./inp_files/12708.got.cif
#   From: 2010.03.12/outbox.cif.g09.slc.cpg/sg56_7_cif.got.tgz:12708.got - 2010.04.16 15:33:40.
