data_PCOD8229891
_publ_section_title
;
Structure prediction by ZEFSAII (Michael W. Deem and Ramdas Pophale) SiO2 
 PCOD8229891
Probable space group: P B C M
;
_chemical_formula_sum "Si O2"
_cell_formula_units_Z 40
_cell_length_a 21.997579
_cell_length_b 5.258443
_cell_length_c 17.467325
_cell_angle_alpha 90.000000
_cell_angle_beta 90.000000
_cell_angle_gamma 90.000000
_cell_volume 2020.498152
_symmetry_space_group_name_H-M "P B C M"
_symmetry_group_IT_number 57
_symmetry_cell_setting 'orthorhombic'
loop_
_space_group_symop_operation_xyz
x,y,z
-x,-y,1/2+z
x,1/2-y,-z
-x,1/2+y,1/2-z
-x,-y,-z
x,y,1/2-z
-x,1/2+y,z
x,1/2-y,1/2+z
loop_
_atom_site_type_symbol
_atom_site_label
_atom_site_fract_x
_atom_site_fract_y
_atom_site_fract_z
Si Si1 0.645557 0.008320 0.451866
Si Si2 0.782994 0.029875 0.084074
Si Si3 0.536941 0.974520 0.160297
Si Si4 0.834149 0.967022 0.586694
Si Si5 0.973109 0.687879 0.413140
O O1 0.648972 0.750000 0.500000
O O2 0.601426 0.965315 0.380852
O O3 0.621463 0.250000 0.500000
O O4 0.711541 0.080625 0.419811
O O5 0.815183 0.267698 0.127566
O O6 0.797346 0.764667 0.127347
O O7 0.813622 0.998312 0.000988
O O8 0.550417 0.973718 0.250000
O O9 0.499184 0.726558 0.135215
O O10 0.904726 0.907996 0.593486
O O11 0.993659 0.750000 0.500000
O O12 0.014632 0.464556 0.374036
#
# Coordination Sequence:
#
# PCOD8229891 Si02
#       5
#     8   8   8   8   8
#     4  12  21  34  55  82 106 127 172 221 245 297
#     4  10  17  27  39  61  86 119 151 196 242 294
#     4  10  23  42  59  77 106 141 168 199 257 317
#     4  10  16  27  38  51  87 123 153 199 249 289
#     4  10  18  22  31  49  71 111 169 201 219 277
#
# _framework density 19.797098999999999
#
# number of rings (size 3 to 8) (size 9 to 14) (size 15 to 20)
#    0.000    1.600    6.000    2.400    5.600    2.400 
#    0.000    0.000    0.000    0.000    0.000    0.000 
#    0.000    0.000    0.000    0.000    0.000   34.000 
#
# Total GULP energy -495625.636296 kJ/mol
# GULP energy per Si atom -12390.640907 kJ/mol
# Density = 1.975204 g / cm^3
# Si number density = 19.797099 Si / 1000 Ang^3
#
#
#
# Elastic Constant Matrix: (Units=GPa)
#
#
# Indices 1 2 3 4 5 6 
#
# 1 150.7112 62.5884 31.3976 0.0000 0.0000 0.0000
# 2 62.5884 223.9138 18.0860 0.0000 0.0000 0.0000
# 3 31.3976 18.0860 13.2654 0.0000 0.0000 0.0000
# 4 0.0000 0.0000 0.0000 4.3968 0.0000 0.0000
# 5 0.0000 0.0000 0.0000 0.0000 1.7220 0.0000
# 6 0.0000 0.0000 0.0000 0.0000 0.0000 32.9280
#
#
#
# Elastic Compliance Matrix: (Units=1/GPa)
#
#
# Indices 1 2 3 4 5 6 
#
# 1 0.013435 -0.001334 -0.029980 0.000000 0.000000 0.000000
# 2 -0.001334 0.005151 -0.003866 0.000000 0.000000 0.000000
# 3 -0.029980 -0.003866 0.151615 0.000000 0.000000 0.000000
# 4 0.000000 0.000000 0.000000 0.227440 0.000000 0.000000
# 5 0.000000 0.000000 0.000000 0.000000 0.580724 0.000000
# 6 0.000000 0.000000 0.000000 0.000000 0.000000 0.030369
#
#
# Mechanical properties :
#
#
# Convention : Reuss Voigt Hill
#
# Bulk Modulus (GPa) = 10.01594 68.00380 39.00987
# Shear Modulus (GPa) = 4.49489 26.19726 15.34607
#
# Velocity S-wave (km/s) = 1.50844 3.64165 2.78720
# Velocity P-wave (km/s) = 2.84678 7.21852 5.48686
#
# Compressibility (1/GPa) = 0.09984083
#
# Stress axis : x y z
#
# Youngs Moduli (GPa) = 74.43318 194.13363 6.59564
#
# Poissons Ratio (x) = 0.25892 0.19774
# Poissons Ratio (y) = 0.09927 0.02550
# Poissons Ratio (z) = 2.23153 0.75056
#
# Static dielectric constant tensor:
#      x y z
#    x 3.552890 0.000000 0.000000 
#    y 0.000000 12.050560 0.000000 
#    z 0.000000 0.000000 2.780660 
# 
# 
# High freq. dielectric constant tensor:
#      x y z
#    x 1.781380 0.000000 0.000000 
#    y 0.000000 1.821930 0.000000 
#    z 0.000000 0.000000 1.670810 
# 
# From -- ./inp_files/22974.got.cif
#   From: 2010.03.12/outbox.cif.g09.slc.cpg/sg57_12_cif.got.tgz:22974.got - 2010.04.16 15:48:40.
