data_PCOD8229978
_publ_section_title
;
Structure prediction by ZEFSAII (Michael W. Deem and Ramdas Pophale) SiO2 
 PCOD8229978
Probable space group: P B C M
;
_chemical_formula_sum "Si O2"
_cell_formula_units_Z 48
_cell_length_a 15.102916
_cell_length_b 21.513676
_cell_length_c 8.766468
_cell_angle_alpha 90.000000
_cell_angle_beta 90.000000
_cell_angle_gamma 90.000000
_cell_volume 2848.394133
_symmetry_space_group_name_H-M "P B C M"
_symmetry_group_IT_number 57
_symmetry_cell_setting 'orthorhombic'
loop_
_space_group_symop_operation_xyz
x,y,z
-x,-y,1/2+z
x,1/2-y,-z
-x,1/2+y,1/2-z
-x,-y,-z
x,y,1/2-z
-x,1/2+y,z
x,1/2-y,1/2+z
loop_
_atom_site_type_symbol
_atom_site_label
_atom_site_fract_x
_atom_site_fract_y
_atom_site_fract_z
Si Si1 0.651785 0.405649 0.069588
Si Si2 0.111180 0.045841 0.925746
Si Si3 0.309487 0.037604 0.572025
Si Si4 0.944245 0.091139 0.072385
Si Si5 0.810085 0.317376 0.070853
Si Si6 0.479040 0.067300 0.068666
O O1 0.640182 0.410460 0.250000
O O2 0.721190 0.353124 0.020114
O O3 0.687474 0.470812 0.007521
O O4 0.556752 0.387613 0.993428
O O5 0.083353 0.052997 0.750000
O O6 0.212354 0.066785 0.953569
O O7 0.100621 0.973987 0.975761
O O8 0.047816 0.089698 0.025936
O O9 0.330471 0.028438 0.750000
O O10 0.381492 0.084693 0.496372
O O11 0.935065 0.104503 0.250000
O O12 0.896846 0.146552 0.984316
O O13 0.815662 0.311028 0.250000
O O14 0.807350 0.250000 0.000000
O O15 0.477766 0.067048 0.250000
O O16 0.500000 0.000000 0.000000
#
# Coordination Sequence:
#
# PCOD8229978 Si02
#       6
#     8   8   8   8   8   8
#     4  10  19  31  46  66  93 126 161 199 239 286
#     4   9  18  30  47  71  99 131 162 197 246 297
#     4  10  17  28  46  69  98 129 159 194 236 288
#     4  10  19  32  49  70  97 128 164 204 246 294
#     4  11  23  36  52  71  96 129 168 208 247 293
#     4  10  18  27  42  65  94 126 157 191 232 282
#
# _framework density 16.851600000000001
#
# number of rings (size 3 to 8) (size 9 to 14) (size 15 to 20)
#    0.000    2.000    1.667    5.500    0.000    4.000 
#    0.000    0.000    0.000    0.000    0.000    1.167 
#    0.000    5.333    0.000    0.000    0.000    0.000 
#
# Total GULP energy -595114.908606 kJ/mol
# GULP energy per Si atom -12398.227263 kJ/mol
# Density = 1.681324 g / cm^3
# Si number density = 16.851600 Si / 1000 Ang^3
#
#
#
# Elastic Constant Matrix: (Units=GPa)
#
#
# Indices 1 2 3 4 5 6 
#
# 1 140.8802 44.8847 49.1844 0.0000 0.0000 0.0000
# 2 44.8847 63.1109 25.7131 0.0000 0.0000 0.0000
# 3 49.1844 25.7131 73.3655 0.0000 0.0000 0.0000
# 4 0.0000 0.0000 0.0000 20.9821 0.0000 0.0000
# 5 0.0000 0.0000 0.0000 0.0000 31.8952 0.0000
# 6 0.0000 0.0000 0.0000 0.0000 0.0000 19.3409
#
#
#
# Elastic Compliance Matrix: (Units=1/GPa)
#
#
# Indices 1 2 3 4 5 6 
#
# 1 0.010663 -0.005449 -0.005239 0.000000 0.000000 0.000000
# 2 -0.005449 0.021269 -0.003801 0.000000 0.000000 0.000000
# 3 -0.005239 -0.003801 0.018475 0.000000 0.000000 0.000000
# 4 0.000000 0.000000 0.000000 0.047660 0.000000 0.000000
# 5 0.000000 0.000000 0.000000 0.000000 0.031353 0.000000
# 6 0.000000 0.000000 0.000000 0.000000 0.000000 0.051704
#
#
# Mechanical properties :
#
#
# Convention : Reuss Voigt Hill
#
# Bulk Modulus (GPa) = 46.66638 57.43565 52.05102
# Shear Modulus (GPa) = 23.01539 24.94860 23.98200
#
# Velocity S-wave (km/s) = 3.69964 3.85189 3.77653
# Velocity P-wave (km/s) = 6.78251 7.34438 7.06903
#
# Compressibility (1/GPa) = 0.02142870
#
# Stress axis : x y z
#
# Youngs Moduli (GPa) = 93.77845 47.01570 54.12781
#
# Poissons Ratio (x) = 0.25621 0.28357
# Poissons Ratio (y) = 0.51104 0.20575
# Poissons Ratio (z) = 0.49129 0.17872
#
# Static dielectric constant tensor:
#      x y z
#    x 3.976650 0.000000 0.000000 
#    y 0.000000 2.693370 0.000000 
#    z 0.000000 0.000000 3.258290 
# 
# 
# High freq. dielectric constant tensor:
#      x y z
#    x 1.670880 0.000000 0.000000 
#    y 0.000000 1.580790 0.000000 
#    z 0.000000 0.000000 1.667820 
# 
# From -- ./inp_files/4924.got.cif
#   From: 2010.03.12/outbox.cif.g09.slc.cpg/sg57_3_cif.got.tgz:4924.got - 2010.04.16 15:48:40.
