data_PCOD8229764
_publ_section_title
;
Structure prediction by ZEFSAII (Michael W. Deem and Ramdas Pophale) SiO2 
 PCOD8229764
Probable space group: P C C N
;
_chemical_formula_sum "Si O2"
_cell_formula_units_Z 40
_cell_length_a 10.272119
_cell_length_b 17.891981
_cell_length_c 9.221622
_cell_angle_alpha 90.000000
_cell_angle_beta 90.000000
_cell_angle_gamma 90.000000
_cell_volume 1694.828610
_symmetry_space_group_name_H-M "P C C N"
_symmetry_group_IT_number 56
_symmetry_cell_setting 'orthorhombic'
loop_
_space_group_symop_operation_xyz
x,y,z
1/2-x,1/2-y,z
1/2+x,-y,1/2-z
-x,1/2+y,1/2-z
-x,-y,-z
1/2+x,1/2+y,-z
1/2-x,y,1/2+z
x,1/2-y,1/2+z
loop_
_atom_site_type_symbol
_atom_site_label
_atom_site_fract_x
_atom_site_fract_y
_atom_site_fract_z
Si Si1 0.250000 0.250000 0.933731
Si Si2 0.250000 0.750000 0.771677
Si Si3 0.502579 0.319538 0.328315
Si Si4 0.584708 0.887274 0.452459
Si Si5 0.366353 0.547521 0.145838
Si Si6 0.154401 0.611304 0.945266
O O1 0.364296 0.221317 0.830393
O O2 0.188676 0.179788 0.022689
O O3 0.377568 0.739096 0.670901
O O4 0.225125 0.679826 0.871393
O O5 0.511258 0.365990 0.179542
O O6 0.517099 0.367575 0.477117
O O7 0.497409 0.910396 0.591293
O O8 0.655824 0.962557 0.402742
O O9 0.368175 0.548817 0.321697
O O10 0.241245 0.588561 0.082556
#
# Coordination Sequence:
#
# PCOD8229764 Si02
#       6
#     4   4   8   8   8   8
#     4  12  28  48  76 114 156 202 242 322 384 466
#     4  12  22  44  80 112 144 192 254 320 354 458
#     4  12  26  47  77 111 148 195 255 302 387 441
#     4  11  26  50  70 110 154 198 246 313 376 462
#     4  11  25  47  76 107 151 194 256 309 378 446
#     4  12  24  45  76 108 142 194 253 314 364 449
#
# _framework density 23.601206999999999
#
# number of rings (size 3 to 8) (size 9 to 14) (size 15 to 20)
#    0.000    0.400    4.000    3.600    2.800    2.400 
#    3.600    0.000    0.000    0.000    0.000    0.000 
#    0.000    0.000    0.000    0.000    0.000    0.000 
#
# Total GULP energy -495818.428912 kJ/mol
# GULP energy per Si atom -12395.460723 kJ/mol
# Density = 2.354749 g / cm^3
# Si number density = 23.601207 Si / 1000 Ang^3
#
#
#
# Elastic Constant Matrix: (Units=GPa)
#
#
# Indices 1 2 3 4 5 6 
#
# 1 121.0636 32.8505 37.9424 0.0000 0.0000 0.0000
# 2 32.8505 108.1329 17.3930 0.0000 0.0000 0.0000
# 3 37.9424 17.3930 121.9800 0.0000 0.0000 0.0000
# 4 0.0000 0.0000 0.0000 19.9900 0.0000 0.0000
# 5 0.0000 0.0000 0.0000 0.0000 42.3702 0.0000
# 6 0.0000 0.0000 0.0000 0.0000 0.0000 31.4034
#
#
#
# Elastic Compliance Matrix: (Units=1/GPa)
#
#
# Indices 1 2 3 4 5 6 
#
# 1 0.009791 -0.002543 -0.002683 0.000000 0.000000 0.000000
# 2 -0.002543 0.010125 -0.000653 0.000000 0.000000 0.000000
# 3 -0.002683 -0.000653 0.009126 0.000000 0.000000 0.000000
# 4 0.000000 0.000000 0.000000 0.050025 0.000000 0.000000
# 5 0.000000 0.000000 0.000000 0.000000 0.023601 0.000000
# 6 0.000000 0.000000 0.000000 0.000000 0.000000 0.031844
#
#
# Mechanical properties :
#
#
# Convention : Reuss Voigt Hill
#
# Bulk Modulus (GPa) = 57.85431 58.61646 58.23539
# Shear Modulus (GPa) = 32.88802 36.28545 34.58673
#
# Velocity S-wave (km/s) = 3.73700 3.92527 3.83229
# Velocity P-wave (km/s) = 6.57166 6.74046 6.65660
#
# Compressibility (1/GPa) = 0.01728480
#
# Stress axis : x y z
#
# Youngs Moduli (GPa) = 102.13464 98.76144 109.58085
#
# Poissons Ratio (x) = 0.25114 0.29400
# Poissons Ratio (y) = 0.25972 0.07153
# Poissons Ratio (z) = 0.27402 0.06447
#
# Static dielectric constant tensor:
#      x y z
#    x 4.153210 0.000000 0.000000 
#    y 0.000000 4.451790 0.000000 
#    z 0.000000 0.000000 4.324920 
# 
# 
# High freq. dielectric constant tensor:
#      x y z
#    x 1.931030 0.000000 0.000000 
#    y 0.000000 1.936430 0.000000 
#    z 0.000000 0.000000 1.943760 
# 
# From -- ./inp_files/2632.got.cif
#   From: 2010.03.12/outbox.cif.g09.slc.cpg/sg56_2_cif.got.tgz:2632.got - 2010.04.16 15:33:40.
