data_PCOD8229114
_publ_section_title
;
Structure prediction by ZEFSAII (Michael W. Deem and Ramdas Pophale) SiO2 
 PCOD8229114
Probable space group: P C C N
;
_chemical_formula_sum "Si O2"
_cell_formula_units_Z 44
_cell_length_a 7.871734
_cell_length_b 18.599964
_cell_length_c 13.950657
_cell_angle_alpha 90.000000
_cell_angle_beta 90.000000
_cell_angle_gamma 90.000000
_cell_volume 2042.571062
_symmetry_space_group_name_H-M "P C C N"
_symmetry_group_IT_number 56
_symmetry_cell_setting 'orthorhombic'
loop_
_space_group_symop_operation_xyz
x,y,z
1/2-x,1/2-y,z
1/2+x,-y,1/2-z
-x,1/2+y,1/2-z
-x,-y,-z
1/2+x,1/2+y,-z
1/2-x,y,1/2+z
x,1/2-y,1/2+z
loop_
_atom_site_type_symbol
_atom_site_label
_atom_site_fract_x
_atom_site_fract_y
_atom_site_fract_z
Si Si1 0.006650 0.083859 0.769561
Si Si2 0.446858 0.921571 0.038065
Si Si3 0.250000 0.250000 0.074270
Si Si4 0.279669 0.481876 0.140360
Si Si5 0.188908 0.385248 0.461544
Si Si6 0.103647 0.810537 0.372054
O O1 0.156294 0.074994 0.691570
O O2 0.062205 0.109222 0.873909
O O3 0.876699 0.142535 0.725269
O O4 0.925580 0.004320 0.784400
O O5 0.619411 0.888232 0.080380
O O6 0.306024 0.939706 0.117657
O O7 0.371293 0.866031 0.960224
O O8 0.500000 0.000000 0.000000
O O9 0.410464 0.220548 0.134952
O O10 0.341008 0.308665 0.008552
O O11 0.348708 0.446076 0.042444
O O12 0.250000 0.750000 0.376085
#
# Coordination Sequence:
#
# PCOD8229114 Si02
#       6
#     8   8   4   8   8   8
#     4  12  24  41  67 106 131 181 234 290 355 421
#     4   9  18  43  67  92 133 179 228 297 346 408
#     4  10  22  48  68  92 140 190 220 284 352 428
#     4  11  23  41  68 100 135 172 239 296 352 416
#     4  10  22  42  67  95 136 181 227 286 359 419
#     4  11  25  45  70  99 144 186 236 286 357 431
#
# _framework density 21.541477
#
# number of rings (size 3 to 8) (size 9 to 14) (size 15 to 20)
#    0.000    1.455    5.455    1.636    5.091    2.182 
#    9.818    0.000    0.000    0.000    0.000    0.000 
#    0.000    0.000    0.000    0.000    0.000    0.000 
#
# Total GULP energy -545206.548201 kJ/mol
# GULP energy per Si atom -12391.057914 kJ/mol
# Density = 2.149245 g / cm^3
# Si number density = 21.541477 Si / 1000 Ang^3
#
#
#
# Elastic Constant Matrix: (Units=GPa)
#
#
# Indices 1 2 3 4 5 6 
#
# 1 60.8693 37.6193 27.4997 0.0000 0.0000 0.0000
# 2 37.6193 116.3034 44.2970 0.0000 0.0000 0.0000
# 3 27.4997 44.2970 80.7433 0.0000 0.0000 0.0000
# 4 0.0000 0.0000 0.0000 6.9152 0.0000 0.0000
# 5 0.0000 0.0000 0.0000 0.0000 29.6301 0.0000
# 6 0.0000 0.0000 0.0000 0.0000 0.0000 42.2066
#
#
#
# Elastic Compliance Matrix: (Units=1/GPa)
#
#
# Indices 1 2 3 4 5 6 
#
# 1 0.021746 -0.005326 -0.004484 0.000000 0.000000 0.000000
# 2 -0.005326 0.012174 -0.004865 0.000000 0.000000 0.000000
# 3 -0.004484 -0.004865 0.016581 0.000000 0.000000 0.000000
# 4 0.000000 0.000000 0.000000 0.144608 0.000000 0.000000
# 5 0.000000 0.000000 0.000000 0.000000 0.033750 0.000000
# 6 0.000000 0.000000 0.000000 0.000000 0.000000 0.023693
#
#
# Mechanical properties :
#
#
# Convention : Reuss Voigt Hill
#
# Bulk Modulus (GPa) = 47.27968 52.97199 50.12583
# Shear Modulus (GPa) = 17.30388 25.65040 21.47714
#
# Velocity S-wave (km/s) = 2.83730 3.45446 3.16098
# Velocity P-wave (km/s) = 5.72097 6.36829 6.05329
#
# Compressibility (1/GPa) = 0.02115073
#
# Stress axis : x y z
#
# Youngs Moduli (GPa) = 45.98487 82.14355 60.30942
#
# Poissons Ratio (x) = 0.43750 0.27046
# Poissons Ratio (y) = 0.24492 0.29339
# Poissons Ratio (z) = 0.20622 0.39961
#
# Static dielectric constant tensor:
#      x y z
#    x 4.222100 0.000000 0.000000 
#    y 0.000000 4.027800 0.000000 
#    z 0.000000 0.000000 3.910030 
# 
# 
# High freq. dielectric constant tensor:
#      x y z
#    x 1.839780 0.000000 0.000000 
#    y 0.000000 1.850370 0.000000 
#    z 0.000000 0.000000 1.835750 
# 
# From -- ./inp_files/10571.got.cif
#   From: 2010.03.12/outbox.cif.g09.slc.cpg/sg56_6_cif.got.tgz:10571.got - 2010.04.16 15:33:40.
