data_PCOD8229515
_publ_section_title
;
Structure prediction by ZEFSAII (Michael W. Deem and Ramdas Pophale) SiO2 
 PCOD8229515
Probable space group: P C C N
;
_chemical_formula_sum "Si O2"
_cell_formula_units_Z 64
_cell_length_a 23.772379
_cell_length_b 8.666983
_cell_length_c 15.441808
_cell_angle_alpha 90.000000
_cell_angle_beta 90.000000
_cell_angle_gamma 90.000000
_cell_volume 3181.549895
_symmetry_space_group_name_H-M "P C C N"
_symmetry_group_IT_number 56
_symmetry_cell_setting 'orthorhombic'
loop_
_space_group_symop_operation_xyz
x,y,z
1/2-x,1/2-y,z
1/2+x,-y,1/2-z
-x,1/2+y,1/2-z
-x,-y,-z
1/2+x,1/2+y,-z
1/2-x,y,1/2+z
x,1/2-y,1/2+z
loop_
_atom_site_type_symbol
_atom_site_label
_atom_site_fract_x
_atom_site_fract_y
_atom_site_fract_z
Si Si1 0.864070 0.931402 0.154570
Si Si2 0.250000 0.567399 0.906003
Si Si3 0.250000 0.567148 0.100316
Si Si4 0.364070 0.431402 0.345430
Si Si5 0.561474 0.932502 0.490840
Si Si6 0.561474 0.567498 0.490840
Si Si7 0.130288 0.566918 0.666790
Si Si8 0.369712 0.566918 0.666790
O O1 0.856014 0.750000 0.158473
O O2 0.904245 0.980905 0.076173
O O3 0.804053 0.010926 0.145159
O O4 0.891196 0.992710 0.243709
O O5 0.250000 0.750000 0.906396
O O6 0.195947 0.510926 0.854841
O O7 0.250000 0.498436 0.003121
O O8 0.250000 0.750000 0.094481
O O9 0.305845 0.509022 0.149058
O O10 0.194155 0.509022 0.149058
O O11 0.404245 0.480905 0.423827
O O12 0.391196 0.492710 0.256291
O O13 0.559394 0.750000 0.478431
O O14 0.500000 0.000000 0.500000
O O15 0.590012 0.009462 0.408474
O O16 0.500000 0.500000 0.500000
O O17 0.590012 0.490538 0.408474
O O18 0.126748 0.750000 0.672491
#
# Coordination Sequence:
#
# PCOD8229515 Si02
#       8
#     8   8   8   8   8   8   8   8
#     4  11  24  41  62  94 129 162 202 253 311 370
#     4  11  20  37  64  93 127 164 203 248 302 369
#     4   9  19  35  60  93 125 158 199 244 298 361
#     4  11  24  41  62  94 129 162 202 253 311 370
#     4  11  25  44  65  89 122 163 211 262 312 367
#     4  11  25  44  65  89 122 163 211 262 312 367
#     4  11  22  40  66  95 126 164 207 253 307 370
#     4  11  22  40  66  95 126 164 207 253 307 370
#
# _framework density 20.115983
#
# number of rings (size 3 to 8) (size 9 to 14) (size 15 to 20)
#    0.000    1.250    2.500    3.375    0.000    5.000 
#    0.000    1.875    0.000    0.000    0.000    0.000 
#    0.000    0.000    0.000    0.000    0.000    0.000 
#
# Total GULP energy -793943.146206 kJ/mol
# GULP energy per Si atom -12405.361659 kJ/mol
# Density = 2.007020 g / cm^3
# Si number density = 20.115983 Si / 1000 Ang^3
#
#
#
# Elastic Constant Matrix: (Units=GPa)
#
#
# Indices 1 2 3 4 5 6 
#
# 1 138.0884 44.7155 59.3371 0.0000 0.0000 0.0000
# 2 44.7155 77.2314 52.3970 0.0000 0.0000 0.0000
# 3 59.3371 52.3970 174.5489 0.0000 0.0000 0.0000
# 4 0.0000 0.0000 0.0000 37.6502 0.0000 0.0000
# 5 0.0000 0.0000 0.0000 0.0000 7.1535 0.0000
# 6 0.0000 0.0000 0.0000 0.0000 0.0000 32.5855
#
#
#
# Elastic Compliance Matrix: (Units=1/GPa)
#
#
# Indices 1 2 3 4 5 6 
#
# 1 0.009421 -0.004121 -0.001965 0.000000 0.000000 0.000000
# 2 -0.004121 0.018062 -0.004021 0.000000 0.000000 0.000000
# 3 -0.001965 -0.004021 0.007604 0.000000 0.000000 0.000000
# 4 0.000000 0.000000 0.000000 0.026560 0.000000 0.000000
# 5 0.000000 0.000000 0.000000 0.000000 0.139792 0.000000
# 6 0.000000 0.000000 0.000000 0.000000 0.000000 0.030688
#
#
# Mechanical properties :
#
#
# Convention : Reuss Voigt Hill
#
# Bulk Modulus (GPa) = 67.24003 78.08530 72.66266
# Shear Modulus (GPa) = 19.43252 31.03913 25.23582
#
# Velocity S-wave (km/s) = 3.11146 3.93238 3.54576
# Velocity P-wave (km/s) = 6.81227 7.71492 7.27760
#
# Compressibility (1/GPa) = 0.01487209
#
# Stress axis : x y z
#
# Youngs Moduli (GPa) = 106.14853 55.36450 131.50491
#
# Poissons Ratio (x) = 0.22816 0.25847
# Poissons Ratio (y) = 0.43743 0.52879
# Poissons Ratio (z) = 0.20863 0.22262
#
# Static dielectric constant tensor:
#      x y z
#    x 3.606320 0.000000 0.000000 
#    y 0.000000 3.617690 0.000000 
#    z 0.000000 0.000000 3.970930 
# 
# 
# High freq. dielectric constant tensor:
#      x y z
#    x 1.783610 0.000000 0.000000 
#    y 0.000000 1.786320 0.000000 
#    z 0.000000 0.000000 1.806610 
# 
# From -- ./inp_files/13263.got.cif
#   From: 2010.03.12/outbox.cif.g09.slc.cpg/sg56_7_cif.got.tgz:13263.got - 2010.04.16 15:33:40.
