data_PCOD8229539
_publ_section_title
;
Structure prediction by ZEFSAII (Michael W. Deem and Ramdas Pophale) SiO2 
 PCOD8229539
Probable space group: P C C N
;
_chemical_formula_sum "Si O2"
_cell_formula_units_Z 32
_cell_length_a 4.877330
_cell_length_b 16.385268
_cell_length_c 18.193004
_cell_angle_alpha 90.000000
_cell_angle_beta 90.000000
_cell_angle_gamma 90.000000
_cell_volume 1453.918642
_symmetry_space_group_name_H-M "P C C N"
_symmetry_group_IT_number 56
_symmetry_cell_setting 'orthorhombic'
loop_
_space_group_symop_operation_xyz
x,y,z
1/2-x,1/2-y,z
1/2+x,-y,1/2-z
-x,1/2+y,1/2-z
-x,-y,-z
1/2+x,1/2+y,-z
1/2-x,y,1/2+z
x,1/2-y,1/2+z
loop_
_atom_site_type_symbol
_atom_site_label
_atom_site_fract_x
_atom_site_fract_y
_atom_site_fract_z
Si Si1 0.625153 0.058473 0.561907
Si Si2 0.999622 0.302758 0.248864
Si Si3 0.167586 0.026608 0.791098
Si Si4 0.118594 0.166582 0.582618
O O1 0.373892 0.108159 0.594927
O O2 0.874896 0.120115 0.535936
O O3 0.500000 0.000000 0.500000
O O4 0.743189 0.002137 0.626980
O O5 0.250000 0.250000 0.274788
O O6 0.982804 0.315315 0.161175
O O7 0.750000 0.250000 0.277581
O O8 0.008363 0.387776 0.291847
O O9 0.953637 0.963936 0.752753
O O10 0.250000 0.250000 0.546817
#
# Coordination Sequence:
#
# PCOD8229539 Si02
#       4
#     8   8   8   8
#     4  12  24  42  64  97 132 173 216 270 329 397
#     4  11  21  36  62  92 124 159 213 268 318 373
#     4  12  22  40  63  93 127 164 216 266 326 380
#     4  11  22  40  66  94 125 168 223 268 322 394
#
# _framework density 22.009485000000002
#
# number of rings (size 3 to 8) (size 9 to 14) (size 15 to 20)
#    0.000    0.500    5.000    6.000    0.000    0.000 
#    0.000    3.750    0.000    0.000    0.000    0.000 
#    0.000    0.000    0.000    0.000    0.000    0.000 
#
# Total GULP energy -396600.733785 kJ/mol
# GULP energy per Si atom -12393.772931 kJ/mol
# Density = 2.195939 g / cm^3
# Si number density = 22.009485 Si / 1000 Ang^3
#
#
#
# Elastic Constant Matrix: (Units=GPa)
#
#
# Indices 1 2 3 4 5 6 
#
# 1 137.3398 43.8196 19.1370 0.0000 0.0000 0.0000
# 2 43.8196 135.7369 30.4914 0.0000 0.0000 0.0000
# 3 19.1370 30.4914 66.1613 0.0000 0.0000 0.0000
# 4 0.0000 0.0000 0.0000 17.2969 0.0000 0.0000
# 5 0.0000 0.0000 0.0000 0.0000 19.9394 0.0000
# 6 0.0000 0.0000 0.0000 0.0000 0.0000 59.0154
#
#
#
# Elastic Compliance Matrix: (Units=1/GPa)
#
#
# Indices 1 2 3 4 5 6 
#
# 1 0.008214 -0.002363 -0.001287 0.000000 0.000000 0.000000
# 2 -0.002363 0.008898 -0.003417 0.000000 0.000000 0.000000
# 3 -0.001287 -0.003417 0.017062 0.000000 0.000000 0.000000
# 4 0.000000 0.000000 0.000000 0.057814 0.000000 0.000000
# 5 0.000000 0.000000 0.000000 0.000000 0.050152 0.000000
# 6 0.000000 0.000000 0.000000 0.000000 0.000000 0.016945
#
#
# Mechanical properties :
#
#
# Convention : Reuss Voigt Hill
#
# Bulk Modulus (GPa) = 49.90087 58.45933 54.18010
# Shear Modulus (GPa) = 27.79352 35.63635 31.71493
#
# Velocity S-wave (km/s) = 3.55744 4.02821 3.80012
# Velocity P-wave (km/s) = 6.29250 6.94651 6.62757
#
# Compressibility (1/GPa) = 0.02003973
#
# Stress axis : x y z
#
# Youngs Moduli (GPa) = 121.73745 112.39040 58.61074
#
# Poissons Ratio (x) = 0.26555 0.07544
# Poissons Ratio (y) = 0.28763 0.20028
# Poissons Ratio (z) = 0.15669 0.38406
#
# Static dielectric constant tensor:
#      x y z
#    x 4.284640 0.000000 0.000000 
#    y 0.000000 4.443050 0.000000 
#    z 0.000000 0.000000 3.310930 
# 
# 
# High freq. dielectric constant tensor:
#      x y z
#    x 1.893970 0.000000 0.000000 
#    y 0.000000 1.885320 0.000000 
#    z 0.000000 0.000000 1.797780 
# 
# From -- ./inp_files/13685.got.cif
#   From: 2010.03.12/outbox.cif.g09.slc.cpg/sg56_7_cif.got.tgz:13685.got - 2010.04.16 15:33:40.
