data_PCOD8229052
_publ_section_title
;
Structure prediction by ZEFSAII (Michael W. Deem and Ramdas Pophale) SiO2 
 PCOD8229052
Probable space group: P C C N
;
_chemical_formula_sum "Si O2"
_cell_formula_units_Z 40
_cell_length_a 22.762802
_cell_length_b 4.941773
_cell_length_c 13.902900
_cell_angle_alpha 90.000000
_cell_angle_beta 90.000000
_cell_angle_gamma 90.000000
_cell_volume 1563.917761
_symmetry_space_group_name_H-M "P C C N"
_symmetry_group_IT_number 56
_symmetry_cell_setting 'orthorhombic'
loop_
_space_group_symop_operation_xyz
x,y,z
1/2-x,1/2-y,z
1/2+x,-y,1/2-z
-x,1/2+y,1/2-z
-x,-y,-z
1/2+x,1/2+y,-z
1/2-x,y,1/2+z
x,1/2-y,1/2+z
loop_
_atom_site_type_symbol
_atom_site_label
_atom_site_fract_x
_atom_site_fract_y
_atom_site_fract_z
Si Si1 0.750000 0.250000 0.059254
Si Si2 0.750000 0.750000 0.688165
Si Si3 0.124158 0.885258 0.969911
Si Si4 0.429240 0.400680 0.564899
Si Si5 0.624406 0.647624 0.233807
Si Si6 0.974973 0.042729 0.698073
O O1 0.771286 0.500427 0.123098
O O2 0.693046 0.354647 0.998791
O O3 0.806431 0.690361 0.753370
O O4 0.089464 0.098466 0.035685
O O5 0.092867 0.599056 0.982521
O O6 0.117274 0.943895 0.856586
O O7 0.398842 0.473908 0.666871
O O8 0.499495 0.436255 0.587626
O O9 0.590861 0.927132 0.205593
O O10 0.018921 0.841086 0.756955
#
# Coordination Sequence:
#
# PCOD8229052 Si02
#       6
#     4   4   8   8   8   8
#     4  10  22  42  62  94 136 166 214 284 326 378
#     4  10  22  40  68  94 122 178 222 254 338 402
#     4  11  24  41  66  95 129 171 218 268 326 393
#     4  11  24  41  65  99 127 171 224 261 332 402
#     4  10  24  44  67  94 135 171 215 280 327 390
#     4  10  22  41  65  95 136 174 215 279 335 386
#
# _framework density 25.576794
#
# number of rings (size 3 to 8) (size 9 to 14) (size 15 to 20)
#    0.000    1.600    0.000    4.800    0.000   17.600 
#    0.000    1.000    0.000    0.000    0.000    0.000 
#    0.000    0.000    0.000    0.000    0.000    0.000 
#
# Total GULP energy -495789.973144 kJ/mol
# GULP energy per Si atom -12394.749329 kJ/mol
# Density = 2.551858 g / cm^3
# Si number density = 25.576794 Si / 1000 Ang^3
#
#
#
# Elastic Constant Matrix: (Units=GPa)
#
#
# Indices 1 2 3 4 5 6 
#
# 1 159.9127 -0.1481 21.6662 0.0000 0.0000 0.0000
# 2 -0.1481 84.6013 9.9801 0.0000 0.0000 0.0000
# 3 21.6662 9.9801 74.9780 0.0000 0.0000 0.0000
# 4 0.0000 0.0000 0.0000 34.8222 0.0000 0.0000
# 5 0.0000 0.0000 0.0000 0.0000 44.7005 0.0000
# 6 0.0000 0.0000 0.0000 0.0000 0.0000 38.2248
#
#
#
# Elastic Compliance Matrix: (Units=1/GPa)
#
#
# Indices 1 2 3 4 5 6 
#
# 1 0.006513 0.000237 -0.001914 0.000000 0.000000 0.000000
# 2 0.000237 0.012017 -0.001668 0.000000 0.000000 0.000000
# 3 -0.001914 -0.001668 0.014112 0.000000 0.000000 0.000000
# 4 0.000000 0.000000 0.000000 0.028717 0.000000 0.000000
# 5 0.000000 0.000000 0.000000 0.000000 0.022371 0.000000
# 6 0.000000 0.000000 0.000000 0.000000 0.000000 0.026161
#
#
# Mechanical properties :
#
#
# Convention : Reuss Voigt Hill
#
# Bulk Modulus (GPa) = 38.53065 42.49871 40.51468
# Shear Modulus (GPa) = 39.92583 42.74908 41.33745
#
# Velocity S-wave (km/s) = 3.95526 4.09271 4.02457
# Velocity P-wave (km/s) = 5.99634 6.24387 6.12136
#
# Compressibility (1/GPa) = 0.02595337
#
# Stress axis : x y z
#
# Youngs Moduli (GPa) = 153.54146 83.21309 70.86043
#
# Poissons Ratio (x) = -0.01973 0.13560
# Poissons Ratio (y) = -0.03641 0.11820
# Poissons Ratio (z) = 0.29381 0.13881
#
# Static dielectric constant tensor:
#      x y z
#    x 5.043290 0.000000 0.000000 
#    y 0.000000 4.495080 0.000000 
#    z 0.000000 0.000000 4.434910 
# 
# 
# High freq. dielectric constant tensor:
#      x y z
#    x 2.050580 0.000000 0.000000 
#    y 0.000000 2.028290 0.000000 
#    z 0.000000 0.000000 2.008960 
# 
# From -- ./inp_files/13185.got.cif
#   From: 2010.03.12/outbox.cif.g09.slc.cpg/sg56_7_cif.got.tgz:13185.got - 2010.04.16 15:33:40.
