data_PCOD8229636
_publ_section_title
;
Structure prediction by ZEFSAII (Michael W. Deem and Ramdas Pophale) SiO2 
 PCOD8229636
Probable space group: P C C N
;
_chemical_formula_sum "Si O2"
_cell_formula_units_Z 60
_cell_length_a 16.565785
_cell_length_b 6.581992
_cell_length_c 26.060073
_cell_angle_alpha 90.000000
_cell_angle_beta 90.000000
_cell_angle_gamma 90.000000
_cell_volume 2841.482584
_symmetry_space_group_name_H-M "P C C N"
_symmetry_group_IT_number 56
_symmetry_cell_setting 'orthorhombic'
loop_
_space_group_symop_operation_xyz
x,y,z
1/2-x,1/2-y,z
1/2+x,-y,1/2-z
-x,1/2+y,1/2-z
-x,-y,-z
1/2+x,1/2+y,-z
1/2-x,y,1/2+z
x,1/2-y,1/2+z
loop_
_atom_site_type_symbol
_atom_site_label
_atom_site_fract_x
_atom_site_fract_y
_atom_site_fract_z
Si Si1 0.181512 0.579543 0.142072
Si Si2 0.677556 0.910158 0.606652
Si Si3 0.116869 0.545014 0.033418
Si Si4 0.750000 0.250000 0.036359
Si Si5 0.916654 0.345190 0.291485
Si Si6 0.039041 0.302512 0.472487
Si Si7 0.082818 0.975762 0.794103
Si Si8 0.168620 0.256989 0.722318
O O1 0.250000 0.750000 0.146983
O O2 0.168547 0.511593 0.084133
O O3 0.100065 0.676482 0.165795
O O4 0.196429 0.372467 0.172477
O O5 0.750000 0.750000 0.617891
O O6 0.597191 0.834867 0.576675
O O7 0.719008 0.073151 0.571540
O O8 0.646453 0.015397 0.659328
O O9 0.035564 0.667068 0.046395
O O10 0.173575 0.671885 0.995491
O O11 0.093629 0.321822 0.013001
O O12 0.917187 0.242679 0.234477
O O13 0.846364 0.510552 0.291414
O O14 0.993308 0.470702 0.311763
O O15 0.000000 0.500000 0.500000
O O16 0.096699 0.157626 0.753685
O O17 0.250000 0.250000 0.757330
#
# Coordination Sequence:
#
# PCOD8229636 Si02
#       8
#     8   8   8   4   8   8   8   8
#     4  11  23  40  68  99 130 173 222 280 350 404
#     4  12  26  46  69 105 140 191 235 290 353 432
#     4  11  24  44  71 101 139 182 230 302 342 416
#     4  12  24  46  68 100 146 182 246 290 354 418
#     4  11  23  46  65  99 135 171 226 287 343 426
#     4  11  24  46  69  97 141 186 233 285 354 412
#     4  11  25  43  71  95 135 179 227 285 347 412
#     4  11  23  43  65  97 134 172 218 278 349 417
#
# _framework density 21.115735999999998
#
# number of rings (size 3 to 8) (size 9 to 14) (size 15 to 20)
#    0.000    0.800    6.000    1.200    0.000    4.267 
#    2.400    0.000    0.000    0.000    0.000    0.000 
#    0.000    0.000    0.000    0.000    0.000    0.000 
#
# Total GULP energy -743452.058921 kJ/mol
# GULP energy per Si atom -12390.867649 kJ/mol
# Density = 2.106768 g / cm^3
# Si number density = 21.115736 Si / 1000 Ang^3
#
#
#
# Elastic Constant Matrix: (Units=GPa)
#
#
# Indices 1 2 3 4 5 6 
#
# 1 104.7264 31.4918 27.6531 0.0000 0.0000 0.0000
# 2 31.4918 96.1763 19.1362 0.0000 0.0000 0.0000
# 3 27.6531 19.1362 86.7870 0.0000 0.0000 0.0000
# 4 0.0000 0.0000 0.0000 26.8324 0.0000 0.0000
# 5 0.0000 0.0000 0.0000 0.0000 45.0469 0.0000
# 6 0.0000 0.0000 0.0000 0.0000 0.0000 45.0186
#
#
#
# Elastic Compliance Matrix: (Units=1/GPa)
#
#
# Indices 1 2 3 4 5 6 
#
# 1 0.011248 -0.003106 -0.002899 0.000000 0.000000 0.000000
# 2 -0.003106 0.011732 -0.001597 0.000000 0.000000 0.000000
# 3 -0.002899 -0.001597 0.012798 0.000000 0.000000 0.000000
# 4 0.000000 0.000000 0.000000 0.037268 0.000000 0.000000
# 5 0.000000 0.000000 0.000000 0.000000 0.022199 0.000000
# 6 0.000000 0.000000 0.000000 0.000000 0.000000 0.022213
#
#
# Mechanical properties :
#
#
# Convention : Reuss Voigt Hill
#
# Bulk Modulus (GPa) = 48.60522 49.36132 48.98327
# Shear Modulus (GPa) = 35.83641 37.34015 36.58828
#
# Velocity S-wave (km/s) = 4.12411 4.20975 4.16715
# Velocity P-wave (km/s) = 6.76359 6.85978 6.81185
#
# Compressibility (1/GPa) = 0.02057392
#
# Stress axis : x y z
#
# Youngs Moduli (GPa) = 88.90243 85.23344 78.13478
#
# Poissons Ratio (x) = 0.26476 0.22652
# Poissons Ratio (y) = 0.27616 0.12480
# Poissons Ratio (z) = 0.25774 0.13614
#
# Static dielectric constant tensor:
#      x y z
#    x 3.986860 0.000000 0.000000 
#    y 0.000000 3.874540 0.000000 
#    z 0.000000 0.000000 3.670070 
# 
# 
# High freq. dielectric constant tensor:
#      x y z
#    x 1.852210 0.000000 0.000000 
#    y 0.000000 1.836510 0.000000 
#    z 0.000000 0.000000 1.816790 
# 
# From -- ./inp_files/22525.got.cif
#   From: 2010.03.12/outbox.cif.g09.slc.cpg/sg56_12_cif.got.tgz:22525.got - 2010.04.16 15:33:40.
