data_PCOD8229316
_publ_section_title
;
Structure prediction by ZEFSAII (Michael W. Deem and Ramdas Pophale) SiO2 
 PCOD8229316
Probable space group: P C C N
;
_chemical_formula_sum "Si O2"
_cell_formula_units_Z 32
_cell_length_a 19.417447
_cell_length_b 4.957622
_cell_length_c 13.882124
_cell_angle_alpha 90.000000
_cell_angle_beta 90.000000
_cell_angle_gamma 90.000000
_cell_volume 1336.353816
_symmetry_space_group_name_H-M "P C C N"
_symmetry_group_IT_number 56
_symmetry_cell_setting 'orthorhombic'
loop_
_space_group_symop_operation_xyz
x,y,z
1/2-x,1/2-y,z
1/2+x,-y,1/2-z
-x,1/2+y,1/2-z
-x,-y,-z
1/2+x,1/2+y,-z
1/2-x,y,1/2+z
x,1/2-y,1/2+z
loop_
_atom_site_type_symbol
_atom_site_label
_atom_site_fract_x
_atom_site_fract_y
_atom_site_fract_z
Si Si1 0.369272 0.623052 0.576904
Si Si2 0.674773 0.644700 0.032011
Si Si3 0.042323 0.649565 0.728256
Si Si4 0.322571 0.875344 0.279233
O O1 0.380463 0.358289 0.511019
O O2 0.441434 0.740431 0.619604
O O3 0.321166 0.527209 0.667961
O O4 0.332303 0.851084 0.514530
O O5 0.750000 0.750000 0.005683
O O6 0.663500 0.622205 0.147326
O O7 0.113556 0.662887 0.789833
O O8 0.015758 0.343425 0.724619
O O9 0.250000 0.750000 0.310839
#
# Coordination Sequence:
#
# PCOD8229316 Si02
#       4
#     8   8   8   8
#     4  10  25  42  69  95 140 173 225 272 345 385
#     4  12  23  41  65 106 136 171 224 282 335 410
#     4  10  23  46  68  95 137 182 225 274 335 407
#     4  10  24  43  72 100 137 178 226 283 340 396
#
# _framework density 23.945754999999998
#
# number of rings (size 3 to 8) (size 9 to 14) (size 15 to 20)
#    1.500    0.000    0.000    5.250    0.000    9.000 
#    0.000    7.500    0.000    0.000    0.000    0.000 
#    0.000    0.000    0.000    0.000    0.000    0.000 
#
# Total GULP energy -396539.019081 kJ/mol
# GULP energy per Si atom -12391.844346 kJ/mol
# Density = 2.389125 g / cm^3
# Si number density = 23.945755 Si / 1000 Ang^3
#
#
#
# Elastic Constant Matrix: (Units=GPa)
#
#
# Indices 1 2 3 4 5 6 
#
# 1 92.0472 -1.8530 11.8461 0.0000 0.0000 0.0000
# 2 -1.8530 101.3366 61.7859 0.0000 0.0000 0.0000
# 3 11.8461 61.7859 102.2442 0.0000 0.0000 0.0000
# 4 0.0000 0.0000 0.0000 1.3261 0.0000 0.0000
# 5 0.0000 0.0000 0.0000 0.0000 10.6692 0.0000
# 6 0.0000 0.0000 0.0000 0.0000 0.0000 30.1117
#
#
#
# Elastic Compliance Matrix: (Units=1/GPa)
#
#
# Indices 1 2 3 4 5 6 
#
# 1 0.011185 0.001575 -0.002248 0.000000 0.000000 0.000000
# 2 0.001575 0.015847 -0.009759 0.000000 0.000000 0.000000
# 3 -0.002248 -0.009759 0.015938 0.000000 0.000000 0.000000
# 4 0.000000 0.000000 0.000000 0.754106 0.000000 0.000000
# 5 0.000000 0.000000 0.000000 0.000000 0.093727 0.000000
# 6 0.000000 0.000000 0.000000 0.000000 0.000000 0.033210
#
#
# Mechanical properties :
#
#
# Convention : Reuss Voigt Hill
#
# Bulk Modulus (GPa) = 45.23429 48.79841 47.01635
# Shear Modulus (GPa) = 5.25075 23.34468 14.29772
#
# Velocity S-wave (km/s) = 1.48241 3.12572 2.44619
# Velocity P-wave (km/s) = 4.67561 5.78358 5.25886
#
# Compressibility (1/GPa) = 0.02210712
#
# Stress axis : x y z
#
# Youngs Moduli (GPa) = 89.40578 63.10400 62.74290
#
# Poissons Ratio (x) = -0.09938 0.14102
# Poissons Ratio (y) = -0.14081 0.61229
# Poissons Ratio (z) = 0.20095 0.61581
#
# Static dielectric constant tensor:
#      x y z
#    x 4.003630 0.000000 0.000000 
#    y 0.000000 4.048470 0.000000 
#    z 0.000000 0.000000 4.262030 
# 
# 
# High freq. dielectric constant tensor:
#      x y z
#    x 1.928200 0.000000 0.000000 
#    y 0.000000 1.941260 0.000000 
#    z 0.000000 0.000000 1.948340 
# 
# From -- ./inp_files/12520.got.cif
#   From: 2010.03.12/outbox.cif.g09.slc.cpg/sg56_7_cif.got.tgz:12520.got - 2010.04.16 15:33:40.
