data_PCOD8229462
_publ_section_title
;
Structure prediction by ZEFSAII (Michael W. Deem and Ramdas Pophale) SiO2 
 PCOD8229462
Probable space group: P C C N
;
_chemical_formula_sum "Si O2"
_cell_formula_units_Z 48
_cell_length_a 9.106531
_cell_length_b 21.738863
_cell_length_c 10.590731
_cell_angle_alpha 90.000000
_cell_angle_beta 90.000000
_cell_angle_gamma 90.000000
_cell_volume 2096.600733
_symmetry_space_group_name_H-M "P C C N"
_symmetry_group_IT_number 56
_symmetry_cell_setting 'orthorhombic'
loop_
_space_group_symop_operation_xyz
x,y,z
1/2-x,1/2-y,z
1/2+x,-y,1/2-z
-x,1/2+y,1/2-z
-x,-y,-z
1/2+x,1/2+y,-z
1/2-x,y,1/2+z
x,1/2-y,1/2+z
loop_
_atom_site_type_symbol
_atom_site_label
_atom_site_fract_x
_atom_site_fract_y
_atom_site_fract_z
Si Si1 0.025066 0.538013 0.625905
Si Si2 0.406506 0.230576 0.445916
Si Si3 0.534958 0.580659 0.743234
Si Si4 0.363887 0.864810 0.460563
Si Si5 0.464429 0.854006 0.002429
Si Si6 0.340157 0.132982 0.242630
O O1 0.879526 0.573300 0.672767
O O2 0.000000 0.500000 0.500000
O O3 0.080736 0.491269 0.734950
O O4 0.137301 0.592710 0.587678
O O5 0.250000 0.250000 0.512774
O O6 0.514531 0.189286 0.531629
O O7 0.491632 0.293702 0.417993
O O8 0.371199 0.196670 0.314728
O O9 0.482090 0.588998 0.598961
O O10 0.667820 0.625690 0.782725
O O11 0.399211 0.596008 0.835581
O O12 0.197830 0.841551 0.448185
O O13 0.572506 0.866969 0.887342
#
# Coordination Sequence:
#
# PCOD8229462 Si02
#       6
#     8   8   8   8   8   8
#     4   9  23  45  73  98 148 183 232 299 353 420
#     4  11  23  47  70  97 142 187 237 296 355 424
#     4  11  25  45  73 103 144 187 238 295 360 430
#     4  10  25  46  69 103 143 182 241 296 362 425
#     4  12  27  43  73 105 137 191 235 297 364 423
#     4  11  26  45  72 109 140 193 247 291 362 441
#
# _framework density 22.894200999999999
#
# number of rings (size 3 to 8) (size 9 to 14) (size 15 to 20)
#    0.000    1.333    1.667    1.500   14.000    2.667 
#    0.000    0.000    0.000    0.000    0.000    0.000 
#    0.000    0.000    0.000    0.000    0.000    0.000 
#
# Total GULP energy -594938.692144 kJ/mol
# GULP energy per Si atom -12394.556086 kJ/mol
# Density = 2.284209 g / cm^3
# Si number density = 22.894201 Si / 1000 Ang^3
#
#
#
# Elastic Constant Matrix: (Units=GPa)
#
#
# Indices 1 2 3 4 5 6 
#
# 1 146.0513 27.1017 45.2596 0.0000 0.0000 0.0000
# 2 27.1017 107.7841 38.6697 0.0000 0.0000 0.0000
# 3 45.2596 38.6697 95.0974 0.0000 0.0000 0.0000
# 4 0.0000 0.0000 0.0000 34.1929 0.0000 0.0000
# 5 0.0000 0.0000 0.0000 0.0000 34.8903 0.0000
# 6 0.0000 0.0000 0.0000 0.0000 0.0000 26.9482
#
#
#
# Elastic Compliance Matrix: (Units=1/GPa)
#
#
# Indices 1 2 3 4 5 6 
#
# 1 0.008085 -0.000764 -0.003537 0.000000 0.000000 0.000000
# 2 -0.000764 0.010935 -0.004083 0.000000 0.000000 0.000000
# 3 -0.003537 -0.004083 0.013859 0.000000 0.000000 0.000000
# 4 0.000000 0.000000 0.000000 0.029246 0.000000 0.000000
# 5 0.000000 0.000000 0.000000 0.000000 0.028661 0.000000
# 6 0.000000 0.000000 0.000000 0.000000 0.000000 0.037108
#
#
# Mechanical properties :
#
#
# Convention : Reuss Voigt Hill
#
# Bulk Modulus (GPa) = 62.06977 63.44387 62.75682
# Shear Modulus (GPa) = 33.32624 35.06643 34.19633
#
# Velocity S-wave (km/s) = 3.81945 3.91790 3.86899
# Velocity P-wave (km/s) = 6.82799 6.94540 6.88694
#
# Compressibility (1/GPa) = 0.01611090
#
# Stress axis : x y z
#
# Youngs Moduli (GPa) = 123.68925 91.45224 72.15425
#
# Poissons Ratio (x) = 0.06985 0.25522
# Poissons Ratio (y) = 0.09448 0.29460
# Poissons Ratio (z) = 0.43751 0.37339
#
# Static dielectric constant tensor:
#      x y z
#    x 4.034800 0.000000 0.000000 
#    y 0.000000 4.506370 0.000000 
#    z 0.000000 0.000000 3.883770 
# 
# 
# High freq. dielectric constant tensor:
#      x y z
#    x 1.899410 0.000000 0.000000 
#    y 0.000000 1.914070 0.000000 
#    z 0.000000 0.000000 1.893090 
# 
# From -- ./inp_files/6431.got.cif
#   From: 2010.03.12/outbox.cif.g09.slc.cpg/sg56_4_cif.got.tgz:6431.got - 2010.04.16 15:33:40.
