data_PCOD8229235
_publ_section_title
;
Structure prediction by ZEFSAII (Michael W. Deem and Ramdas Pophale) SiO2 
 PCOD8229235
Probable space group: P C C N
;
_chemical_formula_sum "Si O2"
_cell_formula_units_Z 32
_cell_length_a 13.564932
_cell_length_b 5.172819
_cell_length_c 18.735143
_cell_angle_alpha 90.000000
_cell_angle_beta 90.000000
_cell_angle_gamma 90.000000
_cell_volume 1314.625087
_symmetry_space_group_name_H-M "P C C N"
_symmetry_group_IT_number 56
_symmetry_cell_setting 'orthorhombic'
loop_
_space_group_symop_operation_xyz
x,y,z
1/2-x,1/2-y,z
1/2+x,-y,1/2-z
-x,1/2+y,1/2-z
-x,-y,-z
1/2+x,1/2+y,-z
1/2-x,y,1/2+z
x,1/2-y,1/2+z
loop_
_atom_site_type_symbol
_atom_site_label
_atom_site_fract_x
_atom_site_fract_y
_atom_site_fract_z
Si Si1 0.617305 0.950384 0.997376
Si Si2 0.415934 0.547542 0.058835
Si Si3 0.750000 0.750000 0.619995
Si Si4 0.451356 0.884138 0.719412
Si Si5 0.250000 0.750000 0.289472
O O1 0.644844 0.722082 0.940847
O O2 0.658214 0.223528 0.967500
O O3 0.659708 0.864788 0.073765
O O4 0.500000 0.000000 0.000000
O O5 0.464094 0.608879 0.134530
O O6 0.500000 0.500000 0.000000
O O7 0.785759 0.501307 0.665366
O O8 0.522483 0.661696 0.748088
O O9 0.338903 0.830264 0.738813
#
# Coordination Sequence:
#
# PCOD8229235 Si02
#       5
#     8   8   4   8   4
#     4  10  23  40  71 106 145 186 257 311 385 441
#     4  10  23  43  74 107 145 189 257 306 386 452
#     4  12  26  46  74 112 154 206 254 334 380 474
#     4  12  28  48  78 111 161 206 255 325 392 469
#     4  12  30  46  76 112 158 204 270 298 410 476
#
# _framework density 24.341542
#
# number of rings (size 3 to 8) (size 9 to 14) (size 15 to 20)
#    0.000    1.000    0.000    4.500   21.000    2.000 
#    0.000    0.000    0.000    0.000    0.000    0.000 
#    0.000    0.000    0.000    0.000    0.000    0.000 
#
# Total GULP energy -396564.280532 kJ/mol
# GULP energy per Si atom -12392.633767 kJ/mol
# Density = 2.428614 g / cm^3
# Si number density = 24.341542 Si / 1000 Ang^3
#
#
#
# Elastic Constant Matrix: (Units=GPa)
#
#
# Indices 1 2 3 4 5 6 
#
# 1 89.7092 8.5340 39.2772 0.0000 0.0000 0.0000
# 2 8.5340 234.0861 62.7368 0.0000 0.0000 0.0000
# 3 39.2772 62.7368 178.7122 0.0000 0.0000 0.0000
# 4 0.0000 0.0000 0.0000 46.0275 0.0000 0.0000
# 5 0.0000 0.0000 0.0000 0.0000 19.9397 0.0000
# 6 0.0000 0.0000 0.0000 0.0000 0.0000 29.3864
#
#
#
# Elastic Compliance Matrix: (Units=1/GPa)
#
#
# Indices 1 2 3 4 5 6 
#
# 1 0.012354 0.000306 -0.002823 0.000000 0.000000 0.000000
# 2 0.000306 0.004723 -0.001725 0.000000 0.000000 0.000000
# 3 -0.002823 -0.001725 0.006822 0.000000 0.000000 0.000000
# 4 0.000000 0.000000 0.000000 0.021726 0.000000 0.000000
# 5 0.000000 0.000000 0.000000 0.000000 0.050151 0.000000
# 6 0.000000 0.000000 0.000000 0.000000 0.000000 0.034029
#
#
# Mechanical properties :
#
#
# Convention : Reuss Voigt Hill
#
# Bulk Modulus (GPa) = 64.87203 80.40040 72.63621
# Shear Modulus (GPa) = 34.86090 45.20137 40.03113
#
# Velocity S-wave (km/s) = 3.78849 4.31393 4.05972
# Velocity P-wave (km/s) = 6.77093 7.61020 7.20280
#
# Compressibility (1/GPa) = 0.01541496
#
# Stress axis : x y z
#
# Youngs Moduli (GPa) = 80.94675 211.72191 146.59298
#
# Poissons Ratio (x) = -0.06481 0.41377
# Poissons Ratio (y) = -0.02478 0.25292
# Poissons Ratio (z) = 0.22848 0.36529
#
# Static dielectric constant tensor:
#      x y z
#    x 4.114690 0.000000 0.000000 
#    y 0.000000 2.902240 0.000000 
#    z 0.000000 0.000000 4.288480 
# 
# 
# High freq. dielectric constant tensor:
#      x y z
#    x 1.958770 0.000000 0.000000 
#    y 0.000000 2.016000 0.000000 
#    z 0.000000 0.000000 1.953510 
# 
# From -- ./inp_files/15976.got.cif
#   From: 2010.03.12/outbox.cif.g09.slc.cpg/sg56_8_cif.got.tgz:15976.got - 2010.04.16 15:33:40.
