data_PCOD8229153
_publ_section_title
;
Structure prediction by ZEFSAII (Michael W. Deem and Ramdas Pophale) SiO2 
 PCOD8229153
Probable space group: P C C N
;
_chemical_formula_sum "Si O2"
_cell_formula_units_Z 32
_cell_length_a 12.678425
_cell_length_b 12.240499
_cell_length_c 9.366549
_cell_angle_alpha 90.000000
_cell_angle_beta 90.000000
_cell_angle_gamma 90.000000
_cell_volume 1453.597067
_symmetry_space_group_name_H-M "P C C N"
_symmetry_group_IT_number 56
_symmetry_cell_setting 'orthorhombic'
loop_
_space_group_symop_operation_xyz
x,y,z
1/2-x,1/2-y,z
1/2+x,-y,1/2-z
-x,1/2+y,1/2-z
-x,-y,-z
1/2+x,1/2+y,-z
1/2-x,y,1/2+z
x,1/2-y,1/2+z
loop_
_atom_site_type_symbol
_atom_site_label
_atom_site_fract_x
_atom_site_fract_y
_atom_site_fract_z
Si Si1 0.995051 0.196926 0.867429
Si Si2 0.831982 0.958239 0.247603
Si Si3 0.175660 0.349272 0.954895
Si Si4 0.641525 0.193734 0.637699
O O1 0.927951 0.221529 0.726985
O O2 0.070243 0.095298 0.834741
O O3 0.918489 0.160018 0.994046
O O4 0.061606 0.304546 0.909455
O O5 0.835522 0.932942 0.415091
O O6 0.836304 0.087811 0.233343
O O7 0.723571 0.912113 0.180994
O O8 0.250000 0.250000 0.005675
O O9 0.750000 0.250000 0.591925
#
# Coordination Sequence:
#
# PCOD8229153 Si02
#       4
#     8   8   8   8
#     4  11  24  48  67  96 136 178 225 270 329 405
#     4  11  25  43  72  99 132 177 220 276 342 385
#     4  10  22  43  71 100 129 173 228 277 323 404
#     4  12  28  44  66  99 142 173 224 278 328 396
#
# _framework density 22.014354000000001
#
# number of rings (size 3 to 8) (size 9 to 14) (size 15 to 20)
#    0.000    1.000    2.500    3.750   10.500    3.000 
#    0.000    0.000    0.000    0.000    0.000    0.000 
#    0.000    0.000    0.000    0.000    0.000    0.000 
#
# Total GULP energy -397094.439831 kJ/mol
# GULP energy per Si atom -12409.201245 kJ/mol
# Density = 2.196425 g / cm^3
# Si number density = 22.014354 Si / 1000 Ang^3
#
#
#
# Elastic Constant Matrix: (Units=GPa)
#
#
# Indices 1 2 3 4 5 6 
#
# 1 104.9839 8.1584 16.3946 0.0000 0.0000 0.0000
# 2 8.1584 60.3656 -18.0845 0.0000 0.0000 0.0000
# 3 16.3946 -18.0845 74.7445 0.0000 0.0000 0.0000
# 4 0.0000 0.0000 0.0000 24.5926 0.0000 0.0000
# 5 0.0000 0.0000 0.0000 0.0000 24.0296 0.0000
# 6 0.0000 0.0000 0.0000 0.0000 0.0000 19.6411
#
#
#
# Elastic Compliance Matrix: (Units=1/GPa)
#
#
# Indices 1 2 3 4 5 6 
#
# 1 0.010125 -0.002193 -0.002751 0.000000 0.000000 0.000000
# 2 -0.002193 0.018335 0.004917 0.000000 0.000000 0.000000
# 3 -0.002751 0.004917 0.015172 0.000000 0.000000 0.000000
# 4 0.000000 0.000000 0.000000 0.040663 0.000000 0.000000
# 5 0.000000 0.000000 0.000000 0.000000 0.041615 0.000000
# 6 0.000000 0.000000 0.000000 0.000000 0.000000 0.050914
#
#
# Mechanical properties :
#
#
# Convention : Reuss Voigt Hill
#
# Bulk Modulus (GPa) = 22.94701 28.11455 25.53078
# Shear Modulus (GPa) = 26.12268 29.22769 27.67518
#
# Velocity S-wave (km/s) = 3.44847 3.64767 3.54947
# Velocity P-wave (km/s) = 5.12857 5.52624 5.33112
#
# Compressibility (1/GPa) = 0.04357865
#
# Stress axis : x y z
#
# Youngs Moduli (GPa) = 98.76210 54.53999 65.91034
#
# Poissons Ratio (x) = 0.11959 0.18135
# Poissons Ratio (y) = 0.21656 -0.32409
# Poissons Ratio (z) = 0.27174 -0.26818
#
# Static dielectric constant tensor:
#      x y z
#    x 4.162980 0.000000 0.000000 
#    y 0.000000 3.730360 0.000000 
#    z 0.000000 0.000000 3.865530 
# 
# 
# High freq. dielectric constant tensor:
#      x y z
#    x 1.876530 0.000000 0.000000 
#    y 0.000000 1.857580 0.000000 
#    z 0.000000 0.000000 1.873440 
# 
# From -- ./inp_files/2415.got.cif
#   From: 2010.03.12/outbox.cif.g09.slc.cpg/sg56_2_cif.got.tgz:2415.got - 2010.04.16 15:33:40.
