data_PCOD8229446
_publ_section_title
;
Structure prediction by ZEFSAII (Michael W. Deem and Ramdas Pophale) SiO2 
 PCOD8229446
Probable space group: P C C N
;
_chemical_formula_sum "Si O2"
_cell_formula_units_Z 48
_cell_length_a 23.810512
_cell_length_b 8.881437
_cell_length_c 9.709891
_cell_angle_alpha 90.000000
_cell_angle_beta 90.000000
_cell_angle_gamma 90.000000
_cell_volume 2053.365819
_symmetry_space_group_name_H-M "P C C N"
_symmetry_group_IT_number 56
_symmetry_cell_setting 'orthorhombic'
loop_
_space_group_symop_operation_xyz
x,y,z
1/2-x,1/2-y,z
1/2+x,-y,1/2-z
-x,1/2+y,1/2-z
-x,-y,-z
1/2+x,1/2+y,-z
1/2-x,y,1/2+z
x,1/2-y,1/2+z
loop_
_atom_site_type_symbol
_atom_site_label
_atom_site_fract_x
_atom_site_fract_y
_atom_site_fract_z
Si Si1 0.240976 0.576436 0.407469
Si Si2 0.939012 0.304656 0.297825
Si Si3 0.387482 0.599288 0.932461
Si Si4 0.100409 0.200850 0.039570
Si Si5 0.048332 0.362921 0.810758
Si Si6 0.220414 0.101853 0.159049
O O1 0.250000 0.750000 0.440595
O O2 0.174812 0.559421 0.380189
O O3 0.281057 0.518699 0.283784
O O4 0.257510 0.475576 0.539520
O O5 0.891114 0.324059 0.415201
O O6 0.956744 0.462650 0.228563
O O7 0.990944 0.213171 0.365649
O O8 0.915817 0.202773 0.177748
O O9 0.421466 0.441972 0.948779
O O10 0.063118 0.232044 0.173444
O O11 0.160995 0.152072 0.098259
O O12 0.095143 0.341911 0.933731
O O13 0.250000 0.250000 0.218141
#
# Coordination Sequence:
#
# PCOD8229446 Si02
#       6
#     8   8   8   8   8   8
#     4  11  26  44  72 104 142 185 236 299 361 432
#     4  11  24  44  70 102 142 185 239 291 362 430
#     4  10  25  43  66 100 138 181 232 289 354 427
#     4  10  25  43  66 100 136 183 231 288 357 424
#     4  11  24  43  69  99 142 181 233 293 354 431
#     4  11  26  45  71 104 141 187 237 296 360 435
#
# _framework density 23.376255
#
# number of rings (size 3 to 8) (size 9 to 14) (size 15 to 20)
#    0.000    1.333    0.000    3.000   16.333    6.667 
#    0.000    0.000    0.000    0.000    0.000    0.000 
#    0.000    0.000    0.000    0.000    0.000    0.000 
#
# Total GULP energy -594836.000464 kJ/mol
# GULP energy per Si atom -12392.416676 kJ/mol
# Density = 2.332305 g / cm^3
# Si number density = 23.376255 Si / 1000 Ang^3
#
#
#
# Elastic Constant Matrix: (Units=GPa)
#
#
# Indices 1 2 3 4 5 6 
#
# 1 59.7449 22.1621 18.6662 0.0000 0.0000 0.0000
# 2 22.1621 61.8544 9.8866 0.0000 0.0000 0.0000
# 3 18.6662 9.8866 82.9129 0.0000 0.0000 0.0000
# 4 0.0000 0.0000 0.0000 37.8864 0.0000 0.0000
# 5 0.0000 0.0000 0.0000 0.0000 40.8228 0.0000
# 6 0.0000 0.0000 0.0000 0.0000 0.0000 34.3861
#
#
#
# Elastic Compliance Matrix: (Units=1/GPa)
#
#
# Indices 1 2 3 4 5 6 
#
# 1 0.020411 -0.006707 -0.003796 0.000000 0.000000 0.000000
# 2 -0.006707 0.018685 -0.000718 0.000000 0.000000 0.000000
# 3 -0.003796 -0.000718 0.013001 0.000000 0.000000 0.000000
# 4 0.000000 0.000000 0.000000 0.026395 0.000000 0.000000
# 5 0.000000 0.000000 0.000000 0.000000 0.024496 0.000000
# 6 0.000000 0.000000 0.000000 0.000000 0.000000 0.029082
#
#
# Mechanical properties :
#
#
# Convention : Reuss Voigt Hill
#
# Bulk Modulus (GPa) = 33.71936 33.99359 33.85647
# Shear Modulus (GPa) = 30.41442 32.87221 31.64331
#
# Velocity S-wave (km/s) = 3.61096 3.75403 3.68319
# Velocity P-wave (km/s) = 5.64281 5.77614 5.70987
#
# Compressibility (1/GPa) = 0.02965655
#
# Stress axis : x y z
#
# Youngs Moduli (GPa) = 48.99200 53.51956 76.91737
#
# Poissons Ratio (x) = 0.35894 0.29194
# Poissons Ratio (y) = 0.32857 0.05524
# Poissons Ratio (z) = 0.18595 0.03843
#
# Static dielectric constant tensor:
#      x y z
#    x 4.178350 0.000000 0.000000 
#    y 0.000000 4.465090 0.000000 
#    z 0.000000 0.000000 4.347650 
# 
# 
# High freq. dielectric constant tensor:
#      x y z
#    x 1.908640 0.000000 0.000000 
#    y 0.000000 1.933350 0.000000 
#    z 0.000000 0.000000 1.935780 
# 
# From -- ./inp_files/5140.got.cif
#   From: 2010.03.12/outbox.cif.g09.slc.cpg/sg56_3_cif.got.tgz:5140.got - 2010.04.16 15:33:40.
