data_PCOD8229483
_publ_section_title
;
Structure prediction by ZEFSAII (Michael W. Deem and Ramdas Pophale) SiO2 
 PCOD8229483
Probable space group: P C C N
;
_chemical_formula_sum "Si O2"
_cell_formula_units_Z 36
_cell_length_a 18.032239
_cell_length_b 8.658782
_cell_length_c 8.376674
_cell_angle_alpha 90.000000
_cell_angle_beta 90.000000
_cell_angle_gamma 90.000000
_cell_volume 1307.910645
_symmetry_space_group_name_H-M "P C C N"
_symmetry_group_IT_number 56
_symmetry_cell_setting 'orthorhombic'
loop_
_space_group_symop_operation_xyz
x,y,z
1/2-x,1/2-y,z
1/2+x,-y,1/2-z
-x,1/2+y,1/2-z
-x,-y,-z
1/2+x,1/2+y,-z
1/2-x,y,1/2+z
x,1/2-y,1/2+z
loop_
_atom_site_type_symbol
_atom_site_label
_atom_site_fract_x
_atom_site_fract_y
_atom_site_fract_z
Si Si1 0.133454 0.164313 0.238044
Si Si2 0.392283 0.594151 0.471860
Si Si3 0.535826 0.347423 0.209614
Si Si4 0.161056 0.466387 0.411907
Si Si5 0.250000 0.750000 0.454696
O O1 0.169089 0.329758 0.282057
O O2 0.049896 0.176882 0.172161
O O3 0.134649 0.070695 0.405505
O O4 0.179543 0.088004 0.092810
O O5 0.425241 0.681128 0.316517
O O6 0.454105 0.589505 0.609524
O O7 0.321626 0.686068 0.550578
O O8 0.576057 0.469990 0.092354
O O9 0.218917 0.600758 0.355456
#
# Coordination Sequence:
#
# PCOD8229483 Si02
#       5
#     8   8   8   8   4
#     4  12  23  42  69 105 136 181 241 302 358 415
#     4  11  23  40  68  95 139 186 232 295 348 431
#     4  11  22  41  67 104 141 184 231 291 367 425
#     4  11  25  43  69 100 145 188 235 298 351 432
#     4  10  26  48  66  98 138 194 242 276 368 434
#
# _framework density 27.524819000000001
#
# number of rings (size 3 to 8) (size 9 to 14) (size 15 to 20)
#    0.000    0.889    0.000    8.000    0.000    8.889 
#    0.000    2.222    0.000    1.333    0.000    0.000 
#    0.000    0.000    0.000    0.000    0.000    0.000 
#
# Total GULP energy -446135.144604 kJ/mol
# GULP energy per Si atom -12392.642906 kJ/mol
# Density = 2.746217 g / cm^3
# Si number density = 27.524819 Si / 1000 Ang^3
#
#
#
# Elastic Constant Matrix: (Units=GPa)
#
#
# Indices 1 2 3 4 5 6 
#
# 1 77.0715 33.4998 18.9102 0.0000 0.0000 0.0000
# 2 33.4998 178.2099 53.4793 0.0000 0.0000 0.0000
# 3 18.9102 53.4793 125.5384 0.0000 0.0000 0.0000
# 4 0.0000 0.0000 0.0000 40.8639 0.0000 0.0000
# 5 0.0000 0.0000 0.0000 0.0000 12.7450 0.0000
# 6 0.0000 0.0000 0.0000 0.0000 0.0000 36.6533
#
#
#
# Elastic Compliance Matrix: (Units=1/GPa)
#
#
# Indices 1 2 3 4 5 6 
#
# 1 0.014274 -0.002337 -0.001155 0.000000 0.000000 0.000000
# 2 -0.002337 0.006816 -0.002552 0.000000 0.000000 0.000000
# 3 -0.001155 -0.002552 0.009227 0.000000 0.000000 0.000000
# 4 0.000000 0.000000 0.000000 0.024471 0.000000 0.000000
# 5 0.000000 0.000000 0.000000 0.000000 0.078462 0.000000
# 6 0.000000 0.000000 0.000000 0.000000 0.000000 0.027283
#
#
# Mechanical properties :
#
#
# Convention : Reuss Voigt Hill
#
# Bulk Modulus (GPa) = 54.85269 65.84428 60.34848
# Shear Modulus (GPa) = 27.98037 36.38114 32.18076
#
# Velocity S-wave (km/s) = 3.19180 3.63954 3.42300
# Velocity P-wave (km/s) = 5.79268 6.45255 6.13150
#
# Compressibility (1/GPa) = 0.01823065
#
# Stress axis : x y z
#
# Youngs Moduli (GPa) = 70.05774 146.70539 108.38129
#
# Poissons Ratio (x) = 0.34281 0.12515
# Poissons Ratio (y) = 0.16370 0.27657
# Poissons Ratio (z) = 0.08090 0.37436
#
# Static dielectric constant tensor:
#      x y z
#    x 4.976360 0.000000 0.000000 
#    y 0.000000 5.263570 0.000000 
#    z 0.000000 0.000000 4.291400 
# 
# 
# High freq. dielectric constant tensor:
#      x y z
#    x 2.109280 0.000000 0.000000 
#    y 0.000000 2.124890 0.000000 
#    z 0.000000 0.000000 2.081000 
# 
# From -- ./inp_files/1959.got.cif
#   From: 2010.03.12/outbox.cif.g09.slc.cpg/sg56_1_cif.got.tgz:1959.got - 2010.04.16 15:33:40.
