data_PCOD8229920
_publ_section_title
;
Structure prediction by ZEFSAII (Michael W. Deem and Ramdas Pophale) SiO2 
 PCOD8229920
Probable space group: P B C M
;
_chemical_formula_sum "Si O2"
_cell_formula_units_Z 56
_cell_length_a 17.582055
_cell_length_b 22.062382
_cell_length_c 9.361406
_cell_angle_alpha 90.000000
_cell_angle_beta 90.000000
_cell_angle_gamma 90.000000
_cell_volume 3631.308239
_symmetry_space_group_name_H-M "P B C M"
_symmetry_group_IT_number 57
_symmetry_cell_setting 'orthorhombic'
loop_
_space_group_symop_operation_xyz
x,y,z
-x,-y,1/2+z
x,1/2-y,-z
-x,1/2+y,1/2-z
-x,-y,-z
x,y,1/2-z
-x,1/2+y,z
x,1/2-y,1/2+z
loop_
_atom_site_type_symbol
_atom_site_label
_atom_site_fract_x
_atom_site_fract_y
_atom_site_fract_z
Si Si1 0.953749 0.081778 0.908012
Si Si2 0.089614 0.058727 0.089376
Si Si3 0.227399 0.474705 0.084170
Si Si4 0.604476 0.528659 0.912729
Si Si5 0.788452 0.096861 0.584091
Si Si6 0.450936 0.583777 0.916149
Si Si7 0.656208 0.188205 0.915881
O O1 0.983216 0.098889 0.750000
O O2 0.875954 0.117815 0.945212
O O3 0.932172 0.011285 0.913258
O O4 0.020773 0.097311 0.019217
O O5 0.102471 0.082581 0.250000
O O6 0.166822 0.067477 0.998455
O O7 0.203245 0.479551 0.250000
O O8 0.310885 0.444187 0.066517
O O9 0.232742 0.541656 0.018709
O O10 0.592590 0.507268 0.750000
O O11 0.541248 0.579881 0.951414
O O12 0.594463 0.470006 0.009319
O O13 0.779872 0.076072 0.750000
O O14 0.734082 0.152900 0.548290
O O15 0.433370 0.575598 0.750000
O O16 0.416378 0.647986 0.966059
O O17 0.651158 0.204027 0.750000
O O18 0.654616 0.250000 0.000000
#
# Coordination Sequence:
#
# PCOD8229920 Si02
#       7
#     8   8   8   8   8   8   8
#     4   8  14  24  37  52  74 103 137 170 197 233
#     4   9  16  24  35  53  79 109 138 163 197 241
#     4  10  17  24  38  60  85 109 137 172 207 248
#     4   9  17  27  42  64  85 108 140 177 212 256
#     4   9  17  29  42  57  78 109 143 172 208 250
#     4   9  17  30  45  60  82 111 141 174 217 259
#     4  10  20  32  46  62  84 113 145 180 215 254
#
# _framework density 15.42144
#
# number of rings (size 3 to 8) (size 9 to 14) (size 15 to 20)
#    0.000    2.857    1.429    1.714    0.000    5.143 
#    0.000    0.000    0.000    0.000    0.000    0.000 
#    0.000    1.143    0.000    4.286    0.000    3.571 
#
# Total GULP energy -694029.740518 kJ/mol
# GULP energy per Si atom -12393.388224 kJ/mol
# Density = 1.538634 g / cm^3
# Si number density = 15.421440 Si / 1000 Ang^3
#
#
#
# Elastic Constant Matrix: (Units=GPa)
#
#
# Indices 1 2 3 4 5 6 
#
# 1 139.2953 44.0181 61.9981 0.0000 0.0000 0.0000
# 2 44.0181 50.9229 29.2245 0.0000 0.0000 0.0000
# 3 61.9981 29.2245 82.0682 0.0000 0.0000 0.0000
# 4 0.0000 0.0000 0.0000 17.0486 0.0000 0.0000
# 5 0.0000 0.0000 0.0000 0.0000 23.2995 0.0000
# 6 0.0000 0.0000 0.0000 0.0000 0.0000 14.0472
#
#
#
# Elastic Compliance Matrix: (Units=1/GPa)
#
#
# Indices 1 2 3 4 5 6 
#
# 1 0.012410 -0.006721 -0.006982 0.000000 0.000000 0.000000
# 2 -0.006721 0.028321 -0.005008 0.000000 0.000000 0.000000
# 3 -0.006982 -0.005008 0.019243 0.000000 0.000000 0.000000
# 4 0.000000 0.000000 0.000000 0.058656 0.000000 0.000000
# 5 0.000000 0.000000 0.000000 0.000000 0.042919 0.000000
# 6 0.000000 0.000000 0.000000 0.000000 0.000000 0.071189
#
#
# Mechanical properties :
#
#
# Convention : Reuss Voigt Hill
#
# Bulk Modulus (GPa) = 44.34053 60.30753 52.32403
# Shear Modulus (GPa) = 18.00651 20.01544 19.01098
#
# Velocity S-wave (km/s) = 3.42076 3.60654 3.51488
# Velocity P-wave (km/s) = 6.66462 7.51891 7.10462
#
# Compressibility (1/GPa) = 0.02255273
#
# Stress axis : x y z
#
# Youngs Moduli (GPa) = 80.57768 35.30954 51.96692
#
# Poissons Ratio (x) = 0.23730 0.36284
# Poissons Ratio (y) = 0.54153 0.26025
# Poissons Ratio (z) = 0.56261 0.17683
#
# Static dielectric constant tensor:
#      x y z
#    x 3.407140 0.000000 0.000000 
#    y 0.000000 2.397850 0.000000 
#    z 0.000000 0.000000 3.088580 
# 
# 
# High freq. dielectric constant tensor:
#      x y z
#    x 1.611400 0.000000 0.000000 
#    y 0.000000 1.512370 0.000000 
#    z 0.000000 0.000000 1.601440 
# 
# From -- ./inp_files/7076.got.cif
#   From: 2010.03.12/outbox.cif.g09.slc.cpg/sg57_4_cif.got.tgz:7076.got - 2010.04.16 15:48:40.
