data_PCOD8229868
_publ_section_title
;
Structure prediction by ZEFSAII (Michael W. Deem and Ramdas Pophale) SiO2 
 PCOD8229868
Probable space group: P C C N
;
_chemical_formula_sum "Si O2"
_cell_formula_units_Z 20
_cell_length_a 11.306472
_cell_length_b 6.273064
_cell_length_c 9.521882
_cell_angle_alpha 90.000000
_cell_angle_beta 90.000000
_cell_angle_gamma 90.000000
_cell_volume 675.351121
_symmetry_space_group_name_H-M "P C C N"
_symmetry_group_IT_number 56
_symmetry_cell_setting 'orthorhombic'
loop_
_space_group_symop_operation_xyz
x,y,z
1/2-x,1/2-y,z
1/2+x,-y,1/2-z
-x,1/2+y,1/2-z
-x,-y,-z
1/2+x,1/2+y,-z
1/2-x,y,1/2+z
x,1/2-y,1/2+z
loop_
_atom_site_type_symbol
_atom_site_label
_atom_site_fract_x
_atom_site_fract_y
_atom_site_fract_z
Si Si1 0.250000 0.250000 0.590595
Si Si2 0.363708 0.872717 0.270153
Si Si3 0.010228 0.248075 0.975792
O O1 0.316856 0.419561 0.689719
O O2 0.351607 0.174670 0.481509
O O3 0.250000 0.750000 0.328009
O O4 0.446626 0.904863 0.407342
O O5 0.443339 0.714713 0.172873
O O6 0.000000 0.500000 0.000000
#
# Coordination Sequence:
#
# PCOD8229868 Si02
#       3
#     4   8   8
#     4  12  28  48  82 110 158 208 256 330 396 474
#     4  12  27  52  77 115 159 202 266 324 396 474
#     4  12  27  51  79 117 156 208 262 329 396 474
#
# _framework density 29.614225999999999
#
# number of rings (size 3 to 8) (size 9 to 14) (size 15 to 20)
#    0.000    0.000    4.000    4.800    0.000    6.400 
#    0.000    0.000    0.000    0.000    0.000    0.000 
#    0.000    0.000    0.000    0.000    0.000    0.000 
#
# Total GULP energy -247820.370531 kJ/mol
# GULP energy per Si atom -12391.018527 kJ/mol
# Density = 2.954682 g / cm^3
# Si number density = 29.614226 Si / 1000 Ang^3
#
#
#
# Elastic Constant Matrix: (Units=GPa)
#
#
# Indices 1 2 3 4 5 6 
#
# 1 313.2893 57.1379 135.5027 0.0000 0.0000 0.0000
# 2 57.1379 140.3421 18.7085 0.0000 0.0000 0.0000
# 3 135.5027 18.7085 182.1233 0.0000 0.0000 0.0000
# 4 0.0000 0.0000 0.0000 54.9767 0.0000 0.0000
# 5 0.0000 0.0000 0.0000 0.0000 63.2962 0.0000
# 6 0.0000 0.0000 0.0000 0.0000 0.0000 60.8433
#
#
#
# Elastic Compliance Matrix: (Units=1/GPa)
#
#
# Indices 1 2 3 4 5 6 
#
# 1 0.005026 -0.001569 -0.003578 0.000000 0.000000 0.000000
# 2 -0.001569 0.007714 0.000375 0.000000 0.000000 0.000000
# 3 -0.003578 0.000375 0.008114 0.000000 0.000000 0.000000
# 4 0.000000 0.000000 0.000000 0.018190 0.000000 0.000000
# 5 0.000000 0.000000 0.000000 0.000000 0.015799 0.000000
# 6 0.000000 0.000000 0.000000 0.000000 0.000000 0.016436
#
#
# Mechanical properties :
#
#
# Convention : Reuss Voigt Hill
#
# Bulk Modulus (GPa) = 88.41660 117.60587 103.01124
# Shear Modulus (GPa) = 59.10696 64.11697 61.61196
#
# Velocity S-wave (km/s) = 4.47239 4.65808 4.56618
# Velocity P-wave (km/s) = 7.52268 8.29030 7.91580
#
# Compressibility (1/GPa) = 0.01131009
#
# Stress axis : x y z
#
# Youngs Moduli (GPa) = 198.97913 129.62937 123.23869
#
# Poissons Ratio (x) = 0.20341 0.44095
# Poissons Ratio (y) = 0.31223 -0.04622
# Poissons Ratio (z) = 0.71194 -0.04861
#
# Static dielectric constant tensor:
#      x y z
#    x 6.731750 0.000000 0.000000 
#    y 0.000000 6.009530 0.000000 
#    z 0.000000 0.000000 5.659700 
# 
# 
# High freq. dielectric constant tensor:
#      x y z
#    x 2.241270 0.000000 0.000000 
#    y 0.000000 2.256220 0.000000 
#    z 0.000000 0.000000 2.215310 
# 
# From -- ./inp_files/1691.got.cif
#   From: 2010.03.12/outbox.cif.g09.slc.cpg/sg56_1_cif.got.tgz:1691.got - 2010.04.16 15:33:40.
