data_PCOD8229077
_publ_section_title
;
Structure prediction by ZEFSAII (Michael W. Deem and Ramdas Pophale) SiO2 
 PCOD8229077
Probable space group: P C C N
;
_chemical_formula_sum "Si O2"
_cell_formula_units_Z 32
_cell_length_a 4.924831
_cell_length_b 18.127131
_cell_length_c 13.904313
_cell_angle_alpha 90.000000
_cell_angle_beta 90.000000
_cell_angle_gamma 90.000000
_cell_volume 1241.280523
_symmetry_space_group_name_H-M "P C C N"
_symmetry_group_IT_number 56
_symmetry_cell_setting 'orthorhombic'
loop_
_space_group_symop_operation_xyz
x,y,z
1/2-x,1/2-y,z
1/2+x,-y,1/2-z
-x,1/2+y,1/2-z
-x,-y,-z
1/2+x,1/2+y,-z
1/2-x,y,1/2+z
x,1/2-y,1/2+z
loop_
_atom_site_type_symbol
_atom_site_label
_atom_site_fract_x
_atom_site_fract_y
_atom_site_fract_z
Si Si1 0.109001 0.106533 0.589441
Si Si2 0.549542 0.473746 0.300786
Si Si3 0.155329 0.669370 0.721452
Si Si4 0.873120 0.328279 0.492206
O O1 0.383138 0.148308 0.561313
O O2 0.033505 0.138590 0.694848
O O3 0.877055 0.115760 0.508948
O O4 0.151122 0.018038 0.603277
O O5 0.232661 0.491728 0.286023
O O6 0.591686 0.385781 0.300533
O O7 0.250000 0.750000 0.753782
O O8 0.010453 0.674101 0.616645
O O9 0.750000 0.250000 0.524727
#
# Coordination Sequence:
#
# PCOD8229077 Si02
#       4
#     8   8   8   8
#     4  11  23  43  69  96 135 175 214 274 329 380
#     4  10  22  41  66  97 130 173 224 264 321 398
#     4  10  24  46  71  97 134 175 216 273 332 384
#     4  11  25  42  67 102 131 171 228 266 320 401
#
# _framework density 25.779827999999998
#
# number of rings (size 3 to 8) (size 9 to 14) (size 15 to 20)
#    0.000    1.500    0.000    4.500    0.000   10.000 
#    0.000   13.750    0.000    1.500    0.000    0.000 
#    0.000    0.000    0.000    0.000    0.000    0.000 
#
# Total GULP energy -396501.068665 kJ/mol
# GULP energy per Si atom -12390.658396 kJ/mol
# Density = 2.572115 g / cm^3
# Si number density = 25.779828 Si / 1000 Ang^3
#
#
#
# Elastic Constant Matrix: (Units=GPa)
#
#
# Indices 1 2 3 4 5 6 
#
# 1 87.1963 5.9132 -0.1895 0.0000 0.0000 0.0000
# 2 5.9132 139.3764 5.4638 0.0000 0.0000 0.0000
# 3 -0.1895 5.4638 60.8184 0.0000 0.0000 0.0000
# 4 0.0000 0.0000 0.0000 -43.0093 0.0000 0.0000
# 5 0.0000 0.0000 0.0000 0.0000 23.0508 0.0000
# 6 0.0000 0.0000 0.0000 0.0000 0.0000 28.8016
#
#
#
# Elastic Compliance Matrix: (Units=1/GPa)
#
#
# Indices 1 2 3 4 5 6 
#
# 1 0.011502 -0.000491 0.000080 0.000000 0.000000 0.000000
# 2 -0.000491 0.007221 -0.000650 0.000000 0.000000 0.000000
# 3 0.000080 -0.000650 0.016501 0.000000 0.000000 0.000000
# 4 0.000000 0.000000 0.000000 -0.023251 0.000000 0.000000
# 5 0.000000 0.000000 0.000000 0.000000 0.043383 0.000000
# 6 0.000000 0.000000 0.000000 0.000000 0.000000 0.034720
#
#
# Mechanical properties :
#
#
# Convention : Reuss Voigt Hill
#
# Bulk Modulus (GPa) = 30.21035 34.41845 32.31440
# Shear Modulus (GPa) = 48.43425 20.18218 34.30821
#
# Velocity S-wave (km/s) = 4.33918 2.80101 3.65199
# Velocity P-wave (km/s) = 6.07031 4.88270 5.50860
#
# Compressibility (1/GPa) = 0.03310123
#
# Stress axis : x y z
#
# Youngs Moduli (GPa) = 86.94254 138.48223 60.60212
#
# Poissons Ratio (x) = 0.06801 -0.00485
# Poissons Ratio (y) = 0.04270 0.03941
# Poissons Ratio (z) = -0.00695 0.09005
#
# Static dielectric constant tensor:
#      x y z
#    x 4.285930 0.000000 0.000000 
#    y 0.000000 5.283230 0.000000 
#    z 0.000000 0.000000 4.641540 
# 
# 
# High freq. dielectric constant tensor:
#      x y z
#    x 2.011200 0.000000 0.000000 
#    y 0.000000 2.050320 0.000000 
#    z 0.000000 0.000000 2.033030 
# 
# From -- ./inp_files/9375.got.cif
#   From: 2010.03.12/outbox.cif.g09.slc.cpg/sg56_5_cif.got.tgz:9375.got - 2010.04.16 15:33:40.
