data_PCOD8229998
_publ_section_title
;
Structure prediction by ZEFSAII (Michael W. Deem and Ramdas Pophale) SiO2 
 PCOD8229998
Probable space group: P B C M
;
_chemical_formula_sum "Si O2"
_cell_formula_units_Z 64
_cell_length_a 10.596876
_cell_length_b 17.792047
_cell_length_c 19.530700
_cell_angle_alpha 90.000000
_cell_angle_beta 90.000000
_cell_angle_gamma 90.000000
_cell_volume 3682.320441
_symmetry_space_group_name_H-M "P B C M"
_symmetry_group_IT_number 57
_symmetry_cell_setting 'orthorhombic'
loop_
_space_group_symop_operation_xyz
x,y,z
-x,-y,1/2+z
x,1/2-y,-z
-x,1/2+y,1/2-z
-x,-y,-z
x,y,1/2-z
-x,1/2+y,z
x,1/2-y,1/2+z
loop_
_atom_site_type_symbol
_atom_site_label
_atom_site_fract_x
_atom_site_fract_y
_atom_site_fract_z
Si Si1 0.114183 0.476355 0.672509
Si Si2 0.286849 0.776593 0.671353
Si Si3 0.281360 0.408664 0.941701
Si Si4 0.851006 0.366452 0.387160
Si Si5 0.310966 0.561071 0.496804
Si Si6 0.119173 0.600540 0.390933
Si Si7 0.484506 0.813533 0.942601
Si Si8 0.051588 0.166107 0.504215
O O1 0.137194 0.452418 0.750000
O O2 0.219432 0.432250 0.629815
O O3 0.126766 0.565806 0.665443
O O4 0.973891 0.453290 0.650149
O O5 0.331621 0.772256 0.750000
O O6 0.203527 0.704065 0.653685
O O7 0.199769 0.849550 0.661584
O O8 0.411761 0.782430 0.624028
O O9 0.371886 0.337738 0.925936
O O10 0.354436 0.479952 0.974829
O O11 0.171271 0.388179 0.995583
O O12 0.750246 0.389616 0.443654
O O13 0.984625 0.348370 0.423118
O O14 0.210762 0.547722 0.435759
O O15 0.427379 0.608698 0.469617
O O16 0.046771 0.656272 0.442260
O O17 0.481271 0.750000 0.000000
O O18 0.103751 0.250000 0.500000
#
# Coordination Sequence:
#
# PCOD8229998 Si02
#       8
#     8   8   8   8   8   8   8   8
#     4  10  20  34  50  74 110 145 170 210 266 327
#     4  11  21  33  53  80 105 138 180 219 261 315
#     4  10  21  33  51  80 104 135 181 220 263 314
#     4  10  18  32  54  77 105 133 173 215 267 310
#     4   9  18  33  55  77 100 130 171 224 264 305
#     4   9  18  31  53  78 105 135 167 213 266 312
#     4  11  21  36  55  75 104 140 177 225 268 307
#     4  10  17  30  53  80 107 133 169 217 264 312
#
# _framework density 17.380344999999998
#
# number of rings (size 3 to 8) (size 9 to 14) (size 15 to 20)
#    0.000    2.000    2.500    2.250    0.000    3.500 
#    0.000    0.000    0.000    0.000    0.000    0.875 
#    0.000    0.000    0.000    0.000    0.000    0.000 
#
# Total GULP energy -793483.441460 kJ/mol
# GULP energy per Si atom -12398.178773 kJ/mol
# Density = 1.734079 g / cm^3
# Si number density = 17.380345 Si / 1000 Ang^3
#
#
#
# Elastic Constant Matrix: (Units=GPa)
#
#
# Indices 1 2 3 4 5 6 
#
# 1 82.1418 36.8038 44.5852 0.0000 0.0000 0.0000
# 2 36.8038 74.3992 43.4087 0.0000 0.0000 0.0000
# 3 44.5852 43.4087 111.9187 0.0000 0.0000 0.0000
# 4 0.0000 0.0000 0.0000 19.6025 0.0000 0.0000
# 5 0.0000 0.0000 0.0000 0.0000 13.2404 0.0000
# 6 0.0000 0.0000 0.0000 0.0000 0.0000 25.0427
#
#
#
# Elastic Compliance Matrix: (Units=1/GPa)
#
#
# Indices 1 2 3 4 5 6 
#
# 1 0.017311 -0.005868 -0.004620 0.000000 0.000000 0.000000
# 2 -0.005868 0.019361 -0.005172 0.000000 0.000000 0.000000
# 3 -0.004620 -0.005172 0.012782 0.000000 0.000000 0.000000
# 4 0.000000 0.000000 0.000000 0.051014 0.000000 0.000000
# 5 0.000000 0.000000 0.000000 0.000000 0.075526 0.000000
# 6 0.000000 0.000000 0.000000 0.000000 0.000000 0.039932
#
#
# Mechanical properties :
#
#
# Convention : Reuss Voigt Hill
#
# Bulk Modulus (GPa) = 55.14509 57.56166 56.35338
# Shear Modulus (GPa) = 19.74021 21.15459 20.44740
#
# Velocity S-wave (km/s) = 3.37379 3.49256 3.43369
# Velocity P-wave (km/s) = 6.85375 7.03240 6.94365
#
# Compressibility (1/GPa) = 0.01813398
#
# Stress axis : x y z
#
# Youngs Moduli (GPa) = 57.76704 51.64972 78.23704
#
# Poissons Ratio (x) = 0.30306 0.36148
# Poissons Ratio (y) = 0.33895 0.40464
# Poissons Ratio (z) = 0.26691 0.26713
#
# Static dielectric constant tensor:
#      x y z
#    x 3.129450 0.000000 0.000000 
#    y 0.000000 3.219970 0.000000 
#    z 0.000000 0.000000 3.081010 
# 
# 
# High freq. dielectric constant tensor:
#      x y z
#    x 1.663930 0.000000 0.000000 
#    y 0.000000 1.678730 0.000000 
#    z 0.000000 0.000000 1.655910 
# 
# From -- ./inp_files/22168.got.cif
#   From: 2010.03.12/outbox.cif.g09.slc.cpg/sg57_12_cif.got.tgz:22168.got - 2010.04.16 15:48:40.
