data_PCOD8229680
_publ_section_title
;
Structure prediction by ZEFSAII (Michael W. Deem and Ramdas Pophale) SiO2 
 PCOD8229680
Probable space group: P C C N
;
_chemical_formula_sum "Si O2"
_cell_formula_units_Z 40
_cell_length_a 14.944529
_cell_length_b 9.441666
_cell_length_c 12.903061
_cell_angle_alpha 90.000000
_cell_angle_beta 90.000000
_cell_angle_gamma 90.000000
_cell_volume 1820.638053
_symmetry_space_group_name_H-M "P C C N"
_symmetry_group_IT_number 56
_symmetry_cell_setting 'orthorhombic'
loop_
_space_group_symop_operation_xyz
x,y,z
1/2-x,1/2-y,z
1/2+x,-y,1/2-z
-x,1/2+y,1/2-z
-x,-y,-z
1/2+x,1/2+y,-z
1/2-x,y,1/2+z
x,1/2-y,1/2+z
loop_
_atom_site_type_symbol
_atom_site_label
_atom_site_fract_x
_atom_site_fract_y
_atom_site_fract_z
Si Si1 0.920359 0.986661 0.297517
Si Si2 0.653315 0.756147 0.164523
Si Si3 0.593217 0.956273 0.326573
Si Si4 0.530061 0.730504 0.474698
Si Si5 0.351218 0.748042 0.587097
O O1 0.868738 0.896596 0.211721
O O2 0.952525 0.893963 0.394507
O O3 0.857767 0.113282 0.337252
O O4 0.004830 0.053438 0.241862
O O5 0.750000 0.750000 0.108260
O O6 0.664453 0.867593 0.259235
O O7 0.577992 0.805177 0.083256
O O8 0.570976 0.879091 0.435304
O O9 0.629579 0.112398 0.345307
O O10 0.423135 0.740102 0.493888
O O11 0.250000 0.750000 0.541660
#
# Coordination Sequence:
#
# PCOD8229680 Si02
#       5
#     8   8   8   8   8
#     4  11  23  46  68  93 136 178 217 272 334 393
#     4  11  24  42  70  97 128 178 223 265 327 398
#     4  11  23  46  68  93 136 178 217 272 334 393
#     4  11  24  45  70  92 136 180 221 268 332 403
#     4  12  24  41  68 103 134 170 222 281 331 389
#
# _framework density 21.970319
#
# number of rings (size 3 to 8) (size 9 to 14) (size 15 to 20)
#    0.000    0.800    4.000    3.600    0.000    4.800 
#    0.000    4.000    0.000    0.000    0.000    0.000 
#    0.000    0.000    0.000    0.000    0.000    0.000 
#
# Total GULP energy -496098.944504 kJ/mol
# GULP energy per Si atom -12402.473613 kJ/mol
# Density = 2.192031 g / cm^3
# Si number density = 21.970319 Si / 1000 Ang^3
#
#
#
# Elastic Constant Matrix: (Units=GPa)
#
#
# Indices 1 2 3 4 5 6 
#
# 1 138.3187 5.9581 26.5413 0.0000 0.0000 0.0000
# 2 5.9581 97.4723 17.1553 0.0000 0.0000 0.0000
# 3 26.5413 17.1553 84.6721 0.0000 0.0000 0.0000
# 4 0.0000 0.0000 0.0000 21.7862 0.0000 0.0000
# 5 0.0000 0.0000 0.0000 0.0000 17.7143 0.0000
# 6 0.0000 0.0000 0.0000 0.0000 0.0000 20.5432
#
#
#
# Elastic Compliance Matrix: (Units=1/GPa)
#
#
# Indices 1 2 3 4 5 6 
#
# 1 0.007693 -0.000048 -0.002402 0.000000 0.000000 0.000000
# 2 -0.000048 0.010639 -0.002141 0.000000 0.000000 0.000000
# 3 -0.002402 -0.002141 0.012997 0.000000 0.000000 0.000000
# 4 0.000000 0.000000 0.000000 0.045901 0.000000 0.000000
# 5 0.000000 0.000000 0.000000 0.000000 0.056452 0.000000
# 6 0.000000 0.000000 0.000000 0.000000 0.000000 0.048678
#
#
# Mechanical properties :
#
#
# Convention : Reuss Voigt Hill
#
# Bulk Modulus (GPa) = 45.14946 46.64139 45.89542
# Shear Modulus (GPa) = 25.13558 30.06262 27.59910
#
# Velocity S-wave (km/s) = 3.38608 3.70311 3.54814
# Velocity P-wave (km/s) = 5.99018 6.28962 6.14172
#
# Compressibility (1/GPa) = 0.02214866
#
# Stress axis : x y z
#
# Youngs Moduli (GPa) = 129.99550 93.99383 76.94193
#
# Poissons Ratio (x) = 0.00447 0.18479
# Poissons Ratio (y) = 0.00618 0.16471
# Poissons Ratio (z) = 0.31221 0.20121
#
# Static dielectric constant tensor:
#      x y z
#    x 3.938720 0.000000 0.000000 
#    y 0.000000 4.127470 0.000000 
#    z 0.000000 0.000000 3.908300 
# 
# 
# High freq. dielectric constant tensor:
#      x y z
#    x 1.863320 0.000000 0.000000 
#    y 0.000000 1.881040 0.000000 
#    z 0.000000 0.000000 1.858240 
# 
# From -- ./inp_files/12087.got.cif
#   From: 2010.03.12/outbox.cif.g09.slc.cpg/sg56_7_cif.got.tgz:12087.got - 2010.04.16 15:33:40.
