data_PCOD8229504
_publ_section_title
;
Structure prediction by ZEFSAII (Michael W. Deem and Ramdas Pophale) SiO2 
 PCOD8229504
Probable space group: P C C N
;
_chemical_formula_sum "Si O2"
_cell_formula_units_Z 48
_cell_length_a 11.586349
_cell_length_b 12.059963
_cell_length_c 16.995410
_cell_angle_alpha 90.000000
_cell_angle_beta 90.000000
_cell_angle_gamma 90.000000
_cell_volume 2374.784619
_symmetry_space_group_name_H-M "P C C N"
_symmetry_group_IT_number 56
_symmetry_cell_setting 'orthorhombic'
loop_
_space_group_symop_operation_xyz
x,y,z
1/2-x,1/2-y,z
1/2+x,-y,1/2-z
-x,1/2+y,1/2-z
-x,-y,-z
1/2+x,1/2+y,-z
1/2-x,y,1/2+z
x,1/2-y,1/2+z
loop_
_atom_site_type_symbol
_atom_site_label
_atom_site_fract_x
_atom_site_fract_y
_atom_site_fract_z
Si Si1 0.871021 0.796810 0.007009
Si Si2 0.004371 0.893790 0.447349
Si Si3 0.137858 0.993146 0.090004
Si Si4 0.240340 0.880122 0.939743
Si Si5 0.810191 0.629421 0.816137
Si Si6 0.894413 0.938225 0.146661
O O1 0.750000 0.750000 0.970736
O O2 0.839576 0.839865 0.094096
O O3 0.977409 0.710389 0.005594
O O4 0.913600 0.901886 0.956961
O O5 0.913179 0.875024 0.378473
O O6 0.130834 0.909029 0.412674
O O7 0.000000 0.000000 0.500000
O O8 0.031698 0.931211 0.131184
O O9 0.219145 0.035469 0.159929
O O10 0.208605 0.914970 0.029399
O O11 0.250000 0.750000 0.932273
O O12 0.155525 0.940725 0.877817
O O13 0.750000 0.750000 0.809519
O O14 0.865981 0.590748 0.735171
#
# Coordination Sequence:
#
# PCOD8229504 Si02
#       6
#     8   8   8   8   8   8
#     4  11  19  42  67  95 123 180 232 273 333 416
#     4  12  21  39  67 100 129 171 228 280 328 405
#     4  11  21  45  65  90 136 176 226 282 339 410
#     4  11  23  41  68  99 129 173 227 280 347 407
#     4  12  25  45  67  98 139 184 225 282 346 410
#     4  11  26  41  67  97 135 179 225 279 349 411
#
# _framework density 20.21236
#
# number of rings (size 3 to 8) (size 9 to 14) (size 15 to 20)
#    0.000    0.667    5.000    5.500    2.333    0.000 
#    0.000    0.833    0.000    0.000    0.000    0.000 
#    0.000    0.000    0.000    0.000    0.000    0.000 
#
# Total GULP energy -594773.282154 kJ/mol
# GULP energy per Si atom -12391.110045 kJ/mol
# Density = 2.016636 g / cm^3
# Si number density = 20.212360 Si / 1000 Ang^3
#
#
#
# Elastic Constant Matrix: (Units=GPa)
#
#
# Indices 1 2 3 4 5 6 
#
# 1 132.0356 33.4969 44.2774 0.0000 0.0000 0.0000
# 2 33.4969 113.4416 57.1717 0.0000 0.0000 0.0000
# 3 44.2774 57.1717 128.3828 0.0000 0.0000 0.0000
# 4 0.0000 0.0000 0.0000 22.6316 0.0000 0.0000
# 5 0.0000 0.0000 0.0000 0.0000 30.8338 0.0000
# 6 0.0000 0.0000 0.0000 0.0000 0.0000 37.3978
#
#
#
# Elastic Compliance Matrix: (Units=1/GPa)
#
#
# Indices 1 2 3 4 5 6 
#
# 1 0.008725 -0.001367 -0.002401 0.000000 0.000000 0.000000
# 2 -0.001367 0.011580 -0.004686 0.000000 0.000000 0.000000
# 3 -0.002401 -0.004686 0.010704 0.000000 0.000000 0.000000
# 4 0.000000 0.000000 0.000000 0.044186 0.000000 0.000000
# 5 0.000000 0.000000 0.000000 0.000000 0.032432 0.000000
# 6 0.000000 0.000000 0.000000 0.000000 0.000000 0.026740
#
#
# Mechanical properties :
#
#
# Convention : Reuss Voigt Hill
#
# Bulk Modulus (GPa) = 70.90382 71.52801 71.21591
# Shear Modulus (GPa) = 32.05671 34.10024 33.07847
#
# Velocity S-wave (km/s) = 3.98678 4.11189 4.04981
# Velocity P-wave (km/s) = 7.50654 7.61633 7.56164
#
# Compressibility (1/GPa) = 0.01410361
#
# Stress axis : x y z
#
# Youngs Moduli (GPa) = 114.60693 86.35575 93.42512
#
# Poissons Ratio (x) = 0.11801 0.22429
# Poissons Ratio (y) = 0.15661 0.43775
# Poissons Ratio (z) = 0.27514 0.40462
#
# Static dielectric constant tensor:
#      x y z
#    x 3.763920 0.000000 0.000000 
#    y 0.000000 3.859140 0.000000 
#    z 0.000000 0.000000 3.520210 
# 
# 
# High freq. dielectric constant tensor:
#      x y z
#    x 1.805260 0.000000 0.000000 
#    y 0.000000 1.796910 0.000000 
#    z 0.000000 0.000000 1.771840 
# 
# From -- ./inp_files/15621.got.cif
#   From: 2010.03.12/outbox.cif.g09.slc.cpg/sg56_8_cif.got.tgz:15621.got - 2010.04.16 15:33:40.
