data_PCOD8229407
_publ_section_title
;
Structure prediction by ZEFSAII (Michael W. Deem and Ramdas Pophale) SiO2 
 PCOD8229407
Probable space group: P C C N
;
_chemical_formula_sum "Si O2"
_cell_formula_units_Z 40
_cell_length_a 5.260649
_cell_length_b 11.610057
_cell_length_c 26.515984
_cell_angle_alpha 90.000000
_cell_angle_beta 90.000000
_cell_angle_gamma 90.000000
_cell_volume 1619.501767
_symmetry_space_group_name_H-M "P C C N"
_symmetry_group_IT_number 56
_symmetry_cell_setting 'orthorhombic'
loop_
_space_group_symop_operation_xyz
x,y,z
1/2-x,1/2-y,z
1/2+x,-y,1/2-z
-x,1/2+y,1/2-z
-x,-y,-z
1/2+x,1/2+y,-z
1/2-x,y,1/2+z
x,1/2-y,1/2+z
loop_
_atom_site_type_symbol
_atom_site_label
_atom_site_fract_x
_atom_site_fract_y
_atom_site_fract_z
Si Si1 0.547973 0.352579 0.448303
Si Si2 0.250000 0.250000 0.864470
Si Si3 0.993905 0.570693 0.812909
Si Si4 0.750000 0.750000 0.384710
Si Si5 0.497548 0.430155 0.803767
Si Si6 0.192419 0.075509 0.033674
O O1 0.750000 0.250000 0.455151
O O2 0.376893 0.344748 0.399410
O O3 0.656682 0.477615 0.436933
O O4 0.376636 0.349043 0.498397
O O5 0.468376 0.308914 0.831662
O O6 0.951019 0.681949 0.849064
O O7 0.766632 0.480026 0.821252
O O8 0.980034 0.606069 0.754440
O O9 0.271258 0.515838 0.821702
O O10 0.593404 0.839042 0.421804
O O11 0.000000 0.000000 0.000000
#
# Coordination Sequence:
#
# PCOD8229407 Si02
#       6
#     8   4   8   4   8   8
#     4  11  25  44  68  99 139 187 236 291 365 426
#     4  12  24  38  70 102 130 182 230 290 348 436
#     4  10  24  47  68 105 140 189 233 295 362 431
#     4  12  24  42  72 102 140 192 246 296 364 444
#     4  10  24  45  71 101 149 178 234 299 357 429
#     4  11  25  47  67  99 145 184 238 306 355 425
#
# _framework density 24.698955000000002
#
# number of rings (size 3 to 8) (size 9 to 14) (size 15 to 20)
#    0.000    1.200    0.000    4.800    8.400    0.800 
#   10.800    6.000    0.000    0.000    0.000    0.000 
#    0.000    0.000    0.000    0.000    0.000    0.000 
#
# Total GULP energy -495711.188454 kJ/mol
# GULP energy per Si atom -12392.779711 kJ/mol
# Density = 2.464274 g / cm^3
# Si number density = 24.698955 Si / 1000 Ang^3
#
#
#
# Elastic Constant Matrix: (Units=GPa)
#
#
# Indices 1 2 3 4 5 6 
#
# 1 64.9322 3.3666 7.9216 0.0000 0.0000 0.0000
# 2 3.3666 94.6988 63.1543 0.0000 0.0000 0.0000
# 3 7.9216 63.1543 111.4990 0.0000 0.0000 0.0000
# 4 0.0000 0.0000 0.0000 71.3251 0.0000 0.0000
# 5 0.0000 0.0000 0.0000 0.0000 16.8283 0.0000
# 6 0.0000 0.0000 0.0000 0.0000 0.0000 37.4639
#
#
#
# Elastic Compliance Matrix: (Units=1/GPa)
#
#
# Indices 1 2 3 4 5 6 
#
# 1 0.015540 0.000295 -0.001271 0.000000 0.000000 0.000000
# 2 0.000295 0.016976 -0.009636 0.000000 0.000000 0.000000
# 3 -0.001271 -0.009636 0.014517 0.000000 0.000000 0.000000
# 4 0.000000 0.000000 0.000000 0.014020 0.000000 0.000000
# 5 0.000000 0.000000 0.000000 0.000000 0.059424 0.000000
# 6 0.000000 0.000000 0.000000 0.000000 0.000000 0.026692
#
#
# Mechanical properties :
#
#
# Convention : Reuss Voigt Hill
#
# Bulk Modulus (GPa) = 38.74645 46.66832 42.70738
# Shear Modulus (GPa) = 28.24908 38.23595 33.24251
#
# Velocity S-wave (km/s) = 3.38559 3.93883 3.67264
# Velocity P-wave (km/s) = 5.56816 6.29458 5.94248
#
# Compressibility (1/GPa) = 0.02580882
#
# Stress axis : x y z
#
# Youngs Moduli (GPa) = 64.34815 58.90800 68.88448
#
# Poissons Ratio (x) = -0.01740 0.08758
# Poissons Ratio (y) = -0.01901 0.66378
# Poissons Ratio (z) = 0.08181 0.56765
#
# Static dielectric constant tensor:
#      x y z
#    x 4.202360 0.000000 0.000000 
#    y 0.000000 4.572490 0.000000 
#    z 0.000000 0.000000 4.746830 
# 
# 
# High freq. dielectric constant tensor:
#      x y z
#    x 1.966620 0.000000 0.000000 
#    y 0.000000 1.994470 0.000000 
#    z 0.000000 0.000000 2.007240 
# 
# From -- ./inp_files/21584.got.cif
#   From: 2010.03.12/outbox.cif.g09.slc.cpg/sg56_11_cif.got.tgz:21584.got - 2010.04.16 15:33:40.
