data_PCOD8229996
_publ_section_title
;
Structure prediction by ZEFSAII (Michael W. Deem and Ramdas Pophale) SiO2 
 PCOD8229996
Probable space group: P B C M
;
_chemical_formula_sum "Si O2"
_cell_formula_units_Z 64
_cell_length_a 14.893890
_cell_length_b 29.473108
_cell_length_c 9.026337
_cell_angle_alpha 90.000000
_cell_angle_beta 90.000000
_cell_angle_gamma 90.000000
_cell_volume 3962.284189
_symmetry_space_group_name_H-M "P B C M"
_symmetry_group_IT_number 57
_symmetry_cell_setting 'orthorhombic'
loop_
_space_group_symop_operation_xyz
x,y,z
-x,-y,1/2+z
x,1/2-y,-z
-x,1/2+y,1/2-z
-x,-y,-z
x,y,1/2-z
-x,1/2+y,z
x,1/2-y,1/2+z
loop_
_atom_site_type_symbol
_atom_site_label
_atom_site_fract_x
_atom_site_fract_y
_atom_site_fract_z
Si Si1 0.867937 0.944352 0.075330
Si Si2 0.954496 0.394097 0.074257
Si Si3 0.814377 0.456242 0.925621
Si Si4 0.215001 0.206294 0.921741
Si Si5 0.988588 0.704892 0.923758
Si Si6 0.453611 0.064041 0.421974
Si Si7 0.699499 0.612182 0.923961
Si Si8 0.624836 0.465475 0.077482
O O1 0.867675 0.937536 0.250000
O O2 0.779272 0.919607 0.012912
O O3 0.957444 0.920465 0.012459
O O4 0.864805 0.997077 0.028702
O O5 0.945213 0.400880 0.250000
O O6 0.958316 0.340837 0.031918
O O7 0.868380 0.414211 0.992534
O O8 0.807493 0.451684 0.750000
O O9 0.715583 0.454830 0.992016
O O10 0.212760 0.216436 0.750000
O O11 0.113630 0.197570 0.978340
O O12 0.276277 0.163726 0.959607
O O13 0.257930 0.250000 0.000000
O O14 0.993815 0.712727 0.750000
O O15 0.030370 0.750000 0.000000
O O16 0.473369 0.072187 0.250000
O O17 0.391369 0.103467 0.486743
O O18 0.547198 0.066079 0.509650
O O19 0.401569 0.017313 0.450877
O O20 0.683814 0.603276 0.750000
O O21 0.636618 0.454319 0.250000
#
# Coordination Sequence:
#
# PCOD8229996 Si02
#       8
#     8   8   8   8   8   8   8   8
#     4   9  17  30  47  66  95 133 169 199 232 281
#     4  10  19  33  49  67  95 133 169 200 241 293
#     4  11  21  32  48  70  97 130 167 209 245 277
#     4   9  17  29  47  69  95 128 163 200 243 288
#     4   9  17  30  48  68  92 124 161 203 246 286
#     4  10  20  32  49  73  97 122 157 202 243 280
#     4  10  17  30  50  70  96 133 167 195 239 295
#     4  10  20  34  50  69  94 127 162 197 240 289
#
# _framework density 16.152298999999999
#
# number of rings (size 3 to 8) (size 9 to 14) (size 15 to 20)
#    0.000    2.250    2.500    1.500    0.000    2.000 
#    0.000    1.250    0.000    0.000    0.000    0.875 
#    0.000    0.000    0.000    0.000    0.000    0.000 
#
# Total GULP energy -793620.367030 kJ/mol
# GULP energy per Si atom -12400.318235 kJ/mol
# Density = 1.611554 g / cm^3
# Si number density = 16.152299 Si / 1000 Ang^3
#
#
#
# Elastic Constant Matrix: (Units=GPa)
#
#
# Indices 1 2 3 4 5 6 
#
# 1 95.8705 55.4267 42.7999 0.0000 0.0000 0.0000
# 2 55.4267 110.2179 53.2270 0.0000 0.0000 0.0000
# 3 42.7999 53.2270 56.8995 0.0000 0.0000 0.0000
# 4 0.0000 0.0000 0.0000 26.7044 0.0000 0.0000
# 5 0.0000 0.0000 0.0000 0.0000 26.1884 0.0000
# 6 0.0000 0.0000 0.0000 0.0000 0.0000 11.5782
#
#
#
# Elastic Compliance Matrix: (Units=1/GPa)
#
#
# Indices 1 2 3 4 5 6 
#
# 1 0.016734 -0.004262 -0.008601 0.000000 0.000000 0.000000
# 2 -0.004262 0.017634 -0.013290 0.000000 0.000000 0.000000
# 3 -0.008601 -0.013290 0.036477 0.000000 0.000000 0.000000
# 4 0.000000 0.000000 0.000000 0.037447 0.000000 0.000000
# 5 0.000000 0.000000 0.000000 0.000000 0.038185 0.000000
# 6 0.000000 0.000000 0.000000 0.000000 0.000000 0.086369
#
#
# Mechanical properties :
#
#
# Convention : Reuss Voigt Hill
#
# Bulk Modulus (GPa) = 53.93875 62.87722 58.40799
# Shear Modulus (GPa) = 17.16246 20.32982 18.74614
#
# Velocity S-wave (km/s) = 3.26320 3.55157 3.41043
# Velocity P-wave (km/s) = 6.90393 7.47198 7.19356
#
# Compressibility (1/GPa) = 0.01853955
#
# Stress axis : x y z
#
# Youngs Moduli (GPa) = 59.75704 56.70710 27.41446
#
# Poissons Ratio (x) = 0.24168 0.23579
# Poissons Ratio (y) = 0.25468 0.36435
# Poissons Ratio (z) = 0.51396 0.75367
#
# Static dielectric constant tensor:
#      x y z
#    x 2.953860 0.000000 0.000000 
#    y 0.000000 3.038320 0.000000 
#    z 0.000000 0.000000 2.946090 
# 
# 
# High freq. dielectric constant tensor:
#      x y z
#    x 1.604770 0.000000 0.000000 
#    y 0.000000 1.609050 0.000000 
#    z 0.000000 0.000000 1.615360 
# 
# From -- ./inp_files/6026.got.cif
#   From: 2010.03.12/outbox.cif.g09.slc.cpg/sg57_4_cif.got.tgz:6026.got - 2010.04.16 15:48:40.
