data_PCOD8229367
_publ_section_title
;
Structure prediction by ZEFSAII (Michael W. Deem and Ramdas Pophale) SiO2 
 PCOD8229367
Probable space group: P C C N
;
_chemical_formula_sum "Si O2"
_cell_formula_units_Z 48
_cell_length_a 8.882313
_cell_length_b 13.067429
_cell_length_c 18.615942
_cell_angle_alpha 90.000000
_cell_angle_beta 90.000000
_cell_angle_gamma 90.000000
_cell_volume 2160.733669
_symmetry_space_group_name_H-M "P C C N"
_symmetry_group_IT_number 56
_symmetry_cell_setting 'orthorhombic'
loop_
_space_group_symop_operation_xyz
x,y,z
1/2-x,1/2-y,z
1/2+x,-y,1/2-z
-x,1/2+y,1/2-z
-x,-y,-z
1/2+x,1/2+y,-z
1/2-x,y,1/2+z
x,1/2-y,1/2+z
loop_
_atom_site_type_symbol
_atom_site_label
_atom_site_fract_x
_atom_site_fract_y
_atom_site_fract_z
Si Si1 0.894158 0.567852 0.188380
Si Si2 0.750000 0.750000 0.598357
Si Si3 0.750000 0.250000 0.097088
Si Si4 0.078654 0.026470 0.074055
Si Si5 0.125841 0.566875 0.307829
Si Si6 0.445642 0.246530 0.534141
Si Si7 0.090975 0.466848 0.069603
O O1 0.812827 0.659560 0.147197
O O2 0.760711 0.501815 0.225555
O O3 0.013305 0.609996 0.246642
O O4 0.986414 0.492144 0.136606
O O5 0.608947 0.781282 0.546888
O O6 0.704063 0.342554 0.148406
O O7 0.619763 0.220417 0.040600
O O8 0.084801 0.149589 0.084482
O O9 0.246031 0.976833 0.076356
O O10 0.972391 0.991425 0.140035
O O11 0.000000 0.000000 0.000000
O O12 0.359830 0.347196 0.563387
O O13 0.000000 0.500000 0.000000
#
# Coordination Sequence:
#
# PCOD8229367 Si02
#       7
#     8   4   4   8   8   8   8
#     4  12  26  45  68  95 142 186 233 290 356 436
#     4  12  24  44  66 108 132 182 230 292 360 420
#     4  10  24  42  70 102 132 178 236 292 350 424
#     4  11  23  40  69 102 134 171 229 287 342 410
#     4  11  25  46  65  98 135 185 230 284 356 433
#     4  11  21  40  69  98 137 168 230 288 349 412
#     4  12  21  40  68  98 134 176 223 284 349 407
#
# _framework density 22.214676999999998
#
# number of rings (size 3 to 8) (size 9 to 14) (size 15 to 20)
#    0.000    0.667    5.000    3.000    2.333    1.333 
#    6.000    2.500    0.000    0.000    0.000    0.000 
#    0.000    0.000    0.000    0.000    0.000    0.000 
#
# Total GULP energy -594733.507909 kJ/mol
# GULP energy per Si atom -12390.281415 kJ/mol
# Density = 2.216412 g / cm^3
# Si number density = 22.214677 Si / 1000 Ang^3
#
#
#
# Elastic Constant Matrix: (Units=GPa)
#
#
# Indices 1 2 3 4 5 6 
#
# 1 189.6722 25.9762 62.0252 0.0000 0.0000 0.0000
# 2 25.9762 58.3936 15.5724 0.0000 0.0000 0.0000
# 3 62.0252 15.5724 102.1235 0.0000 0.0000 0.0000
# 4 0.0000 0.0000 0.0000 29.4043 0.0000 0.0000
# 5 0.0000 0.0000 0.0000 0.0000 58.5788 0.0000
# 6 0.0000 0.0000 0.0000 0.0000 0.0000 29.0564
#
#
#
# Elastic Compliance Matrix: (Units=1/GPa)
#
#
# Indices 1 2 3 4 5 6 
#
# 1 0.006797 -0.002004 -0.003822 0.000000 0.000000 0.000000
# 2 -0.002004 0.018442 -0.001595 0.000000 0.000000 0.000000
# 3 -0.003822 -0.001595 0.012357 0.000000 0.000000 0.000000
# 4 0.000000 0.000000 0.000000 0.034009 0.000000 0.000000
# 5 0.000000 0.000000 0.000000 0.000000 0.017071 0.000000
# 6 0.000000 0.000000 0.000000 0.000000 0.000000 0.034416
#
#
# Mechanical properties :
#
#
# Convention : Reuss Voigt Hill
#
# Bulk Modulus (GPa) = 43.95098 61.92630 52.93864
# Shear Modulus (GPa) = 34.35996 39.84893 37.10444
#
# Velocity S-wave (km/s) = 3.93711 4.23994 4.09132
# Velocity P-wave (km/s) = 6.36360 7.20460 6.79712
#
# Compressibility (1/GPa) = 0.02275262
#
# Stress axis : x y z
#
# Youngs Moduli (GPa) = 147.13022 54.22393 80.92689
#
# Poissons Ratio (x) = 0.10867 0.30934
# Poissons Ratio (y) = 0.29487 0.12907
# Poissons Ratio (z) = 0.56239 0.08648
#
# Static dielectric constant tensor:
#      x y z
#    x 4.725080 0.000000 0.000000 
#    y 0.000000 4.084020 0.000000 
#    z 0.000000 0.000000 3.884390 
# 
# 
# High freq. dielectric constant tensor:
#      x y z
#    x 1.913600 0.000000 0.000000 
#    y 0.000000 1.858230 0.000000 
#    z 0.000000 0.000000 1.852960 
# 
# From -- ./inp_files/14882.got.cif
#   From: 2010.03.12/outbox.cif.g09.slc.cpg/sg56_8_cif.got.tgz:14882.got - 2010.04.16 15:33:40.
