data_PCOD8229527
_publ_section_title
;
Structure prediction by ZEFSAII (Michael W. Deem and Ramdas Pophale) SiO2 
 PCOD8229527
Probable space group: P C C N
;
_chemical_formula_sum "Si O2"
_cell_formula_units_Z 64
_cell_length_a 17.133352
_cell_length_b 6.591331
_cell_length_c 26.526954
_cell_angle_alpha 90.000000
_cell_angle_beta 90.000000
_cell_angle_gamma 90.000000
_cell_volume 2995.731204
_symmetry_space_group_name_H-M "P C C N"
_symmetry_group_IT_number 56
_symmetry_cell_setting 'orthorhombic'
loop_
_space_group_symop_operation_xyz
x,y,z
1/2-x,1/2-y,z
1/2+x,-y,1/2-z
-x,1/2+y,1/2-z
-x,-y,-z
1/2+x,1/2+y,-z
1/2-x,y,1/2+z
x,1/2-y,1/2+z
loop_
_atom_site_type_symbol
_atom_site_label
_atom_site_fract_x
_atom_site_fract_y
_atom_site_fract_z
Si Si1 0.335728 0.840067 0.050909
Si Si2 0.839131 0.699382 0.013391
Si Si3 0.443094 0.100118 0.810626
Si Si4 0.834570 0.675844 0.868188
Si Si5 0.341122 0.713550 0.819553
Si Si6 0.086731 0.405608 0.395140
Si Si7 0.929746 0.948728 0.932584
Si Si8 0.899216 0.568659 0.767016
O O1 0.250000 0.750000 0.054871
O O2 0.400141 0.669743 0.053632
O O3 0.354412 0.983081 0.097988
O O4 0.346648 0.958455 0.997430
O O5 0.750000 0.750000 0.998429
O O6 0.857435 0.766159 0.070200
O O7 0.903260 0.804758 0.977871
O O8 0.457470 0.255911 0.856483
O O9 0.410132 0.223724 0.763297
O O10 0.381710 0.929917 0.827357
O O11 0.522808 0.991891 0.796233
O O12 0.750000 0.750000 0.884174
O O13 0.835297 0.616298 0.809581
O O14 0.895330 0.858602 0.880201
O O15 0.250000 0.750000 0.816501
O O16 0.358667 0.565039 0.866151
O O17 0.370362 0.615307 0.767426
O O18 0.023233 0.533167 0.427042
#
# Coordination Sequence:
#
# PCOD8229527 Si02
#       8
#     8   8   8   8   8   8   8   8
#     4  11  20  41  65  96 136 176 215 275 339 401
#     4  11  24  43  68  98 136 179 227 280 339 403
#     4  11  24  46  68  96 135 178 227 276 334 407
#     4  11  23  36  64 100 132 172 218 275 337 403
#     4  11  27  47  69 101 139 179 233 283 333 404
#     4  11  27  44  71  98 135 181 229 283 337 403
#     4  11  22  43  68  98 137 172 225 282 336 406
#     4  11  24  42  69  96 134 180 220 278 340 399
#
# _framework density 21.363731999999999
#
# number of rings (size 3 to 8) (size 9 to 14) (size 15 to 20)
#    0.000    1.000    3.750    2.625    5.250    5.000 
#    0.000    0.000    0.000    0.000    0.000    0.000 
#    0.000    0.000    0.000    0.000    0.000    0.000 
#
# Total GULP energy -793746.673580 kJ/mol
# GULP energy per Si atom -12402.291775 kJ/mol
# Density = 2.131511 g / cm^3
# Si number density = 21.363732 Si / 1000 Ang^3
#
#
#
# Elastic Constant Matrix: (Units=GPa)
#
#
# Indices 1 2 3 4 5 6 
#
# 1 101.1817 25.1560 22.0434 0.0000 0.0000 0.0000
# 2 25.1560 112.6064 31.6069 0.0000 0.0000 0.0000
# 3 22.0434 31.6069 98.8760 0.0000 0.0000 0.0000
# 4 0.0000 0.0000 0.0000 21.7583 0.0000 0.0000
# 5 0.0000 0.0000 0.0000 0.0000 24.5001 0.0000
# 6 0.0000 0.0000 0.0000 0.0000 0.0000 34.7057
#
#
#
# Elastic Compliance Matrix: (Units=1/GPa)
#
#
# Indices 1 2 3 4 5 6 
#
# 1 0.010745 -0.001898 -0.001789 0.000000 0.000000 0.000000
# 2 -0.001898 0.010091 -0.002803 0.000000 0.000000 0.000000
# 3 -0.001789 -0.002803 0.011408 0.000000 0.000000 0.000000
# 4 0.000000 0.000000 0.000000 0.045960 0.000000 0.000000
# 5 0.000000 0.000000 0.000000 0.000000 0.040816 0.000000
# 6 0.000000 0.000000 0.000000 0.000000 0.000000 0.028814
#
#
# Mechanical properties :
#
#
# Convention : Reuss Voigt Hill
#
# Bulk Modulus (GPa) = 51.90676 52.25297 52.07986
# Shear Modulus (GPa) = 29.89812 31.78333 30.84072
#
# Velocity S-wave (km/s) = 3.74502 3.86129 3.80360
# Velocity P-wave (km/s) = 6.56122 6.66267 6.61214
#
# Compressibility (1/GPa) = 0.01926531
#
# Stress axis : x y z
#
# Youngs Moduli (GPa) = 93.06788 99.09620 87.65542
#
# Poissons Ratio (x) = 0.18812 0.15678
# Poissons Ratio (y) = 0.17667 0.24566
# Poissons Ratio (z) = 0.16646 0.27772
#
# Static dielectric constant tensor:
#      x y z
#    x 3.891620 0.000000 0.000000 
#    y 0.000000 4.150500 0.000000 
#    z 0.000000 0.000000 3.919870 
# 
# 
# High freq. dielectric constant tensor:
#      x y z
#    x 1.836550 0.000000 0.000000 
#    y 0.000000 1.852490 0.000000 
#    z 0.000000 0.000000 1.840920 
# 
# From -- ./inp_files/23695.got.cif
#   From: 2010.03.12/outbox.cif.g09.slc.cpg/sg56_12_cif.got.tgz:23695.got - 2010.04.16 15:33:40.
