data_PCOD8229761
_publ_section_title
;
Structure prediction by ZEFSAII (Michael W. Deem and Ramdas Pophale) SiO2 
 PCOD8229761
Probable space group: P C C N
;
_chemical_formula_sum "Si O2"
_cell_formula_units_Z 32
_cell_length_a 4.932668
_cell_length_b 17.777392
_cell_length_c 13.563852
_cell_angle_alpha 90.000000
_cell_angle_beta 90.000000
_cell_angle_gamma 90.000000
_cell_volume 1189.413811
_symmetry_space_group_name_H-M "P C C N"
_symmetry_group_IT_number 56
_symmetry_cell_setting 'orthorhombic'
loop_
_space_group_symop_operation_xyz
x,y,z
1/2-x,1/2-y,z
1/2+x,-y,1/2-z
-x,1/2+y,1/2-z
-x,-y,-z
1/2+x,1/2+y,-z
1/2-x,y,1/2+z
x,1/2-y,1/2+z
loop_
_atom_site_type_symbol
_atom_site_label
_atom_site_fract_x
_atom_site_fract_y
_atom_site_fract_z
Si Si1 0.149023 0.330710 0.374486
Si Si2 0.091834 0.322321 0.155554
Si Si3 0.090532 0.889827 0.933886
Si Si4 0.812692 0.980967 0.685140
O O1 0.250000 0.250000 0.417216
O O2 0.007448 0.314568 0.270155
O O3 0.378309 0.395149 0.350656
O O4 0.948713 0.371824 0.450730
O O5 0.250000 0.250000 0.115578
O O6 0.308603 0.388108 0.128061
O O7 0.807723 0.327907 0.100600
O O8 0.222557 0.971413 0.911875
O O9 0.566126 0.978770 0.764207
#
# Coordination Sequence:
#
# PCOD8229761 Si02
#       4
#     8   8   8   8
#     4  11  26  48  79 115 153 203 259 317 385 461
#     4  11  25  46  73 110 156 196 255 318 380 451
#     4  12  24  47  77 111 153 203 255 313 387 459
#     4  12  24  49  76 110 156 204 252 317 386 455
#
# _framework density 26.904007
#
# number of rings (size 3 to 8) (size 9 to 14) (size 15 to 20)
#    0.000    0.500    5.000    2.250    0.000    4.000 
#    0.000   13.750    0.000    1.500    0.000    0.000 
#    0.000    0.000    0.000    0.000    0.000    0.000 
#
# Total GULP energy -396517.046919 kJ/mol
# GULP energy per Si atom -12391.157716 kJ/mol
# Density = 2.684277 g / cm^3
# Si number density = 26.904007 Si / 1000 Ang^3
#
#
#
# Elastic Constant Matrix: (Units=GPa)
#
#
# Indices 1 2 3 4 5 6 
#
# 1 117.8644 6.0315 47.8506 0.0000 0.0000 0.0000
# 2 6.0315 178.6023 27.9896 0.0000 0.0000 0.0000
# 3 47.8506 27.9896 126.6463 0.0000 0.0000 0.0000
# 4 0.0000 0.0000 0.0000 -24.7533 0.0000 0.0000
# 5 0.0000 0.0000 0.0000 0.0000 20.6116 0.0000
# 6 0.0000 0.0000 0.0000 0.0000 0.0000 40.1896
#
#
#
# Elastic Compliance Matrix: (Units=1/GPa)
#
#
# Indices 1 2 3 4 5 6 
#
# 1 0.010034 0.000264 -0.003849 0.000000 0.000000 0.000000
# 2 0.000264 0.005807 -0.001383 0.000000 0.000000 0.000000
# 3 -0.003849 -0.001383 0.009656 0.000000 0.000000 0.000000
# 4 0.000000 0.000000 0.000000 -0.040399 0.000000 0.000000
# 5 0.000000 0.000000 0.000000 0.000000 0.048516 0.000000
# 6 0.000000 0.000000 0.000000 0.000000 0.000000 0.024882
#
#
# Mechanical properties :
#
#
# Convention : Reuss Voigt Hill
#
# Bulk Modulus (GPa) = 64.26701 65.20628 64.73664
# Shear Modulus (GPa) = 67.91666 29.95900 48.93783
#
# Velocity S-wave (km/s) = 5.02980 3.34061 4.26958
# Velocity P-wave (km/s) = 7.59416 6.25850 6.95845
#
# Compressibility (1/GPa) = 0.01556008
#
# Stress axis : x y z
#
# Youngs Moduli (GPa) = 99.66535 172.20952 103.56114
#
# Poissons Ratio (x) = -0.04554 0.39865
# Poissons Ratio (y) = -0.02635 0.14325
# Poissons Ratio (z) = 0.38365 0.23821
#
# Static dielectric constant tensor:
#      x y z
#    x 4.562380 0.000000 0.000000 
#    y 0.000000 5.307140 0.000000 
#    z 0.000000 0.000000 4.733280 
# 
# 
# High freq. dielectric constant tensor:
#      x y z
#    x 2.054430 0.000000 0.000000 
#    y 0.000000 2.104440 0.000000 
#    z 0.000000 0.000000 2.086860 
# 
# From -- ./inp_files/5446.got.cif
#   From: 2010.03.12/outbox.cif.g09.slc.cpg/sg56_3_cif.got.tgz:5446.got - 2010.04.16 15:33:40.
