data_PCOD8229598
_publ_section_title
;
Structure prediction by ZEFSAII (Michael W. Deem and Ramdas Pophale) SiO2 
 PCOD8229598
Probable space group: P C C N
;
_chemical_formula_sum "Si O2"
_cell_formula_units_Z 48
_cell_length_a 19.052109
_cell_length_b 13.957781
_cell_length_c 8.518862
_cell_angle_alpha 90.000000
_cell_angle_beta 90.000000
_cell_angle_gamma 90.000000
_cell_volume 2265.379783
_symmetry_space_group_name_H-M "P C C N"
_symmetry_group_IT_number 56
_symmetry_cell_setting 'orthorhombic'
loop_
_space_group_symop_operation_xyz
x,y,z
1/2-x,1/2-y,z
1/2+x,-y,1/2-z
-x,1/2+y,1/2-z
-x,-y,-z
1/2+x,1/2+y,-z
1/2-x,y,1/2+z
x,1/2-y,1/2+z
loop_
_atom_site_type_symbol
_atom_site_label
_atom_site_fract_x
_atom_site_fract_y
_atom_site_fract_z
Si Si1 0.575570 0.907118 0.901211
Si Si2 0.996168 0.271632 0.675372
Si Si3 0.818759 0.454266 0.784254
Si Si4 0.106448 0.772671 0.574079
Si Si5 0.669055 0.077704 0.415934
Si Si6 0.452329 0.033628 0.758223
O O1 0.562439 0.795334 0.864296
O O2 0.647965 0.942370 0.823289
O O3 0.512280 0.963647 0.819348
O O4 0.583292 0.920563 0.087879
O O5 0.016800 0.382615 0.645239
O O6 0.973089 0.263833 0.856951
O O7 0.919060 0.241316 0.605087
O O8 0.859423 0.375564 0.890925
O O9 0.826208 0.434289 0.601677
O O10 0.737825 0.459742 0.829562
O O11 0.161587 0.690576 0.621208
O O12 0.602698 0.022340 0.347937
#
# Coordination Sequence:
#
# PCOD8229598 Si02
#       6
#     8   8   8   8   8   8
#     4  11  22  41  66  95 133 170 218 271 324 390
#     4  12  23  40  67 102 130 167 217 271 329 383
#     4  12  27  43  64  96 133 180 218 271 335 393
#     4  12  23  40  66  99 133 166 212 270 330 392
#     4  12  27  42  65  94 135 176 220 269 332 401
#     4  11  23  41  67  96 131 172 218 272 324 389
#
# _framework density 21.188500999999999
#
# number of rings (size 3 to 8) (size 9 to 14) (size 15 to 20)
#    0.000    0.333    6.667    2.500    4.667    2.667 
#    0.000    0.833    0.000    4.000    0.000    0.000 
#    0.000    0.000    0.000    0.000    0.000    0.000 
#
# Total GULP energy -595095.920967 kJ/mol
# GULP energy per Si atom -12397.831687 kJ/mol
# Density = 2.114028 g / cm^3
# Si number density = 21.188501 Si / 1000 Ang^3
#
#
#
# Elastic Constant Matrix: (Units=GPa)
#
#
# Indices 1 2 3 4 5 6 
#
# 1 92.5559 30.7071 22.9237 0.0000 0.0000 0.0000
# 2 30.7071 79.5220 26.7120 0.0000 0.0000 0.0000
# 3 22.9237 26.7120 60.5964 0.0000 0.0000 0.0000
# 4 0.0000 0.0000 0.0000 27.5071 0.0000 0.0000
# 5 0.0000 0.0000 0.0000 0.0000 38.7996 0.0000
# 6 0.0000 0.0000 0.0000 0.0000 0.0000 35.5186
#
#
#
# Elastic Compliance Matrix: (Units=1/GPa)
#
#
# Indices 1 2 3 4 5 6 
#
# 1 0.012883 -0.003918 -0.003147 0.000000 0.000000 0.000000
# 2 -0.003918 0.015952 -0.005550 0.000000 0.000000 0.000000
# 3 -0.003147 -0.005550 0.020140 0.000000 0.000000 0.000000
# 4 0.000000 0.000000 0.000000 0.036354 0.000000 0.000000
# 5 0.000000 0.000000 0.000000 0.000000 0.025773 0.000000
# 6 0.000000 0.000000 0.000000 0.000000 0.000000 0.028154
#
#
# Mechanical properties :
#
#
# Convention : Reuss Voigt Hill
#
# Bulk Modulus (GPa) = 42.11201 43.70665 42.90933
# Shear Modulus (GPa) = 29.00201 30.52048 29.76124
#
# Velocity S-wave (km/s) = 3.70369 3.79941 3.75186
# Velocity P-wave (km/s) = 6.18125 6.31820 6.25010
#
# Compressibility (1/GPa) = 0.02374620
#
# Stress axis : x y z
#
# Youngs Moduli (GPa) = 77.61879 62.68702 49.65353
#
# Poissons Ratio (x) = 0.24560 0.15625
# Poissons Ratio (y) = 0.30410 0.27557
# Poissons Ratio (z) = 0.24425 0.34791
#
# Static dielectric constant tensor:
#      x y z
#    x 3.756150 0.000000 0.000000 
#    y 0.000000 3.893820 0.000000 
#    z 0.000000 0.000000 3.991120 
# 
# 
# High freq. dielectric constant tensor:
#      x y z
#    x 1.811420 0.000000 0.000000 
#    y 0.000000 1.824290 0.000000 
#    z 0.000000 0.000000 1.852730 
# 
# From -- ./inp_files/3479.got.cif
#   From: 2010.03.12/outbox.cif.g09.slc.cpg/sg56_2_cif.got.tgz:3479.got - 2010.04.16 15:33:40.
