data_PCOD8229606
_publ_section_title
;
Structure prediction by ZEFSAII (Michael W. Deem and Ramdas Pophale) SiO2 
 PCOD8229606
Probable space group: P C C N
;
_chemical_formula_sum "Si O2"
_cell_formula_units_Z 36
_cell_length_a 23.708021
_cell_length_b 4.875783
_cell_length_c 13.468263
_cell_angle_alpha 90.000000
_cell_angle_beta 90.000000
_cell_angle_gamma 90.000000
_cell_volume 1556.866094
_symmetry_space_group_name_H-M "P C C N"
_symmetry_group_IT_number 56
_symmetry_cell_setting 'orthorhombic'
loop_
_space_group_symop_operation_xyz
x,y,z
1/2-x,1/2-y,z
1/2+x,-y,1/2-z
-x,1/2+y,1/2-z
-x,-y,-z
1/2+x,1/2+y,-z
1/2-x,y,1/2+z
x,1/2-y,1/2+z
loop_
_atom_site_type_symbol
_atom_site_label
_atom_site_fract_x
_atom_site_fract_y
_atom_site_fract_z
Si Si1 0.174422 0.861907 0.320667
Si Si2 0.873525 0.863830 0.079790
Si Si3 0.250000 0.250000 0.725059
Si Si4 0.866290 0.838289 0.853907
Si Si5 0.462034 0.063960 0.261252
O O1 0.171894 0.551916 0.359982
O O2 0.147585 0.053137 0.407492
O O3 0.237113 0.978673 0.293083
O O4 0.134893 0.901441 0.222066
O O5 0.934603 0.912862 0.128957
O O6 0.875730 0.945003 0.964887
O O7 0.305221 0.317702 0.657618
O O8 0.916781 0.636231 0.824101
O O9 0.516890 0.256470 0.256477
#
# Coordination Sequence:
#
# PCOD8229606 Si02
#       5
#     8   8   4   8   8
#     4   9  22  41  65  98 141 167 226 279 348 413
#     4  11  22  42  70 100 132 188 226 287 352 411
#     4   8  20  48  66 102 138 184 212 310 332 440
#     4   9  22  44  70 103 139 177 242 284 353 421
#     4  11  24  43  67 100 144 188 240 296 345 408
#
# _framework density 23.123377000000001
#
# number of rings (size 3 to 8) (size 9 to 14) (size 15 to 20)
#    1.333    0.889    0.000    2.667    0.000    8.889 
#    0.000    0.000    0.000    0.000    0.000    0.000 
#    0.000    0.000    0.000    0.000    0.000    0.000 
#
# Total GULP energy -446105.133294 kJ/mol
# GULP energy per Si atom -12391.809258 kJ/mol
# Density = 2.307075 g / cm^3
# Si number density = 23.123377 Si / 1000 Ang^3
#
#
#
# Elastic Constant Matrix: (Units=GPa)
#
#
# Indices 1 2 3 4 5 6 
#
# 1 121.4747 17.0073 32.5080 0.0000 0.0000 0.0000
# 2 17.0073 48.0931 3.1707 0.0000 0.0000 0.0000
# 3 32.5080 3.1707 163.0090 0.0000 0.0000 0.0000
# 4 0.0000 0.0000 0.0000 9.0051 0.0000 0.0000
# 5 0.0000 0.0000 0.0000 0.0000 22.4882 0.0000
# 6 0.0000 0.0000 0.0000 0.0000 0.0000 33.1497
#
#
#
# Elastic Compliance Matrix: (Units=1/GPa)
#
#
# Indices 1 2 3 4 5 6 
#
# 1 0.009140 -0.003116 -0.001762 0.000000 0.000000 0.000000
# 2 -0.003116 0.021882 0.000196 0.000000 0.000000 0.000000
# 3 -0.001762 0.000196 0.006482 0.000000 0.000000 0.000000
# 4 0.000000 0.000000 0.000000 0.111048 0.000000 0.000000
# 5 0.000000 0.000000 0.000000 0.000000 0.044468 0.000000
# 6 0.000000 0.000000 0.000000 0.000000 0.000000 0.030166
#
#
# Mechanical properties :
#
#
# Convention : Reuss Voigt Hill
#
# Bulk Modulus (GPa) = 35.53722 48.66099 42.09910
# Shear Modulus (GPa) = 20.66709 31.58799 26.12754
#
# Velocity S-wave (km/s) = 2.99285 3.70004 3.36507
# Velocity P-wave (km/s) = 5.22922 6.27244 5.77444
#
# Compressibility (1/GPa) = 0.02813951
#
# Stress axis : x y z
#
# Youngs Moduli (GPa) = 109.40913 45.69956 154.26780
#
# Poissons Ratio (x) = 0.14240 0.27184
# Poissons Ratio (y) = 0.34092 -0.03020
# Poissons Ratio (z) = 0.19279 -0.00895
#
# Static dielectric constant tensor:
#      x y z
#    x 4.128920 0.000000 0.000000 
#    y 0.000000 3.862090 0.000000 
#    z 0.000000 0.000000 3.802810 
# 
# 
# High freq. dielectric constant tensor:
#      x y z
#    x 1.928110 0.000000 0.000000 
#    y 0.000000 1.911700 0.000000 
#    z 0.000000 0.000000 1.884320 
# 
# From -- ./inp_files/13315.got.cif
#   From: 2010.03.12/outbox.cif.g09.slc.cpg/sg56_7_cif.got.tgz:13315.got - 2010.04.16 15:33:40.
