data_PCOD8229159
_publ_section_title
;
Structure prediction by ZEFSAII (Michael W. Deem and Ramdas Pophale) SiO2 
 PCOD8229159
Probable space group: P C C N
;
_chemical_formula_sum "Si O2"
_cell_formula_units_Z 48
_cell_length_a 11.926621
_cell_length_b 14.081161
_cell_length_c 12.821423
_cell_angle_alpha 90.000000
_cell_angle_beta 90.000000
_cell_angle_gamma 90.000000
_cell_volume 2153.238375
_symmetry_space_group_name_H-M "P C C N"
_symmetry_group_IT_number 56
_symmetry_cell_setting 'orthorhombic'
loop_
_space_group_symop_operation_xyz
x,y,z
1/2-x,1/2-y,z
1/2+x,-y,1/2-z
-x,1/2+y,1/2-z
-x,-y,-z
1/2+x,1/2+y,-z
1/2-x,y,1/2+z
x,1/2-y,1/2+z
loop_
_atom_site_type_symbol
_atom_site_label
_atom_site_fract_x
_atom_site_fract_y
_atom_site_fract_z
Si Si1 0.750000 0.750000 0.058839
Si Si2 0.887092 0.891549 0.422254
Si Si3 0.750000 0.250000 0.240443
Si Si4 0.393933 0.872993 0.612763
Si Si5 0.136024 0.090338 0.813901
Si Si6 0.241407 0.957969 0.466170
Si Si7 0.606264 0.278432 0.562679
O O1 0.675849 0.808945 0.980716
O O2 0.827306 0.812175 0.133237
O O3 0.836045 0.908744 0.307999
O O4 0.014517 0.858535 0.411885
O O5 0.868571 0.986585 0.491369
O O6 0.703883 0.162973 0.309180
O O7 0.858639 0.219987 0.167844
O O8 0.501845 0.916417 0.670375
O O9 0.342057 0.962557 0.550702
O O10 0.429512 0.787557 0.533571
O O11 0.208333 0.003091 0.860705
O O12 0.216156 0.844903 0.458230
#
# Coordination Sequence:
#
# PCOD8229159 Si02
#       7
#     4   8   4   8   8   8   8
#     4  10  22  44  62  92 130 164 216 268 324 378
#     4  11  24  40  66  91 129 169 214 263 330 387
#     4  12  22  40  72  92 124 174 220 262 320 390
#     4  12  23  43  67  94 130 170 218 271 318 382
#     4  11  24  40  66  91 129 169 214 263 330 387
#     4  11  25  41  59  98 132 164 209 275 321 381
#     4  12  23  43  67  94 130 170 218 271 318 382
#
# _framework density 22.292003000000001
#
# number of rings (size 3 to 8) (size 9 to 14) (size 15 to 20)
#    0.000    0.667    6.667    1.500    2.333    0.000 
#    0.000    0.000    0.000    0.000    0.000    0.000 
#    0.000    0.000    0.000    0.000    0.000    0.000 
#
# Total GULP energy -594913.823224 kJ/mol
# GULP energy per Si atom -12394.037984 kJ/mol
# Density = 2.224127 g / cm^3
# Si number density = 22.292003 Si / 1000 Ang^3
#
#
#
# Elastic Constant Matrix: (Units=GPa)
#
#
# Indices 1 2 3 4 5 6 
#
# 1 65.7162 -7.2570 17.1269 0.0000 0.0000 0.0000
# 2 -7.2570 53.1558 24.8695 0.0000 0.0000 0.0000
# 3 17.1269 24.8695 112.2115 0.0000 0.0000 0.0000
# 4 0.0000 0.0000 0.0000 -56.6856 0.0000 0.0000
# 5 0.0000 0.0000 0.0000 0.0000 36.3765 0.0000
# 6 0.0000 0.0000 0.0000 0.0000 0.0000 10.4952
#
#
#
# Elastic Compliance Matrix: (Units=1/GPa)
#
#
# Indices 1 2 3 4 5 6 
#
# 1 0.016519 0.003832 -0.003371 0.000000 0.000000 0.000000
# 2 0.003832 0.021878 -0.005434 0.000000 0.000000 0.000000
# 3 -0.003371 -0.005434 0.010630 0.000000 0.000000 0.000000
# 4 0.000000 0.000000 0.000000 -0.017641 0.000000 0.000000
# 5 0.000000 0.000000 0.000000 0.000000 0.027490 0.000000
# 6 0.000000 0.000000 0.000000 0.000000 0.000000 0.095282
#
#
# Mechanical properties :
#
#
# Convention : Reuss Voigt Hill
#
# Bulk Modulus (GPa) = 25.58676 33.39580 29.49128
# Shear Modulus (GPa) = 28.22789 11.12682 19.67736
#
# Velocity S-wave (km/s) = 3.56234 2.23657 2.97427
# Velocity P-wave (km/s) = 5.33135 4.65653 5.00532
#
# Compressibility (1/GPa) = 0.03908271
#
# Stress axis : x y z
#
# Youngs Moduli (GPa) = 60.53796 45.70797 94.06923
#
# Poissons Ratio (x) = -0.17516 0.31706
# Poissons Ratio (y) = -0.23199 0.51115
# Poissons Ratio (z) = 0.20405 0.24836
#
# Static dielectric constant tensor:
#      x y z
#    x 4.874290 0.000000 0.000000 
#    y 0.000000 3.908930 0.000000 
#    z 0.000000 0.000000 4.194870 
# 
# 
# High freq. dielectric constant tensor:
#      x y z
#    x 1.881160 0.000000 0.000000 
#    y 0.000000 1.868180 0.000000 
#    z 0.000000 0.000000 1.889550 
# 
# From -- ./inp_files/7182.got.cif
#   From: 2010.03.12/outbox.cif.g09.slc.cpg/sg56_4_cif.got.tgz:7182.got - 2010.04.16 15:33:40.
