data_PCOD8229397
_publ_section_title
;
Structure prediction by ZEFSAII (Michael W. Deem and Ramdas Pophale) SiO2 
 PCOD8229397
Probable space group: P C C N
;
_chemical_formula_sum "Si O2"
_cell_formula_units_Z 36
_cell_length_a 8.972707
_cell_length_b 13.393607
_cell_length_c 12.995646
_cell_angle_alpha 90.000000
_cell_angle_beta 90.000000
_cell_angle_gamma 90.000000
_cell_volume 1561.776596
_symmetry_space_group_name_H-M "P C C N"
_symmetry_group_IT_number 56
_symmetry_cell_setting 'orthorhombic'
loop_
_space_group_symop_operation_xyz
x,y,z
1/2-x,1/2-y,z
1/2+x,-y,1/2-z
-x,1/2+y,1/2-z
-x,-y,-z
1/2+x,1/2+y,-z
1/2-x,y,1/2+z
x,1/2-y,1/2+z
loop_
_atom_site_type_symbol
_atom_site_label
_atom_site_fract_x
_atom_site_fract_y
_atom_site_fract_z
Si Si1 0.492659 0.389984 0.953808
Si Si2 0.390439 0.103826 0.769537
Si Si3 0.087756 0.726394 0.372778
Si Si4 0.750000 0.750000 0.082557
Si Si5 0.052216 0.087342 0.717587
O O1 0.331576 0.337521 0.981488
O O2 0.515854 0.391171 0.831389
O O3 0.500000 0.500000 0.000000
O O4 0.608918 0.314532 0.009909
O O5 0.507910 0.133258 0.681972
O O6 0.374971 0.197539 0.845744
O O7 0.229868 0.072382 0.723173
O O8 0.466796 0.009626 0.826714
O O9 0.250000 0.750000 0.326167
O O10 0.983340 0.823533 0.361745
#
# Coordination Sequence:
#
# PCOD8229397 Si02
#       5
#     8   8   8   4   8
#     4  11  24  43  68  99 138 181 228 291 353 416
#     4  11  21  46  70 101 136 188 228 289 357 414
#     4  12  25  42  68 103 141 181 239 286 353 416
#     4  10  24  44  72 102 142 182 242 290 356 424
#     4  11  24  43  73  99 141 186 235 292 357 424
#
# _framework density 23.050671000000001
#
# number of rings (size 3 to 8) (size 9 to 14) (size 15 to 20)
#    0.000    0.889    6.667    1.333    6.222    0.889 
#    4.000    1.111    0.000    0.000    0.000    0.000 
#    0.000    0.000    0.000    0.000    0.000    0.000 
#
# Total GULP energy -446173.708330 kJ/mol
# GULP energy per Si atom -12393.714120 kJ/mol
# Density = 2.299821 g / cm^3
# Si number density = 23.050671 Si / 1000 Ang^3
#
#
#
# Elastic Constant Matrix: (Units=GPa)
#
#
# Indices 1 2 3 4 5 6 
#
# 1 137.2510 51.0618 15.4905 0.0000 0.0000 0.0000
# 2 51.0618 159.4935 40.0911 0.0000 0.0000 0.0000
# 3 15.4905 40.0911 65.6714 0.0000 0.0000 0.0000
# 4 0.0000 0.0000 0.0000 32.2015 0.0000 0.0000
# 5 0.0000 0.0000 0.0000 0.0000 19.6941 0.0000
# 6 0.0000 0.0000 0.0000 0.0000 0.0000 60.9129
#
#
#
# Elastic Compliance Matrix: (Units=1/GPa)
#
#
# Indices 1 2 3 4 5 6 
#
# 1 0.008280 -0.002551 -0.000395 0.000000 0.000000 0.000000
# 2 -0.002551 0.008193 -0.004400 0.000000 0.000000 0.000000
# 3 -0.000395 -0.004400 0.018006 0.000000 0.000000 0.000000
# 4 0.000000 0.000000 0.000000 0.031054 0.000000 0.000000
# 5 0.000000 0.000000 0.000000 0.000000 0.050777 0.000000
# 6 0.000000 0.000000 0.000000 0.000000 0.000000 0.016417
#
#
# Mechanical properties :
#
#
# Convention : Reuss Voigt Hill
#
# Bulk Modulus (GPa) = 50.54088 63.96695 57.25392
# Shear Modulus (GPa) = 32.46438 39.61320 36.03879
#
# Velocity S-wave (km/s) = 3.75693 4.15001 3.95835
# Velocity P-wave (km/s) = 6.38693 7.12561 6.76636
#
# Compressibility (1/GPa) = 0.01978596
#
# Stress axis : x y z
#
# Youngs Moduli (GPa) = 120.77671 122.06191 55.53564
#
# Poissons Ratio (x) = 0.31142 0.02196
# Poissons Ratio (y) = 0.30814 0.24433
# Poissons Ratio (z) = 0.04776 0.53702
#
# Static dielectric constant tensor:
#      x y z
#    x 4.072450 0.000000 0.000000 
#    y 0.000000 4.370980 0.000000 
#    z 0.000000 0.000000 3.983020 
# 
# 
# High freq. dielectric constant tensor:
#      x y z
#    x 1.898310 0.000000 0.000000 
#    y 0.000000 1.936870 0.000000 
#    z 0.000000 0.000000 1.883430 
# 
# From -- ./inp_files/10312.got.cif
#   From: 2010.03.12/outbox.cif.g09.slc.cpg/sg56_6_cif.got.tgz:10312.got - 2010.04.16 15:33:40.
