data_PCOD8229090
_publ_section_title
;
Structure prediction by ZEFSAII (Michael W. Deem and Ramdas Pophale) SiO2 
 PCOD8229090
Probable space group: P C C N
;
_chemical_formula_sum "Si O2"
_cell_formula_units_Z 40
_cell_length_a 18.709245
_cell_length_b 9.566034
_cell_length_c 9.734203
_cell_angle_alpha 90.000000
_cell_angle_beta 90.000000
_cell_angle_gamma 90.000000
_cell_volume 1742.162179
_symmetry_space_group_name_H-M "P C C N"
_symmetry_group_IT_number 56
_symmetry_cell_setting 'orthorhombic'
loop_
_space_group_symop_operation_xyz
x,y,z
1/2-x,1/2-y,z
1/2+x,-y,1/2-z
-x,1/2+y,1/2-z
-x,-y,-z
1/2+x,1/2+y,-z
1/2-x,y,1/2+z
x,1/2-y,1/2+z
loop_
_atom_site_type_symbol
_atom_site_label
_atom_site_fract_x
_atom_site_fract_y
_atom_site_fract_z
Si Si1 0.337129 0.044578 0.178936
Si Si2 0.766238 0.591867 0.085227
Si Si3 0.930023 0.413783 0.464428
Si Si4 0.614610 0.643463 0.795141
Si Si5 0.949120 0.326251 0.752873
O O1 0.297679 0.023456 0.325358
O O2 0.362541 0.203528 0.156567
O O3 0.406494 0.947628 0.167289
O O4 0.281158 0.008148 0.056567
O O5 0.750000 0.750000 0.044673
O O6 0.839315 0.587422 0.170263
O O7 0.872908 0.536054 0.424562
O O8 0.914184 0.319373 0.598883
O O9 0.938371 0.319847 0.328965
O O10 0.000000 0.500000 0.500000
O O11 0.532476 0.637380 0.747401
#
# Coordination Sequence:
#
# PCOD8229090 Si02
#       5
#     8   8   8   8   8
#     4  11  25  43  74 103 142 187 244 293 363 429
#     4  10  23  41  70 104 140 188 242 290 354 429
#     4  10  24  44  65 103 147 178 226 292 364 425
#     4  10  22  41  73 104 142 179 242 299 353 426
#     4  11  25  43  71 105 142 186 235 303 366 417
#
# _framework density 22.959973999999999
#
# number of rings (size 3 to 8) (size 9 to 14) (size 15 to 20)
#    0.000    1.600    0.000    4.200   16.800    0.800 
#    0.000    1.000    0.000    0.000    0.000    0.000 
#    0.000    0.000    0.000    0.000    0.000    0.000 
#
# Total GULP energy -495769.191612 kJ/mol
# GULP energy per Si atom -12394.229790 kJ/mol
# Density = 2.290772 g / cm^3
# Si number density = 22.959974 Si / 1000 Ang^3
#
#
#
# Elastic Constant Matrix: (Units=GPa)
#
#
# Indices 1 2 3 4 5 6 
#
# 1 102.3338 28.2519 28.8753 0.0000 0.0000 0.0000
# 2 28.2519 98.7284 58.6125 0.0000 0.0000 0.0000
# 3 28.8753 58.6125 141.1283 0.0000 0.0000 0.0000
# 4 0.0000 0.0000 0.0000 37.9070 0.0000 0.0000
# 5 0.0000 0.0000 0.0000 0.0000 34.0804 0.0000
# 6 0.0000 0.0000 0.0000 0.0000 0.0000 31.2734
#
#
#
# Elastic Compliance Matrix: (Units=1/GPa)
#
#
# Indices 1 2 3 4 5 6 
#
# 1 0.010768 -0.002354 -0.001226 0.000000 0.000000 0.000000
# 2 -0.002354 0.013958 -0.005315 0.000000 0.000000 0.000000
# 3 -0.001226 -0.005315 0.009544 0.000000 0.000000 0.000000
# 4 0.000000 0.000000 0.000000 0.026380 0.000000 0.000000
# 5 0.000000 0.000000 0.000000 0.000000 0.029342 0.000000
# 6 0.000000 0.000000 0.000000 0.000000 0.000000 0.031976
#
#
# Mechanical properties :
#
#
# Convention : Reuss Voigt Hill
#
# Bulk Modulus (GPa) = 60.67821 63.74110 62.20966
# Shear Modulus (GPa) = 34.42322 35.74888 35.08605
#
# Velocity S-wave (km/s) = 3.87624 3.95018 3.91338
# Velocity P-wave (km/s) = 6.82047 6.97333 6.89732
#
# Compressibility (1/GPa) = 0.01648038
#
# Stress axis : x y z
#
# Youngs Moduli (GPa) = 92.87172 71.64412 104.77751
#
# Poissons Ratio (x) = 0.16862 0.12841
# Poissons Ratio (y) = 0.21859 0.55693
# Poissons Ratio (z) = 0.11382 0.38081
#
# Static dielectric constant tensor:
#      x y z
#    x 4.230320 0.000000 0.000000 
#    y 0.000000 4.080370 0.000000 
#    z 0.000000 0.000000 4.738230 
# 
# 
# High freq. dielectric constant tensor:
#      x y z
#    x 1.911580 0.000000 0.000000 
#    y 0.000000 1.879360 0.000000 
#    z 0.000000 0.000000 1.923380 
# 
# From -- ./inp_files/4390.got.cif
#   From: 2010.03.12/outbox.cif.g09.slc.cpg/sg56_3_cif.got.tgz:4390.got - 2010.04.16 15:33:40.
