data_PCOD8229206
_publ_section_title
;
Structure prediction by ZEFSAII (Michael W. Deem and Ramdas Pophale) SiO2 
 PCOD8229206
Probable space group: P C C N
;
_chemical_formula_sum "Si O2"
_cell_formula_units_Z 56
_cell_length_a 20.149652
_cell_length_b 9.309199
_cell_length_c 13.472698
_cell_angle_alpha 90.000000
_cell_angle_beta 90.000000
_cell_angle_gamma 90.000000
_cell_volume 2527.169893
_symmetry_space_group_name_H-M "P C C N"
_symmetry_group_IT_number 56
_symmetry_cell_setting 'orthorhombic'
loop_
_space_group_symop_operation_xyz
x,y,z
1/2-x,1/2-y,z
1/2+x,-y,1/2-z
-x,1/2+y,1/2-z
-x,-y,-z
1/2+x,1/2+y,-z
1/2-x,y,1/2+z
x,1/2-y,1/2+z
loop_
_atom_site_type_symbol
_atom_site_label
_atom_site_fract_x
_atom_site_fract_y
_atom_site_fract_z
Si Si1 0.690562 0.438578 0.624651
Si Si2 0.169633 0.884486 0.940793
Si Si3 0.409232 0.131912 0.987648
Si Si4 0.317585 0.658766 0.164679
Si Si5 0.543326 0.242042 0.276110
Si Si6 0.550089 0.925677 0.574102
Si Si7 0.990592 0.979002 0.352508
O O1 0.667647 0.285061 0.581168
O O2 0.768874 0.459278 0.612935
O O3 0.655594 0.564105 0.562535
O O4 0.677260 0.452890 0.743166
O O5 0.103353 0.952753 0.893905
O O6 0.178884 0.917025 0.058249
O O7 0.406293 0.304128 0.982641
O O8 0.475885 0.082635 0.932487
O O9 0.421247 0.082743 0.102312
O O10 0.250000 0.750000 0.175841
O O11 0.384664 0.753136 0.172839
O O12 0.488614 0.146257 0.334889
O O13 0.522296 0.408706 0.261224
O O14 0.541402 0.152395 0.172809
O O15 0.500000 0.000000 0.500000
#
# Coordination Sequence:
#
# PCOD8229206 Si02
#       7
#     8   8   8   8   8   8   8
#     4  11  23  42  69  95 131 179 224 280 339 413
#     4  11  24  41  69  97 131 174 230 278 335 417
#     4  10  23  43  62  91 135 171 219 273 350 395
#     4  12  22  40  65  99 131 175 226 276 333 408
#     4  11  24  39  66  97 133 169 226 279 342 409
#     4  11  25  42  65  96 131 178 220 285 345 409
#     4  10  23  38  64  95 127 171 211 281 334 406
#
# _framework density 22.159175000000001
#
# number of rings (size 3 to 8) (size 9 to 14) (size 15 to 20)
#    0.000    1.143    5.714    0.857    8.000    0.571 
#    0.000    0.000    0.000    1.714    0.000    0.000 
#    0.000    0.000    0.000    0.000    0.000    0.000 
#
# Total GULP energy -693964.526052 kJ/mol
# GULP energy per Si atom -12392.223680 kJ/mol
# Density = 2.210874 g / cm^3
# Si number density = 22.159175 Si / 1000 Ang^3
#
#
#
# Elastic Constant Matrix: (Units=GPa)
#
#
# Indices 1 2 3 4 5 6 
#
# 1 128.9813 33.2447 5.0893 0.0000 0.0000 0.0000
# 2 33.2447 88.3730 2.9396 0.0000 0.0000 0.0000
# 3 5.0893 2.9396 77.1854 0.0000 0.0000 0.0000
# 4 0.0000 0.0000 0.0000 27.3700 0.0000 0.0000
# 5 0.0000 0.0000 0.0000 0.0000 37.7657 0.0000
# 6 0.0000 0.0000 0.0000 0.0000 0.0000 36.5998
#
#
#
# Elastic Compliance Matrix: (Units=1/GPa)
#
#
# Indices 1 2 3 4 5 6 
#
# 1 0.008601 -0.003221 -0.000444 0.000000 0.000000 0.000000
# 2 -0.003221 0.012536 -0.000265 0.000000 0.000000 0.000000
# 3 -0.000444 -0.000265 0.012995 0.000000 0.000000 0.000000
# 4 0.000000 0.000000 0.000000 0.036536 0.000000 0.000000
# 5 0.000000 0.000000 0.000000 0.000000 0.026479 0.000000
# 6 0.000000 0.000000 0.000000 0.000000 0.000000 0.027323
#
#
# Mechanical properties :
#
#
# Convention : Reuss Voigt Hill
#
# Bulk Modulus (GPa) = 38.06388 41.89852 39.98120
# Shear Modulus (GPa) = 35.43899 37.23152 36.33526
#
# Velocity S-wave (km/s) = 4.00345 4.10345 4.05376
# Velocity P-wave (km/s) = 6.21168 6.43429 6.32397
#
# Compressibility (1/GPa) = 0.02627162
#
# Stress axis : x y z
#
# Youngs Moduli (GPa) = 116.26923 79.76981 76.95134
#
# Poissons Ratio (x) = 0.25691 0.03420
# Poissons Ratio (y) = 0.37447 0.02040
# Poissons Ratio (z) = 0.05167 0.02114
#
# Static dielectric constant tensor:
#      x y z
#    x 4.124020 0.000000 0.000000 
#    y 0.000000 4.530530 0.000000 
#    z 0.000000 0.000000 4.204810 
# 
# 
# High freq. dielectric constant tensor:
#      x y z
#    x 1.873520 0.000000 0.000000 
#    y 0.000000 1.855280 0.000000 
#    z 0.000000 0.000000 1.875270 
# 
# From -- ./inp_files/13075.got.cif
#   From: 2010.03.12/outbox.cif.g09.slc.cpg/sg56_7_cif.got.tgz:13075.got - 2010.04.16 15:33:40.
