data_PCOD8229108
_publ_section_title
;
Structure prediction by ZEFSAII (Michael W. Deem and Ramdas Pophale) SiO2 
 PCOD8229108
Probable space group: P C C N
;
_chemical_formula_sum "Si O2"
_cell_formula_units_Z 48
_cell_length_a 8.202831
_cell_length_b 14.426966
_cell_length_c 18.452691
_cell_angle_alpha 90.000000
_cell_angle_beta 90.000000
_cell_angle_gamma 90.000000
_cell_volume 2183.727693
_symmetry_space_group_name_H-M "P C C N"
_symmetry_group_IT_number 56
_symmetry_cell_setting 'orthorhombic'
loop_
_space_group_symop_operation_xyz
x,y,z
1/2-x,1/2-y,z
1/2+x,-y,1/2-z
-x,1/2+y,1/2-z
-x,-y,-z
1/2+x,1/2+y,-z
1/2-x,y,1/2+z
x,1/2-y,1/2+z
loop_
_atom_site_type_symbol
_atom_site_label
_atom_site_fract_x
_atom_site_fract_y
_atom_site_fract_z
Si Si1 0.250000 0.250000 0.669334
Si Si2 0.258541 0.429545 0.974934
Si Si3 0.083063 0.983050 0.351572
Si Si4 0.235220 0.458977 0.707814
Si Si5 0.750000 0.250000 0.952314
Si Si6 0.895372 0.429247 0.416489
Si Si7 0.488735 0.313385 0.563719
O O1 0.244483 0.346451 0.715137
O O2 0.415075 0.241633 0.621732
O O3 0.120299 0.442874 0.914129
O O4 0.422957 0.393720 0.936262
O O5 0.306941 0.524803 0.014540
O O6 0.177150 0.360664 0.032435
O O7 0.902684 0.000424 0.322554
O O8 0.101689 0.883538 0.390238
O O9 0.209483 0.995845 0.286127
O O10 0.099598 0.499832 0.651791
O O11 0.711190 0.336940 0.900334
O O12 0.592134 0.237038 0.003006
#
# Coordination Sequence:
#
# PCOD8229108 Si02
#       7
#     4   8   8   8   4   8   8
#     4  10  22  42  66  92 128 174 224 270 332 400
#     4  11  21  42  69  93 129 173 221 272 333 388
#     4  11  22  41  66  89 131 174 218 269 335 388
#     4  11  24  43  67  95 134 180 219 275 335 399
#     4  12  24  36  66 102 134 170 222 280 320 396
#     4  11  23  40  67  99 130 173 220 271 333 391
#     4  11  22  40  64  98 129 172 220 278 330 390
#
# _framework density 21.980761999999999
#
# number of rings (size 3 to 8) (size 9 to 14) (size 15 to 20)
#    0.000    1.000    5.000    3.500    2.333    1.333 
#    0.000   11.667    0.000    0.000    0.000    0.000 
#    0.000    0.000    0.000    0.000    0.000    0.000 
#
# Total GULP energy -594958.517071 kJ/mol
# GULP energy per Si atom -12394.969106 kJ/mol
# Density = 2.193073 g / cm^3
# Si number density = 21.980762 Si / 1000 Ang^3
#
#
#
# Elastic Constant Matrix: (Units=GPa)
#
#
# Indices 1 2 3 4 5 6 
#
# 1 72.3076 21.7310 9.4925 0.0000 0.0000 0.0000
# 2 21.7310 85.3478 21.1251 0.0000 0.0000 0.0000
# 3 9.4925 21.1251 86.9177 0.0000 0.0000 0.0000
# 4 0.0000 0.0000 0.0000 21.1174 0.0000 0.0000
# 5 0.0000 0.0000 0.0000 0.0000 44.0716 0.0000
# 6 0.0000 0.0000 0.0000 0.0000 0.0000 26.7167
#
#
#
# Elastic Compliance Matrix: (Units=1/GPa)
#
#
# Indices 1 2 3 4 5 6 
#
# 1 0.015022 -0.003638 -0.000756 0.000000 0.000000 0.000000
# 2 -0.003638 0.013348 -0.002847 0.000000 0.000000 0.000000
# 3 -0.000756 -0.002847 0.012280 0.000000 0.000000 0.000000
# 4 0.000000 0.000000 0.000000 0.047354 0.000000 0.000000
# 5 0.000000 0.000000 0.000000 0.000000 0.022690 0.000000
# 6 0.000000 0.000000 0.000000 0.000000 0.000000 0.037430
#
#
# Mechanical properties :
#
#
# Convention : Reuss Voigt Hill
#
# Bulk Modulus (GPa) = 38.21514 38.80779 38.51146
# Shear Modulus (GPa) = 29.18369 31.19612 30.18991
#
# Velocity S-wave (km/s) = 3.64770 3.77138 3.71006
# Velocity P-wave (km/s) = 5.92996 6.05459 5.99260
#
# Compressibility (1/GPa) = 0.02616764
#
# Stress axis : x y z
#
# Youngs Moduli (GPa) = 66.56735 74.91976 81.43544
#
# Poissons Ratio (x) = 0.27254 0.06161
# Poissons Ratio (y) = 0.24215 0.23183
# Poissons Ratio (z) = 0.05036 0.21328
#
# Static dielectric constant tensor:
#      x y z
#    x 4.069690 0.000000 0.000000 
#    y 0.000000 3.781060 0.000000 
#    z 0.000000 0.000000 3.909680 
# 
# 
# High freq. dielectric constant tensor:
#      x y z
#    x 1.871490 0.000000 0.000000 
#    y 0.000000 1.853380 0.000000 
#    z 0.000000 0.000000 1.851070 
# 
# From -- ./inp_files/14891.got.cif
#   From: 2010.03.12/outbox.cif.g09.slc.cpg/sg56_8_cif.got.tgz:14891.got - 2010.04.16 15:33:40.
