data_PCOD8229364
_publ_section_title
;
Structure prediction by ZEFSAII (Michael W. Deem and Ramdas Pophale) SiO2 
 PCOD8229364
Probable space group: P C C N
;
_chemical_formula_sum "Si O2"
_cell_formula_units_Z 40
_cell_length_a 8.680824
_cell_length_b 8.223588
_cell_length_c 26.479325
_cell_angle_alpha 90.000000
_cell_angle_beta 90.000000
_cell_angle_gamma 90.000000
_cell_volume 1890.293345
_symmetry_space_group_name_H-M "P C C N"
_symmetry_group_IT_number 56
_symmetry_cell_setting 'orthorhombic'
loop_
_space_group_symop_operation_xyz
x,y,z
1/2-x,1/2-y,z
1/2+x,-y,1/2-z
-x,1/2+y,1/2-z
-x,-y,-z
1/2+x,1/2+y,-z
1/2-x,y,1/2+z
x,1/2-y,1/2+z
loop_
_atom_site_type_symbol
_atom_site_label
_atom_site_fract_x
_atom_site_fract_y
_atom_site_fract_z
Si Si1 0.250000 0.750000 0.161942
Si Si2 0.750000 0.250000 0.001726
Si Si3 0.996609 0.306717 0.921292
Si Si4 0.791946 0.506322 0.581759
Si Si5 0.682530 0.919735 0.278913
Si Si6 0.834542 0.084429 0.194594
O O1 0.404566 0.766298 0.129365
O O2 0.258583 0.582184 0.192895
O O3 0.669477 0.380952 0.037548
O O4 0.621081 0.163415 0.967213
O O5 0.107132 0.463241 0.914516
O O6 0.110219 0.160699 0.934176
O O7 0.850590 0.438223 0.634961
O O8 0.750000 0.750000 0.301775
O O9 0.500377 0.907635 0.279652
O O10 0.739736 0.936972 0.220710
O O11 0.750000 0.250000 0.208080
#
# Coordination Sequence:
#
# PCOD8229364 Si02
#       6
#     4   4   8   8   8   8
#     4  11  24  47  66 100 148 181 240 283 344 418
#     4  11  22  43  68  98 132 171 234 289 346 416
#     4  10  24  42  68  95 137 181 220 290 350 412
#     4  11  23  41  69  97 133 179 232 278 351 413
#     4  12  28  44  72 103 143 190 237 288 350 416
#     4  12  26  46  69 102 142 187 234 291 344 425
#
# _framework density 21.160737999999998
#
# number of rings (size 3 to 8) (size 9 to 14) (size 15 to 20)
#    0.000    0.800    4.000    2.400    8.400    0.000 
#    0.000    0.000    0.000    0.000    0.000    0.000 
#    0.000    0.000    0.000    0.000    0.000    0.000 
#
# Total GULP energy -496038.154886 kJ/mol
# GULP energy per Si atom -12400.953872 kJ/mol
# Density = 2.111258 g / cm^3
# Si number density = 21.160738 Si / 1000 Ang^3
#
#
#
# Elastic Constant Matrix: (Units=GPa)
#
#
# Indices 1 2 3 4 5 6 
#
# 1 112.8272 18.4039 28.8268 0.0000 0.0000 0.0000
# 2 18.4039 109.8303 26.9973 0.0000 0.0000 0.0000
# 3 28.8268 26.9973 99.3156 0.0000 0.0000 0.0000
# 4 0.0000 0.0000 0.0000 29.0700 0.0000 0.0000
# 5 0.0000 0.0000 0.0000 0.0000 13.6247 0.0000
# 6 0.0000 0.0000 0.0000 0.0000 0.0000 32.9636
#
#
#
# Elastic Compliance Matrix: (Units=1/GPa)
#
#
# Indices 1 2 3 4 5 6 
#
# 1 0.009674 -0.000997 -0.002537 0.000000 0.000000 0.000000
# 2 -0.000997 0.009860 -0.002391 0.000000 0.000000 0.000000
# 3 -0.002537 -0.002391 0.011455 0.000000 0.000000 0.000000
# 4 0.000000 0.000000 0.000000 0.034400 0.000000 0.000000
# 5 0.000000 0.000000 0.000000 0.000000 0.073396 0.000000
# 6 0.000000 0.000000 0.000000 0.000000 0.000000 0.030336
#
#
# Mechanical properties :
#
#
# Convention : Reuss Voigt Hill
#
# Bulk Modulus (GPa) = 52.24951 52.26992 52.25971
# Shear Modulus (GPa) = 26.68791 31.64801 29.16796
#
# Velocity S-wave (km/s) = 3.55519 3.87150 3.71671
# Velocity P-wave (km/s) = 6.44964 6.68877 6.57029
#
# Compressibility (1/GPa) = 0.01913893
#
# Stress axis : x y z
#
# Youngs Moduli (GPa) = 103.37049 101.42248 87.29747
#
# Poissons Ratio (x) = 0.10117 0.22145
# Poissons Ratio (y) = 0.10311 0.20870
# Poissons Ratio (z) = 0.26223 0.24247
#
# Static dielectric constant tensor:
#      x y z
#    x 4.006210 0.000000 0.000000 
#    y 0.000000 3.873750 0.000000 
#    z 0.000000 0.000000 3.781730 
# 
# 
# High freq. dielectric constant tensor:
#      x y z
#    x 1.841960 0.000000 0.000000 
#    y 0.000000 1.831050 0.000000 
#    z 0.000000 0.000000 1.832490 
# 
# From -- ./inp_files/20357.got.cif
#   From: 2010.03.12/outbox.cif.g09.slc.cpg/sg56_11_cif.got.tgz:20357.got - 2010.04.16 15:33:40.
