data_PCOD8229362
_publ_section_title
;
Structure prediction by ZEFSAII (Michael W. Deem and Ramdas Pophale) SiO2 
 PCOD8229362
Probable space group: P C C N
;
_chemical_formula_sum "Si O2"
_cell_formula_units_Z 36
_cell_length_a 19.475248
_cell_length_b 8.685381
_cell_length_c 9.185790
_cell_angle_alpha 90.000000
_cell_angle_beta 90.000000
_cell_angle_gamma 90.000000
_cell_volume 1553.775910
_symmetry_space_group_name_H-M "P C C N"
_symmetry_group_IT_number 56
_symmetry_cell_setting 'orthorhombic'
loop_
_space_group_symop_operation_xyz
x,y,z
1/2-x,1/2-y,z
1/2+x,-y,1/2-z
-x,1/2+y,1/2-z
-x,-y,-z
1/2+x,1/2+y,-z
1/2-x,y,1/2+z
x,1/2-y,1/2+z
loop_
_atom_site_type_symbol
_atom_site_label
_atom_site_fract_x
_atom_site_fract_y
_atom_site_fract_z
Si Si1 0.830360 0.732643 0.463029
Si Si2 0.966781 0.117475 0.888080
Si Si3 0.250000 0.750000 0.219234
Si Si4 0.168238 0.893243 0.974991
Si Si5 0.083160 0.354360 0.804334
O O1 0.750000 0.750000 0.432617
O O2 0.844183 0.573915 0.550541
O O3 0.863915 0.869538 0.559865
O O4 0.872788 0.734428 0.315673
O O5 0.901550 0.190846 0.972692
O O6 0.016261 0.254857 0.843327
O O7 0.941059 0.023458 0.745432
O O8 0.000000 0.000000 0.000000
O O9 0.221727 0.881118 0.110345
O O10 0.308533 0.820269 0.322778
#
# Coordination Sequence:
#
# PCOD8229362 Si02
#       5
#     8   8   4   8   8
#     4  11  25  42  68  99 132 175 226 276 330 398
#     4  11  24  45  65 100 135 170 223 275 331 397
#     4  10  24  44  64  98 126 182 210 272 340 390
#     4  10  24  42  67  93 135 167 223 271 328 403
#     4  11  24  45  69  97 136 177 222 281 330 394
#
# _framework density 23.169364000000002
#
# number of rings (size 3 to 8) (size 9 to 14) (size 15 to 20)
#    0.000    1.333    4.444    0.667   12.444    0.889 
#    4.000    0.000    0.000    0.000    0.000    0.000 
#    0.000    0.000    0.000    0.000    0.000    0.000 
#
# Total GULP energy -446298.895150 kJ/mol
# GULP energy per Si atom -12397.191532 kJ/mol
# Density = 2.311663 g / cm^3
# Si number density = 23.169364 Si / 1000 Ang^3
#
#
#
# Elastic Constant Matrix: (Units=GPa)
#
#
# Indices 1 2 3 4 5 6 
#
# 1 109.9535 -0.5317 15.2043 0.0000 0.0000 0.0000
# 2 -0.5317 25.7631 -5.8340 0.0000 0.0000 0.0000
# 3 15.2043 -5.8340 81.8387 0.0000 0.0000 0.0000
# 4 0.0000 0.0000 0.0000 27.1633 0.0000 0.0000
# 5 0.0000 0.0000 0.0000 0.0000 30.6549 0.0000
# 6 0.0000 0.0000 0.0000 0.0000 0.0000 33.4271
#
#
#
# Elastic Compliance Matrix: (Units=1/GPa)
#
#
# Indices 1 2 3 4 5 6 
#
# 1 0.009336 -0.000203 -0.001749 0.000000 0.000000 0.000000
# 2 -0.000203 0.039457 0.002850 0.000000 0.000000 0.000000
# 3 -0.001749 0.002850 0.012747 0.000000 0.000000 0.000000
# 4 0.000000 0.000000 0.000000 0.036814 0.000000 0.000000
# 5 0.000000 0.000000 0.000000 0.000000 0.032621 0.000000
# 6 0.000000 0.000000 0.000000 0.000000 0.000000 0.029916
#
#
# Mechanical properties :
#
#
# Convention : Reuss Voigt Hill
#
# Bulk Modulus (GPa) = 15.78884 26.13694 20.96289
# Shear Modulus (GPa) = 27.74597 32.16351 29.95474
#
# Velocity S-wave (km/s) = 3.46429 3.72989 3.59954
# Velocity P-wave (km/s) = 4.77818 5.46395 5.13253
#
# Compressibility (1/GPa) = 0.06333587
#
# Stress axis : x y z
#
# Youngs Moduli (GPa) = 107.11677 25.34434 78.44817
#
# Poissons Ratio (x) = 0.00515 0.13720
# Poissons Ratio (y) = 0.02178 -0.22362
# Poissons Ratio (z) = 0.18734 -0.07224
#
# Static dielectric constant tensor:
#      x y z
#    x 5.055460 0.000000 0.000000 
#    y 0.000000 3.920950 0.000000 
#    z 0.000000 0.000000 4.247250 
# 
# 
# High freq. dielectric constant tensor:
#      x y z
#    x 1.940170 0.000000 0.000000 
#    y 0.000000 1.886710 0.000000 
#    z 0.000000 0.000000 1.924040 
# 
# From -- ./inp_files/1960.got.cif
#   From: 2010.03.12/outbox.cif.g09.slc.cpg/sg56_1_cif.got.tgz:1960.got - 2010.04.16 15:33:40.
