data_PCOD8229109
_publ_section_title
;
Structure prediction by ZEFSAII (Michael W. Deem and Ramdas Pophale) SiO2 
 PCOD8229109
Probable space group: P C C N
;
_chemical_formula_sum "Si O2"
_cell_formula_units_Z 64
_cell_length_a 10.683152
_cell_length_b 28.915646
_cell_length_c 9.313466
_cell_angle_alpha 90.000000
_cell_angle_beta 90.000000
_cell_angle_gamma 90.000000
_cell_volume 2877.025030
_symmetry_space_group_name_H-M "P C C N"
_symmetry_group_IT_number 56
_symmetry_cell_setting 'orthorhombic'
loop_
_space_group_symop_operation_xyz
x,y,z
1/2-x,1/2-y,z
1/2+x,-y,1/2-z
-x,1/2+y,1/2-z
-x,-y,-z
1/2+x,1/2+y,-z
1/2-x,y,1/2+z
x,1/2-y,1/2+z
loop_
_atom_site_type_symbol
_atom_site_label
_atom_site_fract_x
_atom_site_fract_y
_atom_site_fract_z
Si Si1 0.631805 0.621497 0.433577
Si Si2 0.649194 0.514446 0.379742
Si Si3 0.370511 0.876462 0.786761
Si Si4 0.373597 0.518365 0.311701
Si Si5 0.285195 0.673205 0.000572
Si Si6 0.420880 0.260909 0.821142
Si Si7 0.426612 0.759070 0.932529
Si Si8 0.288285 0.171976 0.787558
O O1 0.636154 0.566295 0.439329
O O2 0.502339 0.638370 0.360033
O O3 0.639418 0.640962 0.595227
O O4 0.752416 0.639395 0.345764
O O5 0.518935 0.500525 0.296685
O O6 0.771639 0.510977 0.278615
O O7 0.664284 0.482052 0.519904
O O8 0.369175 0.930214 0.747769
O O9 0.342502 0.846728 0.645683
O O10 0.256263 0.868471 0.897350
O O11 0.388129 0.705233 0.924743
O O12 0.167638 0.707777 0.018134
O O13 0.545007 0.276124 0.730096
O O14 0.362584 0.217500 0.732864
O O15 0.339102 0.306125 0.850857
O O16 0.446904 0.238802 0.975961
#
# Coordination Sequence:
#
# PCOD8229109 Si02
#       8
#     8   8   8   8   8   8   8   8
#     4  11  23  40  62  90 123 156 205 261 312 377
#     4  10  22  42  66  93 127 166 208 264 328 391
#     4  11  23  40  62  90 123 157 205 260 310 376
#     4  10  22  42  66  93 127 165 208 263 327 391
#     4  11  22  37  59  85 118 162 203 248 304 360
#     4  11  22  37  56  82 119 158 200 246 295 353
#     4  11  22  37  56  82 119 158 200 246 294 353
#     4  11  22  37  59  85 118 162 203 250 306 363
#
# _framework density 22.245203
#
# number of rings (size 3 to 8) (size 9 to 14) (size 15 to 20)
#    0.000    1.250    0.000    6.750    0.000    4.500 
#    0.000    5.000    0.000    0.000    0.000    0.000 
#    0.000    0.000    0.000    0.000    0.000    0.000 
#
# Total GULP energy -793043.336667 kJ/mol
# GULP energy per Si atom -12391.302135 kJ/mol
# Density = 2.219457 g / cm^3
# Si number density = 22.245203 Si / 1000 Ang^3
#
#
#
# Elastic Constant Matrix: (Units=GPa)
#
#
# Indices 1 2 3 4 5 6 
#
# 1 98.1595 26.6792 34.5641 0.0000 0.0000 0.0000
# 2 26.6792 78.6003 20.0553 0.0000 0.0000 0.0000
# 3 34.5641 20.0553 73.3380 0.0000 0.0000 0.0000
# 4 0.0000 0.0000 0.0000 34.6430 0.0000 0.0000
# 5 0.0000 0.0000 0.0000 0.0000 42.6476 0.0000
# 6 0.0000 0.0000 0.0000 0.0000 0.0000 31.5659
#
#
#
# Elastic Compliance Matrix: (Units=1/GPa)
#
#
# Indices 1 2 3 4 5 6 
#
# 1 0.012852 -0.003028 -0.005229 0.000000 0.000000 0.000000
# 2 -0.003028 0.014390 -0.002508 0.000000 0.000000 0.000000
# 3 -0.005229 -0.002508 0.016786 0.000000 0.000000 0.000000
# 4 0.000000 0.000000 0.000000 0.028866 0.000000 0.000000
# 5 0.000000 0.000000 0.000000 0.000000 0.023448 0.000000
# 6 0.000000 0.000000 0.000000 0.000000 0.000000 0.031680
#
#
# Mechanical properties :
#
#
# Convention : Reuss Voigt Hill
#
# Bulk Modulus (GPa) = 44.44914 45.85500 45.15207
# Shear Modulus (GPa) = 31.83680 33.02457 32.43069
#
# Velocity S-wave (km/s) = 3.78719 3.85719 3.82235
# Velocity P-wave (km/s) = 6.25688 6.36360 6.31047
#
# Compressibility (1/GPa) = 0.02249762
#
# Stress axis : x y z
#
# Youngs Moduli (GPa) = 77.81048 69.49087 59.57425
#
# Poissons Ratio (x) = 0.21042 0.31151
# Poissons Ratio (y) = 0.23562 0.14942
# Poissons Ratio (z) = 0.40687 0.17429
#
# Static dielectric constant tensor:
#      x y z
#    x 4.266460 0.000000 0.000000 
#    y 0.000000 3.993820 0.000000 
#    z 0.000000 0.000000 3.786990 
# 
# 
# High freq. dielectric constant tensor:
#      x y z
#    x 1.880470 0.000000 0.000000 
#    y 0.000000 1.883050 0.000000 
#    z 0.000000 0.000000 1.861910 
# 
# From -- ./inp_files/2968.got.cif
#   From: 2010.03.12/outbox.cif.g09.slc.cpg/sg56_2_cif.got.tgz:2968.got - 2010.04.16 15:33:40.
