data_PCOD8229065
_publ_section_title
;
Structure prediction by ZEFSAII (Michael W. Deem and Ramdas Pophale) SiO2 
 PCOD8229065
Probable space group: P C C N
;
_chemical_formula_sum "Si O2"
_cell_formula_units_Z 48
_cell_length_a 16.437299
_cell_length_b 8.802398
_cell_length_c 16.562995
_cell_angle_alpha 90.000000
_cell_angle_beta 90.000000
_cell_angle_gamma 90.000000
_cell_volume 2396.460788
_symmetry_space_group_name_H-M "P C C N"
_symmetry_group_IT_number 56
_symmetry_cell_setting 'orthorhombic'
loop_
_space_group_symop_operation_xyz
x,y,z
1/2-x,1/2-y,z
1/2+x,-y,1/2-z
-x,1/2+y,1/2-z
-x,-y,-z
1/2+x,1/2+y,-z
1/2-x,y,1/2+z
x,1/2-y,1/2+z
loop_
_atom_site_type_symbol
_atom_site_label
_atom_site_fract_x
_atom_site_fract_y
_atom_site_fract_z
Si Si1 0.584423 0.075788 0.018783
Si Si2 0.314690 0.474321 0.632755
Si Si3 0.146831 0.372679 0.662346
Si Si4 0.522683 0.397246 0.074215
Si Si5 0.834143 0.455161 0.179307
Si Si6 0.151208 0.606652 0.299873
O O1 0.567628 0.251184 0.036930
O O2 0.624229 0.994283 0.096014
O O3 0.500000 0.000000 0.000000
O O4 0.647069 0.049235 0.946123
O O5 0.215702 0.491088 0.627867
O O6 0.326344 0.298019 0.648486
O O7 0.357720 0.557258 0.707494
O O8 0.137850 0.417622 0.756481
O O9 0.061247 0.375522 0.619393
O O10 0.584432 0.469218 0.140382
O O11 0.500000 0.500000 0.000000
O O12 0.737468 0.449277 0.166086
O O13 0.863425 0.287254 0.203818
#
# Coordination Sequence:
#
# PCOD8229065 Si02
#       6
#     8   8   8   8   8   8
#     4  11  23  41  62  90 125 162 206 255 319 373
#     4  10  22  42  64  88 125 166 203 253 319 376
#     4  10  22  41  61  92 123 158 208 253 308 377
#     4  11  25  39  59  95 123 157 212 261 308 368
#     4   9  21  41  62  88 121 163 205 252 308 378
#     4   9  21  41  62  87 122 163 208 248 313 379
#
# _framework density 20.029537000000001
#
# number of rings (size 3 to 8) (size 9 to 14) (size 15 to 20)
#    0.000    2.000    1.667    0.000    7.000    1.333 
#    0.000    1.667    0.000    0.000    0.000    0.000 
#    0.000    0.000    0.000    0.000    0.000    0.000 
#
# Total GULP energy -594819.011202 kJ/mol
# GULP energy per Si atom -12392.062733 kJ/mol
# Density = 1.998395 g / cm^3
# Si number density = 20.029537 Si / 1000 Ang^3
#
#
#
# Elastic Constant Matrix: (Units=GPa)
#
#
# Indices 1 2 3 4 5 6 
#
# 1 97.1239 41.7375 89.5074 0.0000 0.0000 0.0000
# 2 41.7375 49.4237 51.8412 0.0000 0.0000 0.0000
# 3 89.5074 51.8412 176.3569 0.0000 0.0000 0.0000
# 4 0.0000 0.0000 0.0000 33.4617 0.0000 0.0000
# 5 0.0000 0.0000 0.0000 0.0000 42.2412 0.0000
# 6 0.0000 0.0000 0.0000 0.0000 0.0000 24.8739
#
#
#
# Elastic Compliance Matrix: (Units=1/GPa)
#
#
# Indices 1 2 3 4 5 6 
#
# 1 0.022354 -0.010088 -0.008380 0.000000 0.000000 0.000000
# 2 -0.010088 0.033805 -0.004817 0.000000 0.000000 0.000000
# 3 -0.008380 -0.004817 0.011340 0.000000 0.000000 0.000000
# 4 0.000000 0.000000 0.000000 0.029885 0.000000 0.000000
# 5 0.000000 0.000000 0.000000 0.000000 0.023674 0.000000
# 6 0.000000 0.000000 0.000000 0.000000 0.000000 0.040203
#
#
# Mechanical properties :
#
#
# Convention : Reuss Voigt Hill
#
# Bulk Modulus (GPa) = 47.78175 76.56404 62.17290
# Shear Modulus (GPa) = 23.27674 29.43660 26.35667
#
# Velocity S-wave (km/s) = 3.41269 3.83777 3.63146
# Velocity P-wave (km/s) = 6.27981 7.61226 6.97791
#
# Compressibility (1/GPa) = 0.02092849
#
# Stress axis : x y z
#
# Youngs Moduli (GPa) = 44.73442 29.58136 88.18595
#
# Poissons Ratio (x) = 0.29840 0.73902
# Poissons Ratio (y) = 0.45126 0.42483
# Poissons Ratio (z) = 0.37488 0.14250
#
# Static dielectric constant tensor:
#      x y z
#    x 3.763760 0.000000 0.000000 
#    y 0.000000 3.591830 0.000000 
#    z 0.000000 0.000000 3.841860 
# 
# 
# High freq. dielectric constant tensor:
#      x y z
#    x 1.799730 0.000000 0.000000 
#    y 0.000000 1.766330 0.000000 
#    z 0.000000 0.000000 1.790120 
# 
# From -- ./inp_files/12663.got.cif
#   From: 2010.03.12/outbox.cif.g09.slc.cpg/sg56_7_cif.got.tgz:12663.got - 2010.04.16 15:33:40.
