data_PCOD8229906
_publ_section_title
;
Structure prediction by ZEFSAII (Michael W. Deem and Ramdas Pophale) SiO2 
 PCOD8229906
Probable space group: P B C M
;
_chemical_formula_sum "Si O2"
_cell_formula_units_Z 52
_cell_length_a 8.807572
_cell_length_b 15.389450
_cell_length_c 21.229512
_cell_angle_alpha 90.000000
_cell_angle_beta 90.000000
_cell_angle_gamma 90.000000
_cell_volume 2877.526370
_symmetry_space_group_name_H-M "P B C M"
_symmetry_group_IT_number 57
_symmetry_cell_setting 'orthorhombic'
loop_
_space_group_symop_operation_xyz
x,y,z
-x,-y,1/2+z
x,1/2-y,-z
-x,1/2+y,1/2-z
-x,-y,-z
x,y,1/2-z
-x,1/2+y,z
x,1/2-y,1/2+z
loop_
_atom_site_type_symbol
_atom_site_label
_atom_site_fract_x
_atom_site_fract_y
_atom_site_fract_z
Si Si1 0.167278 0.810516 0.555942
Si Si2 0.448119 0.777101 0.385149
Si Si3 0.853140 0.881184 0.923701
Si Si4 0.392570 0.117936 0.176594
Si Si5 0.647683 0.750000 0.000000
Si Si6 0.725699 0.489382 0.505330
Si Si7 0.509008 0.535276 0.604181
O O1 0.108064 0.750000 0.500000
O O2 0.277739 0.758962 0.603718
O O3 0.252998 0.889704 0.523055
O O4 0.018592 0.843458 0.593191
O O5 0.536297 0.712179 0.339036
O O6 0.533486 0.793363 0.450803
O O7 0.453024 0.876655 0.359692
O O8 0.769950 0.896809 0.857249
O O9 0.749934 0.819342 0.965751
O O10 0.870581 0.965894 0.969807
O O11 0.360962 0.112938 0.250000
O O12 0.509138 0.041842 0.156075
O O13 0.674966 0.539986 0.569871
O O14 0.600051 0.496693 0.451241
#
# Coordination Sequence:
#
# PCOD8229906 Si02
#       7
#     8   8   8   8   4   8   8
#     4  12  20  31  53  91 120 137 173 228 293 348
#     4  11  19  33  58  84 113 141 184 238 281 326
#     4  10  21  33  53  80 116 147 177 221 283 341
#     4  10  23  40  56  76 108 157 201 228 267 327
#     4  10  16  30  50  82 112 140 170 218 280 338
#     4  10  18  32  52  87 117 141 170 223 289 343
#     4  10  18  32  58  84 112 141 184 234 275 323
#
# _framework density 18.071076000000001
#
# number of rings (size 3 to 8) (size 9 to 14) (size 15 to 20)
#    0.000    1.538    6.154    0.462    0.000    0.615 
#    0.000    0.769    0.000    0.000    0.000    0.000 
#    0.000    0.000    0.000    0.000    0.000    0.000 
#
# Total GULP energy -644350.011305 kJ/mol
# GULP energy per Si atom -12391.346371 kJ/mol
# Density = 1.802995 g / cm^3
# Si number density = 18.071076 Si / 1000 Ang^3
#
#
#
# Elastic Constant Matrix: (Units=GPa)
#
#
# Indices 1 2 3 4 5 6 
#
# 1 67.5435 16.5425 30.8868 0.0000 0.0000 0.0000
# 2 16.5425 117.0307 35.9941 0.0000 0.0000 0.0000
# 3 30.8868 35.9941 98.0247 0.0000 0.0000 0.0000
# 4 0.0000 0.0000 0.0000 14.7686 0.0000 0.0000
# 5 0.0000 0.0000 0.0000 0.0000 7.0228 0.0000
# 6 0.0000 0.0000 0.0000 0.0000 0.0000 24.2439
#
#
#
# Elastic Compliance Matrix: (Units=1/GPa)
#
#
# Indices 1 2 3 4 5 6 
#
# 1 0.017376 -0.000871 -0.005155 0.000000 0.000000 0.000000
# 2 -0.000871 0.009676 -0.003279 0.000000 0.000000 0.000000
# 3 -0.005155 -0.003279 0.013030 0.000000 0.000000 0.000000
# 4 0.000000 0.000000 0.000000 0.067711 0.000000 0.000000
# 5 0.000000 0.000000 0.000000 0.000000 0.142393 0.000000
# 6 0.000000 0.000000 0.000000 0.000000 0.000000 0.041248
#
#
# Mechanical properties :
#
#
# Convention : Reuss Voigt Hill
#
# Bulk Modulus (GPa) = 46.57070 49.93842 48.25456
# Shear Modulus (GPa) = 15.76288 22.48543 19.12416
#
# Velocity S-wave (km/s) = 2.95663 3.53126 3.25664
# Velocity P-wave (km/s) = 6.12228 6.65739 6.39543
#
# Compressibility (1/GPa) = 0.02147273
#
# Stress axis : x y z
#
# Youngs Moduli (GPa) = 57.55076 103.34603 76.74672
#
# Poissons Ratio (x) = 0.08997 0.39566
# Poissons Ratio (y) = 0.05010 0.25163
# Poissons Ratio (z) = 0.29670 0.33885
#
# Static dielectric constant tensor:
#      x y z
#    x 3.244390 0.000000 0.000000 
#    y 0.000000 3.583460 0.000000 
#    z 0.000000 0.000000 3.024230 
# 
# 
# High freq. dielectric constant tensor:
#      x y z
#    x 1.685230 0.000000 0.000000 
#    y 0.000000 1.721040 0.000000 
#    z 0.000000 0.000000 1.652650 
# 
# From -- ./inp_files/24333.got.cif
#   From: 2010.03.12/outbox.cif.g09.slc.cpg/sg57_13_cif.got.tgz:24333.got - 2010.04.16 15:48:40.
