data_PCOD8229687
_publ_section_title
;
Structure prediction by ZEFSAII (Michael W. Deem and Ramdas Pophale) SiO2 
 PCOD8229687
Probable space group: P C C N
;
_chemical_formula_sum "Si O2"
_cell_formula_units_Z 48
_cell_length_a 16.742557
_cell_length_b 9.570056
_cell_length_c 13.448523
_cell_angle_alpha 90.000000
_cell_angle_beta 90.000000
_cell_angle_gamma 90.000000
_cell_volume 2154.819293
_symmetry_space_group_name_H-M "P C C N"
_symmetry_group_IT_number 56
_symmetry_cell_setting 'orthorhombic'
loop_
_space_group_symop_operation_xyz
x,y,z
1/2-x,1/2-y,z
1/2+x,-y,1/2-z
-x,1/2+y,1/2-z
-x,-y,-z
1/2+x,1/2+y,-z
1/2-x,y,1/2+z
x,1/2-y,1/2+z
loop_
_atom_site_type_symbol
_atom_site_label
_atom_site_fract_x
_atom_site_fract_y
_atom_site_fract_z
Si Si1 0.665837 0.830272 0.994745
Si Si2 0.096279 0.653618 0.480974
Si Si3 0.588346 0.965291 0.176489
Si Si4 0.086614 0.922327 0.610646
Si Si5 0.430314 0.403144 0.103903
Si Si6 0.838453 0.234297 0.210339
O O1 0.750000 0.750000 0.983112
O O2 0.598972 0.721718 0.964057
O O3 0.652895 0.963198 0.922062
O O4 0.650554 0.880070 0.107765
O O5 0.081256 0.805742 0.525664
O O6 0.115353 0.545808 0.569979
O O7 0.167116 0.662917 0.399389
O O8 0.024036 0.588891 0.416697
O O9 0.502751 0.983170 0.122521
O O10 0.583909 0.878308 0.279198
O O11 0.617396 0.119256 0.200672
O O12 0.112481 0.862585 0.715927
O O13 0.750000 0.250000 0.253711
#
# Coordination Sequence:
#
# PCOD8229687 Si02
#       6
#     8   8   8   8   8   8
#     4  12  29  45  72 108 153 189 236 312 376 427
#     4  11  23  46  74 107 141 190 248 299 358 438
#     4  12  25  48  76 106 146 193 252 297 363 442
#     4  12  25  48  81 105 143 199 251 295 364 447
#     4  11  25  43  74 111 144 186 246 303 361 433
#     4  12  28  45  74 109 145 191 243 305 365 436
#
# _framework density 22.275649999999999
#
# number of rings (size 3 to 8) (size 9 to 14) (size 15 to 20)
#    0.000    0.333    6.667    1.500    4.667    2.667 
#    0.000    0.000    0.000    0.000    0.000    0.000 
#    0.000    0.000    0.000    0.000    0.000    0.000 
#
# Total GULP energy -595200.612260 kJ/mol
# GULP energy per Si atom -12400.012755 kJ/mol
# Density = 2.222495 g / cm^3
# Si number density = 22.275650 Si / 1000 Ang^3
#
#
#
# Elastic Constant Matrix: (Units=GPa)
#
#
# Indices 1 2 3 4 5 6 
#
# 1 73.4116 40.6988 34.1198 0.0000 0.0000 0.0000
# 2 40.6988 135.7108 45.5606 0.0000 0.0000 0.0000
# 3 34.1198 45.5606 119.3841 0.0000 0.0000 0.0000
# 4 0.0000 0.0000 0.0000 41.0200 0.0000 0.0000
# 5 0.0000 0.0000 0.0000 0.0000 24.9032 0.0000
# 6 0.0000 0.0000 0.0000 0.0000 0.0000 37.4641
#
#
#
# Elastic Compliance Matrix: (Units=1/GPa)
#
#
# Indices 1 2 3 4 5 6 
#
# 1 0.017487 -0.004090 -0.003437 0.000000 0.000000 0.000000
# 2 -0.004090 0.009408 -0.002421 0.000000 0.000000 0.000000
# 3 -0.003437 -0.002421 0.010283 0.000000 0.000000 0.000000
# 4 0.000000 0.000000 0.000000 0.024378 0.000000 0.000000
# 5 0.000000 0.000000 0.000000 0.000000 0.040155 0.000000
# 6 0.000000 0.000000 0.000000 0.000000 0.000000 0.026692
#
#
# Mechanical properties :
#
#
# Convention : Reuss Voigt Hill
#
# Bulk Modulus (GPa) = 57.86837 63.25162 60.56000
# Shear Modulus (GPa) = 32.45471 34.55262 33.50367
#
# Velocity S-wave (km/s) = 3.82115 3.94272 3.88241
# Velocity P-wave (km/s) = 6.74559 7.01308 6.88064
#
# Compressibility (1/GPa) = 0.01728060
#
# Stress axis : x y z
#
# Youngs Moduli (GPa) = 57.18597 106.29002 97.25158
#
# Poissons Ratio (x) = 0.43477 0.33422
# Poissons Ratio (y) = 0.23392 0.23549
# Poissons Ratio (z) = 0.19653 0.25737
#
# Static dielectric constant tensor:
#      x y z
#    x 3.821210 0.000000 0.000000 
#    y 0.000000 4.298380 0.000000 
#    z 0.000000 0.000000 4.292930 
# 
# 
# High freq. dielectric constant tensor:
#      x y z
#    x 1.862460 0.000000 0.000000 
#    y 0.000000 1.885280 0.000000 
#    z 0.000000 0.000000 1.897210 
# 
# From -- ./inp_files/12685.got.cif
#   From: 2010.03.12/outbox.cif.g09.slc.cpg/sg56_7_cif.got.tgz:12685.got - 2010.04.16 15:33:40.
