data_PCOD8229469
_publ_section_title
;
Structure prediction by ZEFSAII (Michael W. Deem and Ramdas Pophale) SiO2 
 PCOD8229469
Probable space group: P C C N
;
_chemical_formula_sum "Si O2"
_cell_formula_units_Z 60
_cell_length_a 28.375372
_cell_length_b 11.151055
_cell_length_c 8.595946
_cell_angle_alpha 90.000000
_cell_angle_beta 90.000000
_cell_angle_gamma 90.000000
_cell_volume 2719.889123
_symmetry_space_group_name_H-M "P C C N"
_symmetry_group_IT_number 56
_symmetry_cell_setting 'orthorhombic'
loop_
_space_group_symop_operation_xyz
x,y,z
1/2-x,1/2-y,z
1/2+x,-y,1/2-z
-x,1/2+y,1/2-z
-x,-y,-z
1/2+x,1/2+y,-z
1/2-x,y,1/2+z
x,1/2-y,1/2+z
loop_
_atom_site_type_symbol
_atom_site_label
_atom_site_fract_x
_atom_site_fract_y
_atom_site_fract_z
Si Si1 0.395802 0.637548 0.795491
Si Si2 0.777317 0.481740 0.211033
Si Si3 0.842935 0.167833 0.893316
Si Si4 0.250000 0.750000 0.969268
Si Si5 0.112482 0.115975 0.649717
Si Si6 0.443807 0.288900 0.366224
Si Si7 0.283073 0.364593 0.575455
Si Si8 0.500400 0.373546 0.085602
O O1 0.380755 0.755226 0.701320
O O2 0.389511 0.525018 0.682400
O O3 0.448993 0.658420 0.847368
O O4 0.364224 0.617495 0.947729
O O5 0.827187 0.445284 0.288601
O O6 0.751726 0.369490 0.132271
O O7 0.740155 0.522674 0.339633
O O8 0.788926 0.594299 0.102041
O O9 0.796504 0.247778 0.924014
O O10 0.087912 0.134019 0.483053
O O11 0.086949 0.183709 0.790005
O O12 0.165901 0.164729 0.646256
O O13 0.464031 0.375413 0.231196
O O14 0.486385 0.228671 0.462339
O O15 0.250000 0.250000 0.586508
O O16 0.500000 0.500000 0.000000
#
# Coordination Sequence:
#
# PCOD8229469 Si02
#       8
#     8   8   8   4   8   8   8   8
#     4  12  26  46  72 110 146 183 247 298 367 452
#     4  12  26  44  71  99 143 192 236 297 362 420
#     4  12  26  42  70 106 146 191 232 296 361 434
#     4  12  22  44  68  98 146 182 234 288 362 424
#     4  11  26  47  73 105 140 192 248 297 358 441
#     4  10  25  49  76 100 143 190 241 303 372 441
#     4  12  29  47  69 102 144 195 246 298 349 428
#     4  11  23  50  74 108 143 187 236 308 377 438
#
# _framework density 22.059722000000001
#
# number of rings (size 3 to 8) (size 9 to 14) (size 15 to 20)
#    0.000    0.533    4.000    3.200    3.733    1.600 
#    2.400    0.000    0.000    0.000    0.000    0.000 
#    0.000    0.000    0.000    0.000    0.000    0.000 
#
# Total GULP energy -744367.007652 kJ/mol
# GULP energy per Si atom -12406.116794 kJ/mol
# Density = 2.200951 g / cm^3
# Si number density = 22.059722 Si / 1000 Ang^3
#
#
#
# Elastic Constant Matrix: (Units=GPa)
#
#
# Indices 1 2 3 4 5 6 
#
# 1 141.0992 58.5301 52.9676 0.0000 0.0000 0.0000
# 2 58.5301 98.5240 52.7086 0.0000 0.0000 0.0000
# 3 52.9676 52.7086 127.4796 0.0000 0.0000 0.0000
# 4 0.0000 0.0000 0.0000 28.5851 0.0000 0.0000
# 5 0.0000 0.0000 0.0000 0.0000 41.1584 0.0000
# 6 0.0000 0.0000 0.0000 0.0000 0.0000 34.2291
#
#
#
# Elastic Compliance Matrix: (Units=1/GPa)
#
#
# Indices 1 2 3 4 5 6 
#
# 1 0.009842 -0.004698 -0.002147 0.000000 0.000000 0.000000
# 2 -0.004698 0.015276 -0.004364 0.000000 0.000000 0.000000
# 3 -0.002147 -0.004364 0.010541 0.000000 0.000000 0.000000
# 4 0.000000 0.000000 0.000000 0.034983 0.000000 0.000000
# 5 0.000000 0.000000 0.000000 0.000000 0.024296 0.000000
# 6 0.000000 0.000000 0.000000 0.000000 0.000000 0.029215
#
#
# Mechanical properties :
#
#
# Convention : Reuss Voigt Hill
#
# Bulk Modulus (GPa) = 75.52616 77.27949 76.40282
# Shear Modulus (GPa) = 33.11610 34.32095 33.71853
#
# Velocity S-wave (km/s) = 3.87874 3.94867 3.91386
# Velocity P-wave (km/s) = 7.37367 7.47645 7.42524
#
# Compressibility (1/GPa) = 0.01324045
#
# Stress axis : x y z
#
# Youngs Moduli (GPa) = 101.60490 65.46422 94.87117
#
# Poissons Ratio (x) = 0.30758 0.20366
# Poissons Ratio (y) = 0.47738 0.41399
# Poissons Ratio (z) = 0.21812 0.28567
#
# Static dielectric constant tensor:
#      x y z
#    x 4.147920 0.000000 0.000000 
#    y 0.000000 3.768260 0.000000 
#    z 0.000000 0.000000 4.306100 
# 
# 
# High freq. dielectric constant tensor:
#      x y z
#    x 1.876410 0.000000 0.000000 
#    y 0.000000 1.862960 0.000000 
#    z 0.000000 0.000000 1.890910 
# 
# From -- ./inp_files/4979.got.cif
#   From: 2010.03.12/outbox.cif.g09.slc.cpg/sg56_3_cif.got.tgz:4979.got - 2010.04.16 15:33:40.
