data_PCOD8229678
_publ_section_title
;
Structure prediction by ZEFSAII (Michael W. Deem and Ramdas Pophale) SiO2 
 PCOD8229678
Probable space group: P C C N
;
_chemical_formula_sum "Si O2"
_cell_formula_units_Z 64
_cell_length_a 16.932395
_cell_length_b 6.545577
_cell_length_c 27.431965
_cell_angle_alpha 90.000000
_cell_angle_beta 90.000000
_cell_angle_gamma 90.000000
_cell_volume 3040.347645
_symmetry_space_group_name_H-M "P C C N"
_symmetry_group_IT_number 56
_symmetry_cell_setting 'orthorhombic'
loop_
_space_group_symop_operation_xyz
x,y,z
1/2-x,1/2-y,z
1/2+x,-y,1/2-z
-x,1/2+y,1/2-z
-x,-y,-z
1/2+x,1/2+y,-z
1/2-x,y,1/2+z
x,1/2-y,1/2+z
loop_
_atom_site_type_symbol
_atom_site_label
_atom_site_fract_x
_atom_site_fract_y
_atom_site_fract_z
Si Si1 0.338566 0.303377 0.735917
Si Si2 0.665575 0.148528 0.836180
Si Si3 0.438837 0.466226 0.168691
Si Si4 0.839482 0.703271 0.511704
Si Si5 0.395835 0.138238 0.340575
Si Si6 0.439477 0.467150 0.416871
Si Si7 0.896584 0.645663 0.911341
Si Si8 0.334910 0.647634 0.920505
O O1 0.250000 0.250000 0.719475
O O2 0.357875 0.524067 0.712664
O O3 0.343910 0.303553 0.794031
O O4 0.398907 0.131813 0.716360
O O5 0.750000 0.250000 0.830244
O O6 0.600136 0.318884 0.844555
O O7 0.666550 0.993819 0.882298
O O8 0.531346 0.501077 0.178303
O O9 0.431834 0.319121 0.122843
O O10 0.750000 0.750000 0.527380
O O11 0.851614 0.737204 0.454509
O O12 0.854917 0.469284 0.528520
O O13 0.900363 0.853329 0.537890
O O14 0.428341 0.341003 0.367024
O O15 0.337693 0.016690 0.376855
O O16 0.531810 0.500131 0.428875
O O17 0.401200 0.687548 0.410250
O O18 0.250000 0.750000 0.923293
#
# Coordination Sequence:
#
# PCOD8229678 Si02
#       8
#     8   8   8   8   8   8   8   8
#     4  11  26  42  66 100 133 172 220 272 327 396
#     4  11  24  45  66  94 137 172 214 276 328 386
#     4  11  24  45  64  96 136 168 218 272 326 389
#     4  11  25  42  66  98 130 169 225 272 329 394
#     4  11  26  42  69  99 129 179 223 267 333 400
#     4  11  23  46  65  95 134 169 219 276 327 386
#     4  11  25  43  69  96 129 176 221 266 333 401
#     4  11  24  45  66  94 139 173 214 281 328 385
#
# _framework density 21.050225000000001
#
# number of rings (size 3 to 8) (size 9 to 14) (size 15 to 20)
#    0.000    1.000    5.000    0.375    5.250    3.000 
#    0.000    0.000    0.000    0.000    0.000    0.000 
#    0.000    0.000    0.000    0.000    0.000    0.000 
#
# Total GULP energy -793875.566178 kJ/mol
# GULP energy per Si atom -12404.305722 kJ/mol
# Density = 2.100231 g / cm^3
# Si number density = 21.050225 Si / 1000 Ang^3
#
#
#
# Elastic Constant Matrix: (Units=GPa)
#
#
# Indices 1 2 3 4 5 6 
#
# 1 67.1494 29.1691 23.8824 0.0000 0.0000 0.0000
# 2 29.1691 114.4575 42.7606 0.0000 0.0000 0.0000
# 3 23.8824 42.7606 112.4820 0.0000 0.0000 0.0000
# 4 0.0000 0.0000 0.0000 14.3110 0.0000 0.0000
# 5 0.0000 0.0000 0.0000 0.0000 29.2698 0.0000
# 6 0.0000 0.0000 0.0000 0.0000 0.0000 41.8638
#
#
#
# Elastic Compliance Matrix: (Units=1/GPa)
#
#
# Indices 1 2 3 4 5 6 
#
# 1 0.017251 -0.003529 -0.002321 0.000000 0.000000 0.000000
# 2 -0.003529 0.010905 -0.003396 0.000000 0.000000 0.000000
# 3 -0.002321 -0.003396 0.010674 0.000000 0.000000 0.000000
# 4 0.000000 0.000000 0.000000 0.069876 0.000000 0.000000
# 5 0.000000 0.000000 0.000000 0.000000 0.034165 0.000000
# 6 0.000000 0.000000 0.000000 0.000000 0.000000 0.023887
#
#
# Mechanical properties :
#
#
# Convention : Reuss Voigt Hill
#
# Bulk Modulus (GPa) = 49.17147 53.96810 51.56979
# Shear Modulus (GPa) = 26.03758 30.30738 28.17248
#
# Velocity S-wave (km/s) = 3.52081 3.79854 3.66231
# Velocity P-wave (km/s) = 6.31965 6.70313 6.51421
#
# Compressibility (1/GPa) = 0.02033699
#
# Stress axis : x y z
#
# Youngs Moduli (GPa) = 57.96859 91.70021 93.68342
#
# Poissons Ratio (x) = 0.32362 0.21745
# Poissons Ratio (y) = 0.20458 0.31818
# Poissons Ratio (z) = 0.13455 0.31144
#
# Static dielectric constant tensor:
#      x y z
#    x 3.832460 0.000000 0.000000 
#    y 0.000000 4.034440 0.000000 
#    z 0.000000 0.000000 3.610770 
# 
# 
# High freq. dielectric constant tensor:
#      x y z
#    x 1.832890 0.000000 0.000000 
#    y 0.000000 1.837640 0.000000 
#    z 0.000000 0.000000 1.816950 
# 
# From -- ./inp_files/23711.got.cif
#   From: 2010.03.12/outbox.cif.g09.slc.cpg/sg56_12_cif.got.tgz:23711.got - 2010.04.16 15:33:40.
