data_PCOD8229991
_publ_section_title
;
Structure prediction by ZEFSAII (Michael W. Deem and Ramdas Pophale) SiO2 
 PCOD8229991
Probable space group: P B C M
;
_chemical_formula_sum "Si O2"
_cell_formula_units_Z 64
_cell_length_a 9.061602
_cell_length_b 20.151156
_cell_length_c 19.985154
_cell_angle_alpha 90.000000
_cell_angle_beta 90.000000
_cell_angle_gamma 90.000000
_cell_volume 3649.324205
_symmetry_space_group_name_H-M "P B C M"
_symmetry_group_IT_number 57
_symmetry_cell_setting 'orthorhombic'
loop_
_space_group_symop_operation_xyz
x,y,z
-x,-y,1/2+z
x,1/2-y,-z
-x,1/2+y,1/2-z
-x,-y,-z
x,y,1/2-z
-x,1/2+y,z
x,1/2-y,1/2+z
loop_
_atom_site_type_symbol
_atom_site_label
_atom_site_fract_x
_atom_site_fract_y
_atom_site_fract_z
Si Si1 0.256596 0.102552 0.607827
Si Si2 0.563850 0.012188 0.323256
Si Si3 0.171501 0.003845 0.498489
Si Si4 0.536358 0.157345 0.941531
Si Si5 0.716710 0.453291 0.130660
Si Si6 0.045241 0.848425 0.327963
Si Si7 0.664329 0.386761 0.571445
Si Si8 0.791465 0.252556 0.576875
O O1 0.220638 0.069819 0.536483
O O2 0.370489 0.161862 0.588332
O O3 0.115682 0.132251 0.645225
O O4 0.330137 0.047896 0.655357
O O5 0.615178 0.034216 0.250000
O O6 0.577911 0.076404 0.369948
O O7 0.391389 0.990869 0.318136
O O8 0.217687 0.007476 0.420720
O O9 0.233131 0.937656 0.532139
O O10 0.000000 0.000000 0.500000
O O11 0.609171 0.092250 0.911753
O O12 0.627604 0.221439 0.919356
O O13 0.544197 0.147476 0.021957
O O14 0.845910 0.411655 0.166523
O O15 0.036111 0.827331 0.250000
O O16 0.100657 0.786497 0.372679
O O17 0.772593 0.328898 0.600019
O O18 0.852273 0.250000 0.500000
#
# Coordination Sequence:
#
# PCOD8229991 Si02
#       8
#     8   8   8   8   8   8   8   8
#     4  10  19  31  51  79 107 132 171 218 265 313
#     4  10  19  31  49  74 105 141 170 208 258 314
#     4  10  17  29  53  81 105 128 164 215 269 311
#     4   8  16  32  53  73  95 127 170 222 258 290
#     4   9  17  31  50  76 102 130 169 210 259 311
#     4  11  21  33  52  79 109 143 176 216 262 317
#     4   9  18  32  53  75 100 132 175 219 255 311
#     4   9  19  36  56  73 101 136 183 221 260 308
#
# _framework density 17.537493999999999
#
# number of rings (size 3 to 8) (size 9 to 14) (size 15 to 20)
#    0.000    2.500    1.250    2.250    0.000    3.500 
#    0.000    2.500    2.750    0.000    0.000    0.000 
#    0.000    0.000    0.000    0.000    0.000    0.000 
#
# Total GULP energy -793086.184394 kJ/mol
# GULP energy per Si atom -12391.971631 kJ/mol
# Density = 1.749758 g / cm^3
# Si number density = 17.537494 Si / 1000 Ang^3
#
#
#
# Elastic Constant Matrix: (Units=GPa)
#
#
# Indices 1 2 3 4 5 6 
#
# 1 107.4451 24.8776 41.6064 0.0000 0.0000 0.0000
# 2 24.8776 54.9078 33.7906 0.0000 0.0000 0.0000
# 3 41.6064 33.7906 99.0816 0.0000 0.0000 0.0000
# 4 0.0000 0.0000 0.0000 17.4037 0.0000 0.0000
# 5 0.0000 0.0000 0.0000 0.0000 19.2236 0.0000
# 6 0.0000 0.0000 0.0000 0.0000 0.0000 17.5263
#
#
#
# Elastic Compliance Matrix: (Units=1/GPa)
#
#
# Indices 1 2 3 4 5 6 
#
# 1 0.011449 -0.002821 -0.003846 0.000000 0.000000 0.000000
# 2 -0.002821 0.023745 -0.006913 0.000000 0.000000 0.000000
# 3 -0.003846 -0.006913 0.014065 0.000000 0.000000 0.000000
# 4 0.000000 0.000000 0.000000 0.057459 0.000000 0.000000
# 5 0.000000 0.000000 0.000000 0.000000 0.052019 0.000000
# 6 0.000000 0.000000 0.000000 0.000000 0.000000 0.057057
#
#
# Mechanical properties :
#
#
# Convention : Reuss Voigt Hill
#
# Bulk Modulus (GPa) = 45.24956 51.33154 48.29055
# Shear Modulus (GPa) = 19.97427 21.57471 20.77449
#
# Velocity S-wave (km/s) = 3.37849 3.51123 3.44550
# Velocity P-wave (km/s) = 6.40910 6.76546 6.58969
#
# Compressibility (1/GPa) = 0.02209966
#
# Stress axis : x y z
#
# Youngs Moduli (GPa) = 87.34055 42.11427 71.09634
#
# Poissons Ratio (x) = 0.11879 0.27343
# Poissons Ratio (y) = 0.24636 0.49152
# Poissons Ratio (z) = 0.33590 0.29116
#
# Static dielectric constant tensor:
#      x y z
#    x 3.282140 0.000000 0.000000 
#    y 0.000000 3.152170 0.000000 
#    z 0.000000 0.000000 3.454710 
# 
# 
# High freq. dielectric constant tensor:
#      x y z
#    x 1.674130 0.000000 0.000000 
#    y 0.000000 1.658110 0.000000 
#    z 0.000000 0.000000 1.672050 
# 
# From -- ./inp_files/24683.got.cif
#   From: 2010.03.12/outbox.cif.g09.slc.cpg/sg57_13_cif.got.tgz:24683.got - 2010.04.16 15:48:40.
