data_PCOD8229273
_publ_section_title
;
Structure prediction by ZEFSAII (Michael W. Deem and Ramdas Pophale) SiO2 
 PCOD8229273
Probable space group: P C C N
;
_chemical_formula_sum "Si O2"
_cell_formula_units_Z 40
_cell_length_a 5.760685
_cell_length_b 13.101773
_cell_length_c 23.559453
_cell_angle_alpha 90.000000
_cell_angle_beta 90.000000
_cell_angle_gamma 90.000000
_cell_volume 1778.154125
_symmetry_space_group_name_H-M "P C C N"
_symmetry_group_IT_number 56
_symmetry_cell_setting 'orthorhombic'
loop_
_space_group_symop_operation_xyz
x,y,z
1/2-x,1/2-y,z
1/2+x,-y,1/2-z
-x,1/2+y,1/2-z
-x,-y,-z
1/2+x,1/2+y,-z
1/2-x,y,1/2+z
x,1/2-y,1/2+z
loop_
_atom_site_type_symbol
_atom_site_label
_atom_site_fract_x
_atom_site_fract_y
_atom_site_fract_z
Si Si1 0.005498 0.695200 0.756465
Si Si2 0.956505 0.462267 0.146969
Si Si3 0.635761 0.854616 0.637832
Si Si4 0.716702 0.368494 0.040285
Si Si5 0.831973 0.015275 0.936782
O O1 0.750000 0.750000 0.764787
O O2 0.036944 0.666164 0.690526
O O3 0.250000 0.750000 0.774119
O O4 0.995286 0.595346 0.794971
O O5 0.823061 0.565447 0.161975
O O6 0.831301 0.391020 0.100591
O O7 0.200235 0.492425 0.120613
O O8 0.750000 0.750000 0.617064
O O9 0.520077 0.899938 0.581516
O O10 0.750000 0.250000 0.026909
O O11 0.449639 0.409049 0.042101
O O12 0.823979 0.433818 0.987220
#
# Coordination Sequence:
#
# PCOD8229273 Si02
#       5
#     8   8   8   8   8
#     4  11  28  46  74 108 146 189 240 292 361 426
#     4  11  25  42  71  98 141 180 239 294 358 427
#     4  10  26  43  67 101 138 184 236 290 355 428
#     4  10  23  43  66 100 136 182 236 296 363 431
#     4  10  24  43  68 100 136 184 238 294 363 427
#
# _framework density 22.495239999999999
#
# number of rings (size 3 to 8) (size 9 to 14) (size 15 to 20)
#    0.000    1.600    0.000    1.200   19.600    0.000 
#    0.000    0.000    0.000    0.000    0.000    0.000 
#    0.000    0.000    0.000    0.000    0.000    0.000 
#
# Total GULP energy -495586.744203 kJ/mol
# GULP energy per Si atom -12389.668605 kJ/mol
# Density = 2.244404 g / cm^3
# Si number density = 22.495240 Si / 1000 Ang^3
#
#
#
# Elastic Constant Matrix: (Units=GPa)
#
#
# Indices 1 2 3 4 5 6 
#
# 1 86.3908 44.1233 7.6819 0.0000 0.0000 0.0000
# 2 44.1233 134.2704 21.7148 0.0000 0.0000 0.0000
# 3 7.6819 21.7148 64.9584 0.0000 0.0000 0.0000
# 4 0.0000 0.0000 0.0000 63.2581 0.0000 0.0000
# 5 0.0000 0.0000 0.0000 0.0000 27.8415 0.0000
# 6 0.0000 0.0000 0.0000 0.0000 0.0000 22.5280
#
#
#
# Elastic Compliance Matrix: (Units=1/GPa)
#
#
# Indices 1 2 3 4 5 6 
#
# 1 0.013911 -0.004551 -0.000124 0.000000 0.000000 0.000000
# 2 -0.004551 0.009362 -0.002592 0.000000 0.000000 0.000000
# 3 -0.000124 -0.002592 0.016275 0.000000 0.000000 0.000000
# 4 0.000000 0.000000 0.000000 0.015808 0.000000 0.000000
# 5 0.000000 0.000000 0.000000 0.000000 0.035918 0.000000
# 6 0.000000 0.000000 0.000000 0.000000 0.000000 0.044389
#
#
# Mechanical properties :
#
#
# Convention : Reuss Voigt Hill
#
# Bulk Modulus (GPa) = 39.97485 48.07330 44.02408
# Shear Modulus (GPa) = 31.53872 36.86548 34.20210
#
# Velocity S-wave (km/s) = 3.74841 4.05262 3.90348
# Velocity P-wave (km/s) = 6.04509 6.58142 6.31895
#
# Compressibility (1/GPa) = 0.02501573
#
# Stress axis : x y z
#
# Youngs Moduli (GPa) = 71.88633 106.81021 61.44241
#
# Poissons Ratio (x) = 0.48613 0.00760
# Poissons Ratio (y) = 0.32718 0.15923
# Poissons Ratio (z) = 0.00889 0.27680
#
# Static dielectric constant tensor:
#      x y z
#    x 4.037930 0.000000 0.000000 
#    y 0.000000 4.012360 0.000000 
#    z 0.000000 0.000000 4.087770 
# 
# 
# High freq. dielectric constant tensor:
#      x y z
#    x 1.876880 0.000000 0.000000 
#    y 0.000000 1.888580 0.000000 
#    z 0.000000 0.000000 1.904410 
# 
# From -- ./inp_files/21493.got.cif
#   From: 2010.03.12/outbox.cif.g09.slc.cpg/sg56_11_cif.got.tgz:21493.got - 2010.04.16 15:33:40.
