data_PCOD8229214
_publ_section_title
;
Structure prediction by ZEFSAII (Michael W. Deem and Ramdas Pophale) SiO2 
 PCOD8229214
Probable space group: P C C N
;
_chemical_formula_sum "Si O2"
_cell_formula_units_Z 48
_cell_length_a 27.245246
_cell_length_b 5.334891
_cell_length_c 14.974227
_cell_angle_alpha 90.000000
_cell_angle_beta 90.000000
_cell_angle_gamma 90.000000
_cell_volume 2176.510149
_symmetry_space_group_name_H-M "P C C N"
_symmetry_group_IT_number 56
_symmetry_cell_setting 'orthorhombic'
loop_
_space_group_symop_operation_xyz
x,y,z
1/2-x,1/2-y,z
1/2+x,-y,1/2-z
-x,1/2+y,1/2-z
-x,-y,-z
1/2+x,1/2+y,-z
1/2-x,y,1/2+z
x,1/2-y,1/2+z
loop_
_atom_site_type_symbol
_atom_site_label
_atom_site_fract_x
_atom_site_fract_y
_atom_site_fract_z
Si Si1 0.750000 0.250000 0.429543
Si Si2 0.056455 0.761854 0.452600
Si Si3 0.980800 0.136626 0.365462
Si Si4 0.833523 0.330340 0.069087
Si Si5 0.170107 0.189343 0.822935
Si Si6 0.250000 0.250000 0.179384
Si Si7 0.934409 0.904760 0.209853
O O1 0.700526 0.297694 0.484119
O O2 0.762755 0.501572 0.375851
O O3 0.040746 0.686812 0.554758
O O4 0.110045 0.894660 0.458255
O O5 0.063887 0.529447 0.388083
O O6 0.012197 0.921844 0.412661
O O7 0.015659 0.249569 0.289089
O O8 0.934672 0.056598 0.303327
O O9 0.811787 0.576487 0.118064
O O10 0.829156 0.080351 0.128772
O O11 0.203716 0.169294 0.737360
O O12 0.115175 0.256209 0.788960
#
# Coordination Sequence:
#
# PCOD8229214 Si02
#       7
#     4   8   8   8   8   4   8
#     4  12  26  44  70 102 138 166 230 282 350 400
#     4  10  23  39  63  91 134 173 228 270 334 397
#     4  11  21  40  61  96 131 175 223 276 329 395
#     4  11  23  46  68  98 131 184 221 276 339 413
#     4  11  24  44  73  95 136 179 229 270 346 408
#     4  12  26  46  68 106 132 170 222 290 340 406
#     4  11  22  40  64  96 132 180 224 276 338 407
#
# _framework density 22.053654000000002
#
# number of rings (size 3 to 8) (size 9 to 14) (size 15 to 20)
#    0.000    1.000    3.333    3.500    2.333    0.000 
#    3.000    0.000    0.000    0.000    0.000    0.000 
#    0.000    0.000    0.000    0.000    0.000    0.000 
#
# Total GULP energy -594695.093611 kJ/mol
# GULP energy per Si atom -12389.481117 kJ/mol
# Density = 2.200346 g / cm^3
# Si number density = 22.053654 Si / 1000 Ang^3
#
#
#
# Elastic Constant Matrix: (Units=GPa)
#
#
# Indices 1 2 3 4 5 6 
#
# 1 99.5802 17.1847 57.3510 0.0000 0.0000 0.0000
# 2 17.1847 107.8329 40.2391 0.0000 0.0000 0.0000
# 3 57.3510 40.2391 137.2650 0.0000 0.0000 0.0000
# 4 0.0000 0.0000 0.0000 20.8371 0.0000 0.0000
# 5 0.0000 0.0000 0.0000 0.0000 57.0910 0.0000
# 6 0.0000 0.0000 0.0000 0.0000 0.0000 25.1783
#
#
#
# Elastic Compliance Matrix: (Units=1/GPa)
#
#
# Indices 1 2 3 4 5 6 
#
# 1 0.013225 -0.000051 -0.005510 0.000000 0.000000 0.000000
# 2 -0.000051 0.010413 -0.003031 0.000000 0.000000 0.000000
# 3 -0.005510 -0.003031 0.010476 0.000000 0.000000 0.000000
# 4 0.000000 0.000000 0.000000 0.047991 0.000000 0.000000
# 5 0.000000 0.000000 0.000000 0.000000 0.017516 0.000000
# 6 0.000000 0.000000 0.000000 0.000000 0.000000 0.039717
#
#
# Mechanical properties :
#
#
# Convention : Reuss Voigt Hill
#
# Bulk Modulus (GPa) = 59.07366 63.80310 61.43838
# Shear Modulus (GPa) = 30.83268 35.94816 33.39042
#
# Velocity S-wave (km/s) = 3.74314 4.04175 3.89531
# Velocity P-wave (km/s) = 6.74729 7.12563 6.93904
#
# Compressibility (1/GPa) = 0.01692802
#
# Stress axis : x y z
#
# Youngs Moduli (GPa) = 75.61682 96.03497 95.45596
#
# Poissons Ratio (x) = 0.00492 0.52600
# Poissons Ratio (y) = 0.00388 0.28934
# Poissons Ratio (z) = 0.41668 0.29109
#
# Static dielectric constant tensor:
#      x y z
#    x 4.438690 0.000000 0.000000 
#    y 0.000000 4.036400 0.000000 
#    z 0.000000 0.000000 4.158300 
# 
# 
# High freq. dielectric constant tensor:
#      x y z
#    x 1.883380 0.000000 0.000000 
#    y 0.000000 1.854670 0.000000 
#    z 0.000000 0.000000 1.877970 
# 
# From -- ./inp_files/9738.got.cif
#   From: 2010.03.12/outbox.cif.g09.slc.cpg/sg56_5_cif.got.tgz:9738.got - 2010.04.16 15:33:40.
