data_PCOD8229979
_publ_section_title
;
Structure prediction by ZEFSAII (Michael W. Deem and Ramdas Pophale) SiO2 
 PCOD8229979
Probable space group: P B C M
;
_chemical_formula_sum "Si O2"
_cell_formula_units_Z 64
_cell_length_a 9.706385
_cell_length_b 23.671883
_cell_length_c 16.684782
_cell_angle_alpha 90.000000
_cell_angle_beta 90.000000
_cell_angle_gamma 90.000000
_cell_volume 3833.635833
_symmetry_space_group_name_H-M "P B C M"
_symmetry_group_IT_number 57
_symmetry_cell_setting 'orthorhombic'
loop_
_space_group_symop_operation_xyz
x,y,z
-x,-y,1/2+z
x,1/2-y,-z
-x,1/2+y,1/2-z
-x,-y,-z
x,y,1/2-z
-x,1/2+y,z
x,1/2-y,1/2+z
loop_
_atom_site_type_symbol
_atom_site_label
_atom_site_fract_x
_atom_site_fract_y
_atom_site_fract_z
Si Si1 0.193124 0.696601 0.545786
Si Si2 0.572467 0.255862 0.157208
Si Si3 0.584788 0.030030 0.342727
Si Si4 0.081707 0.605663 0.842375
Si Si5 0.781762 0.570951 0.658077
Si Si6 0.428369 0.351266 0.417736
Si Si7 0.415652 0.853683 0.931483
Si Si8 0.373125 0.938711 0.341706
O O1 0.120216 0.750000 0.500000
O O2 0.295088 0.721354 0.611596
O O3 0.084733 0.657697 0.594445
O O4 0.276585 0.660648 0.479909
O O5 0.591486 0.267953 0.250000
O O6 0.438721 0.289637 0.123743
O O7 0.557720 0.189200 0.141694
O O8 0.585754 0.048395 0.250000
O O9 0.600544 0.083684 0.398513
O O10 0.714030 0.989240 0.362676
O O11 0.441000 0.998701 0.366041
O O12 0.083807 0.627996 0.750000
O O13 0.209227 0.562675 0.857092
O O14 0.944557 0.569225 0.858915
O O15 0.748961 0.586250 0.750000
O O16 0.716180 0.620255 0.603843
O O17 0.447788 0.347250 0.513365
O O18 0.559802 0.387993 0.390135
O O19 0.411542 0.927215 0.250000
#
# Coordination Sequence:
#
# PCOD8229979 Si02
#       8
#     8   8   8   8   8   8   8   8
#     4   9  18  30  45  71  99 123 153 199 240 281
#     4  10  17  28  49  73  94 122 158 197 236 278
#     4   9  18  33  48  69  97 125 158 197 235 280
#     4  10  17  31  51  73  92 122 166 200 230 272
#     4   9  19  31  49  72  96 124 159 197 237 276
#     4  10  17  30  47  71  98 116 149 199 242 272
#     4  10  19  29  47  70  99 127 156 188 239 295
#     4   9  16  27  49  70  89 120 159 196 229 266
#
# _framework density 16.694334999999999
#
# number of rings (size 3 to 8) (size 9 to 14) (size 15 to 20)
#    0.000    2.500    2.500    3.750    0.000    2.000 
#    0.000    1.875    0.000    0.000    0.000    0.000 
#    0.000    0.000    0.000    0.000    0.000    0.000 
#
# Total GULP energy -793242.172886 kJ/mol
# GULP energy per Si atom -12394.408951 kJ/mol
# Density = 1.665634 g / cm^3
# Si number density = 16.694335 Si / 1000 Ang^3
#
#
#
# Elastic Constant Matrix: (Units=GPa)
#
#
# Indices 1 2 3 4 5 6 
#
# 1 93.6183 38.3325 22.5939 0.0000 0.0000 0.0000
# 2 38.3325 107.8943 45.7963 0.0000 0.0000 0.0000
# 3 22.5939 45.7963 72.6978 0.0000 0.0000 0.0000
# 4 0.0000 0.0000 0.0000 32.0674 0.0000 0.0000
# 5 0.0000 0.0000 0.0000 0.0000 17.4287 0.0000
# 6 0.0000 0.0000 0.0000 0.0000 0.0000 10.5656
#
#
#
# Elastic Compliance Matrix: (Units=1/GPa)
#
#
# Indices 1 2 3 4 5 6 
#
# 1 0.012618 -0.003847 -0.001498 0.000000 0.000000 0.000000
# 2 -0.003847 0.013824 -0.007513 0.000000 0.000000 0.000000
# 3 -0.001498 -0.007513 0.018954 0.000000 0.000000 0.000000
# 4 0.000000 0.000000 0.000000 0.031184 0.000000 0.000000
# 5 0.000000 0.000000 0.000000 0.000000 0.057377 0.000000
# 6 0.000000 0.000000 0.000000 0.000000 0.000000 0.094647
#
#
# Mechanical properties :
#
#
# Convention : Reuss Voigt Hill
#
# Bulk Modulus (GPa) = 50.81282 54.18399 52.49841
# Shear Modulus (GPa) = 19.16585 23.17818 21.17201
#
# Velocity S-wave (km/s) = 3.39196 3.73015 3.56506
# Velocity P-wave (km/s) = 6.77080 7.14696 6.96142
#
# Compressibility (1/GPa) = 0.01968007
#
# Stress axis : x y z
#
# Youngs Moduli (GPa) = 79.24883 72.33794 52.75945
#
# Poissons Ratio (x) = 0.27830 0.07904
# Poissons Ratio (y) = 0.30488 0.39637
# Poissons Ratio (z) = 0.11873 0.54346
#
# Static dielectric constant tensor:
#      x y z
#    x 2.956740 0.000000 0.000000 
#    y 0.000000 3.153340 0.000000 
#    z 0.000000 0.000000 3.227840 
# 
# 
# High freq. dielectric constant tensor:
#      x y z
#    x 1.608960 0.000000 0.000000 
#    y 0.000000 1.638210 0.000000 
#    z 0.000000 0.000000 1.646680 
# 
# From -- ./inp_files/21501.got.cif
#   From: 2010.03.12/outbox.cif.g09.slc.cpg/sg57_11_cif.got.tgz:21501.got - 2010.04.16 15:48:40.
