data_PCOD8229222
_publ_section_title
;
Structure prediction by ZEFSAII (Michael W. Deem and Ramdas Pophale) SiO2 
 PCOD8229222
Probable space group: P C C N
;
_chemical_formula_sum "Si O2"
_cell_formula_units_Z 36
_cell_length_a 20.552918
_cell_length_b 7.121075
_cell_length_c 12.185661
_cell_angle_alpha 90.000000
_cell_angle_beta 90.000000
_cell_angle_gamma 90.000000
_cell_volume 1783.479581
_symmetry_space_group_name_H-M "P C C N"
_symmetry_group_IT_number 56
_symmetry_cell_setting 'orthorhombic'
loop_
_space_group_symop_operation_xyz
x,y,z
1/2-x,1/2-y,z
1/2+x,-y,1/2-z
-x,1/2+y,1/2-z
-x,-y,-z
1/2+x,1/2+y,-z
1/2-x,y,1/2+z
x,1/2-y,1/2+z
loop_
_atom_site_type_symbol
_atom_site_label
_atom_site_fract_x
_atom_site_fract_y
_atom_site_fract_z
Si Si1 0.158582 0.495526 0.984862
Si Si2 0.864767 0.087592 0.748786
Si Si3 0.417266 0.351051 0.059336
Si Si4 0.750000 0.250000 0.890900
Si Si5 0.436656 0.789572 0.425864
O O1 0.166160 0.469788 0.853043
O O2 0.101139 0.647904 0.008580
O O3 0.140196 0.297830 0.039463
O O4 0.226118 0.575404 0.034112
O O5 0.808085 0.183338 0.815753
O O6 0.912436 0.249326 0.698903
O O7 0.906725 0.949903 0.824099
O O8 0.486858 0.248891 0.063688
O O9 0.417858 0.498802 0.959169
#
# Coordination Sequence:
#
# PCOD8229222 Si02
#       5
#     8   8   8   4   8
#     4  10  24  42  66  94 131 171 220 266 325 395
#     4  10  23  40  63  96 125 177 208 271 319 384
#     4  11  21  43  71  97 129 175 212 274 347 390
#     4  12  22  46  64  86 144 170 214 278 318 372
#     4   9  23  42  65  99 136 158 219 278 328 391
#
# _framework density 20.18526
#
# number of rings (size 3 to 8) (size 9 to 14) (size 15 to 20)
#    1.333    0.444    2.222    1.333    0.000    8.000 
#    0.000    2.222    0.000    0.000    0.000    0.000 
#    0.000    0.000    0.000    0.000    0.000    0.000 
#
# Total GULP energy -446241.784479 kJ/mol
# GULP energy per Si atom -12395.605124 kJ/mol
# Density = 2.013932 g / cm^3
# Si number density = 20.185260 Si / 1000 Ang^3
#
#
#
# Elastic Constant Matrix: (Units=GPa)
#
#
# Indices 1 2 3 4 5 6 
#
# 1 45.5183 37.3518 39.1474 0.0000 0.0000 0.0000
# 2 37.3518 89.5693 40.7372 0.0000 0.0000 0.0000
# 3 39.1474 40.7372 113.9925 0.0000 0.0000 0.0000
# 4 0.0000 0.0000 0.0000 28.5618 0.0000 0.0000
# 5 0.0000 0.0000 0.0000 0.0000 32.1961 0.0000
# 6 0.0000 0.0000 0.0000 0.0000 0.0000 43.1346
#
#
#
# Elastic Compliance Matrix: (Units=1/GPa)
#
#
# Indices 1 2 3 4 5 6 
#
# 1 0.040325 -0.012559 -0.009360 0.000000 0.000000 0.000000
# 2 -0.012559 0.017243 -0.001849 0.000000 0.000000 0.000000
# 3 -0.009360 -0.001849 0.012648 0.000000 0.000000 0.000000
# 4 0.000000 0.000000 0.000000 0.035012 0.000000 0.000000
# 5 0.000000 0.000000 0.000000 0.000000 0.031060 0.000000
# 6 0.000000 0.000000 0.000000 0.000000 0.000000 0.023183
#
#
# Mechanical properties :
#
#
# Convention : Reuss Voigt Hill
#
# Bulk Modulus (GPa) = 44.09342 53.72811 48.91076
# Shear Modulus (GPa) = 23.30275 29.56808 26.43542
#
# Velocity S-wave (km/s) = 3.40140 3.83147 3.62282
# Velocity P-wave (km/s) = 6.10883 6.80065 6.46400
#
# Compressibility (1/GPa) = 0.02267912
#
# Stress axis : x y z
#
# Youngs Moduli (GPa) = 24.79836 57.99523 79.06512
#
# Poissons Ratio (x) = 0.72837 0.74008
# Poissons Ratio (y) = 0.31144 0.14619
# Poissons Ratio (z) = 0.23212 0.10723
#
# Static dielectric constant tensor:
#      x y z
#    x 3.648680 0.000000 0.000000 
#    y 0.000000 3.460370 0.000000 
#    z 0.000000 0.000000 3.647890 
# 
# 
# High freq. dielectric constant tensor:
#      x y z
#    x 1.788630 0.000000 0.000000 
#    y 0.000000 1.776070 0.000000 
#    z 0.000000 0.000000 1.787680 
# 
# From -- ./inp_files/13151.got.cif
#   From: 2010.03.12/outbox.cif.g09.slc.cpg/sg56_7_cif.got.tgz:13151.got - 2010.04.16 15:33:40.
