data_PCOD8229603
_publ_section_title
;
Structure prediction by ZEFSAII (Michael W. Deem and Ramdas Pophale) SiO2 
 PCOD8229603
Probable space group: P C C N
;
_chemical_formula_sum "Si O2"
_cell_formula_units_Z 56
_cell_length_a 8.817614
_cell_length_b 16.574545
_cell_length_c 18.070560
_cell_angle_alpha 90.000000
_cell_angle_beta 90.000000
_cell_angle_gamma 90.000000
_cell_volume 2640.975119
_symmetry_space_group_name_H-M "P C C N"
_symmetry_group_IT_number 56
_symmetry_cell_setting 'orthorhombic'
loop_
_space_group_symop_operation_xyz
x,y,z
1/2-x,1/2-y,z
1/2+x,-y,1/2-z
-x,1/2+y,1/2-z
-x,-y,-z
1/2+x,1/2+y,-z
1/2-x,y,1/2+z
x,1/2-y,1/2+z
loop_
_atom_site_type_symbol
_atom_site_label
_atom_site_fract_x
_atom_site_fract_y
_atom_site_fract_z
Si Si1 0.429932 0.248833 0.561159
Si Si2 0.402684 0.201275 0.904511
Si Si3 0.078129 0.583984 0.417228
Si Si4 0.647160 0.445643 0.918361
Si Si5 0.489944 0.972848 0.084626
Si Si6 0.895356 0.196487 0.815476
Si Si7 0.614867 0.126680 0.157878
O O1 0.250000 0.250000 0.576853
O O2 0.488356 0.283090 0.482239
O O3 0.463870 0.155075 0.565408
O O4 0.530303 0.299074 0.618930
O O5 0.250000 0.250000 0.916519
O O6 0.400036 0.103870 0.898238
O O7 0.473827 0.237684 0.829752
O O8 0.155175 0.552512 0.492631
O O9 0.206261 0.617687 0.361264
O O10 0.972578 0.511336 0.385972
O O11 0.817764 0.458285 0.890348
O O12 0.599888 0.358281 0.888719
O O13 0.541060 0.042389 0.138927
O O14 0.500000 0.000000 0.000000
O O15 0.750000 0.250000 0.805334
O O16 0.913518 0.140283 0.744507
#
# Coordination Sequence:
#
# PCOD8229603 Si02
#       7
#     8   8   8   8   8   8   8
#     4  11  22  41  70 100 135 181 235 291 342 413
#     4  11  25  42  72 100 138 183 238 290 352 426
#     4  11  23  40  69 105 134 178 234 288 341 419
#     4  11  24  41  70 100 138 180 230 287 353 417
#     4  12  23  44  72 103 135 179 236 295 352 417
#     4  12  26  48  65  98 140 189 228 281 363 425
#     4  12  27  43  70 101 143 180 237 293 350 422
#
# _framework density 21.204288999999999
#
# number of rings (size 3 to 8) (size 9 to 14) (size 15 to 20)
#    0.000    0.571    5.714    2.143    4.000    1.714 
#    2.571    0.000    0.000    0.000    0.000    0.000 
#    0.000    0.000    0.000    0.000    0.000    0.000 
#
# Total GULP energy -694127.678759 kJ/mol
# GULP energy per Si atom -12395.137121 kJ/mol
# Density = 2.115603 g / cm^3
# Si number density = 21.204289 Si / 1000 Ang^3
#
#
#
# Elastic Constant Matrix: (Units=GPa)
#
#
# Indices 1 2 3 4 5 6 
#
# 1 76.1083 26.0145 -0.7186 0.0000 0.0000 0.0000
# 2 26.0145 139.3970 22.6521 0.0000 0.0000 0.0000
# 3 -0.7186 22.6521 72.3439 0.0000 0.0000 0.0000
# 4 0.0000 0.0000 0.0000 38.9367 0.0000 0.0000
# 5 0.0000 0.0000 0.0000 0.0000 21.2062 0.0000
# 6 0.0000 0.0000 0.0000 0.0000 0.0000 42.0049
#
#
#
# Elastic Compliance Matrix: (Units=1/GPa)
#
#
# Indices 1 2 3 4 5 6 
#
# 1 0.014105 -0.002797 0.001016 0.000000 0.000000 0.000000
# 2 -0.002797 0.008113 -0.002568 0.000000 0.000000 0.000000
# 3 0.001016 -0.002568 0.014637 0.000000 0.000000 0.000000
# 4 0.000000 0.000000 0.000000 0.025683 0.000000 0.000000
# 5 0.000000 0.000000 0.000000 0.000000 0.047156 0.000000
# 6 0.000000 0.000000 0.000000 0.000000 0.000000 0.023807
#
#
# Mechanical properties :
#
#
# Convention : Reuss Voigt Hill
#
# Bulk Modulus (GPa) = 35.51628 42.63836 39.07732
# Shear Modulus (GPa) = 32.98477 36.42296 34.70386
#
# Velocity S-wave (km/s) = 3.94835 4.14903 4.04993
# Velocity P-wave (km/s) = 6.12959 6.56541 6.35124
#
# Compressibility (1/GPa) = 0.02815610
#
# Stress axis : x y z
#
# Youngs Moduli (GPa) = 70.89717 123.25696 68.31963
#
# Poissons Ratio (x) = 0.34480 -0.06941
# Poissons Ratio (y) = 0.19833 0.17545
# Poissons Ratio (z) = -0.07203 0.31654
#
# Static dielectric constant tensor:
#      x y z
#    x 3.961020 0.000000 0.000000 
#    y 0.000000 4.002580 0.000000 
#    z 0.000000 0.000000 3.893860 
# 
# 
# High freq. dielectric constant tensor:
#      x y z
#    x 1.836650 0.000000 0.000000 
#    y 0.000000 1.855110 0.000000 
#    z 0.000000 0.000000 1.809160 
# 
# From -- ./inp_files/18223.got.cif
#   From: 2010.03.12/outbox.cif.g09.slc.cpg/sg56_10_cif.got.tgz:18223.got - 2010.04.16 15:33:40.
