data_PCOD8229497
_publ_section_title
;
Structure prediction by ZEFSAII (Michael W. Deem and Ramdas Pophale) SiO2 
 PCOD8229497
Probable space group: P C C N
;
_chemical_formula_sum "Si O2"
_cell_formula_units_Z 44
_cell_length_a 10.703343
_cell_length_b 11.650026
_cell_length_c 17.588346
_cell_angle_alpha 90.000000
_cell_angle_beta 90.000000
_cell_angle_gamma 90.000000
_cell_volume 2193.165160
_symmetry_space_group_name_H-M "P C C N"
_symmetry_group_IT_number 56
_symmetry_cell_setting 'orthorhombic'
loop_
_space_group_symop_operation_xyz
x,y,z
1/2-x,1/2-y,z
1/2+x,-y,1/2-z
-x,1/2+y,1/2-z
-x,-y,-z
1/2+x,1/2+y,-z
1/2-x,y,1/2+z
x,1/2-y,1/2+z
loop_
_atom_site_type_symbol
_atom_site_label
_atom_site_fract_x
_atom_site_fract_y
_atom_site_fract_z
Si Si1 0.250000 0.750000 0.986221
Si Si2 0.738435 0.022384 0.598187
Si Si3 0.467277 0.455310 0.149663
Si Si4 0.134411 0.158268 0.299509
Si Si5 0.158743 0.348117 0.512881
Si Si6 0.462072 0.797273 0.605435
O O1 0.132883 0.752905 0.042623
O O2 0.279523 0.851562 0.926887
O O3 0.616568 0.031808 0.652972
O O4 0.838501 0.950830 0.646655
O O5 0.726554 0.963570 0.514821
O O6 0.396779 0.392543 0.217357
O O7 0.443282 0.378466 0.075406
O O8 0.410569 0.583288 0.140052
O O9 0.250000 0.250000 0.295217
O O10 0.000937 0.212120 0.326174
O O11 0.250000 0.250000 0.544846
O O12 0.095611 0.306261 0.435466
#
# Coordination Sequence:
#
# PCOD8229497 Si02
#       6
#     4   8   8   8   8   8
#     4  12  24  40  70 100 136 168 226 280 342 386
#     4  11  22  43  65  93 134 173 212 279 332 393
#     4  11  23  40  66  93 131 174 217 272 339 385
#     4  12  24  44  70  96 136 181 227 273 338 417
#     4  11  18  42  72  89 115 176 227 261 318 399
#     4  11  22  43  65  93 134 173 212 279 332 393
#
# _framework density 20.062327
#
# number of rings (size 3 to 8) (size 9 to 14) (size 15 to 20)
#    0.000    0.727    9.091    1.636    0.000    3.636 
#    0.000    0.000    0.000    0.000    0.000    0.000 
#    0.000    0.000    0.000    0.000    0.000    0.000 
#
# Total GULP energy -545187.575621 kJ/mol
# GULP energy per Si atom -12390.626719 kJ/mol
# Density = 2.001666 g / cm^3
# Si number density = 20.062327 Si / 1000 Ang^3
#
#
#
# Elastic Constant Matrix: (Units=GPa)
#
#
# Indices 1 2 3 4 5 6 
#
# 1 51.3346 42.7699 26.3995 0.0000 0.0000 0.0000
# 2 42.7699 129.0993 45.3636 0.0000 0.0000 0.0000
# 3 26.3995 45.3636 97.8413 0.0000 0.0000 0.0000
# 4 0.0000 0.0000 0.0000 34.4581 0.0000 0.0000
# 5 0.0000 0.0000 0.0000 0.0000 23.2464 0.0000
# 6 0.0000 0.0000 0.0000 0.0000 0.0000 32.2633
#
#
#
# Elastic Compliance Matrix: (Units=1/GPa)
#
#
# Indices 1 2 3 4 5 6 
#
# 1 0.028101 -0.007939 -0.003901 0.000000 0.000000 0.000000
# 2 -0.007939 0.011496 -0.003188 0.000000 0.000000 0.000000
# 3 -0.003901 -0.003188 0.012751 0.000000 0.000000 0.000000
# 4 0.000000 0.000000 0.000000 0.029021 0.000000 0.000000
# 5 0.000000 0.000000 0.000000 0.000000 0.043017 0.000000
# 6 0.000000 0.000000 0.000000 0.000000 0.000000 0.030995
#
#
# Mechanical properties :
#
#
# Convention : Reuss Voigt Hill
#
# Bulk Modulus (GPa) = 44.85936 56.37126 50.61531
# Shear Modulus (GPa) = 25.92436 28.90969 27.41702
#
# Velocity S-wave (km/s) = 3.59861 3.80016 3.70076
# Velocity P-wave (km/s) = 6.29882 6.88578 6.59883
#
# Compressibility (1/GPa) = 0.02229189
#
# Stress axis : x y z
#
# Youngs Moduli (GPa) = 35.58642 86.98444 78.42230
#
# Poissons Ratio (x) = 0.69054 0.30595
# Poissons Ratio (y) = 0.28251 0.25002
# Poissons Ratio (z) = 0.13884 0.27732
#
# Static dielectric constant tensor:
#      x y z
#    x 3.506490 0.000000 0.000000 
#    y 0.000000 4.022080 0.000000 
#    z 0.000000 0.000000 3.492660 
# 
# 
# High freq. dielectric constant tensor:
#      x y z
#    x 1.764450 0.000000 0.000000 
#    y 0.000000 1.796870 0.000000 
#    z 0.000000 0.000000 1.779280 
# 
# From -- ./inp_files/15531.got.cif
#   From: 2010.03.12/outbox.cif.g09.slc.cpg/sg56_8_cif.got.tgz:15531.got - 2010.04.16 15:33:40.
