data_PCOD8229099
_publ_section_title
;
Structure prediction by ZEFSAII (Michael W. Deem and Ramdas Pophale) SiO2 
 PCOD8229099
Probable space group: P C C N
;
_chemical_formula_sum "Si O2"
_cell_formula_units_Z 56
_cell_length_a 16.344943
_cell_length_b 14.038189
_cell_length_c 10.905936
_cell_angle_alpha 90.000000
_cell_angle_beta 90.000000
_cell_angle_gamma 90.000000
_cell_volume 2502.404085
_symmetry_space_group_name_H-M "P C C N"
_symmetry_group_IT_number 56
_symmetry_cell_setting 'orthorhombic'
loop_
_space_group_symop_operation_xyz
x,y,z
1/2-x,1/2-y,z
1/2+x,-y,1/2-z
-x,1/2+y,1/2-z
-x,-y,-z
1/2+x,1/2+y,-z
1/2-x,y,1/2+z
x,1/2-y,1/2+z
loop_
_atom_site_type_symbol
_atom_site_label
_atom_site_fract_x
_atom_site_fract_y
_atom_site_fract_z
Si Si1 0.702507 0.342655 0.288050
Si Si2 0.681712 0.999997 0.367858
Si Si3 0.702506 0.657345 0.288054
Si Si4 0.028711 0.304319 0.128084
Si Si5 0.971288 0.195652 0.371915
Si Si6 0.623837 0.500002 0.129696
Si Si7 0.029578 0.500010 0.792029
O O1 0.750000 0.250000 0.237647
O O2 0.762555 0.405984 0.371133
O O3 0.626801 0.310444 0.373042
O O4 0.670638 0.405249 0.174688
O O5 0.737449 0.905983 0.371144
O O6 0.622656 0.000000 0.484238
O O7 0.623791 0.999987 0.248948
O O8 0.750000 0.750000 0.237654
O O9 0.626798 0.689547 0.373044
O O10 0.670647 0.594748 0.174688
O O11 0.000011 0.249957 0.249984
O O12 0.986772 0.407751 0.125794
O O13 0.000006 0.253783 0.999986
O O14 0.013191 0.092199 0.374249
O O15 0.530888 0.500010 0.175252
#
# Coordination Sequence:
#
# PCOD8229099 Si02
#       7
#     8   8   8   8   8   8   8
#     4  10  23  40  59  91 125 162 208 260 313 366
#     4  11  22  38  64  95 124 162 209 263 309 362
#     4  10  23  40  59  91 125 162 208 260 313 366
#     4  11  25  44  66  92 125 169 212 254 311 378
#     4  11  25  44  66  92 125 169 212 254 311 378
#     4   9  22  40  61  90 127 166 210 252 308 376
#     4  10  22  42  64  89 126 166 206 251 313 378
#
# _framework density 22.378478999999999
#
# number of rings (size 3 to 8) (size 9 to 14) (size 15 to 20)
#    0.000    1.714    0.000    3.429    0.000   17.143 
#    0.000    0.000    0.000    0.000    0.000    0.000 
#    0.000    0.000    0.000    0.000    0.000    0.000 
#
# Total GULP energy -694484.625217 kJ/mol
# GULP energy per Si atom -12401.511165 kJ/mol
# Density = 2.232754 g / cm^3
# Si number density = 22.378479 Si / 1000 Ang^3
#
#
#
# Elastic Constant Matrix: (Units=GPa)
#
#
# Indices 1 2 3 4 5 6 
#
# 1 146.0967 35.2276 34.7086 0.0000 0.0000 0.0000
# 2 35.2276 124.0594 22.8990 0.0000 0.0000 0.0000
# 3 34.7086 22.8990 110.5513 0.0000 0.0000 0.0000
# 4 0.0000 0.0000 0.0000 14.1685 0.0000 0.0000
# 5 0.0000 0.0000 0.0000 0.0000 28.5904 0.0000
# 6 0.0000 0.0000 0.0000 0.0000 0.0000 25.9579
#
#
#
# Elastic Compliance Matrix: (Units=1/GPa)
#
#
# Indices 1 2 3 4 5 6 
#
# 1 0.007775 -0.001827 -0.002063 0.000000 0.000000 0.000000
# 2 -0.001827 0.008810 -0.001251 0.000000 0.000000 0.000000
# 3 -0.002063 -0.001251 0.009952 0.000000 0.000000 0.000000
# 4 0.000000 0.000000 0.000000 0.070579 0.000000 0.000000
# 5 0.000000 0.000000 0.000000 0.000000 0.034977 0.000000
# 6 0.000000 0.000000 0.000000 0.000000 0.000000 0.038524
#
#
# Mechanical properties :
#
#
# Convention : Reuss Voigt Hill
#
# Bulk Modulus (GPa) = 61.51601 62.93087 62.22344
# Shear Modulus (GPa) = 26.83570 32.93485 29.88527
#
# Velocity S-wave (km/s) = 3.46667 3.84046 3.65834
# Velocity P-wave (km/s) = 6.60093 6.91721 6.76092
#
# Compressibility (1/GPa) = 0.01625593
#
# Stress axis : x y z
#
# Youngs Moduli (GPa) = 128.61083 113.50149 100.47871
#
# Poissons Ratio (x) = 0.20738 0.20726
# Poissons Ratio (y) = 0.23499 0.12573
# Poissons Ratio (z) = 0.26528 0.14202
#
# Static dielectric constant tensor:
#      x y z
#    x 4.136530 0.000000 0.000000 
#    y 0.000000 4.226880 0.000000 
#    z 0.000000 0.000000 3.549920 
# 
# 
# High freq. dielectric constant tensor:
#      x y z
#    x 1.896120 0.000000 0.000000 
#    y 0.000000 1.889360 0.000000 
#    z 0.000000 0.000000 1.858110 
# 
# From -- ./inp_files/7889.got.cif
#   From: 2010.03.12/outbox.cif.g09.slc.cpg/sg56_4_cif.got.tgz:7889.got - 2010.04.16 15:33:40.
