data_PCOD8229381
_publ_section_title
;
Structure prediction by ZEFSAII (Michael W. Deem and Ramdas Pophale) SiO2 
 PCOD8229381
Probable space group: P C C N
;
_chemical_formula_sum "Si O2"
_cell_formula_units_Z 40
_cell_length_a 11.349665
_cell_length_b 15.259630
_cell_length_c 10.660853
_cell_angle_alpha 90.000000
_cell_angle_beta 90.000000
_cell_angle_gamma 90.000000
_cell_volume 1846.371132
_symmetry_space_group_name_H-M "P C C N"
_symmetry_group_IT_number 56
_symmetry_cell_setting 'orthorhombic'
loop_
_space_group_symop_operation_xyz
x,y,z
1/2-x,1/2-y,z
1/2+x,-y,1/2-z
-x,1/2+y,1/2-z
-x,-y,-z
1/2+x,1/2+y,-z
1/2-x,y,1/2+z
x,1/2-y,1/2+z
loop_
_atom_site_type_symbol
_atom_site_label
_atom_site_fract_x
_atom_site_fract_y
_atom_site_fract_z
Si Si1 0.724868 0.959250 0.823185
Si Si2 0.461916 0.598768 0.033466
Si Si3 0.264037 0.929761 0.924093
Si Si4 0.511976 0.139349 0.190444
Si Si5 0.135160 0.298983 0.611853
O O1 0.590551 0.929607 0.834830
O O2 0.817996 0.879539 0.803523
O O3 0.744402 0.016169 0.701138
O O4 0.746190 0.009802 0.952384
O O5 0.427750 0.614137 0.177952
O O6 0.500000 0.500000 0.000000
O O7 0.352229 0.630261 0.945197
O O8 0.570618 0.663568 0.009964
O O9 0.384725 0.873549 0.914442
O O10 0.455670 0.236768 0.187944
O O11 0.250000 0.250000 0.558824
#
# Coordination Sequence:
#
# PCOD8229381 Si02
#       5
#     8   8   8   8   8
#     4  11  22  42  72  99 138 182 234 285 341 428
#     4  12  22  45  71  97 143 186 232 287 354 417
#     4  12  23  42  71 102 135 183 235 283 349 414
#     4  11  24  42  66 107 135 183 232 293 353 415
#     4  10  24  43  67 102 139 181 231 293 351 412
#
# _framework density 21.664117000000001
#
# number of rings (size 3 to 8) (size 9 to 14) (size 15 to 20)
#    0.000    0.800    6.000    0.600    0.000    6.400 
#    3.600    2.000    0.000    0.000    0.000    0.000 
#    0.000    0.000    0.000    0.000    0.000    0.000 
#
# Total GULP energy -495689.844678 kJ/mol
# GULP energy per Si atom -12392.246117 kJ/mol
# Density = 2.161481 g / cm^3
# Si number density = 21.664117 Si / 1000 Ang^3
#
#
#
# Elastic Constant Matrix: (Units=GPa)
#
#
# Indices 1 2 3 4 5 6 
#
# 1 151.3796 60.1721 52.8517 0.0000 0.0000 0.0000
# 2 60.1721 84.6243 49.3734 0.0000 0.0000 0.0000
# 3 52.8517 49.3734 126.6053 0.0000 0.0000 0.0000
# 4 0.0000 0.0000 0.0000 22.8283 0.0000 0.0000
# 5 0.0000 0.0000 0.0000 0.0000 38.9988 0.0000
# 6 0.0000 0.0000 0.0000 0.0000 0.0000 16.4901
#
#
#
# Elastic Compliance Matrix: (Units=1/GPa)
#
#
# Indices 1 2 3 4 5 6 
#
# 1 0.009490 -0.005743 -0.001722 0.000000 0.000000 0.000000
# 2 -0.005743 0.018773 -0.004924 0.000000 0.000000 0.000000
# 3 -0.001722 -0.004924 0.010537 0.000000 0.000000 0.000000
# 4 0.000000 0.000000 0.000000 0.043805 0.000000 0.000000
# 5 0.000000 0.000000 0.000000 0.000000 0.025642 0.000000
# 6 0.000000 0.000000 0.000000 0.000000 0.000000 0.060642
#
#
# Mechanical properties :
#
#
# Convention : Reuss Voigt Hill
#
# Bulk Modulus (GPa) = 71.31021 76.37818 73.84420
# Shear Modulus (GPa) = 25.20896 29.01092 27.10994
#
# Velocity S-wave (km/s) = 3.41490 3.66337 3.54132
# Velocity P-wave (km/s) = 6.96681 7.29561 7.13310
#
# Compressibility (1/GPa) = 0.01402324
#
# Stress axis : x y z
#
# Youngs Moduli (GPa) = 105.37460 53.26704 94.89926
#
# Poissons Ratio (x) = 0.30592 0.16340
# Poissons Ratio (y) = 0.60519 0.46725
# Poissons Ratio (z) = 0.18144 0.26227
#
# Static dielectric constant tensor:
#      x y z
#    x 4.627600 0.000000 0.000000 
#    y 0.000000 3.961610 0.000000 
#    z 0.000000 0.000000 3.892120 
# 
# 
# High freq. dielectric constant tensor:
#      x y z
#    x 1.882950 0.000000 0.000000 
#    y 0.000000 1.837970 0.000000 
#    z 0.000000 0.000000 1.837590 
# 
# From -- ./inp_files/6982.got.cif
#   From: 2010.03.12/outbox.cif.g09.slc.cpg/sg56_4_cif.got.tgz:6982.got - 2010.04.16 15:33:40.
