data_PCOD8229343
_publ_section_title
;
Structure prediction by ZEFSAII (Michael W. Deem and Ramdas Pophale) SiO2 
 PCOD8229343
Probable space group: P C C N
;
_chemical_formula_sum "Si O2"
_cell_formula_units_Z 64
_cell_length_a 19.240341
_cell_length_b 8.748346
_cell_length_c 18.423533
_cell_angle_alpha 90.000000
_cell_angle_beta 90.000000
_cell_angle_gamma 90.000000
_cell_volume 3101.070450
_symmetry_space_group_name_H-M "P C C N"
_symmetry_group_IT_number 56
_symmetry_cell_setting 'orthorhombic'
loop_
_space_group_symop_operation_xyz
x,y,z
1/2-x,1/2-y,z
1/2+x,-y,1/2-z
-x,1/2+y,1/2-z
-x,-y,-z
1/2+x,1/2+y,-z
1/2-x,y,1/2+z
x,1/2-y,1/2+z
loop_
_atom_site_type_symbol
_atom_site_label
_atom_site_fract_x
_atom_site_fract_y
_atom_site_fract_z
Si Si1 0.747910 0.423458 0.263974
Si Si2 0.389701 0.392434 0.719332
Si Si3 0.184843 0.151382 0.124750
Si Si4 0.410712 0.665317 0.477310
Si Si5 0.144374 0.001941 0.977844
Si Si6 0.982917 0.487024 0.896294
Si Si7 0.397275 0.247736 0.373469
Si Si8 0.789839 0.503029 0.105109
O O1 0.750000 0.250000 0.292638
O O2 0.669754 0.485235 0.263309
O O3 0.794668 0.524707 0.316603
O O4 0.778374 0.428347 0.183371
O O5 0.369167 0.266410 0.660581
O O6 0.455398 0.479596 0.684533
O O7 0.411095 0.309791 0.792691
O O8 0.250000 0.250000 0.097011
O O9 0.148897 0.071640 0.057454
O O10 0.419725 0.578811 0.554706
O O11 0.481988 0.638543 0.431673
O O12 0.344222 0.598635 0.437487
O O13 0.395635 0.843190 0.486863
O O14 0.095677 0.106958 0.928215
O O15 0.219902 0.996108 0.941198
O O16 0.043183 0.363772 0.893652
O O17 0.320806 0.325798 0.382729
#
# Coordination Sequence:
#
# PCOD8229343 Si02
#       8
#     8   8   8   8   8   8   8   8
#     4  11  23  40  68 102 136 169 215 282 342 406
#     4  11  24  46  67  93 137 184 221 272 335 404
#     4  10  24  40  63 101 135 171 214 279 347 402
#     4  10  25  45  67  99 134 180 223 284 332 399
#     4  12  24  39  72 104 127 169 229 283 344 400
#     4  10  26  48  66  89 142 185 228 273 331 394
#     4  11  24  45  70  97 131 185 223 277 330 404
#     4  11  22  43  69  99 138 170 220 275 353 399
#
# _framework density 20.638034000000001
#
# number of rings (size 3 to 8) (size 9 to 14) (size 15 to 20)
#    0.000    1.250    2.500    2.250   10.500    1.500 
#    4.500    0.000    0.000    0.000    0.000    0.000 
#    0.000    0.000    0.000    0.000    0.000    0.000 
#
# Total GULP energy -793775.989257 kJ/mol
# GULP energy per Si atom -12402.749832 kJ/mol
# Density = 2.059106 g / cm^3
# Si number density = 20.638034 Si / 1000 Ang^3
#
#
#
# Elastic Constant Matrix: (Units=GPa)
#
#
# Indices 1 2 3 4 5 6 
#
# 1 83.4443 44.1835 47.6979 0.0000 0.0000 0.0000
# 2 44.1835 129.9909 49.2373 0.0000 0.0000 0.0000
# 3 47.6979 49.2373 123.1904 0.0000 0.0000 0.0000
# 4 0.0000 0.0000 0.0000 31.1952 0.0000 0.0000
# 5 0.0000 0.0000 0.0000 0.0000 23.4148 0.0000
# 6 0.0000 0.0000 0.0000 0.0000 0.0000 26.3084
#
#
#
# Elastic Compliance Matrix: (Units=1/GPa)
#
#
# Indices 1 2 3 4 5 6 
#
# 1 0.016876 -0.003843 -0.004998 0.000000 0.000000 0.000000
# 2 -0.003843 0.009940 -0.002485 0.000000 0.000000 0.000000
# 3 -0.004998 -0.002485 0.011046 0.000000 0.000000 0.000000
# 4 0.000000 0.000000 0.000000 0.032056 0.000000 0.000000
# 5 0.000000 0.000000 0.000000 0.000000 0.042708 0.000000
# 6 0.000000 0.000000 0.000000 0.000000 0.000000 0.038011
#
#
# Mechanical properties :
#
#
# Convention : Reuss Voigt Hill
#
# Bulk Modulus (GPa) = 65.74666 68.76253 67.25459
# Shear Modulus (GPa) = 28.03328 29.21746 28.62537
#
# Velocity S-wave (km/s) = 3.68955 3.76667 3.72831
# Velocity P-wave (km/s) = 7.07648 7.23241 7.15487
#
# Compressibility (1/GPa) = 0.01520990
#
# Stress axis : x y z
#
# Youngs Moduli (GPa) = 59.25628 100.60052 90.53041
#
# Poissons Ratio (x) = 0.38659 0.45249
# Poissons Ratio (y) = 0.22771 0.22498
# Poissons Ratio (z) = 0.29617 0.25000
#
# Static dielectric constant tensor:
#      x y z
#    x 3.651720 0.000000 0.000000 
#    y 0.000000 -1.127230 0.000000 
#    z 0.000000 0.000000 3.826060 
# 
# 
# High freq. dielectric constant tensor:
#      x y z
#    x 1.800950 0.000000 0.000000 
#    y 0.000000 1.816860 0.000000 
#    z 0.000000 0.000000 1.819710 
# 
# From -- ./inp_files/16845.got.cif
#   From: 2010.03.12/outbox.cif.g09.slc.cpg/sg56_9_cif.got.tgz:16845.got - 2010.04.16 15:33:40.
