data_PCOD8229203
_publ_section_title
;
Structure prediction by ZEFSAII (Michael W. Deem and Ramdas Pophale) SiO2 
 PCOD8229203
Probable space group: P C C N
;
_chemical_formula_sum "Si O2"
_cell_formula_units_Z 40
_cell_length_a 12.417804
_cell_length_b 16.679553
_cell_length_c 9.690600
_cell_angle_alpha 90.000000
_cell_angle_beta 90.000000
_cell_angle_gamma 90.000000
_cell_volume 2007.150213
_symmetry_space_group_name_H-M "P C C N"
_symmetry_group_IT_number 56
_symmetry_cell_setting 'orthorhombic'
loop_
_space_group_symop_operation_xyz
x,y,z
1/2-x,1/2-y,z
1/2+x,-y,1/2-z
-x,1/2+y,1/2-z
-x,-y,-z
1/2+x,1/2+y,-z
1/2-x,y,1/2+z
x,1/2-y,1/2+z
loop_
_atom_site_type_symbol
_atom_site_label
_atom_site_fract_x
_atom_site_fract_y
_atom_site_fract_z
Si Si1 0.626548 0.230398 0.013280
Si Si2 0.162904 0.091684 0.658224
Si Si3 0.991316 0.785762 0.226646
Si Si4 0.359743 0.359076 0.342317
Si Si5 0.062683 0.938964 0.597758
O O1 0.750000 0.250000 0.043331
O O2 0.554760 0.251960 0.144890
O O3 0.579607 0.288606 0.894744
O O4 0.618478 0.135661 0.979028
O O5 0.171955 0.124705 0.501626
O O6 0.270155 0.113592 0.737265
O O7 0.056880 0.127871 0.732810
O O8 0.152913 0.994611 0.669893
O O9 0.886154 0.734574 0.180307
O O10 0.471117 0.404219 0.300565
O O11 0.000000 0.000000 0.500000
#
# Coordination Sequence:
#
# PCOD8229203 Si02
#       5
#     8   8   8   8   8
#     4  11  23  40  65  93 122 166 212 260 315 382
#     4  11  22  41  67  87 129 165 205 261 315 373
#     4  11  21  40  62  90 126 160 209 260 306 373
#     4  10  23  38  61  94 119 164 206 254 315 371
#     4   9  19  44  59  84 130 163 198 254 322 370
#
# _framework density 19.928751999999999
#
# number of rings (size 3 to 8) (size 9 to 14) (size 15 to 20)
#    0.000    1.600    6.000    1.200    2.800    3.200 
#   14.400    1.000    0.000    0.000    0.000    0.000 
#    0.000    0.000    0.000    0.000    0.000    0.000 
#
# Total GULP energy -495662.197347 kJ/mol
# GULP energy per Si atom -12391.554934 kJ/mol
# Density = 1.988339 g / cm^3
# Si number density = 19.928752 Si / 1000 Ang^3
#
#
#
# Elastic Constant Matrix: (Units=GPa)
#
#
# Indices 1 2 3 4 5 6 
#
# 1 96.5508 25.2901 30.4245 0.0000 0.0000 0.0000
# 2 25.2901 71.5236 19.5109 0.0000 0.0000 0.0000
# 3 30.4245 19.5109 97.9294 0.0000 0.0000 0.0000
# 4 0.0000 0.0000 0.0000 20.4800 0.0000 0.0000
# 5 0.0000 0.0000 0.0000 0.0000 34.1203 0.0000
# 6 0.0000 0.0000 0.0000 0.0000 0.0000 17.9435
#
#
#
# Elastic Compliance Matrix: (Units=1/GPa)
#
#
# Indices 1 2 3 4 5 6 
#
# 1 0.012250 -0.003483 -0.003112 0.000000 0.000000 0.000000
# 2 -0.003483 0.015775 -0.002061 0.000000 0.000000 0.000000
# 3 -0.003112 -0.002061 0.011589 0.000000 0.000000 0.000000
# 4 0.000000 0.000000 0.000000 0.048828 0.000000 0.000000
# 5 0.000000 0.000000 0.000000 0.000000 0.029308 0.000000
# 6 0.000000 0.000000 0.000000 0.000000 0.000000 0.055730
#
#
# Mechanical properties :
#
#
# Convention : Reuss Voigt Hill
#
# Bulk Modulus (GPa) = 44.83720 46.27274 45.55497
# Shear Modulus (GPa) = 25.22375 27.22733 26.22554
#
# Velocity S-wave (km/s) = 3.56152 3.70027 3.63156
# Velocity P-wave (km/s) = 6.28173 6.44403 6.36340
#
# Compressibility (1/GPa) = 0.02230291
#
# Stress axis : x y z
#
# Youngs Moduli (GPa) = 81.63213 63.39135 86.28971
#
# Poissons Ratio (x) = 0.22077 0.26853
# Poissons Ratio (y) = 0.28429 0.17784
# Poissons Ratio (z) = 0.25404 0.13065
#
# Static dielectric constant tensor:
#      x y z
#    x 3.781220 0.000000 0.000000 
#    y 0.000000 4.368100 0.000000 
#    z 0.000000 0.000000 3.633480 
# 
# 
# High freq. dielectric constant tensor:
#      x y z
#    x 1.784730 0.000000 0.000000 
#    y 0.000000 1.776900 0.000000 
#    z 0.000000 0.000000 1.767260 
# 
# From -- ./inp_files/2589.got.cif
#   From: 2010.03.12/outbox.cif.g09.slc.cpg/sg56_2_cif.got.tgz:2589.got - 2010.04.16 15:33:40.
