data_PCOD8229737
_publ_section_title
;
Structure prediction by ZEFSAII (Michael W. Deem and Ramdas Pophale) SiO2 
 PCOD8229737
Probable space group: P C C N
;
_chemical_formula_sum "Si O2"
_cell_formula_units_Z 48
_cell_length_a 8.569876
_cell_length_b 14.547486
_cell_length_c 17.221910
_cell_angle_alpha 90.000000
_cell_angle_beta 90.000000
_cell_angle_gamma 90.000000
_cell_volume 2147.058122
_symmetry_space_group_name_H-M "P C C N"
_symmetry_group_IT_number 56
_symmetry_cell_setting 'orthorhombic'
loop_
_space_group_symop_operation_xyz
x,y,z
1/2-x,1/2-y,z
1/2+x,-y,1/2-z
-x,1/2+y,1/2-z
-x,-y,-z
1/2+x,1/2+y,-z
1/2-x,y,1/2+z
x,1/2-y,1/2+z
loop_
_atom_site_type_symbol
_atom_site_label
_atom_site_fract_x
_atom_site_fract_y
_atom_site_fract_z
Si Si1 0.049638 0.385816 0.278090
Si Si2 0.582271 0.296044 0.221448
Si Si3 0.788221 0.042007 0.308474
Si Si4 0.367254 0.667316 0.947547
Si Si5 0.152746 0.158989 0.944677
Si Si6 0.182294 0.506607 0.014143
O O1 0.163300 0.440846 0.220353
O O2 0.122688 0.391378 0.363372
O O3 0.042916 0.279466 0.249972
O O4 0.880334 0.432806 0.274607
O O5 0.750000 0.250000 0.219908
O O6 0.584420 0.382672 0.279894
O O7 0.542022 0.332201 0.134898
O O8 0.782954 0.044698 0.400813
O O9 0.250000 0.750000 0.955066
O O10 0.487186 0.681118 0.017307
O O11 0.268079 0.573606 0.953322
O O12 0.250000 0.250000 0.929956
O O13 0.247023 0.094059 0.003178
O O14 0.000000 0.500000 0.000000
#
# Coordination Sequence:
#
# PCOD8229737 Si02
#       6
#     8   8   8   8   8   8
#     4  11  26  47  72 106 143 190 237 305 363 440
#     4   9  23  43  71 102 138 184 235 291 362 430
#     4  11  26  45  74 102 144 187 244 295 369 431
#     4  11  24  47  76 102 144 188 240 303 365 439
#     4  12  28  47  71 107 146 187 244 302 367 439
#     4  12  28  45  75 103 143 197 247 303 366 435
#
# _framework density 22.356172000000001
#
# number of rings (size 3 to 8) (size 9 to 14) (size 15 to 20)
#    0.000    1.000    1.667    2.500   18.667    0.000 
#    0.000    0.000    0.000    0.000    0.000    0.000 
#    0.000    0.000    0.000    0.000    0.000    0.000 
#
# Total GULP energy -595512.494414 kJ/mol
# GULP energy per Si atom -12406.510300 kJ/mol
# Density = 2.230529 g / cm^3
# Si number density = 22.356172 Si / 1000 Ang^3
#
#
#
# Elastic Constant Matrix: (Units=GPa)
#
#
# Indices 1 2 3 4 5 6 
#
# 1 88.7490 36.2740 25.8478 0.0000 0.0000 0.0000
# 2 36.2740 128.3179 45.3282 0.0000 0.0000 0.0000
# 3 25.8478 45.3282 122.9581 0.0000 0.0000 0.0000
# 4 0.0000 0.0000 0.0000 44.6843 0.0000 0.0000
# 5 0.0000 0.0000 0.0000 0.0000 36.1901 0.0000
# 6 0.0000 0.0000 0.0000 0.0000 0.0000 41.4996
#
#
#
# Elastic Compliance Matrix: (Units=1/GPa)
#
#
# Indices 1 2 3 4 5 6 
#
# 1 0.013003 -0.003116 -0.001585 0.000000 0.000000 0.000000
# 2 -0.003116 0.009707 -0.002923 0.000000 0.000000 0.000000
# 3 -0.001585 -0.002923 0.009544 0.000000 0.000000 0.000000
# 4 0.000000 0.000000 0.000000 0.022379 0.000000 0.000000
# 5 0.000000 0.000000 0.000000 0.000000 0.027632 0.000000
# 6 0.000000 0.000000 0.000000 0.000000 0.000000 0.024097
#
#
# Mechanical properties :
#
#
# Convention : Reuss Voigt Hill
#
# Bulk Modulus (GPa) = 58.80558 61.65832 60.23195
# Shear Modulus (GPa) = 39.28431 39.97978 39.63205
#
# Velocity S-wave (km/s) = 4.19645 4.23343 4.21498
# Velocity P-wave (km/s) = 7.05984 7.17884 7.11959
#
# Compressibility (1/GPa) = 0.01700519
#
# Stress axis : x y z
#
# Youngs Moduli (GPa) = 76.90621 103.02219 104.78160
#
# Poissons Ratio (x) = 0.32101 0.16605
# Poissons Ratio (y) = 0.23964 0.30631
# Poissons Ratio (z) = 0.12187 0.30117
#
# Static dielectric constant tensor:
#      x y z
#    x 3.641570 0.000000 0.000000 
#    y 0.000000 4.411930 0.000000 
#    z 0.000000 0.000000 4.273440 
# 
# 
# High freq. dielectric constant tensor:
#      x y z
#    x 1.876160 0.000000 0.000000 
#    y 0.000000 1.894040 0.000000 
#    z 0.000000 0.000000 1.888950 
# 
# From -- ./inp_files/14822.got.cif
#   From: 2010.03.12/outbox.cif.g09.slc.cpg/sg56_8_cif.got.tgz:14822.got - 2010.04.16 15:33:40.
