data_PCOD8229143
_publ_section_title
;
Structure prediction by ZEFSAII (Michael W. Deem and Ramdas Pophale) SiO2 
 PCOD8229143
Probable space group: P C C N
;
_chemical_formula_sum "Si O2"
_cell_formula_units_Z 56
_cell_length_a 8.106433
_cell_length_b 22.436351
_cell_length_c 14.353213
_cell_angle_alpha 90.000000
_cell_angle_beta 90.000000
_cell_angle_gamma 90.000000
_cell_volume 2610.544814
_symmetry_space_group_name_H-M "P C C N"
_symmetry_group_IT_number 56
_symmetry_cell_setting 'orthorhombic'
loop_
_space_group_symop_operation_xyz
x,y,z
1/2-x,1/2-y,z
1/2+x,-y,1/2-z
-x,1/2+y,1/2-z
-x,-y,-z
1/2+x,1/2+y,-z
1/2-x,y,1/2+z
x,1/2-y,1/2+z
loop_
_atom_site_type_symbol
_atom_site_label
_atom_site_fract_x
_atom_site_fract_y
_atom_site_fract_z
Si Si1 0.370154 0.298815 0.553733
Si Si2 0.082814 0.625038 0.638978
Si Si3 0.071847 0.049660 0.347873
Si Si4 0.223725 0.002773 0.165727
Si Si5 0.306313 0.413449 0.005600
Si Si6 0.935253 0.229223 0.732682
Si Si7 0.927040 0.173812 0.380975
O O1 0.250000 0.250000 0.508227
O O2 0.275713 0.361349 0.567574
O O3 0.443743 0.267520 0.645317
O O4 0.516315 0.312767 0.484054
O O5 0.140424 0.561101 0.673307
O O6 0.029752 0.661760 0.730723
O O7 0.232240 0.666354 0.602119
O O8 0.947770 0.616712 0.557817
O O9 0.195703 0.035455 0.263607
O O10 0.177123 0.049564 0.442512
O O11 0.001172 0.115404 0.332695
O O12 0.920571 0.002543 0.352983
O O13 0.132054 0.038729 0.082170
O O14 0.750000 0.250000 0.703346
O O15 0.988576 0.273693 0.814224
#
# Coordination Sequence:
#
# PCOD8229143 Si02
#       7
#     8   8   8   8   8   8   8
#     4  11  25  39  64  97 125 172 211 267 330 389
#     4  10  22  43  66  94 129 175 215 277 325 386
#     4  10  23  41  64  91 135 171 221 275 324 388
#     4  11  23  41  64  96 129 179 223 266 330 390
#     4  11  24  40  65  96 131 171 221 270 331 388
#     4  10  23  42  67  92 127 167 217 269 325 389
#     4   9  22  46  63  92 131 167 219 276 327 387
#
# _framework density 21.451461999999999
#
# number of rings (size 3 to 8) (size 9 to 14) (size 15 to 20)
#    0.000    1.714    0.000    2.571    6.000    4.571 
#    5.143    0.000    0.000    0.000    0.000    0.000 
#    0.000    0.000    0.000    0.000    0.000    0.000 
#
# Total GULP energy -694109.961470 kJ/mol
# GULP energy per Si atom -12394.820741 kJ/mol
# Density = 2.140264 g / cm^3
# Si number density = 21.451462 Si / 1000 Ang^3
#
#
#
# Elastic Constant Matrix: (Units=GPa)
#
#
# Indices 1 2 3 4 5 6 
#
# 1 71.5491 33.8093 36.7888 0.0000 0.0000 0.0000
# 2 33.8093 89.5921 58.9149 0.0000 0.0000 0.0000
# 3 36.7888 58.9149 85.4101 0.0000 0.0000 0.0000
# 4 0.0000 0.0000 0.0000 38.4087 0.0000 0.0000
# 5 0.0000 0.0000 0.0000 0.0000 8.4400 0.0000
# 6 0.0000 0.0000 0.0000 0.0000 0.0000 30.4329
#
#
#
# Elastic Compliance Matrix: (Units=1/GPa)
#
#
# Indices 1 2 3 4 5 6 
#
# 1 0.018433 -0.003175 -0.005749 0.000000 0.000000 0.000000
# 2 -0.003175 0.020975 -0.013100 0.000000 0.000000 0.000000
# 3 -0.005749 -0.013100 0.023221 0.000000 0.000000 0.000000
# 4 0.000000 0.000000 0.000000 0.026036 0.000000 0.000000
# 5 0.000000 0.000000 0.000000 0.000000 0.118484 0.000000
# 6 0.000000 0.000000 0.000000 0.000000 0.000000 0.032859
#
#
# Mechanical properties :
#
#
# Convention : Reuss Voigt Hill
#
# Bulk Modulus (GPa) = 53.82511 56.17527 55.00019
# Shear Modulus (GPa) = 17.22649 23.25886 20.24268
#
# Velocity S-wave (km/s) = 2.83688 3.29638 3.07522
# Velocity P-wave (km/s) = 5.98970 6.38217 6.18905
#
# Compressibility (1/GPa) = 0.01857869
#
# Stress axis : x y z
#
# Youngs Moduli (GPa) = 54.25038 47.67668 43.06429
#
# Poissons Ratio (x) = 0.15139 0.24759
# Poissons Ratio (y) = 0.17226 0.56416
# Poissons Ratio (z) = 0.31191 0.62458
#
# Static dielectric constant tensor:
#      x y z
#    x 3.983910 0.000000 0.000000 
#    y 0.000000 4.035960 0.000000 
#    z 0.000000 0.000000 3.603130 
# 
# 
# High freq. dielectric constant tensor:
#      x y z
#    x 1.842870 0.000000 0.000000 
#    y 0.000000 1.858080 0.000000 
#    z 0.000000 0.000000 1.833650 
# 
# From -- ./inp_files/10877.got.cif
#   From: 2010.03.12/outbox.cif.g09.slc.cpg/sg56_6_cif.got.tgz:10877.got - 2010.04.16 15:33:40.
