data_PCOD8229170
_publ_section_title
;
Structure prediction by ZEFSAII (Michael W. Deem and Ramdas Pophale) SiO2 
 PCOD8229170
Probable space group: P C C N
;
_chemical_formula_sum "Si O2"
_cell_formula_units_Z 40
_cell_length_a 7.151431
_cell_length_b 21.846040
_cell_length_c 9.819840
_cell_angle_alpha 90.000000
_cell_angle_beta 90.000000
_cell_angle_gamma 90.000000
_cell_volume 1534.157999
_symmetry_space_group_name_H-M "P C C N"
_symmetry_group_IT_number 56
_symmetry_cell_setting 'orthorhombic'
loop_
_space_group_symop_operation_xyz
x,y,z
1/2-x,1/2-y,z
1/2+x,-y,1/2-z
-x,1/2+y,1/2-z
-x,-y,-z
1/2+x,1/2+y,-z
1/2-x,y,1/2+z
x,1/2-y,1/2+z
loop_
_atom_site_type_symbol
_atom_site_label
_atom_site_fract_x
_atom_site_fract_y
_atom_site_fract_z
Si Si1 0.680136 0.117746 0.858515
Si Si2 0.171959 0.067867 0.230828
Si Si3 0.449116 0.178487 0.274227
Si Si4 0.781567 0.494851 0.018558
Si Si5 0.462557 0.731571 0.498112
O O1 0.547067 0.078887 0.758771
O O2 0.846292 0.147096 0.770716
O O3 0.540408 0.166775 0.925570
O O4 0.773815 0.074278 0.975436
O O5 0.287673 0.129330 0.257158
O O6 0.261117 0.013731 0.325534
O O7 0.178473 0.044974 0.075966
O O8 0.425512 0.217341 0.413810
O O9 0.437753 0.225701 0.147919
O O10 0.000000 0.500000 0.000000
O O11 0.250000 0.750000 0.473994
#
# Coordination Sequence:
#
# PCOD8229170 Si02
#       5
#     8   8   8   8   8
#     4  10  24  42  69 100 141 178 237 292 348 429
#     4  11  25  45  70 102 141 187 229 295 363 419
#     4  11  24  44  70  99 139 183 236 288 353 424
#     4  10  24  45  67 106 145 178 240 294 351 436
#     4  10  22  44  68  99 139 184 234 296 352 412
#
# _framework density 26.072935999999999
#
# number of rings (size 3 to 8) (size 9 to 14) (size 15 to 20)
#    0.000    1.600    0.000    4.200    8.400    6.400 
#    0.000    6.000    0.000    0.000    0.000    0.000 
#    0.000    0.000    0.000    0.000    0.000    0.000 
#
# Total GULP energy -496058.162208 kJ/mol
# GULP energy per Si atom -12401.454055 kJ/mol
# Density = 2.601359 g / cm^3
# Si number density = 26.072936 Si / 1000 Ang^3
#
#
#
# Elastic Constant Matrix: (Units=GPa)
#
#
# Indices 1 2 3 4 5 6 
#
# 1 33.5496 12.3123 9.1579 0.0000 0.0000 0.0000
# 2 12.3123 111.9253 2.6897 0.0000 0.0000 0.0000
# 3 9.1579 2.6897 67.2660 0.0000 0.0000 0.0000
# 4 0.0000 0.0000 0.0000 43.7501 0.0000 0.0000
# 5 0.0000 0.0000 0.0000 0.0000 27.7769 0.0000
# 6 0.0000 0.0000 0.0000 0.0000 0.0000 42.3576
#
#
#
# Elastic Compliance Matrix: (Units=1/GPa)
#
#
# Indices 1 2 3 4 5 6 
#
# 1 0.032231 -0.003443 -0.004250 0.000000 0.000000 0.000000
# 2 -0.003443 0.009311 0.000096 0.000000 0.000000 0.000000
# 3 -0.004250 0.000096 0.015441 0.000000 0.000000 0.000000
# 4 0.000000 0.000000 0.000000 0.022857 0.000000 0.000000
# 5 0.000000 0.000000 0.000000 0.000000 0.036001 0.000000
# 6 0.000000 0.000000 0.000000 0.000000 0.000000 0.023608
#
#
# Mechanical properties :
#
#
# Convention : Reuss Voigt Hill
#
# Bulk Modulus (GPa) = 23.93015 29.00673 26.46844
# Shear Modulus (GPa) = 29.66071 35.34900 32.50485
#
# Velocity S-wave (km/s) = 3.37650 3.68608 3.53468
# Velocity P-wave (km/s) = 4.93954 5.40977 5.17999
#
# Compressibility (1/GPa) = 0.04178828
#
# Stress axis : x y z
#
# Youngs Moduli (GPa) = 31.02649 107.39987 64.76201
#
# Poissons Ratio (x) = 0.36982 0.27526
# Poissons Ratio (y) = 0.10684 -0.00625
# Poissons Ratio (z) = 0.13187 -0.01036
#
# Static dielectric constant tensor:
#      x y z
#    x 4.696510 0.000000 0.000000 
#    y 0.000000 5.234980 0.000000 
#    z 0.000000 0.000000 4.871790 
# 
# 
# High freq. dielectric constant tensor:
#      x y z
#    x 2.042740 0.000000 0.000000 
#    y 0.000000 2.055190 0.000000 
#    z 0.000000 0.000000 2.042220 
# 
# From -- ./inp_files/2069.got.cif
#   From: 2010.03.12/outbox.cif.g09.slc.cpg/sg56_2_cif.got.tgz:2069.got - 2010.04.16 15:33:40.
