data_PCOD8229965
_publ_section_title
;
Structure prediction by ZEFSAII (Michael W. Deem and Ramdas Pophale) SiO2 
 PCOD8229965
Probable space group: P B C M
;
_chemical_formula_sum "Si O2"
_cell_formula_units_Z 48
_cell_length_a 15.238760
_cell_length_b 21.237791
_cell_length_c 8.759933
_cell_angle_alpha 90.000000
_cell_angle_beta 90.000000
_cell_angle_gamma 90.000000
_cell_volume 2835.043692
_symmetry_space_group_name_H-M "P B C M"
_symmetry_group_IT_number 57
_symmetry_cell_setting 'orthorhombic'
loop_
_space_group_symop_operation_xyz
x,y,z
-x,-y,1/2+z
x,1/2-y,-z
-x,1/2+y,1/2-z
-x,-y,-z
x,y,1/2-z
-x,1/2+y,z
x,1/2-y,1/2+z
loop_
_atom_site_type_symbol
_atom_site_label
_atom_site_fract_x
_atom_site_fract_y
_atom_site_fract_z
Si Si1 0.521940 0.935096 0.926116
Si Si2 0.292611 0.036178 0.430183
Si Si3 0.942175 0.090491 0.426112
Si Si4 0.662076 0.098917 0.069693
Si Si5 0.806085 0.182445 0.569945
Si Si6 0.114188 0.051746 0.926299
O O1 0.518646 0.949474 0.750000
O O2 0.623022 0.918139 0.969268
O O3 0.442134 0.887144 0.966924
O O4 0.500000 0.000000 0.000000
O O5 0.276171 0.030095 0.250000
O O6 0.209583 0.069363 0.508409
O O7 0.306843 0.966607 0.497069
O O8 0.937444 0.110847 0.250000
O O9 0.887370 0.138232 0.528158
O O10 0.042659 0.092035 0.481428
O O11 0.901332 0.022001 0.452412
O O12 0.681026 0.095649 0.250000
O O13 0.715301 0.156193 0.997895
O O14 0.825301 0.250000 0.500000
O O15 0.797054 0.187516 0.750000
O O16 0.108054 0.070505 0.750000
#
# Coordination Sequence:
#
# PCOD8229965 Si02
#       6
#     8   8   8   8   8   8
#     4   8  16  27  42  65  95 128 160 193 233 282
#     4  10  17  27  45  71 100 132 164 196 241 294
#     4  10  20  34  50  70  98 129 165 206 250 297
#     4  10  18  31  47  67  97 130 164 203 243 287
#     4  12  24  37  53  72  97 130 169 208 249 296
#     4  10  19  30  48  72 101 133 164 201 250 301
#
# _framework density 16.930956999999999
#
# number of rings (size 3 to 8) (size 9 to 14) (size 15 to 20)
#    0.000    2.000    1.667    3.500    0.000    2.667 
#    0.000    0.000    0.000    0.000    0.000    1.167 
#    0.000    2.667    0.000    0.000    0.000    0.000 
#
# Total GULP energy -594845.034921 kJ/mol
# GULP energy per Si atom -12392.604894 kJ/mol
# Density = 1.689242 g / cm^3
# Si number density = 16.930957 Si / 1000 Ang^3
#
#
#
# Elastic Constant Matrix: (Units=GPa)
#
#
# Indices 1 2 3 4 5 6 
#
# 1 150.4687 23.6586 39.7981 0.0000 0.0000 0.0000
# 2 23.6586 34.2145 13.0778 0.0000 0.0000 0.0000
# 3 39.7981 13.0778 59.5798 0.0000 0.0000 0.0000
# 4 0.0000 0.0000 0.0000 20.5446 0.0000 0.0000
# 5 0.0000 0.0000 0.0000 0.0000 28.6142 0.0000
# 6 0.0000 0.0000 0.0000 0.0000 0.0000 15.2171
#
#
#
# Elastic Compliance Matrix: (Units=1/GPa)
#
#
# Indices 1 2 3 4 5 6 
#
# 1 0.008563 -0.004077 -0.004825 0.000000 0.000000 0.000000
# 2 -0.004077 0.033845 -0.004706 0.000000 0.000000 0.000000
# 3 -0.004825 -0.004706 0.021040 0.000000 0.000000 0.000000
# 4 0.000000 0.000000 0.000000 0.048675 0.000000 0.000000
# 5 0.000000 0.000000 0.000000 0.000000 0.034948 0.000000
# 6 0.000000 0.000000 0.000000 0.000000 0.000000 0.065716
#
#
# Mechanical properties :
#
#
# Convention : Reuss Voigt Hill
#
# Bulk Modulus (GPa) = 27.59919 44.14800 35.87359
# Shear Modulus (GPa) = 19.83501 24.05709 21.94605
#
# Velocity S-wave (km/s) = 3.42647 3.77356 3.60420
# Velocity P-wave (km/s) = 5.65603 6.71702 6.20922
#
# Compressibility (1/GPa) = 0.03623295
#
# Stress axis : x y z
#
# Youngs Moduli (GPa) = 116.77959 29.54634 47.52800
#
# Poissons Ratio (x) = 0.12046 0.22933
# Poissons Ratio (y) = 0.47610 0.22365
# Poissons Ratio (z) = 0.56348 0.13904
#
# Static dielectric constant tensor:
#      x y z
#    x 3.876960 0.000000 0.000000 
#    y 0.000000 2.699110 0.000000 
#    z 0.000000 0.000000 3.277230 
# 
# 
# High freq. dielectric constant tensor:
#      x y z
#    x 1.678670 0.000000 0.000000 
#    y 0.000000 1.583220 0.000000 
#    z 0.000000 0.000000 1.672490 
# 
# From -- ./inp_files/4864.got.cif
#   From: 2010.03.12/outbox.cif.g09.slc.cpg/sg57_3_cif.got.tgz:4864.got - 2010.04.16 15:48:40.
