data_PCOD8229766
_publ_section_title
;
Structure prediction by ZEFSAII (Michael W. Deem and Ramdas Pophale) SiO2 
 PCOD8229766
Probable space group: P C C N
;
_chemical_formula_sum "Si O2"
_cell_formula_units_Z 40
_cell_length_a 18.404293
_cell_length_b 10.259521
_cell_length_c 9.646320
_cell_angle_alpha 90.000000
_cell_angle_beta 90.000000
_cell_angle_gamma 90.000000
_cell_volume 1821.410720
_symmetry_space_group_name_H-M "P C C N"
_symmetry_group_IT_number 56
_symmetry_cell_setting 'orthorhombic'
loop_
_space_group_symop_operation_xyz
x,y,z
1/2-x,1/2-y,z
1/2+x,-y,1/2-z
-x,1/2+y,1/2-z
-x,-y,-z
1/2+x,1/2+y,-z
1/2-x,y,1/2+z
x,1/2-y,1/2+z
loop_
_atom_site_type_symbol
_atom_site_label
_atom_site_fract_x
_atom_site_fract_y
_atom_site_fract_z
Si Si1 0.237165 0.461731 0.584782
Si Si2 0.476360 0.159804 0.852528
Si Si3 0.286358 0.878325 0.847646
Si Si4 0.956071 0.365445 0.149525
Si Si5 0.173471 0.239091 0.449002
O O1 0.225617 0.501489 0.743069
O O2 0.243491 0.590465 0.489450
O O3 0.167033 0.374381 0.536797
O O4 0.312589 0.379855 0.559740
O O5 0.524723 0.255124 0.760762
O O6 0.393676 0.212252 0.849455
O O7 0.479682 0.010314 0.798666
O O8 0.502656 0.169787 0.009608
O O9 0.250000 0.750000 0.783060
O O10 0.370807 0.858515 0.877573
O O11 0.250000 0.250000 0.359540
#
# Coordination Sequence:
#
# PCOD8229766 Si02
#       5
#     8   8   8   8   8
#     4   9  23  40  70  97 127 166 232 282 333 397
#     4  11  25  48  68 102 143 187 228 295 345 432
#     4  12  25  43  65  99 136 175 224 279 347 411
#     4  11  28  45  69  99 147 183 236 280 363 417
#     4   8  20  43  74  95 126 170 234 285 329 397
#
# _framework density 21.961002000000001
#
# number of rings (size 3 to 8) (size 9 to 14) (size 15 to 20)
#    1.200    0.400    2.000    0.600    8.400    7.200 
#    0.000    0.000    0.000    0.000    0.000    0.000 
#    0.000    0.000    0.000    0.000    0.000    0.000 
#
# Total GULP energy -495659.747212 kJ/mol
# GULP energy per Si atom -12391.493680 kJ/mol
# Density = 2.191102 g / cm^3
# Si number density = 21.961002 Si / 1000 Ang^3
#
#
#
# Elastic Constant Matrix: (Units=GPa)
#
#
# Indices 1 2 3 4 5 6 
#
# 1 79.8296 34.2477 20.0302 0.0000 0.0000 0.0000
# 2 34.2477 135.7434 29.2593 0.0000 0.0000 0.0000
# 3 20.0302 29.2593 52.4324 0.0000 0.0000 0.0000
# 4 0.0000 0.0000 0.0000 29.5725 0.0000 0.0000
# 5 0.0000 0.0000 0.0000 0.0000 19.2728 0.0000
# 6 0.0000 0.0000 0.0000 0.0000 0.0000 36.2386
#
#
#
# Elastic Compliance Matrix: (Units=1/GPa)
#
#
# Indices 1 2 3 4 5 6 
#
# 1 0.014767 -0.002853 -0.004049 0.000000 0.000000 0.000000
# 2 -0.002853 0.008925 -0.003891 0.000000 0.000000 0.000000
# 3 -0.004049 -0.003891 0.022790 0.000000 0.000000 0.000000
# 4 0.000000 0.000000 0.000000 0.033815 0.000000 0.000000
# 5 0.000000 0.000000 0.000000 0.000000 0.051887 0.000000
# 6 0.000000 0.000000 0.000000 0.000000 0.000000 0.027595
#
#
# Mechanical properties :
#
#
# Convention : Reuss Voigt Hill
#
# Bulk Modulus (GPa) = 40.16619 48.34220 44.25420
# Shear Modulus (GPa) = 26.36252 29.31464 27.83858
#
# Velocity S-wave (km/s) = 3.46847 3.65752 3.56425
# Velocity P-wave (km/s) = 5.86258 6.31642 6.09373
#
# Compressibility (1/GPa) = 0.02489656
#
# Stress axis : x y z
#
# Youngs Moduli (GPa) = 67.72075 112.04171 43.87837
#
# Poissons Ratio (x) = 0.31963 0.17767
# Poissons Ratio (y) = 0.19319 0.17072
# Poissons Ratio (z) = 0.27421 0.43593
#
# Static dielectric constant tensor:
#      x y z
#    x 3.800020 0.000000 0.000000 
#    y 0.000000 4.237070 0.000000 
#    z 0.000000 0.000000 3.521320 
# 
# 
# High freq. dielectric constant tensor:
#      x y z
#    x 1.847520 0.000000 0.000000 
#    y 0.000000 1.884730 0.000000 
#    z 0.000000 0.000000 1.844210 
# 
# From -- ./inp_files/3895.got.cif
#   From: 2010.03.12/outbox.cif.g09.slc.cpg/sg56_2_cif.got.tgz:3895.got - 2010.04.16 15:33:40.
