data_PCOD8229372
_publ_section_title
;
Structure prediction by ZEFSAII (Michael W. Deem and Ramdas Pophale) SiO2 
 PCOD8229372
Probable space group: P C C N
;
_chemical_formula_sum "Si O2"
_cell_formula_units_Z 32
_cell_length_a 5.410926
_cell_length_b 8.848838
_cell_length_c 27.835308
_cell_angle_alpha 90.000000
_cell_angle_beta 90.000000
_cell_angle_gamma 90.000000
_cell_volume 1332.765893
_symmetry_space_group_name_H-M "P C C N"
_symmetry_group_IT_number 56
_symmetry_cell_setting 'orthorhombic'
loop_
_space_group_symop_operation_xyz
x,y,z
1/2-x,1/2-y,z
1/2+x,-y,1/2-z
-x,1/2+y,1/2-z
-x,-y,-z
1/2+x,1/2+y,-z
1/2-x,y,1/2+z
x,1/2-y,1/2+z
loop_
_atom_site_type_symbol
_atom_site_label
_atom_site_fract_x
_atom_site_fract_y
_atom_site_fract_z
Si Si1 0.750000 0.250000 0.893463
Si Si2 0.281301 0.428350 0.270832
Si Si3 0.970845 0.993229 0.556469
Si Si4 0.750000 0.750000 0.388791
Si Si5 0.587572 0.493189 0.133413
O O1 0.613273 0.373099 0.860360
O O2 0.950462 0.326612 0.927810
O O3 0.250000 0.250000 0.262412
O O4 0.535060 0.486373 0.247802
O O5 0.300708 0.471037 0.327691
O O6 0.149939 0.119218 0.577374
O O7 0.697091 0.017133 0.578979
O O8 0.000000 0.000000 0.500000
O O9 0.958436 0.669749 0.355647
#
# Coordination Sequence:
#
# PCOD8229372 Si02
#       5
#     4   8   8   4   8
#     4  10  24  42  72 100 144 194 242 304 384 450
#     4  12  30  51  85 120 160 208 267 331 403 477
#     4  11  25  41  71 102 146 191 249 308 378 454
#     4  10  26  42  72 104 146 194 246 310 382 446
#     4  11  26  49  73 108 150 199 253 314 387 464
#
# _framework density 24.010217000000001
#
# number of rings (size 3 to 8) (size 9 to 14) (size 15 to 20)
#    0.000    1.000    0.000    3.750   19.250    4.000 
#    0.000    0.000    0.000    0.000    0.000    0.000 
#    0.000    0.000    0.000    0.000    0.000    0.000 
#
# Total GULP energy -396727.244691 kJ/mol
# GULP energy per Si atom -12397.726397 kJ/mol
# Density = 2.395557 g / cm^3
# Si number density = 24.010217 Si / 1000 Ang^3
#
#
#
# Elastic Constant Matrix: (Units=GPa)
#
#
# Indices 1 2 3 4 5 6 
#
# 1 110.2000 29.9862 22.3528 0.0000 0.0000 0.0000
# 2 29.9862 135.6011 18.2802 0.0000 0.0000 0.0000
# 3 22.3528 18.2802 103.9663 0.0000 0.0000 0.0000
# 4 0.0000 0.0000 0.0000 12.9366 0.0000 0.0000
# 5 0.0000 0.0000 0.0000 0.0000 31.5277 0.0000
# 6 0.0000 0.0000 0.0000 0.0000 0.0000 42.1778
#
#
#
# Elastic Compliance Matrix: (Units=1/GPa)
#
#
# Indices 1 2 3 4 5 6 
#
# 1 0.009973 -0.001963 -0.001799 0.000000 0.000000 0.000000
# 2 -0.001963 0.007940 -0.000974 0.000000 0.000000 0.000000
# 3 -0.001799 -0.000974 0.010177 0.000000 0.000000 0.000000
# 4 0.000000 0.000000 0.000000 0.077300 0.000000 0.000000
# 5 0.000000 0.000000 0.000000 0.000000 0.031718 0.000000
# 6 0.000000 0.000000 0.000000 0.000000 0.000000 0.023709
#
#
# Mechanical properties :
#
#
# Convention : Reuss Voigt Hill
#
# Bulk Modulus (GPa) = 53.71224 54.55622 54.13423
# Shear Modulus (GPa) = 28.32933 35.93830 32.13382
#
# Velocity S-wave (km/s) = 3.43867 3.87304 3.66230
# Velocity P-wave (km/s) = 6.17941 6.54003 6.36227
#
# Compressibility (1/GPa) = 0.01861773
#
# Stress axis : x y z
#
# Youngs Moduli (GPa) = 100.26587 125.94528 98.26483
#
# Poissons Ratio (x) = 0.24722 0.17679
# Poissons Ratio (y) = 0.19682 0.09571
# Poissons Ratio (z) = 0.18039 0.12268
#
# Static dielectric constant tensor:
#      x y z
#    x 4.579850 0.000000 0.000000 
#    y 0.000000 4.752950 0.000000 
#    z 0.000000 0.000000 4.198980 
# 
# 
# High freq. dielectric constant tensor:
#      x y z
#    x 1.961520 0.000000 0.000000 
#    y 0.000000 1.979250 0.000000 
#    z 0.000000 0.000000 1.936290 
# 
# From -- ./inp_files/22667.got.cif
#   From: 2010.03.12/outbox.cif.g09.slc.cpg/sg56_12_cif.got.tgz:22667.got - 2010.04.16 15:33:40.
