data_PCOD8229433
_publ_section_title
;
Structure prediction by ZEFSAII (Michael W. Deem and Ramdas Pophale) SiO2 
 PCOD8229433
Probable space group: P C C N
;
_chemical_formula_sum "Si O2"
_cell_formula_units_Z 36
_cell_length_a 9.160063
_cell_length_b 19.407413
_cell_length_c 8.757672
_cell_angle_alpha 90.000000
_cell_angle_beta 90.000000
_cell_angle_gamma 90.000000
_cell_volume 1556.878726
_symmetry_space_group_name_H-M "P C C N"
_symmetry_group_IT_number 56
_symmetry_cell_setting 'orthorhombic'
loop_
_space_group_symop_operation_xyz
x,y,z
1/2-x,1/2-y,z
1/2+x,-y,1/2-z
-x,1/2+y,1/2-z
-x,-y,-z
1/2+x,1/2+y,-z
1/2-x,y,1/2+z
x,1/2-y,1/2+z
loop_
_atom_site_type_symbol
_atom_site_label
_atom_site_fract_x
_atom_site_fract_y
_atom_site_fract_z
Si Si1 0.419868 0.673393 0.236590
Si Si2 0.341390 0.413883 0.300169
Si Si3 0.750000 0.250000 0.015468
Si Si4 0.520802 0.527886 0.167756
Si Si5 0.699102 0.822319 0.919627
O O1 0.312782 0.689057 0.378459
O O2 0.378651 0.718869 0.088983
O O3 0.413681 0.592866 0.194798
O O4 0.585028 0.692575 0.283204
O O5 0.473174 0.467756 0.285091
O O6 0.373574 0.369882 0.451403
O O7 0.337436 0.362660 0.153600
O O8 0.187981 0.453962 0.302585
O O9 0.500000 0.500000 0.000000
O O10 0.750000 0.750000 0.991294
#
# Coordination Sequence:
#
# PCOD8229433 Si02
#       5
#     8   8   4   8   8
#     4  10  26  43  72 103 144 188 236 296 355 429
#     4  11  25  45  74 103 142 188 238 296 357 422
#     4  10  24  48  66 108 142 190 238 288 366 422
#     4  11  25  47  71 105 142 185 240 294 362 422
#     4  11  25  44  71 107 138 187 238 293 356 423
#
# _framework density 23.123187999999999
#
# number of rings (size 3 to 8) (size 9 to 14) (size 15 to 20)
#    0.000    1.333    2.222    0.667   12.444    5.333 
#    0.000    0.000    0.000    0.000    0.000    0.000 
#    0.000    0.000    0.000    0.000    0.000    0.000 
#
# Total GULP energy -446505.909999 kJ/mol
# GULP energy per Si atom -12402.941944 kJ/mol
# Density = 2.307056 g / cm^3
# Si number density = 23.123188 Si / 1000 Ang^3
#
#
#
# Elastic Constant Matrix: (Units=GPa)
#
#
# Indices 1 2 3 4 5 6 
#
# 1 77.9898 50.6483 19.4453 0.0000 0.0000 0.0000
# 2 50.6483 166.7936 70.9170 0.0000 0.0000 0.0000
# 3 19.4453 70.9170 120.6125 0.0000 0.0000 0.0000
# 4 0.0000 0.0000 0.0000 45.5640 0.0000 0.0000
# 5 0.0000 0.0000 0.0000 0.0000 35.4685 0.0000
# 6 0.0000 0.0000 0.0000 0.0000 0.0000 31.8749
#
#
#
# Elastic Compliance Matrix: (Units=1/GPa)
#
#
# Indices 1 2 3 4 5 6 
#
# 1 0.015984 -0.005011 0.000369 0.000000 0.000000 0.000000
# 2 -0.005011 0.009565 -0.004816 0.000000 0.000000 0.000000
# 3 0.000369 -0.004816 0.011063 0.000000 0.000000 0.000000
# 4 0.000000 0.000000 0.000000 0.021947 0.000000 0.000000
# 5 0.000000 0.000000 0.000000 0.000000 0.028194 0.000000
# 6 0.000000 0.000000 0.000000 0.000000 0.000000 0.031373
#
#
# Mechanical properties :
#
#
# Convention : Reuss Voigt Hill
#
# Bulk Modulus (GPa) = 56.50658 71.93525 64.22091
# Shear Modulus (GPa) = 34.97982 37.54052 36.26017
#
# Velocity S-wave (km/s) = 3.89364 4.03364 3.96426
# Velocity P-wave (km/s) = 6.68612 7.27123 6.98480
#
# Compressibility (1/GPa) = 0.01769706
#
# Stress axis : x y z
#
# Youngs Moduli (GPa) = 62.56171 104.55224 90.39043
#
# Poissons Ratio (x) = 0.52388 -0.03337
# Poissons Ratio (y) = 0.31348 0.43531
# Poissons Ratio (z) = -0.02310 0.50351
#
# Static dielectric constant tensor:
#      x y z
#    x 4.078410 0.000000 0.000000 
#    y 0.000000 4.741680 0.000000 
#    z 0.000000 0.000000 4.260040 
# 
# 
# High freq. dielectric constant tensor:
#      x y z
#    x 1.894760 0.000000 0.000000 
#    y 0.000000 1.926590 0.000000 
#    z 0.000000 0.000000 1.926590 
# 
# From -- ./inp_files/1966.got.cif
#   From: 2010.03.12/outbox.cif.g09.slc.cpg/sg56_1_cif.got.tgz:1966.got - 2010.04.16 15:33:40.
