data_PCOD8229262
_publ_section_title
;
Structure prediction by ZEFSAII (Michael W. Deem and Ramdas Pophale) SiO2 
 PCOD8229262
Probable space group: P C C N
;
_chemical_formula_sum "Si O2"
_cell_formula_units_Z 32
_cell_length_a 4.888265
_cell_length_b 11.478200
_cell_length_c 23.613035
_cell_angle_alpha 90.000000
_cell_angle_beta 90.000000
_cell_angle_gamma 90.000000
_cell_volume 1324.891581
_symmetry_space_group_name_H-M "P C C N"
_symmetry_group_IT_number 56
_symmetry_cell_setting 'orthorhombic'
loop_
_space_group_symop_operation_xyz
x,y,z
1/2-x,1/2-y,z
1/2+x,-y,1/2-z
-x,1/2+y,1/2-z
-x,-y,-z
1/2+x,1/2+y,-z
1/2-x,y,1/2+z
x,1/2-y,1/2+z
loop_
_atom_site_type_symbol
_atom_site_label
_atom_site_fract_x
_atom_site_fract_y
_atom_site_fract_z
Si Si1 0.490644 0.602851 0.068168
Si Si2 0.992959 0.470935 0.785547
Si Si3 0.012910 0.954948 0.409631
Si Si4 0.250000 0.250000 0.836784
Si Si5 0.750000 0.750000 0.473548
O O1 0.178782 0.559486 0.066638
O O2 0.534949 0.680970 0.123860
O O3 0.682919 0.488313 0.070133
O O4 0.542814 0.675644 0.011696
O O5 0.688038 0.468093 0.760606
O O6 0.994338 0.549623 0.841843
O O7 0.083550 0.338597 0.797438
O O8 0.935451 0.829853 0.433449
#
# Coordination Sequence:
#
# PCOD8229262 Si02
#       5
#     8   8   8   4   4
#     4  10  23  42  67  94 127 174 214 250 320 407
#     4  11  24  43  67  96 128 170 220 266 313 375
#     4  11  24  43  64  98 132 167 220 263 314 392
#     4   9  22  43  68  90 126 173 212 255 318 390
#     4  11  24  41  68  98 134 165 204 279 332 358
#
# _framework density 24.152920999999999
#
# number of rings (size 3 to 8) (size 9 to 14) (size 15 to 20)
#    0.000    1.500    0.000    4.500    0.000   18.000 
#    0.000    5.000    0.000    0.000    0.000    0.000 
#    0.000    0.000    0.000    0.000    0.000    0.000 
#
# Total GULP energy -397092.661626 kJ/mol
# GULP energy per Si atom -12409.145676 kJ/mol
# Density = 2.409795 g / cm^3
# Si number density = 24.152921 Si / 1000 Ang^3
#
#
#
# Elastic Constant Matrix: (Units=GPa)
#
#
# Indices 1 2 3 4 5 6 
#
# 1 61.7285 1.3530 8.2920 0.0000 0.0000 0.0000
# 2 1.3530 107.5575 53.7461 0.0000 0.0000 0.0000
# 3 8.2920 53.7461 123.8139 0.0000 0.0000 0.0000
# 4 0.0000 0.0000 0.0000 22.0397 0.0000 0.0000
# 5 0.0000 0.0000 0.0000 0.0000 46.4623 0.0000
# 6 0.0000 0.0000 0.0000 0.0000 0.0000 24.7250
#
#
#
# Elastic Compliance Matrix: (Units=1/GPa)
#
#
# Indices 1 2 3 4 5 6 
#
# 1 0.016363 0.000436 -0.001285 0.000000 0.000000 0.000000
# 2 0.000436 0.011884 -0.005188 0.000000 0.000000 0.000000
# 3 -0.001285 -0.005188 0.010415 0.000000 0.000000 0.000000
# 4 0.000000 0.000000 0.000000 0.045373 0.000000 0.000000
# 5 0.000000 0.000000 0.000000 0.000000 0.021523 0.000000
# 6 0.000000 0.000000 0.000000 0.000000 0.000000 0.040445
#
#
# Mechanical properties :
#
#
# Convention : Reuss Voigt Hill
#
# Bulk Modulus (GPa) = 37.61056 46.65357 42.13206
# Shear Modulus (GPa) = 29.95102 33.95931 31.95517
#
# Velocity S-wave (km/s) = 3.52527 3.75375 3.64130
# Velocity P-wave (km/s) = 5.67236 6.17619 5.92963
#
# Compressibility (1/GPa) = 0.02658828
#
# Stress axis : x y z
#
# Youngs Moduli (GPa) = 61.11328 84.14444 96.01722
#
# Poissons Ratio (x) = -0.03672 0.12341
# Poissons Ratio (y) = -0.02667 0.49814
# Poissons Ratio (z) = 0.07855 0.43655
#
# Static dielectric constant tensor:
#      x y z
#    x 4.270040 0.000000 0.000000 
#    y 0.000000 4.281710 0.000000 
#    z 0.000000 0.000000 4.468270 
# 
# 
# High freq. dielectric constant tensor:
#      x y z
#    x 1.965430 0.000000 0.000000 
#    y 0.000000 1.955960 0.000000 
#    z 0.000000 0.000000 1.967800 
# 
# From -- ./inp_files/17286.got.cif
#   From: 2010.03.12/outbox.cif.g09.slc.cpg/sg56_9_cif.got.tgz:17286.got - 2010.04.16 15:33:40.
