data_PCOD8229135
_publ_section_title
;
Structure prediction by ZEFSAII (Michael W. Deem and Ramdas Pophale) SiO2 
 PCOD8229135
Probable space group: P C C N
;
_chemical_formula_sum "Si O2"
_cell_formula_units_Z 56
_cell_length_a 14.377115
_cell_length_b 11.547749
_cell_length_c 15.135306
_cell_angle_alpha 90.000000
_cell_angle_beta 90.000000
_cell_angle_gamma 90.000000
_cell_volume 2512.813681
_symmetry_space_group_name_H-M "P C C N"
_symmetry_group_IT_number 56
_symmetry_cell_setting 'orthorhombic'
loop_
_space_group_symop_operation_xyz
x,y,z
1/2-x,1/2-y,z
1/2+x,-y,1/2-z
-x,1/2+y,1/2-z
-x,-y,-z
1/2+x,1/2+y,-z
1/2-x,y,1/2+z
x,1/2-y,1/2+z
loop_
_atom_site_type_symbol
_atom_site_label
_atom_site_fract_x
_atom_site_fract_y
_atom_site_fract_z
Si Si1 0.479383 0.818365 0.742592
Si Si2 0.003414 0.833723 0.574673
Si Si3 0.293921 0.624307 0.314017
Si Si4 0.358064 0.990757 0.985431
Si Si5 0.307015 0.365821 0.013991
Si Si6 0.375238 0.472775 0.844131
Si Si7 0.502653 0.671791 0.913984
O O1 0.487142 0.712914 0.673778
O O2 0.376443 0.877225 0.740634
O O3 0.556440 0.917046 0.727692
O O4 0.496713 0.768369 0.839217
O O5 0.079268 0.934761 0.561544
O O6 0.020708 0.727723 0.508532
O O7 0.903195 0.892171 0.556380
O O8 0.250000 0.750000 0.315980
O O9 0.340554 0.602230 0.408925
O O10 0.214280 0.528294 0.294450
O O11 0.260814 0.025356 0.030713
O O12 0.250000 0.250000 0.030551
O O13 0.391907 0.376440 0.082873
O O14 0.344094 0.372629 0.912486
O O15 0.429146 0.570263 0.899681
#
# Coordination Sequence:
#
# PCOD8229135 Si02
#       7
#     8   8   8   8   8   8   8
#     4  12  26  45  72 104 143 185 238 292 354 422
#     4  11  23  45  71 103 139 189 233 297 351 422
#     4  11  23  46  68 101 141 183 234 295 344 425
#     4  10  22  42  75  98 142 186 236 289 369 414
#     4  11  22  45  70 106 137 184 239 291 351 432
#     4  11  25  46  74  99 145 192 225 296 366 408
#     4  12  24  47  70  98 146 183 237 295 351 419
#
# _framework density 22.285774
#
# number of rings (size 3 to 8) (size 9 to 14) (size 15 to 20)
#    0.000    0.857    5.714    0.429    2.000    0.000 
#    5.143    0.000    0.000    0.000    0.000    0.000 
#    0.000    0.000    0.000    0.000    0.000    0.000 
#
# Total GULP energy -694540.446185 kJ/mol
# GULP energy per Si atom -12402.507968 kJ/mol
# Density = 2.223505 g / cm^3
# Si number density = 22.285774 Si / 1000 Ang^3
#
#
#
# Elastic Constant Matrix: (Units=GPa)
#
#
# Indices 1 2 3 4 5 6 
#
# 1 157.7223 36.1377 33.3526 0.0000 0.0000 0.0000
# 2 36.1377 61.8452 17.1909 0.0000 0.0000 0.0000
# 3 33.3526 17.1909 47.7676 0.0000 0.0000 0.0000
# 4 0.0000 0.0000 0.0000 22.2273 0.0000 0.0000
# 5 0.0000 0.0000 0.0000 0.0000 29.3808 0.0000
# 6 0.0000 0.0000 0.0000 0.0000 0.0000 43.8404
#
#
#
# Elastic Compliance Matrix: (Units=1/GPa)
#
#
# Indices 1 2 3 4 5 6 
#
# 1 0.008067 -0.003498 -0.004373 0.000000 0.000000 0.000000
# 2 -0.003498 0.019483 -0.004570 0.000000 0.000000 0.000000
# 3 -0.004373 -0.004570 0.025633 0.000000 0.000000 0.000000
# 4 0.000000 0.000000 0.000000 0.044990 0.000000 0.000000
# 5 0.000000 0.000000 0.000000 0.000000 0.034036 0.000000
# 6 0.000000 0.000000 0.000000 0.000000 0.000000 0.022810
#
#
# Mechanical properties :
#
#
# Convention : Reuss Voigt Hill
#
# Bulk Modulus (GPa) = 35.33420 48.96639 42.15029
# Shear Modulus (GPa) = 26.40840 31.13330 28.77085
#
# Velocity S-wave (km/s) = 3.44610 3.74171 3.59694
# Velocity P-wave (km/s) = 5.63237 6.37863 6.01708
#
# Compressibility (1/GPa) = 0.02830119
#
# Stress axis : x y z
#
# Youngs Moduli (GPa) = 123.96949 51.32565 39.01240
#
# Poissons Ratio (x) = 0.17953 0.17062
# Poissons Ratio (y) = 0.43362 0.17827
# Poissons Ratio (z) = 0.54217 0.23454
#
# Static dielectric constant tensor:
#      x y z
#    x 4.606620 0.000000 0.000000 
#    y 0.000000 4.030660 0.000000 
#    z 0.000000 0.000000 3.662190 
# 
# 
# High freq. dielectric constant tensor:
#      x y z
#    x 1.902250 0.000000 0.000000 
#    y 0.000000 1.886760 0.000000 
#    z 0.000000 0.000000 1.846420 
# 
# From -- ./inp_files/12291.got.cif
#   From: 2010.03.12/outbox.cif.g09.slc.cpg/sg56_7_cif.got.tgz:12291.got - 2010.04.16 15:33:40.
