data_PCOD8229132
_publ_section_title
;
Structure prediction by ZEFSAII (Michael W. Deem and Ramdas Pophale) SiO2 
 PCOD8229132
Probable space group: P C C N
;
_chemical_formula_sum "Si O2"
_cell_formula_units_Z 36
_cell_length_a 15.792347
_cell_length_b 9.591583
_cell_length_c 10.505157
_cell_angle_alpha 90.000000
_cell_angle_beta 90.000000
_cell_angle_gamma 90.000000
_cell_volume 1591.254023
_symmetry_space_group_name_H-M "P C C N"
_symmetry_group_IT_number 56
_symmetry_cell_setting 'orthorhombic'
loop_
_space_group_symop_operation_xyz
x,y,z
1/2-x,1/2-y,z
1/2+x,-y,1/2-z
-x,1/2+y,1/2-z
-x,-y,-z
1/2+x,1/2+y,-z
1/2-x,y,1/2+z
x,1/2-y,1/2+z
loop_
_atom_site_type_symbol
_atom_site_label
_atom_site_fract_x
_atom_site_fract_y
_atom_site_fract_z
Si Si1 0.125204 0.395206 0.457113
Si Si2 0.750000 0.750000 0.201235
Si Si3 0.527336 0.153812 0.610781
Si Si4 0.113820 0.737381 0.143215
Si Si5 0.258193 0.527914 0.136580
O O1 0.163022 0.263974 0.380739
O O2 0.061061 0.494042 0.377687
O O3 0.207714 0.486397 0.496629
O O4 0.073582 0.343256 0.582642
O O5 0.757550 0.610558 0.281213
O O6 0.572297 0.231328 0.492640
O O7 0.542992 0.226664 0.746279
O O8 0.164667 0.592395 0.128165
O O9 0.176685 0.858088 0.191986
#
# Coordination Sequence:
#
# PCOD8229132 Si02
#       5
#     8   4   8   8   8
#     4  10  23  41  62  94 136 176 214 276 339 394
#     4  12  22  40  62  92 132 174 210 280 334 402
#     4  10  22  43  68  94 133 172 224 276 330 397
#     4  10  22  42  71  96 124 177 223 274 326 398
#     4  10  23  39  66  94 130 167 229 267 331 400
#
# _framework density 22.623666
#
# number of rings (size 3 to 8) (size 9 to 14) (size 15 to 20)
#    0.000    1.778    2.222    0.667    6.222    1.778 
#    0.000    1.111    0.000    0.000    0.000    0.000 
#    0.000    0.000    0.000    0.000    0.000    0.000 
#
# Total GULP energy -446207.016086 kJ/mol
# GULP energy per Si atom -12394.639336 kJ/mol
# Density = 2.257217 g / cm^3
# Si number density = 22.623666 Si / 1000 Ang^3
#
#
#
# Elastic Constant Matrix: (Units=GPa)
#
#
# Indices 1 2 3 4 5 6 
#
# 1 71.5531 29.3470 14.4779 0.0000 0.0000 0.0000
# 2 29.3470 115.5000 18.7454 0.0000 0.0000 0.0000
# 3 14.4779 18.7454 60.8029 0.0000 0.0000 0.0000
# 4 0.0000 0.0000 0.0000 35.3089 0.0000 0.0000
# 5 0.0000 0.0000 0.0000 0.0000 31.4084 0.0000
# 6 0.0000 0.0000 0.0000 0.0000 0.0000 28.3231
#
#
#
# Elastic Compliance Matrix: (Units=1/GPa)
#
#
# Indices 1 2 3 4 5 6 
#
# 1 0.016010 -0.003631 -0.002693 0.000000 0.000000 0.000000
# 2 -0.003631 0.009937 -0.002199 0.000000 0.000000 0.000000
# 3 -0.002693 -0.002199 0.017766 0.000000 0.000000 0.000000
# 4 0.000000 0.000000 0.000000 0.028322 0.000000 0.000000
# 5 0.000000 0.000000 0.000000 0.000000 0.031839 0.000000
# 6 0.000000 0.000000 0.000000 0.000000 0.000000 0.035307
#
#
# Mechanical properties :
#
#
# Convention : Reuss Voigt Hill
#
# Bulk Modulus (GPa) = 37.49885 41.44406 39.47146
# Shear Modulus (GPa) = 30.28205 31.36046 30.82125
#
# Velocity S-wave (km/s) = 3.66254 3.72718 3.69500
# Velocity P-wave (km/s) = 5.87338 6.07299 5.97402
#
# Compressibility (1/GPa) = 0.02666748
#
# Stress axis : x y z
#
# Youngs Moduli (GPa) = 62.46246 100.62923 56.28809
#
# Poissons Ratio (x) = 0.36537 0.15157
# Poissons Ratio (y) = 0.22679 0.12379
# Poissons Ratio (z) = 0.16819 0.22130
#
# Static dielectric constant tensor:
#      x y z
#    x 4.502450 0.000000 0.000000 
#    y 0.000000 4.253560 0.000000 
#    z 0.000000 0.000000 3.860480 
# 
# 
# High freq. dielectric constant tensor:
#      x y z
#    x 1.897670 0.000000 0.000000 
#    y 0.000000 1.891500 0.000000 
#    z 0.000000 0.000000 1.875620 
# 
# From -- ./inp_files/7613.got.cif
#   From: 2010.03.12/outbox.cif.g09.slc.cpg/sg56_4_cif.got.tgz:7613.got - 2010.04.16 15:33:40.
