data_PCOD8229563
_publ_section_title
;
Structure prediction by ZEFSAII (Michael W. Deem and Ramdas Pophale) SiO2 
 PCOD8229563
Probable space group: P C C N
;
_chemical_formula_sum "Si O2"
_cell_formula_units_Z 48
_cell_length_a 9.789095
_cell_length_b 16.759728
_cell_length_c 13.604591
_cell_angle_alpha 90.000000
_cell_angle_beta 90.000000
_cell_angle_gamma 90.000000
_cell_volume 2232.004157
_symmetry_space_group_name_H-M "P C C N"
_symmetry_group_IT_number 56
_symmetry_cell_setting 'orthorhombic'
loop_
_space_group_symop_operation_xyz
x,y,z
1/2-x,1/2-y,z
1/2+x,-y,1/2-z
-x,1/2+y,1/2-z
-x,-y,-z
1/2+x,1/2+y,-z
1/2-x,y,1/2+z
x,1/2-y,1/2+z
loop_
_atom_site_type_symbol
_atom_site_label
_atom_site_fract_x
_atom_site_fract_y
_atom_site_fract_z
Si Si1 0.264129 0.340225 0.820087
Si Si2 0.367116 0.851203 0.944465
Si Si3 0.100322 0.063754 0.649899
Si Si4 0.913135 0.178333 0.132365
Si Si5 0.692499 0.836373 0.460615
Si Si6 0.046421 0.882348 0.660382
O O1 0.250000 0.250000 0.778280
O O2 0.362571 0.390162 0.749584
O O3 0.117494 0.382109 0.832000
O O4 0.341091 0.336619 0.924215
O O5 0.447124 0.921722 0.889476
O O6 0.206006 0.865855 0.929385
O O7 0.413600 0.771360 0.890090
O O8 0.404576 0.842354 0.059099
O O9 0.200364 0.093842 0.563604
O O10 0.111211 0.970084 0.667118
O O11 0.890821 0.166936 0.248786
O O12 0.057365 0.141340 0.100186
O O13 0.750000 0.750000 0.428566
#
# Coordination Sequence:
#
# PCOD8229563 Si02
#       6
#     8   8   8   8   8   8
#     4  11  23  43  76  99 135 189 242 279 338 421
#     4  11  25  45  68  96 144 183 219 290 355 406
#     4  12  24  41  70  98 141 178 226 284 352 406
#     4  11  25  43  69 102 134 175 244 278 332 425
#     4  11  21  43  71 102 130 185 245 281 329 418
#     4  12  26  43  70 103 140 179 227 292 358 406
#
# _framework density 21.505337000000001
#
# number of rings (size 3 to 8) (size 9 to 14) (size 15 to 20)
#    0.000    0.667    5.000    3.000    2.333    4.000 
#    0.000    1.667    0.000    0.000    0.000    0.000 
#    0.000    0.000    0.000    0.000    0.000    0.000 
#
# Total GULP energy -595362.875229 kJ/mol
# GULP energy per Si atom -12403.393234 kJ/mol
# Density = 2.145639 g / cm^3
# Si number density = 21.505337 Si / 1000 Ang^3
#
#
#
# Elastic Constant Matrix: (Units=GPa)
#
#
# Indices 1 2 3 4 5 6 
#
# 1 115.5091 22.1235 35.4761 0.0000 0.0000 0.0000
# 2 22.1235 123.3206 49.4716 0.0000 0.0000 0.0000
# 3 35.4761 49.4716 170.9525 0.0000 0.0000 0.0000
# 4 0.0000 0.0000 0.0000 15.7486 0.0000 0.0000
# 5 0.0000 0.0000 0.0000 0.0000 21.9236 0.0000
# 6 0.0000 0.0000 0.0000 0.0000 0.0000 28.6955
#
#
#
# Elastic Compliance Matrix: (Units=1/GPa)
#
#
# Indices 1 2 3 4 5 6 
#
# 1 0.009358 -0.001018 -0.001647 0.000000 0.000000 0.000000
# 2 -0.001018 0.009285 -0.002476 0.000000 0.000000 0.000000
# 3 -0.001647 -0.002476 0.006908 0.000000 0.000000 0.000000
# 4 0.000000 0.000000 0.000000 0.063498 0.000000 0.000000
# 5 0.000000 0.000000 0.000000 0.000000 0.045613 0.000000
# 6 0.000000 0.000000 0.000000 0.000000 0.000000 0.034849
#
#
# Mechanical properties :
#
#
# Convention : Reuss Voigt Hill
#
# Bulk Modulus (GPa) = 65.49319 69.32496 67.40908
# Shear Modulus (GPa) = 27.04428 33.45427 30.24928
#
# Velocity S-wave (km/s) = 3.55006 3.94842 3.75453
# Velocity P-wave (km/s) = 6.87927 7.28648 7.08580
#
# Compressibility (1/GPa) = 0.01526876
#
# Stress axis : x y z
#
# Youngs Moduli (GPa) = 106.85731 107.70413 144.76237
#
# Poissons Ratio (x) = 0.10964 0.23849
# Poissons Ratio (y) = 0.10878 0.35838
# Poissons Ratio (z) = 0.17604 0.26664
#
# Static dielectric constant tensor:
#      x y z
#    x 4.063890 0.000000 0.000000 
#    y 0.000000 3.712250 0.000000 
#    z 0.000000 0.000000 4.108740 
# 
# 
# High freq. dielectric constant tensor:
#      x y z
#    x 1.844960 0.000000 0.000000 
#    y 0.000000 1.828260 0.000000 
#    z 0.000000 0.000000 1.863870 
# 
# From -- ./inp_files/10699.got.cif
#   From: 2010.03.12/outbox.cif.g09.slc.cpg/sg56_6_cif.got.tgz:10699.got - 2010.04.16 15:33:40.
