data_PCOD8230199
_publ_section_title
;
Structure prediction by ZEFSAII (Michael W. Deem and Ramdas Pophale) SiO2 
 PCOD8230199
Probable space group: P B C M
;
_chemical_formula_sum "Si O2"
_cell_formula_units_Z 64
_cell_length_a 14.786377
_cell_length_b 29.695738
_cell_length_c 9.094035
_cell_angle_alpha 90.000000
_cell_angle_beta 90.000000
_cell_angle_gamma 90.000000
_cell_volume 3993.121448
_symmetry_space_group_name_H-M "P B C M"
_symmetry_group_IT_number 57
_symmetry_cell_setting 'orthorhombic'
loop_
_space_group_symop_operation_xyz
x,y,z
-x,-y,1/2+z
x,1/2-y,-z
-x,1/2+y,1/2-z
-x,-y,-z
x,y,1/2-z
-x,1/2+y,z
x,1/2-y,1/2+z
loop_
_atom_site_type_symbol
_atom_site_label
_atom_site_fract_x
_atom_site_fract_y
_atom_site_fract_z
Si Si1 0.630816 0.028991 0.080277
Si Si2 0.784351 0.793566 0.421131
Si Si3 0.005900 0.205553 0.578223
Si Si4 0.187260 0.539162 0.576625
Si Si5 0.135534 0.051166 0.921561
Si Si6 0.436746 0.441208 0.919361
Si Si7 0.304238 0.114972 0.579545
Si Si8 0.033750 0.607862 0.922678
O O1 0.658142 0.022181 0.250000
O O2 0.545185 0.062308 0.062891
O O3 0.715242 0.049553 0.993413
O O4 0.604366 0.980849 0.016694
O O5 0.742717 0.750000 0.500000
O O6 0.770660 0.786952 0.250000
O O7 0.888980 0.799571 0.461213
O O8 0.731600 0.837265 0.477511
O O9 0.964799 0.250000 0.500000
O O10 0.988683 0.211979 0.750000
O O11 0.960274 0.159310 0.517153
O O12 0.197562 0.532335 0.750000
O O13 0.139888 0.495253 0.510019
O O14 0.125953 0.582310 0.537934
O O15 0.120875 0.040156 0.750000
O O16 0.228089 0.077605 0.948110
O O17 0.052231 0.080376 0.986451
O O18 0.410192 0.449310 0.750000
O O19 0.392511 0.395658 0.981573
O O20 0.331647 0.116903 0.750000
O O21 0.016397 0.611487 0.750000
#
# Coordination Sequence:
#
# PCOD8230199 Si02
#       8
#     8   8   8   8   8   8   8   8
#     4  10  20  34  48  65  92 124 153 190 239 280
#     4   9  17  29  46  68  93 125 157 188 228 278
#     4   9  16  30  48  66  90 120 154 192 231 273
#     4  11  21  31  46  69  94 125 165 203 230 266
#     4  10  18  31  47  64  93 133 163 188 228 277
#     4  10  20  32  49  70  91 117 154 196 234 275
#     4  10  18  29  48  70  95 128 159 185 232 286
#     4   9  18  32  48  66  94 130 161 190 233 281
#
# _framework density 16.027562
#
# number of rings (size 3 to 8) (size 9 to 14) (size 15 to 20)
#    0.000    2.250    2.500    1.500    0.000    2.000 
#    0.000    2.500    0.000    0.000    0.000    0.875 
#    0.000    2.000    0.000    0.000    0.000    0.000 
#
# Total GULP energy -793518.805202 kJ/mol
# GULP energy per Si atom -12398.731331 kJ/mol
# Density = 1.599108 g / cm^3
# Si number density = 16.027562 Si / 1000 Ang^3
#
#
#
# Elastic Constant Matrix: (Units=GPa)
#
#
# Indices 1 2 3 4 5 6 
#
# 1 82.2081 51.3112 40.0485 0.0000 0.0000 0.0000
# 2 51.3112 133.3951 49.5332 0.0000 0.0000 0.0000
# 3 40.0485 49.5332 62.1066 0.0000 0.0000 0.0000
# 4 0.0000 0.0000 0.0000 25.6506 0.0000 0.0000
# 5 0.0000 0.0000 0.0000 0.0000 22.1265 0.0000
# 6 0.0000 0.0000 0.0000 0.0000 0.0000 21.3572
#
#
#
# Elastic Compliance Matrix: (Units=1/GPa)
#
#
# Indices 1 2 3 4 5 6 
#
# 1 0.019089 -0.003938 -0.009168 0.000000 0.000000 0.000000
# 2 -0.003938 0.011463 -0.006603 0.000000 0.000000 0.000000
# 3 -0.009168 -0.006603 0.027280 0.000000 0.000000 0.000000
# 4 0.000000 0.000000 0.000000 0.038985 0.000000 0.000000
# 5 0.000000 0.000000 0.000000 0.000000 0.045195 0.000000
# 6 0.000000 0.000000 0.000000 0.000000 0.000000 0.046823
#
#
# Mechanical properties :
#
#
# Convention : Reuss Voigt Hill
#
# Bulk Modulus (GPa) = 54.31024 62.16617 58.23820
# Shear Modulus (GPa) = 21.33193 22.94800 22.13996
#
# Velocity S-wave (km/s) = 3.65218 3.78800 3.72071
# Velocity P-wave (km/s) = 7.19331 7.61598 7.40766
#
# Compressibility (1/GPa) = 0.01841273
#
# Stress axis : x y z
#
# Youngs Moduli (GPa) = 52.38709 87.23512 36.65754
#
# Poissons Ratio (x) = 0.34355 0.33608
# Poissons Ratio (y) = 0.20631 0.24205
# Poissons Ratio (z) = 0.48029 0.57602
#
# Static dielectric constant tensor:
#      x y z
#    x 3.021490 0.000000 0.000000 
#    y 0.000000 3.171480 0.000000 
#    z 0.000000 0.000000 2.971240 
# 
# 
# High freq. dielectric constant tensor:
#      x y z
#    x 1.598400 0.000000 0.000000 
#    y 0.000000 1.605330 0.000000 
#    z 0.000000 0.000000 1.610960 
# 
# From -- ./inp_files/5966.got.cif
#   From: 2010.03.12/outbox.cif.g09.slc.cpg/sg57_3_cif.got.tgz:5966.got - 2010.04.16 15:48:40.
