data_PCOD8230259
_publ_section_title
;
Structure prediction by ZEFSAII (Michael W. Deem and Ramdas Pophale) SiO2 
 PCOD8230259
Probable space group: P B C M
;
_chemical_formula_sum "Si O2"
_cell_formula_units_Z 48
_cell_length_a 15.050090
_cell_length_b 20.460076
_cell_length_c 8.922648
_cell_angle_alpha 90.000000
_cell_angle_beta 90.000000
_cell_angle_gamma 90.000000
_cell_volume 2747.515176
_symmetry_space_group_name_H-M "P B C M"
_symmetry_group_IT_number 57
_symmetry_cell_setting 'orthorhombic'
loop_
_space_group_symop_operation_xyz
x,y,z
-x,-y,1/2+z
x,1/2-y,-z
-x,1/2+y,1/2-z
-x,-y,-z
x,y,1/2-z
-x,1/2+y,z
x,1/2-y,1/2+z
loop_
_atom_site_type_symbol
_atom_site_label
_atom_site_fract_x
_atom_site_fract_y
_atom_site_fract_z
Si Si1 0.619410 0.185971 0.572594
Si Si2 0.933447 0.550627 0.573640
Si Si3 0.802405 0.341149 0.920832
Si Si4 0.244388 0.511587 0.418760
Si Si5 0.422333 0.540827 0.925877
Si Si6 0.013774 0.813539 0.427303
O O1 0.570532 0.250000 0.500000
O O2 0.620449 0.193295 0.750000
O O3 0.718550 0.186452 0.509357
O O4 0.572128 0.117502 0.525270
O O5 0.943503 0.540945 0.750000
O O6 0.830913 0.539051 0.525006
O O7 0.000000 0.500000 0.500000
O O8 0.957597 0.623580 0.522451
O O9 0.801151 0.315094 0.750000
O O10 0.803689 0.418994 0.923763
O O11 0.887763 0.315968 0.006921
O O12 0.276809 0.495405 0.250000
O O13 0.328936 0.508843 0.526846
O O14 0.431565 0.534175 0.750000
O O15 0.500000 0.500000 0.000000
O O16 0.966338 0.750000 0.500000
O O17 0.018426 0.806891 0.250000
#
# Coordination Sequence:
#
# PCOD8230259 Si02
#       6
#     8   8   8   8   8   8
#     4  10  20  33  50  75 106 137 170 208 256 313
#     4  10  20  34  53  76 102 136 177 218 258 305
#     4  10  18  30  49  72 102 137 171 209 257 310
#     4   9  18  33  53  77 103 133 171 216 263 310
#     4  10  21  36  56  81 107 136 172 215 262 314
#     4  11  22  33  47  69 102 140 178 219 261 307
#
# _framework density 17.470331999999999
#
# number of rings (size 3 to 8) (size 9 to 14) (size 15 to 20)
#    0.000    2.000    1.667    2.500    0.000    4.000 
#    0.000    0.000    0.000    1.000    0.000    2.333 
#    0.000    0.000    0.000    0.000    0.000    0.000 
#
# Total GULP energy -595105.951634 kJ/mol
# GULP energy per Si atom -12398.040659 kJ/mol
# Density = 1.743057 g / cm^3
# Si number density = 17.470332 Si / 1000 Ang^3
#
#
#
# Elastic Constant Matrix: (Units=GPa)
#
#
# Indices 1 2 3 4 5 6 
#
# 1 83.8771 73.5445 41.5041 0.0000 0.0000 0.0000
# 2 73.5445 144.2410 57.9450 0.0000 0.0000 0.0000
# 3 41.5041 57.9450 76.2505 0.0000 0.0000 0.0000
# 4 0.0000 0.0000 0.0000 29.3364 0.0000 0.0000
# 5 0.0000 0.0000 0.0000 0.0000 26.2305 0.0000
# 6 0.0000 0.0000 0.0000 0.0000 0.0000 22.1879
#
#
#
# Elastic Compliance Matrix: (Units=1/GPa)
#
#
# Indices 1 2 3 4 5 6 
#
# 1 0.022894 -0.009597 -0.005169 0.000000 0.000000 0.000000
# 2 -0.009597 0.014002 -0.005417 0.000000 0.000000 0.000000
# 3 -0.005169 -0.005417 0.020045 0.000000 0.000000 0.000000
# 4 0.000000 0.000000 0.000000 0.034087 0.000000 0.000000
# 5 0.000000 0.000000 0.000000 0.000000 0.038124 0.000000
# 6 0.000000 0.000000 0.000000 0.000000 0.000000 0.045070
#
#
# Mechanical properties :
#
#
# Convention : Reuss Voigt Hill
#
# Bulk Modulus (GPa) = 60.32823 72.26177 66.29500
# Shear Modulus (GPa) = 22.71568 24.30929 23.51249
#
# Velocity S-wave (km/s) = 3.60980 3.73428 3.67257
# Velocity P-wave (km/s) = 7.20978 7.74890 7.48420
#
# Compressibility (1/GPa) = 0.01657599
#
# Stress axis : x y z
#
# Youngs Moduli (GPa) = 43.67875 71.41793 49.88866
#
# Poissons Ratio (x) = 0.68538 0.25787
# Poissons Ratio (y) = 0.41918 0.27024
# Poissons Ratio (z) = 0.22577 0.38687
#
# Static dielectric constant tensor:
#      x y z
#    x 3.034950 0.000000 0.000000 
#    y 0.000000 3.719410 0.000000 
#    z 0.000000 0.000000 3.570350 
# 
# 
# High freq. dielectric constant tensor:
#      x y z
#    x 1.641700 0.000000 0.000000 
#    y 0.000000 1.683860 0.000000 
#    z 0.000000 0.000000 1.684950 
# 
# From -- ./inp_files/4855.got.cif
#   From: 2010.03.12/outbox.cif.g09.slc.cpg/sg57_3_cif.got.tgz:4855.got - 2010.04.16 15:48:40.
