data_PCOD8230290
_publ_section_title
;
Structure prediction by ZEFSAII (Michael W. Deem and Ramdas Pophale) SiO2 
 PCOD8230290
Probable space group: P B C M
;
_chemical_formula_sum "Si O2"
_cell_formula_units_Z 40
_cell_length_a 12.461805
_cell_length_b 20.846199
_cell_length_c 8.858403
_cell_angle_alpha 90.000000
_cell_angle_beta 90.000000
_cell_angle_gamma 90.000000
_cell_volume 2301.247154
_symmetry_space_group_name_H-M "P B C M"
_symmetry_group_IT_number 57
_symmetry_cell_setting 'orthorhombic'
loop_
_space_group_symop_operation_xyz
x,y,z
-x,-y,1/2+z
x,1/2-y,-z
-x,1/2+y,1/2-z
-x,-y,-z
x,y,1/2-z
-x,1/2+y,z
x,1/2-y,1/2+z
loop_
_atom_site_type_symbol
_atom_site_label
_atom_site_fract_x
_atom_site_fract_y
_atom_site_fract_z
Si Si1 0.638079 0.447448 0.073048
Si Si2 0.426353 0.409426 0.572848
Si Si3 0.256269 0.180935 0.928139
Si Si4 0.142344 0.554524 0.426086
Si Si5 0.932684 0.913050 0.074465
O O1 0.626337 0.435634 0.250000
O O2 0.626071 0.522312 0.030885
O O3 0.547536 0.406475 0.988133
O O4 0.752690 0.422452 0.015596
O O5 0.426406 0.396777 0.750000
O O6 0.360860 0.353617 0.492287
O O7 0.269035 0.186293 0.750000
O O8 0.149601 0.142106 0.973342
O O9 0.244672 0.250000 0.000000
O O10 0.162114 0.564833 0.250000
O O11 0.120965 0.480651 0.467890
O O12 0.041497 0.597188 0.479599
O O13 0.962449 0.910674 0.250000
#
# Coordination Sequence:
#
# PCOD8230290 Si02
#       5
#     8   8   8   8   8
#     4  10  19  31  51  77 108 139 169 213 266 317
#     4  10  20  33  51  76 105 138 177 215 260 313
#     4  11  22  37  55  76 106 141 179 218 257 306
#     4  10  18  30  51  77 106 136 170 214 263 315
#     4   9  19  33  49  73 105 138 173 213 260 311
#
# _framework density 17.381879999999999
#
# number of rings (size 3 to 8) (size 9 to 14) (size 15 to 20)
#    0.000    2.000    2.000    2.400    0.000    4.000 
#    0.000    0.000    0.000    1.200    0.000    5.600 
#    0.000    0.000    0.000    0.000    0.000    0.000 
#
# Total GULP energy -496171.782025 kJ/mol
# GULP energy per Si atom -12404.294551 kJ/mol
# Density = 1.734232 g / cm^3
# Si number density = 17.381880 Si / 1000 Ang^3
#
#
#
# Elastic Constant Matrix: (Units=GPa)
#
#
# Indices 1 2 3 4 5 6 
#
# 1 145.1837 54.6499 56.2656 0.0000 0.0000 0.0000
# 2 54.6499 85.5164 38.6639 0.0000 0.0000 0.0000
# 3 56.2656 38.6639 75.2064 0.0000 0.0000 0.0000
# 4 0.0000 0.0000 0.0000 24.9242 0.0000 0.0000
# 5 0.0000 0.0000 0.0000 0.0000 37.3970 0.0000
# 6 0.0000 0.0000 0.0000 0.0000 0.0000 23.4715
#
#
#
# Elastic Compliance Matrix: (Units=1/GPa)
#
#
# Indices 1 2 3 4 5 6 
#
# 1 0.010752 -0.004214 -0.005878 0.000000 0.000000 0.000000
# 2 -0.004214 0.016886 -0.005529 0.000000 0.000000 0.000000
# 3 -0.005878 -0.005529 0.020537 0.000000 0.000000 0.000000
# 4 0.000000 0.000000 0.000000 0.040122 0.000000 0.000000
# 5 0.000000 0.000000 0.000000 0.000000 0.026740 0.000000
# 6 0.000000 0.000000 0.000000 0.000000 0.000000 0.042605
#
#
# Mechanical properties :
#
#
# Convention : Reuss Voigt Hill
#
# Bulk Modulus (GPa) = 59.05215 67.22947 63.14081
# Shear Modulus (GPa) = 25.70351 27.58036 26.64194
#
# Velocity S-wave (km/s) = 3.84963 3.98770 3.91927
# Velocity P-wave (km/s) = 7.33530 7.74366 7.54224
#
# Compressibility (1/GPa) = 0.01693419
#
# Stress axis : x y z
#
# Youngs Moduli (GPa) = 93.00778 59.22038 48.69365
#
# Poissons Ratio (x) = 0.24953 0.28621
# Poissons Ratio (y) = 0.39189 0.26922
# Poissons Ratio (z) = 0.54667 0.32742
#
# Static dielectric constant tensor:
#      x y z
#    x 3.337610 0.000000 0.000000 
#    y 0.000000 2.885280 0.000000 
#    z 0.000000 0.000000 3.274990 
# 
# 
# High freq. dielectric constant tensor:
#      x y z
#    x 1.685150 0.000000 0.000000 
#    y 0.000000 1.625480 0.000000 
#    z 0.000000 0.000000 1.686150 
# 
# From -- ./inp_files/2630.got.cif
#   From: 2010.03.12/outbox.cif.g09.slc.cpg/sg57_2_cif.got.tgz:2630.got - 2010.04.16 15:48:40.
