data_PCOD8230058
_publ_section_title
;
Structure prediction by ZEFSAII (Michael W. Deem and Ramdas Pophale) SiO2 
 PCOD8230058
Probable space group: P B C M
;
_chemical_formula_sum "Si O2"
_cell_formula_units_Z 56
_cell_length_a 17.635339
_cell_length_b 21.908707
_cell_length_c 9.427426
_cell_angle_alpha 90.000000
_cell_angle_beta 90.000000
_cell_angle_gamma 90.000000
_cell_volume 3642.450779
_symmetry_space_group_name_H-M "P B C M"
_symmetry_group_IT_number 57
_symmetry_cell_setting 'orthorhombic'
loop_
_space_group_symop_operation_xyz
x,y,z
-x,-y,1/2+z
x,1/2-y,-z
-x,1/2+y,1/2-z
-x,-y,-z
x,y,1/2-z
-x,1/2+y,z
x,1/2-y,1/2+z
loop_
_atom_site_type_symbol
_atom_site_label
_atom_site_fract_x
_atom_site_fract_y
_atom_site_fract_z
Si Si1 0.086591 0.043677 0.411693
Si Si2 0.071555 0.576489 0.087079
Si Si3 0.250239 0.466719 0.909673
Si Si4 0.345731 0.688615 0.914544
Si Si5 0.793658 0.106443 0.913780
Si Si6 0.549631 0.079731 0.911942
Si Si7 0.610284 0.968443 0.086162
O O1 0.082235 0.016108 0.250000
O O2 0.171493 0.071259 0.431942
O O3 0.018629 0.093741 0.429624
O O4 0.077149 0.992082 0.529657
O O5 0.097240 0.578667 0.250000
O O6 0.128411 0.620229 0.999765
O O7 0.280535 0.458999 0.750000
O O8 0.234605 0.537898 0.943256
O O9 0.314368 0.440482 0.014462
O O10 0.338993 0.705029 0.750000
O O11 0.270713 0.652973 0.966579
O O12 0.419711 0.647180 0.944589
O O13 0.356139 0.750000 0.000000
O O14 0.812041 0.116710 0.750000
O O15 0.570042 0.061027 0.750000
O O16 0.458999 0.078842 0.935828
O O17 0.590924 0.032703 0.014690
O O18 0.626990 0.980607 0.250000
#
# Coordination Sequence:
#
# PCOD8230058 Si02
#       7
#     8   8   8   8   8   8   8
#     4   8  15  25  35  51  79 114 139 160 201 245
#     4   9  15  23  37  56  77 103 141 177 196 228
#     4   9  15  26  41  56  83 117 141 163 207 259
#     4  10  20  34  48  61  82 112 145 179 216 258
#     4   9  17  29  42  55  79 114 141 165 212 260
#     4   9  18  33  45  57  83 115 138 168 221 265
#     4  10  18  26  43  66  84 106 143 180 207 251
#
# _framework density 15.374264999999999
#
# number of rings (size 3 to 8) (size 9 to 14) (size 15 to 20)
#    0.000    2.857    1.429    1.714    0.000    4.571 
#    0.000    0.000    0.000    0.000    0.000    0.000 
#    0.000    1.143    0.000    5.143    0.000    4.714 
#
# Total GULP energy -693868.423975 kJ/mol
# GULP energy per Si atom -12390.507571 kJ/mol
# Density = 1.533927 g / cm^3
# Si number density = 15.374265 Si / 1000 Ang^3
#
#
#
# Elastic Constant Matrix: (Units=GPa)
#
#
# Indices 1 2 3 4 5 6 
#
# 1 145.5729 39.7294 67.3638 0.0000 0.0000 0.0000
# 2 39.7294 45.9999 26.4926 0.0000 0.0000 0.0000
# 3 67.3638 26.4926 79.6834 0.0000 0.0000 0.0000
# 4 0.0000 0.0000 0.0000 17.1848 0.0000 0.0000
# 5 0.0000 0.0000 0.0000 0.0000 29.5125 0.0000
# 6 0.0000 0.0000 0.0000 0.0000 0.0000 14.0728
#
#
#
# Elastic Compliance Matrix: (Units=1/GPa)
#
#
# Indices 1 2 3 4 5 6 
#
# 1 0.012415 -0.005786 -0.008572 0.000000 0.000000 0.000000
# 2 -0.005786 0.029584 -0.004945 0.000000 0.000000 0.000000
# 3 -0.008572 -0.004945 0.021440 0.000000 0.000000 0.000000
# 4 0.000000 0.000000 0.000000 0.058191 0.000000 0.000000
# 5 0.000000 0.000000 0.000000 0.000000 0.033884 0.000000
# 6 0.000000 0.000000 0.000000 0.000000 0.000000 0.071059
#
#
# Mechanical properties :
#
#
# Convention : Reuss Voigt Hill
#
# Bulk Modulus (GPa) = 40.26638 59.82530 50.04584
# Shear Modulus (GPa) = 18.28441 21.33204 19.80823
#
# Velocity S-wave (km/s) = 3.45235 3.72898 3.59333
# Velocity P-wave (km/s) = 6.49147 7.58535 7.05963
#
# Compressibility (1/GPa) = 0.02483461
#
# Stress axis : x y z
#
# Youngs Moduli (GPa) = 80.54626 33.80193 46.64101
#
# Poissons Ratio (x) = 0.19558 0.39981
# Poissons Ratio (y) = 0.46604 0.23062
# Poissons Ratio (z) = 0.69045 0.16713
#
# Static dielectric constant tensor:
#      x y z
#    x 3.525600 0.000000 0.000000 
#    y 0.000000 2.371920 0.000000 
#    z 0.000000 0.000000 3.028720 
# 
# 
# High freq. dielectric constant tensor:
#      x y z
#    x 1.612480 0.000000 0.000000 
#    y 0.000000 1.506570 0.000000 
#    z 0.000000 0.000000 1.599230 
# 
# From -- ./inp_files/7086.got.cif
#   From: 2010.03.12/outbox.cif.g09.slc.cpg/sg57_4_cif.got.tgz:7086.got - 2010.04.16 15:48:40.
