data_PCOD8230349
_publ_section_title
;
Structure prediction by ZEFSAII (Michael W. Deem and Ramdas Pophale) SiO2 
 PCOD8230349
Probable space group: P B C M
;
_chemical_formula_sum "Si O2"
_cell_formula_units_Z 64
_cell_length_a 21.332345
_cell_length_b 18.772908
_cell_length_c 8.957052
_cell_angle_alpha 90.000000
_cell_angle_beta 90.000000
_cell_angle_gamma 90.000000
_cell_volume 3587.031959
_symmetry_space_group_name_H-M "P B C M"
_symmetry_group_IT_number 57
_symmetry_cell_setting 'orthorhombic'
loop_
_space_group_symop_operation_xyz
x,y,z
-x,-y,1/2+z
x,1/2-y,-z
-x,1/2+y,1/2-z
-x,-y,-z
x,y,1/2-z
-x,1/2+y,z
x,1/2-y,1/2+z
loop_
_atom_site_type_symbol
_atom_site_label
_atom_site_fract_x
_atom_site_fract_y
_atom_site_fract_z
Si Si1 0.818258 0.524451 0.083465
Si Si2 0.887843 0.319508 0.926078
Si Si3 0.063037 0.526563 0.074077
Si Si4 0.480618 0.573727 0.573247
Si Si5 0.298266 0.430045 0.422795
Si Si6 0.233209 0.633706 0.581924
Si Si7 0.648972 0.413575 0.924098
Si Si8 0.405668 0.174131 0.925379
O O1 0.835075 0.550868 0.250000
O O2 0.788079 0.447316 0.087178
O O3 0.881015 0.523335 0.984973
O O4 0.767008 0.577273 0.011933
O O5 0.884704 0.310102 0.750000
O O6 0.925884 0.390751 0.970210
O O7 0.921162 0.250000 0.000000
O O8 0.817571 0.321466 0.990571
O O9 0.058817 0.517085 0.250000
O O10 0.000000 0.500000 0.000000
O O11 0.500000 0.500000 0.500000
O O12 0.475654 0.562770 0.750000
O O13 0.415626 0.602299 0.507701
O O14 0.532122 0.631929 0.528827
O O15 0.281642 0.421189 0.250000
O O16 0.332845 0.504630 0.450578
O O17 0.344618 0.368845 0.481610
O O18 0.239787 0.664118 0.750000
O O19 0.299153 0.638756 0.495506
O O20 0.642133 0.395793 0.750000
O O21 0.402146 0.184045 0.750000
O O22 0.406638 0.250000 0.000000
#
# Coordination Sequence:
#
# PCOD8230349 Si02
#       8
#     8   8   8   8   8   8   8   8
#     4   9  17  29  49  78 105 131 168 210 253 302
#     4  10  20  34  53  78 108 145 183 222 268 319
#     4  10  20  34  54  81 113 148 183 221 266 312
#     4  11  21  35  53  76 103 134 178 226 273 328
#     4   9  17  32  51  73 102 131 164 211 263 313
#     4   9  17  30  48  74 104 134 169 211 256 308
#     4  10  18  31  51  76 103 131 169 218 267 314
#     4  10  22  38  53  74 103 136 173 219 274 330
#
# _framework density 17.842048999999999
#
# number of rings (size 3 to 8) (size 9 to 14) (size 15 to 20)
#    0.000    2.250    1.250    2.250    0.000    6.500 
#    0.000    0.625    0.000    2.250    0.000    5.250 
#    0.000    0.000    0.000    0.000    0.000    0.000 
#
# Total GULP energy -793614.053405 kJ/mol
# GULP energy per Si atom -12400.219584 kJ/mol
# Density = 1.780144 g / cm^3
# Si number density = 17.842049 Si / 1000 Ang^3
#
#
#
# Elastic Constant Matrix: (Units=GPa)
#
#
# Indices 1 2 3 4 5 6 
#
# 1 148.5053 54.4968 68.8897 0.0000 0.0000 0.0000
# 2 54.4968 80.9597 47.7217 0.0000 0.0000 0.0000
# 3 68.8897 47.7217 104.8066 0.0000 0.0000 0.0000
# 4 0.0000 0.0000 0.0000 27.0839 0.0000 0.0000
# 5 0.0000 0.0000 0.0000 0.0000 37.0041 0.0000
# 6 0.0000 0.0000 0.0000 0.0000 0.0000 19.3292
#
#
#
# Elastic Compliance Matrix: (Units=1/GPa)
#
#
# Indices 1 2 3 4 5 6 
#
# 1 0.010617 -0.004146 -0.005091 0.000000 0.000000 0.000000
# 2 -0.004146 0.018502 -0.005700 0.000000 0.000000 0.000000
# 3 -0.005091 -0.005700 0.015483 0.000000 0.000000 0.000000
# 4 0.000000 0.000000 0.000000 0.036922 0.000000 0.000000
# 5 0.000000 0.000000 0.000000 0.000000 0.027024 0.000000
# 6 0.000000 0.000000 0.000000 0.000000 0.000000 0.051735
#
#
# Mechanical properties :
#
#
# Convention : Reuss Voigt Hill
#
# Bulk Modulus (GPa) = 67.89113 75.16533 71.52823
# Shear Modulus (GPa) = 25.63253 27.56100 26.59677
#
# Velocity S-wave (km/s) = 3.79441 3.93456 3.86512
# Velocity P-wave (km/s) = 7.57169 7.92847 7.75213
#
# Compressibility (1/GPa) = 0.01472946
#
# Stress axis : x y z
#
# Youngs Moduli (GPa) = 94.19206 54.04800 64.58828
#
# Poissons Ratio (x) = 0.22407 0.32880
# Poissons Ratio (y) = 0.39049 0.36813
# Poissons Ratio (z) = 0.47950 0.30805
#
# Static dielectric constant tensor:
#      x y z
#    x 3.027780 0.000000 0.000000 
#    y 0.000000 3.095540 0.000000 
#    z 0.000000 0.000000 3.463290 
# 
# 
# High freq. dielectric constant tensor:
#      x y z
#    x 1.688570 0.000000 0.000000 
#    y 0.000000 1.660440 0.000000 
#    z 0.000000 0.000000 1.703910 
# 
# From -- ./inp_files/8386.got.cif
#   From: 2010.03.12/outbox.cif.g09.slc.cpg/sg57_5_cif.got.tgz:8386.got - 2010.04.16 15:48:40.
