data_PCOD8230527
_publ_section_title
;
Structure prediction by ZEFSAII (Michael W. Deem and Ramdas Pophale) SiO2 
 PCOD8230527
Probable space group: P B C M
;
_chemical_formula_sum "Si O2"
_cell_formula_units_Z 48
_cell_length_a 9.045288
_cell_length_b 16.759208
_cell_length_c 17.974394
_cell_angle_alpha 90.000000
_cell_angle_beta 90.000000
_cell_angle_gamma 90.000000
_cell_volume 2724.771873
_symmetry_space_group_name_H-M "P B C M"
_symmetry_group_IT_number 57
_symmetry_cell_setting 'orthorhombic'
loop_
_space_group_symop_operation_xyz
x,y,z
-x,-y,1/2+z
x,1/2-y,-z
-x,1/2+y,1/2-z
-x,-y,-z
x,y,1/2-z
-x,1/2+y,z
x,1/2-y,1/2+z
loop_
_atom_site_type_symbol
_atom_site_label
_atom_site_fract_x
_atom_site_fract_y
_atom_site_fract_z
Si Si1 0.584959 0.713851 0.576449
Si Si2 0.343635 0.696513 0.162462
Si Si3 0.156367 0.651563 0.836367
Si Si4 0.822566 0.880614 0.161804
Si Si5 0.334731 0.972311 0.906053
Si Si6 0.385355 0.937237 0.429037
O O1 0.648263 0.750000 0.500000
O O2 0.495575 0.779155 0.623171
O O3 0.719319 0.687603 0.628182
O O4 0.479699 0.641327 0.552810
O O5 0.371316 0.691481 0.250000
O O6 0.215039 0.760214 0.142714
O O7 0.294255 0.611367 0.131289
O O8 0.175256 0.635447 0.750000
O O9 0.251176 0.582041 0.874569
O O10 0.987843 0.643064 0.861625
O O11 0.800183 0.883483 0.250000
O O12 0.782869 0.966042 0.127396
O O13 0.504785 0.998895 0.889447
O O14 0.315406 0.970836 0.995098
#
# Coordination Sequence:
#
# PCOD8230527 Si02
#       6
#     8   8   8   8   8   8
#     4  10  18  34  54  78 107 139 176 221 263 310
#     4  10  19  33  56  81 103 136 182 225 261 306
#     4   9  20  37  54  75 108 147 180 213 261 323
#     4  10  21  37  54  76 110 147 177 210 265 327
#     4  10  19  33  56  82 106 136 175 226 267 309
#     4   9  19  34  55  78 109 136 174 220 268 315
#
# _framework density 17.616152
#
# number of rings (size 3 to 8) (size 9 to 14) (size 15 to 20)
#    0.000    2.333    1.667    1.000    0.000    5.333 
#    3.000    1.667    0.000    2.000    0.000    0.000 
#    0.000    0.000    0.000    0.000    0.000    0.000 
#
# Total GULP energy -595238.499224 kJ/mol
# GULP energy per Si atom -12400.802067 kJ/mol
# Density = 1.757606 g / cm^3
# Si number density = 17.616152 Si / 1000 Ang^3
#
#
#
# Elastic Constant Matrix: (Units=GPa)
#
#
# Indices 1 2 3 4 5 6 
#
# 1 112.2664 57.2125 56.5596 0.0000 0.0000 0.0000
# 2 57.2125 101.4558 45.9092 0.0000 0.0000 0.0000
# 3 56.5596 45.9092 78.5719 0.0000 0.0000 0.0000
# 4 0.0000 0.0000 0.0000 35.3609 0.0000 0.0000
# 5 0.0000 0.0000 0.0000 0.0000 25.1647 0.0000
# 6 0.0000 0.0000 0.0000 0.0000 0.0000 18.0624
#
#
#
# Elastic Compliance Matrix: (Units=1/GPa)
#
#
# Indices 1 2 3 4 5 6 
#
# 1 0.015692 -0.005081 -0.008327 0.000000 0.000000 0.000000
# 2 -0.005081 0.015044 -0.005133 0.000000 0.000000 0.000000
# 3 -0.008327 -0.005133 0.021720 0.000000 0.000000 0.000000
# 4 0.000000 0.000000 0.000000 0.028280 0.000000 0.000000
# 5 0.000000 0.000000 0.000000 0.000000 0.039738 0.000000
# 6 0.000000 0.000000 0.000000 0.000000 0.000000 0.055364
#
#
# Mechanical properties :
#
#
# Convention : Reuss Voigt Hill
#
# Bulk Modulus (GPa) = 65.03997 67.96186 66.50092
# Shear Modulus (GPa) = 22.93109 24.55844 23.74476
#
# Velocity S-wave (km/s) = 3.61183 3.73780 3.67536
# Velocity P-wave (km/s) = 7.37527 7.56910 7.47281
#
# Compressibility (1/GPa) = 0.01537516
#
# Stress axis : x y z
#
# Youngs Moduli (GPa) = 63.72784 66.47014 46.03960
#
# Poissons Ratio (x) = 0.33772 0.38337
# Poissons Ratio (y) = 0.32379 0.23632
# Poissons Ratio (z) = 0.53066 0.34119
#
# Static dielectric constant tensor:
#      x y z
#    x 3.227930 0.000000 0.000000 
#    y 0.000000 3.357720 0.000000 
#    z 0.000000 0.000000 3.274680 
# 
# 
# High freq. dielectric constant tensor:
#      x y z
#    x 1.666200 0.000000 0.000000 
#    y 0.000000 1.683900 0.000000 
#    z 0.000000 0.000000 1.690140 
# 
# From -- ./inp_files/16391.got.cif
#   From: 2010.03.12/outbox.cif.g09.slc.cpg/sg57_9_cif.got.tgz:16391.got - 2010.04.16 15:48:40.
