data_PCOD8230237
_publ_section_title
;
Structure prediction by ZEFSAII (Michael W. Deem and Ramdas Pophale) SiO2 
 PCOD8230237
Probable space group: P B C M
;
_chemical_formula_sum "Si O2"
_cell_formula_units_Z 56
_cell_length_a 17.912909
_cell_length_b 20.060432
_cell_length_c 9.047340
_cell_angle_alpha 90.000000
_cell_angle_beta 90.000000
_cell_angle_gamma 90.000000
_cell_volume 3251.077425
_symmetry_space_group_name_H-M "P B C M"
_symmetry_group_IT_number 57
_symmetry_cell_setting 'orthorhombic'
loop_
_space_group_symop_operation_xyz
x,y,z
-x,-y,1/2+z
x,1/2-y,-z
-x,1/2+y,1/2-z
-x,-y,-z
x,y,1/2-z
-x,1/2+y,z
x,1/2-y,1/2+z
loop_
_atom_site_type_symbol
_atom_site_label
_atom_site_fract_x
_atom_site_fract_y
_atom_site_fract_z
Si Si1 0.339092 0.436649 0.418941
Si Si2 0.960153 0.937932 0.424150
Si Si3 0.214494 0.891517 0.423057
Si Si4 0.483277 0.069576 0.424564
Si Si5 0.191940 0.455607 0.925368
Si Si6 0.642861 0.405299 0.585650
Si Si7 0.929789 0.317863 0.077577
O O1 0.333171 0.411948 0.250000
O O2 0.409163 0.399607 0.499112
O O3 0.263943 0.417925 0.507526
O O4 0.351845 0.515306 0.428746
O O5 0.952467 0.952176 0.250000
O O6 0.880251 0.924255 0.497595
O O7 0.007803 0.872370 0.456436
O O8 0.000000 0.000000 0.500000
O O9 0.218063 0.885356 0.250000
O O10 0.295957 0.869851 0.482516
O O11 0.149903 0.843529 0.486318
O O12 0.194345 0.966681 0.469327
O O13 0.469765 0.059212 0.250000
O O14 0.557106 0.115668 0.452702
O O15 0.500000 0.000000 0.500000
O O16 0.188926 0.444788 0.750000
O O17 0.662918 0.382273 0.750000
O O18 0.922866 0.304133 0.250000
O O19 0.953774 0.250000 0.000000
#
# Coordination Sequence:
#
# PCOD8230237 Si02
#       7
#     8   8   8   8   8   8   8
#     4   9  16  25  37  58  87 120 157 194 237 287
#     4  11  21  35  53  74 100 127 165 209 252 303
#     4   9  17  30  45  64  92 121 156 199 240 286
#     4   9  15  23  34  52  82 119 156 194 234 281
#     4  10  18  30  47  69  95 124 160 202 248 294
#     4   8  15  24  36  57  83 115 157 193 228 278
#     4  10  22  38  52  72  99 129 165 207 252 302
#
# _framework density 17.225058000000001
#
# number of rings (size 3 to 8) (size 9 to 14) (size 15 to 20)
#    0.000    2.571    1.429    2.571    0.000    6.286 
#    0.000    0.000    0.000    0.000    0.000    0.000 
#    0.000    1.143    0.000    5.714    0.000    6.571 
#
# Total GULP energy -694077.341349 kJ/mol
# GULP energy per Si atom -12394.238238 kJ/mol
# Density = 1.718585 g / cm^3
# Si number density = 17.225058 Si / 1000 Ang^3
#
#
#
# Elastic Constant Matrix: (Units=GPa)
#
#
# Indices 1 2 3 4 5 6 
#
# 1 168.8740 35.2219 67.0623 0.0000 0.0000 0.0000
# 2 35.2219 44.5557 31.4435 0.0000 0.0000 0.0000
# 3 67.0623 31.4435 86.7234 0.0000 0.0000 0.0000
# 4 0.0000 0.0000 0.0000 15.7053 0.0000 0.0000
# 5 0.0000 0.0000 0.0000 0.0000 39.3169 0.0000
# 6 0.0000 0.0000 0.0000 0.0000 0.0000 10.8300
#
#
#
# Elastic Compliance Matrix: (Units=1/GPa)
#
#
# Indices 1 2 3 4 5 6 
#
# 1 0.008816 -0.002900 -0.005766 0.000000 0.000000 0.000000
# 2 -0.002900 0.031115 -0.009039 0.000000 0.000000 0.000000
# 3 -0.005766 -0.009039 0.019267 0.000000 0.000000 0.000000
# 4 0.000000 0.000000 0.000000 0.063673 0.000000 0.000000
# 5 0.000000 0.000000 0.000000 0.000000 0.025434 0.000000
# 6 0.000000 0.000000 0.000000 0.000000 0.000000 0.092336
#
#
# Mechanical properties :
#
#
# Convention : Reuss Voigt Hill
#
# Bulk Modulus (GPa) = 42.03732 63.06763 52.55248
# Shear Modulus (GPa) = 17.60680 24.26547 20.93613
#
# Velocity S-wave (km/s) = 3.20060 3.75738 3.49011
# Velocity P-wave (km/s) = 6.17383 7.45099 6.84227
#
# Compressibility (1/GPa) = 0.02378838
#
# Stress axis : x y z
#
# Youngs Moduli (GPa) = 113.42737 32.13858 51.90261
#
# Poissons Ratio (x) = 0.09321 0.29927
# Poissons Ratio (y) = 0.32897 0.46914
# Poissons Ratio (z) = 0.65402 0.29049
#
# Static dielectric constant tensor:
#      x y z
#    x 4.153870 0.000000 0.000000 
#    y 0.000000 2.654560 0.000000 
#    z 0.000000 0.000000 3.304630 
# 
# 
# High freq. dielectric constant tensor:
#      x y z
#    x 1.691070 0.000000 0.000000 
#    y 0.000000 1.583210 0.000000 
#    z 0.000000 0.000000 1.674920 
# 
# From -- ./inp_files/6985.got.cif
#   From: 2010.03.12/outbox.cif.g09.slc.cpg/sg57_4_cif.got.tgz:6985.got - 2010.04.16 15:48:40.
