data_PCOD8230567
_publ_section_title
;
Structure prediction by ZEFSAII (Michael W. Deem and Ramdas Pophale) SiO2 
 PCOD8230567
Probable space group: P B C M
;
_chemical_formula_sum "Si O2"
_cell_formula_units_Z 64
_cell_length_a 18.895570
_cell_length_b 9.864044
_cell_length_c 16.302206
_cell_angle_alpha 90.000000
_cell_angle_beta 90.000000
_cell_angle_gamma 90.000000
_cell_volume 3038.514931
_symmetry_space_group_name_H-M "P B C M"
_symmetry_group_IT_number 57
_symmetry_cell_setting 'orthorhombic'
loop_
_space_group_symop_operation_xyz
x,y,z
-x,-y,1/2+z
x,1/2-y,-z
-x,1/2+y,1/2-z
-x,-y,-z
x,y,1/2-z
-x,1/2+y,z
x,1/2-y,1/2+z
loop_
_atom_site_type_symbol
_atom_site_label
_atom_site_fract_x
_atom_site_fract_y
_atom_site_fract_z
Si Si1 0.046157 0.198537 0.848118
Si Si2 0.282959 0.844492 0.847864
Si Si3 0.926365 0.999004 0.847489
Si Si4 0.298026 0.209904 0.093412
Si Si5 0.544389 0.714292 0.906302
Si Si6 0.766925 0.052125 0.847629
Si Si7 0.562680 0.424783 0.844361
Si Si8 0.809188 0.915111 0.156112
O O1 0.049370 0.199998 0.750000
O O2 0.045923 0.353463 0.880655
O O3 0.115428 0.121823 0.884628
O O4 0.977339 0.118609 0.880827
O O5 0.283009 0.849847 0.750000
O O6 0.258577 0.698234 0.878956
O O7 0.361129 0.880683 0.880818
O O8 0.227446 0.953714 0.885344
O O9 0.928164 0.999550 0.750000
O O10 0.847019 0.027315 0.878063
O O11 0.376771 0.246823 0.121689
O O12 0.242955 0.287312 0.151258
O O13 0.285612 0.050967 0.106954
O O14 0.284059 0.250000 0.000000
O O15 0.532650 0.553884 0.893791
O O16 0.489947 0.798126 0.851172
O O17 0.529829 0.750000 0.000000
O O18 0.760177 0.036814 0.750000
O O19 0.569920 0.467514 0.750000
O O20 0.823690 0.950101 0.250000
#
# Coordination Sequence:
#
# PCOD8230567 Si02
#       8
#     8   8   8   8   8   8   8   8
#     4   9  17  27  46  78 112 146 183 231 291 345
#     4   9  20  35  56  86 116 144 185 241 295 339
#     4   9  17  28  46  79 115 146 185 233 290 349
#     4  11  23  39  60  83 112 152 201 239 285 345
#     4  11  25  43  62  86 123 161 200 242 307 366
#     4  10  20  36  58  86 117 150 192 245 296 346
#     4  11  23  41  63  92 120 154 202 251 297 357
#     4  10  18  35  58  81 112 151 190 237 290 343
#
# _framework density 21.062920999999999
#
# number of rings (size 3 to 8) (size 9 to 14) (size 15 to 20)
#    0.000    2.000    2.500    1.125    3.500    1.500 
#    0.000    0.625    0.000    0.750    0.000    0.000 
#    0.000    0.000    0.000    0.000    0.000    0.000 
#
# Total GULP energy -793680.703531 kJ/mol
# GULP energy per Si atom -12401.260993 kJ/mol
# Density = 2.101498 g / cm^3
# Si number density = 21.062921 Si / 1000 Ang^3
#
#
#
# Elastic Constant Matrix: (Units=GPa)
#
#
# Indices 1 2 3 4 5 6 
#
# 1 105.0004 54.9142 9.6031 0.0000 0.0000 0.0000
# 2 54.9142 177.2568 13.8395 0.0000 0.0000 0.0000
# 3 9.6031 13.8395 24.4448 0.0000 0.0000 0.0000
# 4 0.0000 0.0000 0.0000 18.5560 0.0000 0.0000
# 5 0.0000 0.0000 0.0000 0.0000 10.3788 0.0000
# 6 0.0000 0.0000 0.0000 0.0000 0.0000 46.6730
#
#
#
# Elastic Compliance Matrix: (Units=1/GPa)
#
#
# Indices 1 2 3 4 5 6 
#
# 1 0.011524 -0.003365 -0.002622 0.000000 0.000000 0.000000
# 2 -0.003365 0.006885 -0.002576 0.000000 0.000000 0.000000
# 3 -0.002622 -0.002576 0.043397 0.000000 0.000000 0.000000
# 4 0.000000 0.000000 0.000000 0.053891 0.000000 0.000000
# 5 0.000000 0.000000 0.000000 0.000000 0.096351 0.000000
# 6 0.000000 0.000000 0.000000 0.000000 0.000000 0.021426
#
#
# Mechanical properties :
#
#
# Convention : Reuss Voigt Hill
#
# Bulk Modulus (GPa) = 22.38159 51.49061 36.93610
# Shear Modulus (GPa) = 18.83294 30.34457 24.58876
#
# Velocity S-wave (km/s) = 2.99344 3.79972 3.42042
# Velocity P-wave (km/s) = 4.75360 6.61436 5.75962
#
# Compressibility (1/GPa) = 0.04467957
#
# Stress axis : x y z
#
# Youngs Moduli (GPa) = 86.77867 145.23839 23.04311
#
# Poissons Ratio (x) = 0.48877 0.06041
# Poissons Ratio (y) = 0.29204 0.05936
# Poissons Ratio (z) = 0.22751 0.37414
#
# Static dielectric constant tensor:
#      x y z
#    x 3.990390 0.000000 0.000000 
#    y 0.000000 3.992440 0.000000 
#    z 0.000000 0.000000 3.212810 
# 
# 
# High freq. dielectric constant tensor:
#      x y z
#    x 1.834110 0.000000 0.000000 
#    y 0.000000 1.839120 0.000000 
#    z 0.000000 0.000000 1.775280 
# 
# From -- ./inp_files/23070.got.cif
#   From: 2010.03.12/outbox.cif.g09.slc.cpg/sg57_12_cif.got.tgz:23070.got - 2010.04.16 15:48:40.
