data_PCOD8230532
_publ_section_title
;
Structure prediction by ZEFSAII (Michael W. Deem and Ramdas Pophale) SiO2 
 PCOD8230532
Probable space group: P B C M
;
_chemical_formula_sum "Si O2"
_cell_formula_units_Z 56
_cell_length_a 11.690060
_cell_length_b 11.373743
_cell_length_c 20.022919
_cell_angle_alpha 90.000000
_cell_angle_beta 90.000000
_cell_angle_gamma 90.000000
_cell_volume 2662.242066
_symmetry_space_group_name_H-M "P B C M"
_symmetry_group_IT_number 57
_symmetry_cell_setting 'orthorhombic'
loop_
_space_group_symop_operation_xyz
x,y,z
-x,-y,1/2+z
x,1/2-y,-z
-x,1/2+y,1/2-z
-x,-y,-z
x,y,1/2-z
-x,1/2+y,z
x,1/2-y,1/2+z
loop_
_atom_site_type_symbol
_atom_site_label
_atom_site_fract_x
_atom_site_fract_y
_atom_site_fract_z
Si Si1 0.035691 0.753107 0.750000
Si Si2 0.415625 0.433284 0.673573
Si Si3 0.901496 0.821797 0.565625
Si Si4 0.147072 0.708215 0.113207
Si Si5 0.324378 0.543873 0.172360
Si Si6 0.214558 0.541429 0.612533
Si Si7 0.083804 0.504342 0.750000
Si Si8 0.747160 0.781761 0.174867
O O1 0.117966 0.756007 0.812416
O O2 0.989518 0.613494 0.750000
O O3 0.961938 0.871642 0.750000
O O4 0.408337 0.477933 0.750000
O O5 0.546906 0.423243 0.652111
O O6 0.350634 0.524031 0.624038
O O7 0.357663 0.306425 0.664063
O O8 0.870120 0.750000 0.500000
O O9 0.839497 0.947904 0.560505
O O10 0.856965 0.746835 0.629211
O O11 0.037969 0.840243 0.572616
O O12 0.244857 0.610454 0.118769
O O13 0.193058 0.830107 0.080727
O O14 0.298857 0.576582 0.250000
O O15 0.304686 0.407476 0.158962
O O16 0.160137 0.512533 0.684272
O O17 0.796789 0.773405 0.250000
#
# Coordination Sequence:
#
# PCOD8230532 Si02
#       8
#     4   8   8   8   8   8   4   8
#     4  10  20  32  53  84 122 154 197 251 295 368
#     4   9  18  34  57  88 123 158 199 246 304 350
#     4  11  25  42  63  88 120 159 204 257 312 365
#     4  11  23  36  56  87 122 160 197 244 304 365
#     4  10  21  35  58  94 128 158 201 253 302 357
#     4  10  21  37  59  85 121 160 201 244 301 365
#     4  10  18  34  55  86 118 160 197 243 303 368
#     4   9  21  39  62  91 122 161 200 251 303 364
#
# _framework density 21.034901000000001
#
# number of rings (size 3 to 8) (size 9 to 14) (size 15 to 20)
#    0.000    2.000    2.857    0.000    6.000    0.571 
#    0.000    0.000    0.000    6.857    0.000    0.000 
#    0.000    0.000    0.000    0.000    0.000    0.000 
#
# Total GULP energy -694069.788124 kJ/mol
# GULP energy per Si atom -12394.103359 kJ/mol
# Density = 2.098703 g / cm^3
# Si number density = 21.034901 Si / 1000 Ang^3
#
#
#
# Elastic Constant Matrix: (Units=GPa)
#
#
# Indices 1 2 3 4 5 6 
#
# 1 132.5702 49.7845 17.9105 0.0000 0.0000 0.0000
# 2 49.7845 112.0676 9.5122 0.0000 0.0000 0.0000
# 3 17.9105 9.5122 32.3924 0.0000 0.0000 0.0000
# 4 0.0000 0.0000 0.0000 11.2059 0.0000 0.0000
# 5 0.0000 0.0000 0.0000 0.0000 11.3850 0.0000
# 6 0.0000 0.0000 0.0000 0.0000 0.0000 26.9403
#
#
#
# Elastic Compliance Matrix: (Units=1/GPa)
#
#
# Indices 1 2 3 4 5 6 
#
# 1 0.009567 -0.003898 -0.004145 0.000000 0.000000 0.000000
# 2 -0.003898 0.010740 -0.000998 0.000000 0.000000 0.000000
# 3 -0.004145 -0.000998 0.033457 0.000000 0.000000 0.000000
# 4 0.000000 0.000000 0.000000 0.089239 0.000000 0.000000
# 5 0.000000 0.000000 0.000000 0.000000 0.087835 0.000000
# 6 0.000000 0.000000 0.000000 0.000000 0.000000 0.037119
#
#
# Mechanical properties :
#
#
# Convention : Reuss Voigt Hill
#
# Bulk Modulus (GPa) = 28.02697 47.93829 37.98263
# Shear Modulus (GPa) = 16.78230 23.22777 20.00503
#
# Velocity S-wave (km/s) = 2.82766 3.32663 3.08724
# Velocity P-wave (km/s) = 4.90039 6.13145 5.55015
#
# Compressibility (1/GPa) = 0.03567992
#
# Stress axis : x y z
#
# Youngs Moduli (GPa) = 104.52491 93.11290 29.88951
#
# Poissons Ratio (x) = 0.36297 0.12390
# Poissons Ratio (y) = 0.40746 0.02984
# Poissons Ratio (z) = 0.43327 0.09296
#
# Static dielectric constant tensor:
#      x y z
#    x 3.755260 0.000000 0.000000 
#    y 0.000000 4.231520 0.000000 
#    z 0.000000 0.000000 3.510950 
# 
# 
# High freq. dielectric constant tensor:
#      x y z
#    x 1.819000 0.000000 0.000000 
#    y 0.000000 1.839940 0.000000 
#    z 0.000000 0.000000 1.782000 
# 
# From -- ./inp_files/27239.got.cif
#   From: 2010.03.12/outbox.cif.g09.slc.cpg/sg57_14_cif.got.tgz:27239.got - 2010.04.16 15:48:40.
