data_PCOD8230308
_publ_section_title
;
Structure prediction by ZEFSAII (Michael W. Deem and Ramdas Pophale) SiO2 
 PCOD8230308
Probable space group: P B C M
;
_chemical_formula_sum "Si O2"
_cell_formula_units_Z 36
_cell_length_a 11.143621
_cell_length_b 10.807134
_cell_length_c 16.328137
_cell_angle_alpha 90.000000
_cell_angle_beta 90.000000
_cell_angle_gamma 90.000000
_cell_volume 1966.407424
_symmetry_space_group_name_H-M "P B C M"
_symmetry_group_IT_number 57
_symmetry_cell_setting 'orthorhombic'
loop_
_space_group_symop_operation_xyz
x,y,z
-x,-y,1/2+z
x,1/2-y,-z
-x,1/2+y,1/2-z
-x,-y,-z
x,y,1/2-z
-x,1/2+y,z
x,1/2-y,1/2+z
loop_
_atom_site_type_symbol
_atom_site_label
_atom_site_fract_x
_atom_site_fract_y
_atom_site_fract_z
Si Si1 0.761691 0.066080 0.341626
Si Si2 0.217327 0.250000 0.000000
Si Si3 0.358968 0.485770 0.997359
Si Si4 0.798623 0.185716 0.916198
Si Si5 0.962488 0.927931 0.418114
O O1 0.720154 0.030861 0.250000
O O2 0.749625 0.214113 0.352128
O O3 0.679625 0.998090 0.408045
O O4 0.899681 0.024336 0.356331
O O5 0.307117 0.355229 0.963045
O O6 0.130106 0.314399 0.066452
O O7 0.500000 0.500000 0.000000
O O8 0.307389 0.591038 0.937784
O O9 0.915044 0.120014 0.876709
O O10 0.843497 0.250000 0.000000
O O11 0.000000 0.000000 0.500000
#
# Coordination Sequence:
#
# PCOD8230308 Si02
#       5
#     8   4   8   8   8
#     4  10  22  36  55  84 119 149 184 246 301 327
#     4  10  18  30  56  86 108 134 192 250 266 324
#     4  10  22  36  60  84 107 152 207 227 276 351
#     4  10  18  33  58  83 107 151 194 229 275 348
#     4  11  16  33  57  87 111 146 191 231 285 350
#
# _framework density 18.307497999999999
#
# number of rings (size 3 to 8) (size 9 to 14) (size 15 to 20)
#    0.000    1.778    7.778    0.000    4.667    0.889 
#    0.000    1.111    0.000    1.333    0.000    0.000 
#    0.000    0.000    0.000    0.000    0.000    0.000 
#
# Total GULP energy -446128.345440 kJ/mol
# GULP energy per Si atom -12392.454040 kJ/mol
# Density = 1.826583 g / cm^3
# Si number density = 18.307498 Si / 1000 Ang^3
#
#
#
# Elastic Constant Matrix: (Units=GPa)
#
#
# Indices 1 2 3 4 5 6 
#
# 1 143.9986 52.6237 16.9675 0.0000 0.0000 0.0000
# 2 52.6237 117.5564 24.9999 0.0000 0.0000 0.0000
# 3 16.9675 24.9999 74.5192 0.0000 0.0000 0.0000
# 4 0.0000 0.0000 0.0000 14.1630 0.0000 0.0000
# 5 0.0000 0.0000 0.0000 0.0000 13.5108 0.0000
# 6 0.0000 0.0000 0.0000 0.0000 0.0000 30.7311
#
#
#
# Elastic Compliance Matrix: (Units=1/GPa)
#
#
# Indices 1 2 3 4 5 6 
#
# 1 0.008336 -0.003584 -0.000696 0.000000 0.000000 0.000000
# 2 -0.003584 0.010701 -0.002774 0.000000 0.000000 0.000000
# 3 -0.000696 -0.002774 0.014508 0.000000 0.000000 0.000000
# 4 0.000000 0.000000 0.000000 0.070606 0.000000 0.000000
# 5 0.000000 0.000000 0.000000 0.000000 0.074015 0.000000
# 6 0.000000 0.000000 0.000000 0.000000 0.000000 0.032540
#
#
# Mechanical properties :
#
#
# Convention : Reuss Voigt Hill
#
# Bulk Modulus (GPa) = 51.44455 58.36182 54.90319
# Shear Modulus (GPa) = 21.61761 27.77985 24.69873
#
# Velocity S-wave (km/s) = 3.44001 3.89961 3.67700
# Velocity P-wave (km/s) = 6.62869 7.22660 6.93409
#
# Compressibility (1/GPa) = 0.01943840
#
# Stress axis : x y z
#
# Youngs Moduli (GPa) = 119.95961 93.45200 68.92555
#
# Poissons Ratio (x) = 0.33490 0.04796
# Poissons Ratio (y) = 0.42990 0.19119
# Poissons Ratio (z) = 0.08347 0.25923
#
# Static dielectric constant tensor:
#      x y z
#    x 3.404180 0.000000 0.000000 
#    y 0.000000 3.858130 0.000000 
#    z 0.000000 0.000000 2.894750 
# 
# 
# High freq. dielectric constant tensor:
#      x y z
#    x 1.707790 0.000000 0.000000 
#    y 0.000000 1.729190 0.000000 
#    z 0.000000 0.000000 1.650570 
# 
# From -- ./inp_files/21701.got.cif
#   From: 2010.03.12/outbox.cif.g09.slc.cpg/sg57_11_cif.got.tgz:21701.got - 2010.04.16 15:48:40.
