data_PCOD8230538
_publ_section_title
;
Structure prediction by ZEFSAII (Michael W. Deem and Ramdas Pophale) SiO2 
 PCOD8230538
Probable space group: P B C M
;
_chemical_formula_sum "Si O2"
_cell_formula_units_Z 48
_cell_length_a 14.298398
_cell_length_b 9.418789
_cell_length_c 16.300014
_cell_angle_alpha 90.000000
_cell_angle_beta 90.000000
_cell_angle_gamma 90.000000
_cell_volume 2195.181464
_symmetry_space_group_name_H-M "P B C M"
_symmetry_group_IT_number 57
_symmetry_cell_setting 'orthorhombic'
loop_
_space_group_symop_operation_xyz
x,y,z
-x,-y,1/2+z
x,1/2-y,-z
-x,1/2+y,1/2-z
-x,-y,-z
x,y,1/2-z
-x,1/2+y,z
x,1/2-y,1/2+z
loop_
_atom_site_type_symbol
_atom_site_label
_atom_site_fract_x
_atom_site_fract_y
_atom_site_fract_z
Si Si1 0.190057 0.540797 0.340501
Si Si2 0.707719 0.947550 0.918951
Si Si3 0.856249 0.147621 0.653114
Si Si4 0.040196 0.119124 0.942879
Si Si5 0.661721 0.856565 0.103933
Si Si6 0.461496 0.620440 0.942667
O O1 0.144983 0.540244 0.250000
O O2 0.192458 0.703198 0.371408
O O3 0.132397 0.436923 0.398921
O O4 0.295308 0.476589 0.336359
O O5 0.702599 0.797956 0.871275
O O6 0.806499 0.021490 0.897991
O O7 0.626391 0.059359 0.891097
O O8 0.693238 0.909975 0.013958
O O9 0.850008 0.115009 0.750000
O O10 0.963792 0.161127 0.625537
O O11 0.070293 0.250000 0.000000
O O12 0.000000 0.000000 0.000000
O O13 0.549566 0.839484 0.115215
O O14 0.428269 0.750000 0.000000
O O15 0.500000 0.500000 0.000000
#
# Coordination Sequence:
#
# PCOD8230538 Si02
#       6
#     8   8   8   8   8   8
#     4  11  26  44  63  91 129 167 203 255 316 375
#     4  10  22  36  63  94 125 164 208 259 308 366
#     4  11  26  45  63  91 129 168 206 252 314 375
#     4  12  25  44  69  95 120 158 211 260 307 365
#     4  10  21  38  61  95 127 159 212 258 307 365
#     4  10  18  34  57  93 126 161 207 262 312 355
#
# _framework density 21.866074000000001
#
# number of rings (size 3 to 8) (size 9 to 14) (size 15 to 20)
#    0.000    1.333    5.000    1.500    9.333    0.667 
#    0.000    0.833    0.000    0.000    0.000    0.000 
#    0.000    0.000    0.000    0.000    0.000    0.000 
#
# Total GULP energy -594986.656843 kJ/mol
# GULP energy per Si atom -12395.555351 kJ/mol
# Density = 2.181631 g / cm^3
# Si number density = 21.866074 Si / 1000 Ang^3
#
#
#
# Elastic Constant Matrix: (Units=GPa)
#
#
# Indices 1 2 3 4 5 6 
#
# 1 83.1699 23.6263 16.1752 0.0000 0.0000 0.0000
# 2 23.6263 136.3896 26.6623 0.0000 0.0000 0.0000
# 3 16.1752 26.6623 54.4754 0.0000 0.0000 0.0000
# 4 0.0000 0.0000 0.0000 25.4598 0.0000 0.0000
# 5 0.0000 0.0000 0.0000 0.0000 14.8846 0.0000
# 6 0.0000 0.0000 0.0000 0.0000 0.0000 44.0337
#
#
#
# Elastic Compliance Matrix: (Units=1/GPa)
#
#
# Indices 1 2 3 4 5 6 
#
# 1 0.013095 -0.001668 -0.003072 0.000000 0.000000 0.000000
# 2 -0.001668 0.008320 -0.003577 0.000000 0.000000 0.000000
# 3 -0.003072 -0.003577 0.021020 0.000000 0.000000 0.000000
# 4 0.000000 0.000000 0.000000 0.039278 0.000000 0.000000
# 5 0.000000 0.000000 0.000000 0.000000 0.067184 0.000000
# 6 0.000000 0.000000 0.000000 0.000000 0.000000 0.022710
#
#
# Mechanical properties :
#
#
# Convention : Reuss Voigt Hill
#
# Bulk Modulus (GPa) = 38.75777 45.21804 41.98791
# Shear Modulus (GPa) = 25.40140 30.71368 28.05754
#
# Velocity S-wave (km/s) = 3.41204 3.75190 3.58600
# Velocity P-wave (km/s) = 5.76942 6.28438 6.03240
#
# Compressibility (1/GPa) = 0.02580128
#
# Stress axis : x y z
#
# Youngs Moduli (GPa) = 76.36614 120.19096 47.57437
#
# Poissons Ratio (x) = 0.20046 0.14614
# Poissons Ratio (y) = 0.12737 0.17017
# Poissons Ratio (z) = 0.23459 0.42992
#
# Static dielectric constant tensor:
#      x y z
#    x 4.756680 0.000000 0.000000 
#    y 0.000000 4.216360 0.000000 
#    z 0.000000 0.000000 3.572380 
# 
# 
# High freq. dielectric constant tensor:
#      x y z
#    x 1.864890 0.000000 0.000000 
#    y 0.000000 1.881820 0.000000 
#    z 0.000000 0.000000 1.818310 
# 
# From -- ./inp_files/22415.got.cif
#   From: 2010.03.12/outbox.cif.g09.slc.cpg/sg57_12_cif.got.tgz:22415.got - 2010.04.16 15:48:40.
