data_PCOD8230963
_publ_section_title
;
Structure prediction by ZEFSAII (Michael W. Deem and Ramdas Pophale) SiO2 
 PCOD8230963
Probable space group: P B C M
;
_chemical_formula_sum "Si O2"
_cell_formula_units_Z 56
_cell_length_a 15.633884
_cell_length_b 19.777516
_cell_length_c 9.280551
_cell_angle_alpha 90.000000
_cell_angle_beta 90.000000
_cell_angle_gamma 90.000000
_cell_volume 2869.540717
_symmetry_space_group_name_H-M "P B C M"
_symmetry_group_IT_number 57
_symmetry_cell_setting 'orthorhombic'
loop_
_space_group_symop_operation_xyz
x,y,z
-x,-y,1/2+z
x,1/2-y,-z
-x,1/2+y,1/2-z
-x,-y,-z
x,y,1/2-z
-x,1/2+y,z
x,1/2-y,1/2+z
loop_
_atom_site_type_symbol
_atom_site_label
_atom_site_fract_x
_atom_site_fract_y
_atom_site_fract_z
Si Si1 0.740483 0.943626 0.915717
Si Si2 0.934013 0.954237 0.583689
Si Si3 0.797127 0.316686 0.581059
Si Si4 0.321817 0.586962 0.584158
Si Si5 0.528688 0.315377 0.084123
Si Si6 0.005778 0.813966 0.584167
Si Si7 0.667166 0.818274 0.079402
O O1 0.734874 0.918556 0.750000
O O2 0.835630 0.971696 0.950017
O O3 0.675819 0.006237 0.943721
O O4 0.719725 0.881893 0.020602
O O5 0.956604 0.964284 0.750000
O O6 0.948501 0.876934 0.537018
O O7 0.000000 0.000000 0.500000
O O8 0.762932 0.250000 0.500000
O O9 0.779742 0.308210 0.750000
O O10 0.747930 0.381331 0.521275
O O11 0.896053 0.329032 0.544378
O O12 0.295873 0.601541 0.750000
O O13 0.414565 0.618654 0.548067
O O14 0.534505 0.295480 0.250000
O O15 0.431727 0.332096 0.039653
O O16 0.563993 0.250000 0.000000
O O17 0.969107 0.750000 0.500000
O O18 0.995959 0.796279 0.750000
O O19 0.682161 0.810938 0.250000
O O20 0.698546 0.750000 0.000000
#
# Coordination Sequence:
#
# PCOD8230963 Si02
#       7
#     8   8   8   8   8   8   8
#     4  10  22  38  56  81 112 144 178 222 275 324
#     4  10  21  37  56  79 108 142 181 222 267 320
#     4  10  19  31  49  74 105 140 178 220 266 317
#     4  10  20  34  52  77 111 145 178 218 264 317
#     4   9  19  35  55  80 108 141 180 219 263 316
#     4   9  19  34  51  73 101 133 173 220 265 314
#     4  10  21  39  61  82 107 140 180 225 271 323
#
# _framework density 19.515317
#
# number of rings (size 3 to 8) (size 9 to 14) (size 15 to 20)
#    0.000    2.286    0.000    2.143    0.000    5.714 
#    0.000    1.429    0.000    0.000    0.000    0.000 
#    0.000    0.000    0.000    0.000    0.000    0.000 
#
# Total GULP energy -694521.566252 kJ/mol
# GULP energy per Si atom -12402.170826 kJ/mol
# Density = 1.947090 g / cm^3
# Si number density = 19.515317 Si / 1000 Ang^3
#
#
#
# Elastic Constant Matrix: (Units=GPa)
#
#
# Indices 1 2 3 4 5 6 
#
# 1 61.3779 49.5211 35.2919 0.0000 0.0000 0.0000
# 2 49.5211 122.1429 57.8769 0.0000 0.0000 0.0000
# 3 35.2919 57.8769 78.9699 0.0000 0.0000 0.0000
# 4 0.0000 0.0000 0.0000 38.2081 0.0000 0.0000
# 5 0.0000 0.0000 0.0000 0.0000 23.8908 0.0000
# 6 0.0000 0.0000 0.0000 0.0000 0.0000 34.5124
#
#
#
# Elastic Compliance Matrix: (Units=1/GPa)
#
#
# Indices 1 2 3 4 5 6 
#
# 1 0.025916 -0.007690 -0.005946 0.000000 0.000000 0.000000
# 2 -0.007690 0.014825 -0.007429 0.000000 0.000000 0.000000
# 3 -0.005946 -0.007429 0.020765 0.000000 0.000000 0.000000
# 4 0.000000 0.000000 0.000000 0.026172 0.000000 0.000000
# 5 0.000000 0.000000 0.000000 0.000000 0.041857 0.000000
# 6 0.000000 0.000000 0.000000 0.000000 0.000000 0.028975
#
#
# Mechanical properties :
#
#
# Convention : Reuss Voigt Hill
#
# Bulk Modulus (GPa) = 51.60841 60.87449 56.24145
# Shear Modulus (GPa) = 24.14327 27.30897 25.72612
#
# Velocity S-wave (km/s) = 3.52112 3.74486 3.63471
# Velocity P-wave (km/s) = 6.56000 7.06821 6.81884
#
# Compressibility (1/GPa) = 0.01937669
#
# Stress axis : x y z
#
# Youngs Moduli (GPa) = 38.58678 67.45479 48.15860
#
# Poissons Ratio (x) = 0.51870 0.28635
# Poissons Ratio (y) = 0.29672 0.35775
# Poissons Ratio (z) = 0.22944 0.50109
#
# Static dielectric constant tensor:
#      x y z
#    x 3.552420 0.000000 0.000000 
#    y 0.000000 3.542220 0.000000 
#    z 0.000000 0.000000 3.517900 
# 
# 
# High freq. dielectric constant tensor:
#      x y z
#    x 1.754830 0.000000 0.000000 
#    y 0.000000 1.761400 0.000000 
#    z 0.000000 0.000000 1.757950 
# 
# From -- ./inp_files/5179.got.cif
#   From: 2010.03.12/outbox.cif.g09.slc.cpg/sg57_3_cif.got.tgz:5179.got - 2010.04.16 15:48:40.
