data_PCOD8230219
_publ_section_title
;
Structure prediction by ZEFSAII (Michael W. Deem and Ramdas Pophale) SiO2 
 PCOD8230219
Probable space group: P B C M
;
_chemical_formula_sum "Si O2"
_cell_formula_units_Z 40
_cell_length_a 11.875639
_cell_length_b 13.475821
_cell_length_c 14.036329
_cell_angle_alpha 90.000000
_cell_angle_beta 90.000000
_cell_angle_gamma 90.000000
_cell_volume 2246.289671
_symmetry_space_group_name_H-M "P B C M"
_symmetry_group_IT_number 57
_symmetry_cell_setting 'orthorhombic'
loop_
_space_group_symop_operation_xyz
x,y,z
-x,-y,1/2+z
x,1/2-y,-z
-x,1/2+y,1/2-z
-x,-y,-z
x,y,1/2-z
-x,1/2+y,z
x,1/2-y,1/2+z
loop_
_atom_site_type_symbol
_atom_site_label
_atom_site_fract_x
_atom_site_fract_y
_atom_site_fract_z
Si Si1 0.384120 0.753296 0.353220
Si Si2 0.154215 0.978581 0.527915
Si Si3 0.009755 0.590786 0.640149
Si Si4 0.142223 0.723259 0.104827
Si Si5 0.594654 0.082279 0.496333
O O1 0.444670 0.756599 0.250000
O O2 0.251219 0.739523 0.330517
O O3 0.405379 0.857986 0.404771
O O4 0.431544 0.659493 0.411607
O O5 0.103972 0.969720 0.420659
O O6 0.104142 0.891011 0.596922
O O7 0.288373 0.975624 0.521889
O O8 0.109636 0.076075 0.584505
O O9 0.005917 0.554395 0.750000
O O10 0.038540 0.708400 0.638391
O O11 0.189472 0.750000 0.000000
O O12 0.500000 0.000000 0.500000
#
# Coordination Sequence:
#
# PCOD8230219 Si02
#       5
#     8   8   8   8   8
#     4  10  18  33  56  81 102 132 184 227 260 319
#     4   9  19  33  49  79 105 133 179 215 260 320
#     4  10  18  29  51  77 105 135 169 217 263 307
#     4   9  15  31  52  75 101 133 172 213 262 308
#     4  10  20  36  56  78 108 145 176 222 277 317
#
# _framework density 17.807141999999999
#
# number of rings (size 3 to 8) (size 9 to 14) (size 15 to 20)
#    0.000    2.400    6.000    0.600    0.000    4.800 
#    0.000    0.000   22.000    0.000    0.000    0.000 
#    0.000    0.000    0.000    0.000    0.000    0.000 
#
# Total GULP energy -495569.277731 kJ/mol
# GULP energy per Si atom -12389.231943 kJ/mol
# Density = 1.776661 g / cm^3
# Si number density = 17.807142 Si / 1000 Ang^3
#
#
#
# Elastic Constant Matrix: (Units=GPa)
#
#
# Indices 1 2 3 4 5 6 
#
# 1 96.2591 58.2588 37.6424 0.0000 0.0000 0.0000
# 2 58.2588 84.9584 34.5976 0.0000 0.0000 0.0000
# 3 37.6424 34.5976 137.1505 0.0000 0.0000 0.0000
# 4 0.0000 0.0000 0.0000 11.1854 0.0000 0.0000
# 5 0.0000 0.0000 0.0000 0.0000 6.9480 0.0000
# 6 0.0000 0.0000 0.0000 0.0000 0.0000 33.1738
#
#
#
# Elastic Compliance Matrix: (Units=1/GPa)
#
#
# Indices 1 2 3 4 5 6 
#
# 1 0.018270 -0.011687 -0.002066 0.000000 0.000000 0.000000
# 2 -0.011687 0.020594 -0.001987 0.000000 0.000000 0.000000
# 3 -0.002066 -0.001987 0.008360 0.000000 0.000000 0.000000
# 4 0.000000 0.000000 0.000000 0.089402 0.000000 0.000000
# 5 0.000000 0.000000 0.000000 0.000000 0.143925 0.000000
# 6 0.000000 0.000000 0.000000 0.000000 0.000000 0.030144
#
#
# Mechanical properties :
#
#
# Convention : Reuss Voigt Hill
#
# Bulk Modulus (GPa) = 63.52256 64.37394 63.94825
# Shear Modulus (GPa) = 14.39167 22.78607 18.58887
#
# Velocity S-wave (km/s) = 2.84596 3.58103 3.23445
# Velocity P-wave (km/s) = 6.82271 7.30257 7.06671
#
# Compressibility (1/GPa) = 0.01574244
#
# Stress axis : x y z
#
# Youngs Moduli (GPa) = 54.73509 48.55828 119.62133
#
# Poissons Ratio (x) = 0.56749 0.24717
# Poissons Ratio (y) = 0.63968 0.23774
# Poissons Ratio (z) = 0.11310 0.09651
#
# Static dielectric constant tensor:
#      x y z
#    x 2.972230 0.000000 0.000000 
#    y 0.000000 3.391950 0.000000 
#    z 0.000000 0.000000 3.321440 
# 
# 
# High freq. dielectric constant tensor:
#      x y z
#    x 1.651690 0.000000 0.000000 
#    y 0.000000 1.674010 0.000000 
#    z 0.000000 0.000000 1.699430 
# 
# From -- ./inp_files/17500.got.cif
#   From: 2010.03.12/outbox.cif.g09.slc.cpg/sg57_9_cif.got.tgz:17500.got - 2010.04.16 15:48:40.
