data_PCOD8230335
_publ_section_title
;
Structure prediction by ZEFSAII (Michael W. Deem and Ramdas Pophale) SiO2 
 PCOD8230335
Probable space group: P B C M
;
_chemical_formula_sum "Si O2"
_cell_formula_units_Z 40
_cell_length_a 12.797658
_cell_length_b 20.138426
_cell_length_c 8.711472
_cell_angle_alpha 90.000000
_cell_angle_beta 90.000000
_cell_angle_gamma 90.000000
_cell_volume 2245.161409
_symmetry_space_group_name_H-M "P B C M"
_symmetry_group_IT_number 57
_symmetry_cell_setting 'orthorhombic'
loop_
_space_group_symop_operation_xyz
x,y,z
-x,-y,1/2+z
x,1/2-y,-z
-x,1/2+y,1/2-z
-x,-y,-z
x,y,1/2-z
-x,1/2+y,z
x,1/2-y,1/2+z
loop_
_atom_site_type_symbol
_atom_site_label
_atom_site_fract_x
_atom_site_fract_y
_atom_site_fract_z
Si Si1 0.880018 0.679375 0.067990
Si Si2 0.039400 0.568166 0.068249
Si Si3 0.733906 0.455580 0.569763
Si Si4 0.512018 0.427628 0.568856
Si Si5 0.308165 0.103800 0.568239
O O1 0.876823 0.683160 0.250000
O O2 0.968400 0.628326 0.007647
O O3 0.911327 0.750000 0.000000
O O4 0.767067 0.657998 0.006458
O O5 0.032667 0.563362 0.250000
O O6 0.159430 0.579009 0.011265
O O7 0.000000 0.500000 0.000000
O O8 0.739131 0.465953 0.750000
O O9 0.633458 0.408899 0.529590
O O10 0.723315 0.530736 0.503565
O O11 0.500000 0.500000 0.500000
O O12 0.491588 0.427829 0.750000
O O13 0.427349 0.379962 0.486759
O O14 0.301499 0.109919 0.750000
#
# Coordination Sequence:
#
# PCOD8230335 Si02
#       5
#     8   8   8   8   8
#     4  11  23  36  53  76 105 141 179 218 265 323
#     4  10  19  33  53  78 104 136 176 219 268 317
#     4   8  15  28  48  74 104 134 164 210 263 309
#     4   9  16  27  45  72 104 135 168 206 257 311
#     4  10  18  31  51  73 103 136 170 216 266 315
#
# _framework density 17.816091
#
# number of rings (size 3 to 8) (size 9 to 14) (size 15 to 20)
#    0.000    2.400    2.000    3.000    0.000    0.800 
#    0.000    1.000    0.000    1.200    0.000    2.800 
#    0.000    0.000    0.000    0.000    0.000    0.000 
#
# Total GULP energy -495672.107047 kJ/mol
# GULP energy per Si atom -12391.802676 kJ/mol
# Density = 1.777554 g / cm^3
# Si number density = 17.816091 Si / 1000 Ang^3
#
#
#
# Elastic Constant Matrix: (Units=GPa)
#
#
# Indices 1 2 3 4 5 6 
#
# 1 172.1024 63.0787 34.7864 0.0000 0.0000 0.0000
# 2 63.0787 91.3680 28.3522 0.0000 0.0000 0.0000
# 3 34.7864 28.3522 56.3112 0.0000 0.0000 0.0000
# 4 0.0000 0.0000 0.0000 22.2291 0.0000 0.0000
# 5 0.0000 0.0000 0.0000 0.0000 23.2063 0.0000
# 6 0.0000 0.0000 0.0000 0.0000 0.0000 22.7604
#
#
#
# Elastic Compliance Matrix: (Units=1/GPa)
#
#
# Indices 1 2 3 4 5 6 
#
# 1 0.008085 -0.004779 -0.002589 0.000000 0.000000 0.000000
# 2 -0.004779 0.015796 -0.005001 0.000000 0.000000 0.000000
# 3 -0.002589 -0.005001 0.021876 0.000000 0.000000 0.000000
# 4 0.000000 0.000000 0.000000 0.044986 0.000000 0.000000
# 5 0.000000 0.000000 0.000000 0.000000 0.043092 0.000000
# 6 0.000000 0.000000 0.000000 0.000000 0.000000 0.043936
#
#
# Mechanical properties :
#
#
# Convention : Reuss Voigt Hill
#
# Bulk Modulus (GPa) = 47.57392 63.57958 55.57675
# Shear Modulus (GPa) = 23.86486 26.54346 25.20416
#
# Velocity S-wave (km/s) = 3.66390 3.86406 3.76531
# Velocity P-wave (km/s) = 6.68279 7.46137 7.08278
#
# Compressibility (1/GPa) = 0.02101992
#
# Stress axis : x y z
#
# Youngs Moduli (GPa) = 123.68343 63.30870 45.71308
#
# Poissons Ratio (x) = 0.30252 0.11834
# Poissons Ratio (y) = 0.59103 0.22861
# Poissons Ratio (z) = 0.32017 0.31661
#
# Static dielectric constant tensor:
#      x y z
#    x 3.751380 0.000000 0.000000 
#    y 0.000000 2.974460 0.000000 
#    z 0.000000 0.000000 3.333360 
# 
# 
# High freq. dielectric constant tensor:
#      x y z
#    x 1.714660 0.000000 0.000000 
#    y 0.000000 1.634570 0.000000 
#    z 0.000000 0.000000 1.682800 
# 
# From -- ./inp_files/2889.got.cif
#   From: 2010.03.12/outbox.cif.g09.slc.cpg/sg57_2_cif.got.tgz:2889.got - 2010.04.16 15:48:40.
