data_PCOD8230713
_publ_section_title
;
Structure prediction by ZEFSAII (Michael W. Deem and Ramdas Pophale) SiO2 
 PCOD8230713
Probable space group: P B C M
;
_chemical_formula_sum "Si O2"
_cell_formula_units_Z 64
_cell_length_a 15.638987
_cell_length_b 28.565593
_cell_length_c 9.240321
_cell_angle_alpha 90.000000
_cell_angle_beta 90.000000
_cell_angle_gamma 90.000000
_cell_volume 4127.992706
_symmetry_space_group_name_H-M "P B C M"
_symmetry_group_IT_number 57
_symmetry_cell_setting 'orthorhombic'
loop_
_space_group_symop_operation_xyz
x,y,z
-x,-y,1/2+z
x,1/2-y,-z
-x,1/2+y,1/2-z
-x,-y,-z
x,y,1/2-z
-x,1/2+y,z
x,1/2-y,1/2+z
loop_
_atom_site_type_symbol
_atom_site_label
_atom_site_fract_x
_atom_site_fract_y
_atom_site_fract_z
Si Si1 0.589240 0.949655 0.417333
Si Si2 0.993779 0.702768 0.084524
Si Si3 0.346030 0.649727 0.419162
Si Si4 0.497309 0.701673 0.919675
Si Si5 0.668748 0.644487 0.584244
Si Si6 0.416990 0.947130 0.917082
Si Si7 0.191765 0.200554 0.419830
Si Si8 0.822027 0.298752 0.918512
O O1 0.564508 0.946787 0.250000
O O2 0.661186 0.910910 0.452085
O O3 0.503681 0.936526 0.500209
O O4 0.622143 0.001911 0.460232
O O5 0.993541 0.717545 0.250000
O O6 0.903006 0.677460 0.050106
O O7 0.084301 0.676942 0.048212
O O8 0.994566 0.750000 0.000000
O O9 0.363918 0.659914 0.250000
O O10 0.413602 0.678102 0.513607
O O11 0.350286 0.594170 0.453159
O O12 0.251190 0.665220 0.467187
O O13 0.481673 0.710815 0.750000
O O14 0.578025 0.668443 0.946711
O O15 0.516692 0.750000 0.000000
O O16 0.696872 0.652857 0.750000
O O17 0.740245 0.663923 0.478234
O O18 0.441801 0.946858 0.750000
O O19 0.202919 0.250000 0.500000
O O20 0.207965 0.208814 0.250000
O O21 0.812937 0.287224 0.750000
O O22 0.809957 0.250000 0.000000
#
# Coordination Sequence:
#
# PCOD8230713 Si02
#       8
#     8   8   8   8   8   8   8   8
#     4   9  17  31  47  64  86 113 145 182 223 260
#     4   8  15  28  44  62  84 111 141 178 218 256
#     4  10  19  30  45  67  90 116 147 180 216 257
#     4  11  22  33  43  58  86 122 153 179 210 252
#     4  10  20  32  45  63  87 117 149 181 218 258
#     4   9  17  29  47  67  87 111 144 184 221 258
#     4  10  19  30  46  66  88 114 146 181 219 260
#     4   9  17  29  44  63  89 116 145 177 213 256
#
# _framework density 15.503904
#
# number of rings (size 3 to 8) (size 9 to 14) (size 15 to 20)
#    0.000    2.500    1.250    1.500    0.000    4.500 
#    0.000    0.000    0.000    0.000    0.000    0.875 
#    0.000    0.000    0.000    0.000    0.000    0.000 
#
# Total GULP energy -792963.627741 kJ/mol
# GULP energy per Si atom -12390.056683 kJ/mol
# Density = 1.546862 g / cm^3
# Si number density = 15.503904 Si / 1000 Ang^3
#
#
#
# Elastic Constant Matrix: (Units=GPa)
#
#
# Indices 1 2 3 4 5 6 
#
# 1 116.1486 48.7170 43.4579 0.0000 0.0000 0.0000
# 2 48.7170 89.3507 33.7335 0.0000 0.0000 0.0000
# 3 43.4579 33.7335 52.8662 0.0000 0.0000 0.0000
# 4 0.0000 0.0000 0.0000 17.1271 0.0000 0.0000
# 5 0.0000 0.0000 0.0000 0.0000 18.8694 0.0000
# 6 0.0000 0.0000 0.0000 0.0000 0.0000 7.7268
#
#
#
# Elastic Compliance Matrix: (Units=1/GPa)
#
#
# Indices 1 2 3 4 5 6 
#
# 1 0.013526 -0.004185 -0.008448 0.000000 0.000000 0.000000
# 2 -0.004185 0.016039 -0.006794 0.000000 0.000000 0.000000
# 3 -0.008448 -0.006794 0.030196 0.000000 0.000000 0.000000
# 4 0.000000 0.000000 0.000000 0.058387 0.000000 0.000000
# 5 0.000000 0.000000 0.000000 0.000000 0.052996 0.000000
# 6 0.000000 0.000000 0.000000 0.000000 0.000000 0.129420
#
#
# Mechanical properties :
#
#
# Convention : Reuss Voigt Hill
#
# Bulk Modulus (GPa) = 47.83395 56.68693 52.26044
# Shear Modulus (GPa) = 14.43472 17.57511 16.00491
#
# Velocity S-wave (km/s) = 3.05460 3.37054 3.21645
# Velocity P-wave (km/s) = 6.58488 7.19651 6.89748
#
# Compressibility (1/GPa) = 0.02090566
#
# Stress axis : x y z
#
# Youngs Moduli (GPa) = 73.93075 62.34908 33.11748
#
# Poissons Ratio (x) = 0.26095 0.27979
# Poissons Ratio (y) = 0.30942 0.22499
# Poissons Ratio (z) = 0.62459 0.42358
#
# Static dielectric constant tensor:
#      x y z
#    x 3.332160 0.000000 0.000000 
#    y 0.000000 3.049260 0.000000 
#    z 0.000000 0.000000 3.064780 
# 
# 
# High freq. dielectric constant tensor:
#      x y z
#    x 1.587430 0.000000 0.000000 
#    y 0.000000 1.574630 0.000000 
#    z 0.000000 0.000000 1.603210 
# 
# From -- ./inp_files/6014.got.cif
#   From: 2010.03.12/outbox.cif.g09.slc.cpg/sg57_4_cif.got.tgz:6014.got - 2010.04.16 15:48:40.
