data_PCOD8230011
_publ_section_title
;
Structure prediction by ZEFSAII (Michael W. Deem and Ramdas Pophale) SiO2 
 PCOD8230011
Probable space group: P B C M
;
_chemical_formula_sum "Si O2"
_cell_formula_units_Z 44
_cell_length_a 19.282312
_cell_length_b 5.092191
_cell_length_c 25.271616
_cell_angle_alpha 90.000000
_cell_angle_beta 90.000000
_cell_angle_gamma 90.000000
_cell_volume 2481.400153
_symmetry_space_group_name_H-M "P B C M"
_symmetry_group_IT_number 57
_symmetry_cell_setting 'orthorhombic'
loop_
_space_group_symop_operation_xyz
x,y,z
-x,-y,1/2+z
x,1/2-y,-z
-x,1/2+y,1/2-z
-x,-y,-z
x,y,1/2-z
-x,1/2+y,z
x,1/2-y,1/2+z
loop_
_atom_site_type_symbol
_atom_site_label
_atom_site_fract_x
_atom_site_fract_y
_atom_site_fract_z
Si Si1 0.545558 0.684898 0.750000
Si Si2 0.280356 0.207132 0.558245
Si Si3 0.964231 0.250724 0.439011
Si Si4 0.337939 0.270481 0.832344
Si Si5 0.805360 0.294676 0.084708
Si Si6 0.253247 0.769139 0.807882
O O1 0.516855 0.390619 0.750000
O O2 0.588848 0.719832 0.695738
O O3 0.313722 0.250000 0.500000
O O4 0.340070 0.240206 0.603320
O O5 0.218698 0.416510 0.567198
O O6 0.247288 0.917654 0.560169
O O7 0.986071 0.250000 0.500000
O O8 0.881915 0.241136 0.434996
O O9 0.998981 0.502633 0.411015
O O10 0.315860 0.565510 0.817744
O O11 0.282221 0.064175 0.810291
O O12 0.806028 0.274197 0.148512
O O13 0.220363 0.723992 0.750000
#
# Coordination Sequence:
#
# PCOD8230011 Si02
#       6
#     4   8   8   8   8   8
#     4  12  22  34  54  76 106 134 162 200 232 280
#     4  10  19  32  52  75 101 127 158 208 253 292
#     4  10  19  30  44  62  92 129 161 200 242 290
#     4  10  20  33  51  76 102 129 161 199 245 288
#     4  10  20  30  49  75  96 128 166 202 250 299
#     4  10  17  32  53  72 100 125 156 209 251 286
#
# _framework density 17.731925
#
# number of rings (size 3 to 8) (size 9 to 14) (size 15 to 20)
#    0.000    1.818    1.818    3.818    0.000    1.455 
#    0.000    0.000    0.000    2.182    0.000    0.000 
#    0.000    0.000    0.000    0.000    0.000    0.000 
#
# Total GULP energy -545462.625519 kJ/mol
# GULP energy per Si atom -12396.877853 kJ/mol
# Density = 1.769157 g / cm^3
# Si number density = 17.731925 Si / 1000 Ang^3
#
#
#
# Elastic Constant Matrix: (Units=GPa)
#
#
# Indices 1 2 3 4 5 6 
#
# 1 52.8606 12.8910 18.3962 0.0000 0.0000 0.0000
# 2 12.8910 88.7618 14.5349 0.0000 0.0000 0.0000
# 3 18.3962 14.5349 123.3588 0.0000 0.0000 0.0000
# 4 0.0000 0.0000 0.0000 16.5741 0.0000 0.0000
# 5 0.0000 0.0000 0.0000 0.0000 28.1818 0.0000
# 6 0.0000 0.0000 0.0000 0.0000 0.0000 24.2247
#
#
#
# Elastic Compliance Matrix: (Units=1/GPa)
#
#
# Indices 1 2 3 4 5 6 
#
# 1 0.020493 -0.002525 -0.002759 0.000000 0.000000 0.000000
# 2 -0.002525 0.011799 -0.001014 0.000000 0.000000 0.000000
# 3 -0.002759 -0.001014 0.008637 0.000000 0.000000 0.000000
# 4 0.000000 0.000000 0.000000 0.060335 0.000000 0.000000
# 5 0.000000 0.000000 0.000000 0.000000 0.035484 0.000000
# 6 0.000000 0.000000 0.000000 0.000000 0.000000 0.041280
#
#
# Mechanical properties :
#
#
# Convention : Reuss Voigt Hill
#
# Bulk Modulus (GPa) = 35.29136 39.62504 37.45820
# Shear Modulus (GPa) = 24.99156 28.40674 26.69915
#
# Velocity S-wave (km/s) = 3.75828 4.00686 3.88456
# Velocity P-wave (km/s) = 6.22727 6.61829 6.42575
#
# Compressibility (1/GPa) = 0.02833554
#
# Stress axis : x y z
#
# Youngs Moduli (GPa) = 48.79620 84.75477 115.77735
#
# Poissons Ratio (x) = 0.21397 0.31939
# Poissons Ratio (y) = 0.12319 0.11737
# Poissons Ratio (z) = 0.13461 0.08592
#
# Static dielectric constant tensor:
#      x y z
#    x 2.808920 0.000000 0.000000 
#    y 0.000000 3.685710 0.000000 
#    z 0.000000 0.000000 3.639280 
# 
# 
# High freq. dielectric constant tensor:
#      x y z
#    x 1.634210 0.000000 0.000000 
#    y 0.000000 1.717330 0.000000 
#    z 0.000000 0.000000 1.683770 
# 
# From -- ./inp_files/27534.got.cif
#   From: 2010.03.12/outbox.cif.g09.slc.cpg/sg57_14_cif.got.tgz:27534.got - 2010.04.16 15:48:40.
