data_PCOD8230151
_publ_section_title
;
Structure prediction by ZEFSAII (Michael W. Deem and Ramdas Pophale) SiO2 
 PCOD8230151
Probable space group: P B C M
;
_chemical_formula_sum "Si O2"
_cell_formula_units_Z 56
_cell_length_a 14.575039
_cell_length_b 8.517242
_cell_length_c 22.297227
_cell_angle_alpha 90.000000
_cell_angle_beta 90.000000
_cell_angle_gamma 90.000000
_cell_volume 2767.958458
_symmetry_space_group_name_H-M "P B C M"
_symmetry_group_IT_number 57
_symmetry_cell_setting 'orthorhombic'
loop_
_space_group_symop_operation_xyz
x,y,z
-x,-y,1/2+z
x,1/2-y,-z
-x,1/2+y,1/2-z
-x,-y,-z
x,y,1/2-z
-x,1/2+y,z
x,1/2-y,1/2+z
loop_
_atom_site_type_symbol
_atom_site_label
_atom_site_fract_x
_atom_site_fract_y
_atom_site_fract_z
Si Si1 0.225246 0.041331 0.025147
Si Si2 0.901848 0.969846 0.409102
Si Si3 0.464200 0.677811 0.892276
Si Si4 0.382232 0.519783 0.441063
Si Si5 0.911777 0.308558 0.433619
Si Si6 0.745413 0.705352 0.877061
Si Si7 0.399400 0.106783 0.319174
O O1 0.242355 0.202732 0.059844
O O2 0.182621 0.907966 0.068902
O O3 0.150423 0.059626 0.972247
O O4 0.326325 0.986594 0.003345
O O5 0.844942 0.867601 0.359435
O O6 0.006267 0.915597 0.409550
O O7 0.899542 0.154281 0.392281
O O8 0.523120 0.581386 0.942329
O O9 0.527352 0.772766 0.845924
O O10 0.402501 0.557570 0.854168
O O11 0.399000 0.797996 0.926972
O O12 0.321057 0.443007 0.388371
O O13 0.937454 0.250000 0.500000
O O14 0.702844 0.819083 0.826714
O O15 0.420763 0.077672 0.250000
#
# Coordination Sequence:
#
# PCOD8230151 Si02
#       7
#     8   8   8   8   8   8   8
#     4  10  19  32  48  73 111 145 174 215 255 307
#     4  10  18  30  47  75 106 136 172 206 247 307
#     4   9  19  35  55  75  99 133 178 219 269 322
#     4   9  18  34  50  74 104 138 175 214 259 316
#     4  10  18  28  48  73 103 143 174 203 246 299
#     4  10  20  33  50  74 105 137 172 214 261 312
#     4  10  20  36  56  76  97 128 172 227 274 313
#
# _framework density 20.231518000000001
#
# number of rings (size 3 to 8) (size 9 to 14) (size 15 to 20)
#    0.000    2.286    0.000    5.571    0.000    4.571 
#    0.000   15.000    0.000    0.000    0.000    4.000 
#    0.000    0.000    0.000    0.000    0.000    0.000 
#
# Total GULP energy -694100.629681 kJ/mol
# GULP energy per Si atom -12394.654101 kJ/mol
# Density = 2.018547 g / cm^3
# Si number density = 20.231518 Si / 1000 Ang^3
#
#
#
# Elastic Constant Matrix: (Units=GPa)
#
#
# Indices 1 2 3 4 5 6 
#
# 1 109.6896 70.7170 25.5642 0.0000 0.0000 0.0000
# 2 70.7170 156.7047 34.1323 0.0000 0.0000 0.0000
# 3 25.5642 34.1323 30.6947 0.0000 0.0000 0.0000
# 4 0.0000 0.0000 0.0000 15.2142 0.0000 0.0000
# 5 0.0000 0.0000 0.0000 0.0000 14.2612 0.0000
# 6 0.0000 0.0000 0.0000 0.0000 0.0000 40.0457
#
#
#
# Elastic Compliance Matrix: (Units=1/GPa)
#
#
# Indices 1 2 3 4 5 6 
#
# 1 0.013636 -0.004856 -0.005957 0.000000 0.000000 0.000000
# 2 -0.004856 0.010150 -0.007243 0.000000 0.000000 0.000000
# 3 -0.005957 -0.007243 0.045594 0.000000 0.000000 0.000000
# 4 0.000000 0.000000 0.000000 0.065728 0.000000 0.000000
# 5 0.000000 0.000000 0.000000 0.000000 0.070120 0.000000
# 6 0.000000 0.000000 0.000000 0.000000 0.000000 0.024971
#
#
# Mechanical properties :
#
#
# Convention : Reuss Voigt Hill
#
# Bulk Modulus (GPa) = 30.05802 61.99068 46.02435
# Shear Modulus (GPa) = 18.02450 25.01593 21.52021
#
# Velocity S-wave (km/s) = 2.98805 3.52018 3.26498
# Velocity P-wave (km/s) = 5.17628 6.87236 6.08372
#
# Compressibility (1/GPa) = 0.03326900
#
# Stress axis : x y z
#
# Youngs Moduli (GPa) = 73.33795 98.51831 21.93272
#
# Poissons Ratio (x) = 0.47840 0.13064
# Poissons Ratio (y) = 0.35613 0.15886
# Poissons Ratio (z) = 0.43684 0.71356
#
# Static dielectric constant tensor:
#      x y z
#    x 3.955680 0.000000 0.000000 
#    y 0.000000 4.164660 0.000000 
#    z 0.000000 0.000000 2.992750 
# 
# 
# High freq. dielectric constant tensor:
#      x y z
#    x 1.797580 0.000000 0.000000 
#    y 0.000000 1.821130 0.000000 
#    z 0.000000 0.000000 1.702260 
# 
# From -- ./inp_files/25401.got.cif
#   From: 2010.03.12/outbox.cif.g09.slc.cpg/sg57_13_cif.got.tgz:25401.got - 2010.04.16 15:48:40.
