data_PCOD8230730
_publ_section_title
;
Structure prediction by ZEFSAII (Michael W. Deem and Ramdas Pophale) SiO2 
 PCOD8230730
Probable space group: P B C M
;
_chemical_formula_sum "Si O2"
_cell_formula_units_Z 48
_cell_length_a 12.756021
_cell_length_b 26.486704
_cell_length_c 8.974755
_cell_angle_alpha 90.000000
_cell_angle_beta 90.000000
_cell_angle_gamma 90.000000
_cell_volume 3032.255171
_symmetry_space_group_name_H-M "P B C M"
_symmetry_group_IT_number 57
_symmetry_cell_setting 'orthorhombic'
loop_
_space_group_symop_operation_xyz
x,y,z
-x,-y,1/2+z
x,1/2-y,-z
-x,1/2+y,1/2-z
-x,-y,-z
x,y,1/2-z
-x,1/2+y,z
x,1/2-y,1/2+z
loop_
_atom_site_type_symbol
_atom_site_label
_atom_site_fract_x
_atom_site_fract_y
_atom_site_fract_z
Si Si1 0.506964 0.553268 0.577721
Si Si2 0.957015 0.802862 0.418505
Si Si3 0.886740 0.384771 0.081473
Si Si4 0.309332 0.576204 0.422955
Si Si5 0.737168 0.959228 0.418745
Si Si6 0.088679 0.101365 0.425779
O O1 0.500000 0.500000 0.500000
O O2 0.476653 0.547489 0.750000
O O3 0.422046 0.589553 0.497816
O O4 0.627543 0.571503 0.560222
O O5 0.955692 0.750000 0.500000
O O6 0.915478 0.796237 0.250000
O O7 0.882776 0.843317 0.505200
O O8 0.075423 0.826021 0.418605
O O9 0.875437 0.405362 0.250000
O O10 0.777079 0.387931 0.996688
O O11 0.977110 0.417237 0.995495
O O12 0.317303 0.588931 0.250000
O O13 0.279113 0.518197 0.453079
O O14 0.778157 0.951909 0.250000
O O15 0.821464 0.938294 0.533950
O O16 0.077407 0.105442 0.250000
#
# Coordination Sequence:
#
# PCOD8230730 Si02
#       6
#     8   8   8   8   8   8
#     4   9  17  29  45  63  87 120 159 195 226 262
#     4   9  18  32  50  69  91 117 146 185 227 274
#     4   9  19  32  46  66  93 120 151 187 226 275
#     4  10  19  30  46  66  92 124 158 193 227 268
#     4   9  18  31  44  63  92 125 157 190 225 265
#     4  10  19  30  46  68  92 119 153 188 226 273
#
# _framework density 15.829803
#
# number of rings (size 3 to 8) (size 9 to 14) (size 15 to 20)
#    1.000    1.667    0.000    4.000    0.000    4.667 
#    0.000    0.000    0.000    0.000    0.000    1.167 
#    0.000    5.333    0.000    0.000    0.000    0.000 
#
# Total GULP energy -594713.786607 kJ/mol
# GULP energy per Si atom -12389.870554 kJ/mol
# Density = 1.579377 g / cm^3
# Si number density = 15.829803 Si / 1000 Ang^3
#
#
#
# Elastic Constant Matrix: (Units=GPa)
#
#
# Indices 1 2 3 4 5 6 
#
# 1 31.5614 -13.6516 10.2184 0.0000 0.0000 0.0000
# 2 -13.6516 17.2540 3.6267 0.0000 0.0000 0.0000
# 3 10.2184 3.6267 113.7056 0.0000 0.0000 0.0000
# 4 0.0000 0.0000 0.0000 24.9827 0.0000 0.0000
# 5 0.0000 0.0000 0.0000 0.0000 29.5841 0.0000
# 6 0.0000 0.0000 0.0000 0.0000 0.0000 7.5917
#
#
#
# Elastic Compliance Matrix: (Units=1/GPa)
#
#
# Indices 1 2 3 4 5 6 
#
# 1 0.051966 0.042382 -0.006022 0.000000 0.000000 0.000000
# 2 0.042382 0.092914 -0.006772 0.000000 0.000000 0.000000
# 3 -0.006022 -0.006772 0.009552 0.000000 0.000000 0.000000
# 4 0.000000 0.000000 0.000000 0.040028 0.000000 0.000000
# 5 0.000000 0.000000 0.000000 0.000000 0.033802 0.000000
# 6 0.000000 0.000000 0.000000 0.000000 0.000000 0.131722
#
#
# Mechanical properties :
#
#
# Convention : Reuss Voigt Hill
#
# Bulk Modulus (GPa) = 4.68149 18.10090 11.39120
# Shear Modulus (GPa) = 13.44047 23.25353 18.34700
#
# Velocity S-wave (km/s) = 2.91703 3.83687 3.40813
# Velocity P-wave (km/s) = 3.78275 5.57569 4.76432
#
# Compressibility (1/GPa) = 0.21360725
#
# Stress axis : x y z
#
# Youngs Moduli (GPa) = 19.24341 10.76262 104.69203
#
# Poissons Ratio (x) = -0.45614 0.63044
# Poissons Ratio (y) = -0.81557 0.70901
# Poissons Ratio (z) = 0.11588 0.07289
#
# Static dielectric constant tensor:
#      x y z
#    x 3.134300 0.000000 0.000000 
#    y 0.000000 2.573530 0.000000 
#    z 0.000000 0.000000 3.152380 
# 
# 
# High freq. dielectric constant tensor:
#      x y z
#    x 1.600680 0.000000 0.000000 
#    y 0.000000 1.554270 0.000000 
#    z 0.000000 0.000000 1.630030 
# 
# From -- ./inp_files/3143.got.cif
#   From: 2010.03.12/outbox.cif.g09.slc.cpg/sg57_2_cif.got.tgz:3143.got - 2010.04.16 15:48:40.
