data_PCOD8230956
_publ_section_title
;
Structure prediction by ZEFSAII (Michael W. Deem and Ramdas Pophale) SiO2 
 PCOD8230956
Probable space group: P B C M
;
_chemical_formula_sum "Si O2"
_cell_formula_units_Z 64
_cell_length_a 25.219473
_cell_length_b 14.276571
_cell_length_c 9.331160
_cell_angle_alpha 90.000000
_cell_angle_beta 90.000000
_cell_angle_gamma 90.000000
_cell_volume 3359.661734
_symmetry_space_group_name_H-M "P B C M"
_symmetry_group_IT_number 57
_symmetry_cell_setting 'orthorhombic'
loop_
_space_group_symop_operation_xyz
x,y,z
-x,-y,1/2+z
x,1/2-y,-z
-x,1/2+y,1/2-z
-x,-y,-z
x,y,1/2-z
-x,1/2+y,z
x,1/2-y,1/2+z
loop_
_atom_site_type_symbol
_atom_site_label
_atom_site_fract_x
_atom_site_fract_y
_atom_site_fract_z
Si Si1 0.218013 0.153296 0.417047
Si Si2 0.359728 0.655702 0.585296
Si Si3 0.910030 0.337556 0.087133
Si Si4 0.322496 0.459547 0.916557
Si Si5 0.524253 0.342489 0.086831
Si Si6 0.590086 0.651526 0.581581
Si Si7 0.113411 0.457896 0.583243
Si Si8 0.032531 0.342018 0.418541
O O1 0.223231 0.250000 0.500000
O O2 0.217213 0.177080 0.250000
O O3 0.266689 0.086237 0.457251
O O4 0.165211 0.098944 0.464093
O O5 0.345493 0.750000 0.500000
O O6 0.356593 0.685563 0.750000
O O7 0.318888 0.571398 0.551999
O O8 0.418674 0.612320 0.546984
O O9 0.905618 0.306104 0.250000
O O10 0.876461 0.431489 0.056353
O O11 0.971009 0.358375 0.046710
O O12 0.886504 0.250000 0.000000
O O13 0.337248 0.442165 0.750000
O O14 0.367217 0.418203 0.017910
O O15 0.525851 0.311196 0.250000
O O16 0.468620 0.397627 0.058489
O O17 0.517761 0.250000 0.000000
O O18 0.595052 0.750000 0.500000
O O19 0.601551 0.667900 0.750000
O O20 0.098888 0.440968 0.750000
O O21 0.064494 0.428858 0.483525
O O22 0.053707 0.250000 0.500000
O O23 0.043976 0.332382 0.250000
#
# Coordination Sequence:
#
# PCOD8230956 Si02
#       8
#     8   8   8   8   8   8   8   8
#     4  10  22  39  57  76 101 132 167 209 255 301
#     4   9  18  34  54  74 100 132 166 205 250 300
#     4   9  19  34  52  76 108 142 173 208 252 302
#     4  10  21  36  53  74 100 133 170 209 255 302
#     4   8  15  28  46  70  99 130 162 198 244 298
#     4  10  19  31  49  74 103 133 166 205 250 302
#     4  10  20  35  54  76 103 137 176 216 257 300
#     4  10  19  31  50  78 109 140 173 210 254 305
#
# _framework density 19.049537000000001
#
# number of rings (size 3 to 8) (size 9 to 14) (size 15 to 20)
#    0.000    2.500    0.000    1.875    0.000    5.500 
#    0.000    0.625    0.000    0.000    0.000    0.000 
#    0.000    0.000    0.000    0.000    0.000    0.000 
#
# Total GULP energy -793105.668906 kJ/mol
# GULP energy per Si atom -12392.276077 kJ/mol
# Density = 1.900618 g / cm^3
# Si number density = 19.049537 Si / 1000 Ang^3
#
#
#
# Elastic Constant Matrix: (Units=GPa)
#
#
# Indices 1 2 3 4 5 6 
#
# 1 68.6264 50.7228 34.2721 0.0000 0.0000 0.0000
# 2 50.7228 116.7607 49.0606 0.0000 0.0000 0.0000
# 3 34.2721 49.0606 64.2706 0.0000 0.0000 0.0000
# 4 0.0000 0.0000 0.0000 32.4484 0.0000 0.0000
# 5 0.0000 0.0000 0.0000 0.0000 19.3362 0.0000
# 6 0.0000 0.0000 0.0000 0.0000 0.0000 32.6496
#
#
#
# Elastic Compliance Matrix: (Units=1/GPa)
#
#
# Indices 1 2 3 4 5 6 
#
# 1 0.023395 -0.007245 -0.006945 0.000000 0.000000 0.000000
# 2 -0.007245 0.014852 -0.007474 0.000000 0.000000 0.000000
# 3 -0.006945 -0.007474 0.024968 0.000000 0.000000 0.000000
# 4 0.000000 0.000000 0.000000 0.030818 0.000000 0.000000
# 5 0.000000 0.000000 0.000000 0.000000 0.051716 0.000000
# 6 0.000000 0.000000 0.000000 0.000000 0.000000 0.030628
#
#
# Mechanical properties :
#
#
# Convention : Reuss Voigt Hill
#
# Bulk Modulus (GPa) = 50.28356 57.52984 53.90670
# Shear Modulus (GPa) = 22.09122 24.59368 23.34245
#
# Velocity S-wave (km/s) = 3.40909 3.59700 3.50430
# Velocity P-wave (km/s) = 6.47683 6.89325 6.68828
#
# Compressibility (1/GPa) = 0.01988721
#
# Stress axis : x y z
#
# Youngs Moduli (GPa) = 42.74460 67.32952 40.05169
#
# Poissons Ratio (x) = 0.48780 0.27815
# Poissons Ratio (y) = 0.30969 0.29935
# Poissons Ratio (z) = 0.29685 0.50322
#
# Static dielectric constant tensor:
#      x y z
#    x 3.653650 0.000000 0.000000 
#    y 0.000000 3.355410 0.000000 
#    z 0.000000 0.000000 3.480640 
# 
# 
# High freq. dielectric constant tensor:
#      x y z
#    x 1.729610 0.000000 0.000000 
#    y 0.000000 1.733100 0.000000 
#    z 0.000000 0.000000 1.740440 
# 
# From -- ./inp_files/9338.got.cif
#   From: 2010.03.12/outbox.cif.g09.slc.cpg/sg57_5_cif.got.tgz:9338.got - 2010.04.16 15:48:40.
