data_PCOD8230612
_publ_section_title
;
Structure prediction by ZEFSAII (Michael W. Deem and Ramdas Pophale) SiO2 
 PCOD8230612
Probable space group: P B C M
;
_chemical_formula_sum "Si O2"
_cell_formula_units_Z 48
_cell_length_a 16.058009
_cell_length_b 9.690399
_cell_length_c 15.102839
_cell_angle_alpha 90.000000
_cell_angle_beta 90.000000
_cell_angle_gamma 90.000000
_cell_volume 2350.130339
_symmetry_space_group_name_H-M "P B C M"
_symmetry_group_IT_number 57
_symmetry_cell_setting 'orthorhombic'
loop_
_space_group_symop_operation_xyz
x,y,z
-x,-y,1/2+z
x,1/2-y,-z
-x,1/2+y,1/2-z
-x,-y,-z
x,y,1/2-z
-x,1/2+y,z
x,1/2-y,1/2+z
loop_
_atom_site_type_symbol
_atom_site_label
_atom_site_fract_x
_atom_site_fract_y
_atom_site_fract_z
Si Si1 0.635392 0.231720 0.649356
Si Si2 0.803614 0.334674 0.409449
Si Si3 0.594242 0.457608 0.989964
Si Si4 0.099442 0.453951 0.151969
Si Si5 0.762723 0.908883 0.487617
Si Si6 0.977996 0.268731 0.602487
O O1 0.598184 0.224165 0.750000
O O2 0.735624 0.227543 0.657978
O O3 0.600081 0.362832 0.597019
O O4 0.613574 0.103928 0.586308
O O5 0.791006 0.250000 0.500000
O O6 0.790655 0.498348 0.428210
O O7 0.893756 0.309533 0.367576
O O8 0.662867 0.577210 0.972025
O O9 0.500000 0.500000 0.000000
O O10 0.130552 0.485252 0.250000
O O11 0.182817 0.464164 0.094287
O O12 0.030872 0.568804 0.123055
O O13 0.055462 0.303558 0.151015
O O14 0.785516 0.750000 0.500000
O O15 0.995863 0.250000 0.500000
#
# Coordination Sequence:
#
# PCOD8230612 Si02
#       6
#     8   8   8   8   8   8
#     4  10  20  38  66  93 121 162 215 263 310 386
#     4  10  18  41  62  90 116 163 222 252 313 379
#     4  10  22  41  65  93 127 165 207 263 330 394
#     4  12  25  40  59  93 129 165 217 271 321 372
#     4  11  23  40  64  90 122 167 207 257 325 390
#     4  11  22  39  64  86 121 170 217 260 307 378
#
# _framework density 20.424399999999999
#
# number of rings (size 3 to 8) (size 9 to 14) (size 15 to 20)
#    0.000    1.333    6.667    1.500    4.667    4.000 
#    0.000    3.333    0.000    0.000    0.000    0.000 
#    0.000    0.000    0.000    0.000    0.000    0.000 
#
# Total GULP energy -594752.354547 kJ/mol
# GULP energy per Si atom -12390.674053 kJ/mol
# Density = 2.037791 g / cm^3
# Si number density = 20.424400 Si / 1000 Ang^3
#
#
#
# Elastic Constant Matrix: (Units=GPa)
#
#
# Indices 1 2 3 4 5 6 
#
# 1 113.6459 18.3718 25.9249 0.0000 0.0000 0.0000
# 2 18.3718 102.4018 23.6398 0.0000 0.0000 0.0000
# 3 25.9249 23.6398 129.0194 0.0000 0.0000 0.0000
# 4 0.0000 0.0000 0.0000 11.0305 0.0000 0.0000
# 5 0.0000 0.0000 0.0000 0.0000 12.7425 0.0000
# 6 0.0000 0.0000 0.0000 0.0000 0.0000 20.6945
#
#
#
# Elastic Compliance Matrix: (Units=1/GPa)
#
#
# Indices 1 2 3 4 5 6 
#
# 1 0.009386 -0.001304 -0.001647 0.000000 0.000000 0.000000
# 2 -0.001304 0.010378 -0.001640 0.000000 0.000000 0.000000
# 3 -0.001647 -0.001640 0.008382 0.000000 0.000000 0.000000
# 4 0.000000 0.000000 0.000000 0.090658 0.000000 0.000000
# 5 0.000000 0.000000 0.000000 0.000000 0.078477 0.000000
# 6 0.000000 0.000000 0.000000 0.000000 0.000000 0.048322
#
#
# Mechanical properties :
#
#
# Convention : Reuss Voigt Hill
#
# Bulk Modulus (GPa) = 52.72827 53.43778 53.08302
# Shear Modulus (GPa) = 19.14937 27.36888 23.25913
#
# Velocity S-wave (km/s) = 3.06530 3.66458 3.37826
# Velocity P-wave (km/s) = 6.19681 6.64275 6.42365
#
# Compressibility (1/GPa) = 0.01896516
#
# Stress axis : x y z
#
# Youngs Moduli (GPa) = 106.54461 96.35927 119.30125
#
# Poissons Ratio (x) = 0.12562 0.19650
# Poissons Ratio (y) = 0.13890 0.19560
# Poissons Ratio (z) = 0.17549 0.15799
#
# Static dielectric constant tensor:
#      x y z
#    x 4.069930 0.000000 0.000000 
#    y 0.000000 3.727270 0.000000 
#    z 0.000000 0.000000 3.579560 
# 
# 
# High freq. dielectric constant tensor:
#      x y z
#    x 1.798500 0.000000 0.000000 
#    y 0.000000 1.793400 0.000000 
#    z 0.000000 0.000000 1.779780 
# 
# From -- ./inp_files/18969.got.cif
#   From: 2010.03.12/outbox.cif.g09.slc.cpg/sg57_10_cif.got.tgz:18969.got - 2010.04.16 15:48:40.
