data_PCOD8230600
_publ_section_title
;
Structure prediction by ZEFSAII (Michael W. Deem and Ramdas Pophale) SiO2 
 PCOD8230600
Probable space group: P B C M
;
_chemical_formula_sum "Si O2"
_cell_formula_units_Z 48
_cell_length_a 9.040072
_cell_length_b 9.242541
_cell_length_c 26.961292
_cell_angle_alpha 90.000000
_cell_angle_beta 90.000000
_cell_angle_gamma 90.000000
_cell_volume 2252.703196
_symmetry_space_group_name_H-M "P B C M"
_symmetry_group_IT_number 57
_symmetry_cell_setting 'orthorhombic'
loop_
_space_group_symop_operation_xyz
x,y,z
-x,-y,1/2+z
x,1/2-y,-z
-x,1/2+y,1/2-z
-x,-y,-z
x,y,1/2-z
-x,1/2+y,z
x,1/2-y,1/2+z
loop_
_atom_site_type_symbol
_atom_site_label
_atom_site_fract_x
_atom_site_fract_y
_atom_site_fract_z
Si Si1 0.328629 0.039341 0.354509
Si Si2 0.828504 0.565162 0.449820
Si Si3 0.952157 0.829313 0.807381
Si Si4 0.471781 0.313446 0.192939
Si Si5 0.817438 0.541907 0.836706
Si Si6 0.874877 0.895200 0.441782
O O1 0.312998 0.029040 0.414674
O O2 0.164455 0.066830 0.334482
O O3 0.437194 0.169125 0.338100
O O4 0.387695 0.888841 0.332565
O O5 0.888587 0.723321 0.435674
O O6 0.785811 0.560756 0.508197
O O7 0.957762 0.450575 0.440999
O O8 0.912475 0.832937 0.750000
O O9 0.940781 0.665472 0.826496
O O10 0.117086 0.889448 0.817881
O O11 0.506934 0.274059 0.250000
O O12 0.333189 0.423665 0.192061
O O13 0.784386 0.537582 0.895658
#
# Coordination Sequence:
#
# PCOD8230600 Si02
#       6
#     8   8   8   8   8   8
#     4  11  22  41  58  85 118 164 204 245 301 355
#     4  10  20  36  65  91 123 153 195 251 308 366
#     4  11  21  35  57  86 118 150 199 250 297 353
#     4  11  23  40  59  82 121 165 204 245 300 359
#     4  11  20  37  58  86 117 152 194 251 302 355
#     4  10  18  37  63  95 120 151 193 246 312 356
#
# _framework density 21.307734
#
# number of rings (size 3 to 8) (size 9 to 14) (size 15 to 20)
#    0.000    1.333    5.000    4.000    0.000    1.333 
#    3.000    4.167    0.000    0.000    0.000    0.000 
#    0.000    0.000    0.000    0.000    0.000    0.000 
#
# Total GULP energy -595198.620639 kJ/mol
# GULP energy per Si atom -12399.971263 kJ/mol
# Density = 2.125924 g / cm^3
# Si number density = 21.307734 Si / 1000 Ang^3
#
#
#
# Elastic Constant Matrix: (Units=GPa)
#
#
# Indices 1 2 3 4 5 6 
#
# 1 27.2874 20.2176 27.6605 0.0000 0.0000 0.0000
# 2 20.2176 39.3795 32.1876 0.0000 0.0000 0.0000
# 3 27.6605 32.1876 155.8931 0.0000 0.0000 0.0000
# 4 0.0000 0.0000 0.0000 26.3787 0.0000 0.0000
# 5 0.0000 0.0000 0.0000 0.0000 36.2834 0.0000
# 6 0.0000 0.0000 0.0000 0.0000 0.0000 40.5629
#
#
#
# Elastic Compliance Matrix: (Units=1/GPa)
#
#
# Indices 1 2 3 4 5 6 
#
# 1 0.062693 -0.027784 -0.005387 0.000000 0.000000 0.000000
# 2 -0.027784 0.042862 -0.003920 0.000000 0.000000 0.000000
# 3 -0.005387 -0.003920 0.008180 0.000000 0.000000 0.000000
# 4 0.000000 0.000000 0.000000 0.037909 0.000000 0.000000
# 5 0.000000 0.000000 0.000000 0.000000 0.027561 0.000000
# 6 0.000000 0.000000 0.000000 0.000000 0.000000 0.024653
#
#
# Mechanical properties :
#
#
# Convention : Reuss Voigt Hill
#
# Bulk Modulus (GPa) = 25.28227 42.52128 33.90178
# Shear Modulus (GPa) = 17.16883 30.14462 23.65672
#
# Velocity S-wave (km/s) = 2.84166 3.76537 3.33564
# Velocity P-wave (km/s) = 4.76002 6.23723 5.54801
#
# Compressibility (1/GPa) = 0.03955340
#
# Stress axis : x y z
#
# Youngs Moduli (GPa) = 15.95069 23.33043 122.25035
#
# Poissons Ratio (x) = 0.64820 0.65859
# Poissons Ratio (y) = 0.44317 0.47924
# Poissons Ratio (z) = 0.08593 0.09146
#
# Static dielectric constant tensor:
#      x y z
#    x 3.450980 0.000000 0.000000 
#    y 0.000000 3.793790 0.000000 
#    z 0.000000 0.000000 4.342220 
# 
# 
# High freq. dielectric constant tensor:
#      x y z
#    x 1.794870 0.000000 0.000000 
#    y 0.000000 1.833240 0.000000 
#    z 0.000000 0.000000 1.857330 
# 
# From -- ./inp_files/29479.got.cif
#   From: 2010.03.12/outbox.cif.g09.slc.cpg/sg57_15_cif.got.tgz:29479.got - 2010.04.16 15:48:40.
