data_PCOD8230556
_publ_section_title
;
Structure prediction by ZEFSAII (Michael W. Deem and Ramdas Pophale) SiO2 
 PCOD8230556
Probable space group: P B C M
;
_chemical_formula_sum "Si O2"
_cell_formula_units_Z 56
_cell_length_a 7.256961
_cell_length_b 16.182842
_cell_length_c 21.893619
_cell_angle_alpha 90.000000
_cell_angle_beta 90.000000
_cell_angle_gamma 90.000000
_cell_volume 2571.148373
_symmetry_space_group_name_H-M "P B C M"
_symmetry_group_IT_number 57
_symmetry_cell_setting 'orthorhombic'
loop_
_space_group_symop_operation_xyz
x,y,z
-x,-y,1/2+z
x,1/2-y,-z
-x,1/2+y,1/2-z
-x,-y,-z
x,y,1/2-z
-x,1/2+y,z
x,1/2-y,1/2+z
loop_
_atom_site_type_symbol
_atom_site_label
_atom_site_fract_x
_atom_site_fract_y
_atom_site_fract_z
Si Si1 0.400996 0.768245 0.067961
Si Si2 0.088759 0.205358 0.181949
Si Si3 0.832279 0.795913 0.438059
Si Si4 0.366770 0.065455 0.316970
Si Si5 0.239541 0.020890 0.953612
Si Si6 0.250184 0.885355 0.858764
Si Si7 0.334888 0.949651 0.075321
O O1 0.619303 0.776515 0.071782
O O2 0.337640 0.693691 0.109106
O O3 0.299409 0.852875 0.087943
O O4 0.335317 0.750000 0.000000
O O5 0.097674 0.248238 0.250000
O O6 0.063569 0.267128 0.124215
O O7 0.275727 0.154402 0.170474
O O8 0.916494 0.142517 0.184198
O O9 0.903959 0.750000 0.500000
O O10 0.871239 0.893591 0.444993
O O11 0.313018 0.033069 0.250000
O O12 0.587746 0.072907 0.319808
O O13 0.286842 0.998738 0.363614
O O14 0.455018 0.037492 0.944463
O O15 0.169379 0.951957 0.906467
O O16 0.204491 0.986090 0.021884
#
# Coordination Sequence:
#
# PCOD8230556 Si02
#       7
#     8   8   8   8   8   8   8
#     4  10  18  34  63  95 124 157 201 256 313 366
#     4  11  24  42  62  89 123 163 209 255 308 373
#     4  10  20  38  63  93 126 164 204 257 310 369
#     4  10  21  40  61  82 117 161 201 254 309 366
#     4   9  18  33  61  92 122 155 202 251 314 360
#     4  11  21  39  64  88 119 162 207 250 311 374
#     4   9  17  33  60  93 118 155 200 253 305 371
#
# _framework density 21.780149999999999
#
# number of rings (size 3 to 8) (size 9 to 14) (size 15 to 20)
#    0.000    2.000    2.857    1.286    4.000    0.571 
#    2.571   10.000    0.000    0.000    0.000    0.000 
#    0.000    0.000    0.000    0.000    0.000    0.000 
#
# Total GULP energy -694301.475345 kJ/mol
# GULP energy per Si atom -12398.240631 kJ/mol
# Density = 2.173058 g / cm^3
# Si number density = 21.780150 Si / 1000 Ang^3
#
#
#
# Elastic Constant Matrix: (Units=GPa)
#
#
# Indices 1 2 3 4 5 6 
#
# 1 39.7619 -0.1062 6.7722 0.0000 0.0000 0.0000
# 2 -0.1062 128.1154 58.1006 0.0000 0.0000 0.0000
# 3 6.7722 58.1006 142.7326 0.0000 0.0000 0.0000
# 4 0.0000 0.0000 0.0000 35.7612 0.0000 0.0000
# 5 0.0000 0.0000 0.0000 0.0000 21.5710 0.0000
# 6 0.0000 0.0000 0.0000 0.0000 0.0000 -6.0707
#
#
#
# Elastic Compliance Matrix: (Units=1/GPa)
#
#
# Indices 1 2 3 4 5 6 
#
# 1 0.025405 0.000696 -0.001489 0.000000 0.000000 0.000000
# 2 0.000696 0.009592 -0.003937 0.000000 0.000000 0.000000
# 3 -0.001489 -0.003937 0.008680 0.000000 0.000000 0.000000
# 4 0.000000 0.000000 0.000000 0.027963 0.000000 0.000000
# 5 0.000000 0.000000 0.000000 0.000000 0.046359 0.000000
# 6 0.000000 0.000000 0.000000 0.000000 0.000000 -0.164725
#
#
# Mechanical properties :
#
#
# Convention : Reuss Voigt Hill
#
# Bulk Modulus (GPa) = 29.22578 48.90480 39.06529
# Shear Modulus (GPa) = -193.33592 26.64185 -83.34703
#
# Velocity S-wave (km/s) = -9.43185 3.50125 -6.19278
# Velocity P-wave (km/s) = 10.25501 6.23278 5.75837
#
# Compressibility (1/GPa) = 0.03421637
#
# Stress axis : x y z
#
# Youngs Moduli (GPa) = 39.36208 104.25720 115.21392
#
# Poissons Ratio (x) = -0.07259 0.17153
# Poissons Ratio (y) = -0.02740 0.45364
# Poissons Ratio (z) = 0.05860 0.41050
#
# Static dielectric constant tensor:
#      x y z
#    x 3.784400 0.000000 0.000000 
#    y 0.000000 3.983190 0.000000 
#    z 0.000000 0.000000 3.791430 
# 
# 
# High freq. dielectric constant tensor:
#      x y z
#    x 1.852340 0.000000 0.000000 
#    y 0.000000 1.848700 0.000000 
#    z 0.000000 0.000000 1.850390 
# 
# From -- ./inp_files/24526.got.cif
#   From: 2010.03.12/outbox.cif.g09.slc.cpg/sg57_13_cif.got.tgz:24526.got - 2010.04.16 15:48:40.
