data_PCOD8230784
_publ_section_title
;
Structure prediction by ZEFSAII (Michael W. Deem and Ramdas Pophale) SiO2 
 PCOD8230784
Probable space group: P B C M
;
_chemical_formula_sum "Si O2"
_cell_formula_units_Z 56
_cell_length_a 20.941446
_cell_length_b 14.891398
_cell_length_c 9.165060
_cell_angle_alpha 90.000000
_cell_angle_beta 90.000000
_cell_angle_gamma 90.000000
_cell_volume 2858.100197
_symmetry_space_group_name_H-M "P B C M"
_symmetry_group_IT_number 57
_symmetry_cell_setting 'orthorhombic'
loop_
_space_group_symop_operation_xyz
x,y,z
-x,-y,1/2+z
x,1/2-y,-z
-x,1/2+y,1/2-z
-x,-y,-z
x,y,1/2-z
-x,1/2+y,z
x,1/2-y,1/2+z
loop_
_atom_site_type_symbol
_atom_site_label
_atom_site_fract_x
_atom_site_fract_y
_atom_site_fract_z
Si Si1 0.653911 0.096837 0.586348
Si Si2 0.765070 0.019492 0.080896
Si Si3 0.087287 0.521507 0.080246
Si Si4 0.007277 0.348118 0.076681
Si Si5 0.589262 0.906109 0.589066
Si Si6 0.299364 0.334845 0.080875
Si Si7 0.539814 0.332227 0.582063
O O1 0.662486 0.134343 0.750000
O O2 0.723818 0.089499 0.513763
O O3 0.609147 0.159397 0.490490
O O4 0.616004 0.004873 0.585241
O O5 0.751326 0.039137 0.250000
O O6 0.838701 0.029783 0.040824
O O7 0.744215 0.919230 0.039173
O O8 0.073466 0.541291 0.250000
O O9 0.064774 0.419103 0.043174
O O10 0.054684 0.600148 0.985443
O O11 0.999754 0.331568 0.250000
O O12 0.017924 0.250000 0.000000
O O13 0.600552 0.863340 0.750000
O O14 0.627590 0.847799 0.471024
O O15 0.512788 0.910823 0.558646
O O16 0.299499 0.314981 0.250000
O O17 0.268008 0.250000 0.000000
O O18 0.505671 0.250000 0.500000
O O19 0.553025 0.312375 0.750000
#
# Coordination Sequence:
#
# PCOD8230784 Si02
#       7
#     8   8   8   8   8   8   8
#     4  10  20  35  54  76 101 130 167 210 257 311
#     4   9  19  36  55  75 103 141 179 215 258 308
#     4   9  19  37  59  83 114 150 187 226 267 315
#     4  10  20  35  58  88 119 150 184 223 268 316
#     4   9  19  34  52  73  97 128 167 211 261 316
#     4  10  19  30  47  72 103 137 173 215 264 317
#     4  11  22  35  51  72  98 129 167 213 263 311
#
# _framework density 19.593434999999999
#
# number of rings (size 3 to 8) (size 9 to 14) (size 15 to 20)
#    0.000    2.286    0.000    2.571    0.000    5.143 
#    0.000    0.714    0.000    3.429    0.000    0.000 
#    0.000    0.000    0.000    0.000    0.000    0.000 
#
# Total GULP energy -693953.089672 kJ/mol
# GULP energy per Si atom -12392.019458 kJ/mol
# Density = 1.954884 g / cm^3
# Si number density = 19.593435 Si / 1000 Ang^3
#
#
#
# Elastic Constant Matrix: (Units=GPa)
#
#
# Indices 1 2 3 4 5 6 
#
# 1 121.3271 22.3119 44.6101 0.0000 0.0000 0.0000
# 2 22.3119 59.9336 29.8160 0.0000 0.0000 0.0000
# 3 44.6101 29.8160 95.7193 0.0000 0.0000 0.0000
# 4 0.0000 0.0000 0.0000 34.0384 0.0000 0.0000
# 5 0.0000 0.0000 0.0000 0.0000 30.2473 0.0000
# 6 0.0000 0.0000 0.0000 0.0000 0.0000 15.0511
#
#
#
# Elastic Compliance Matrix: (Units=1/GPa)
#
#
# Indices 1 2 3 4 5 6 
#
# 1 0.010087 -0.001676 -0.004179 0.000000 0.000000 0.000000
# 2 -0.001676 0.020023 -0.005456 0.000000 0.000000 0.000000
# 3 -0.004179 -0.005456 0.014094 0.000000 0.000000 0.000000
# 4 0.000000 0.000000 0.000000 0.029379 0.000000 0.000000
# 5 0.000000 0.000000 0.000000 0.000000 0.033061 0.000000
# 6 0.000000 0.000000 0.000000 0.000000 0.000000 0.066440
#
#
# Mechanical properties :
#
#
# Convention : Reuss Voigt Hill
#
# Bulk Modulus (GPa) = 46.33386 52.27289 49.30337
# Shear Modulus (GPa) = 24.64259 27.88349 26.26304
#
# Velocity S-wave (km/s) = 3.55025 3.77650 3.66512
# Velocity P-wave (km/s) = 6.36433 6.76407 6.56724
#
# Compressibility (1/GPa) = 0.02158249
#
# Stress axis : x y z
#
# Youngs Moduli (GPa) = 99.13791 49.94159 70.95067
#
# Poissons Ratio (x) = 0.08371 0.29650
# Poissons Ratio (y) = 0.16617 0.38710
# Poissons Ratio (z) = 0.41429 0.27248
#
# Static dielectric constant tensor:
#      x y z
#    x 3.513060 0.000000 0.000000 
#    y 0.000000 3.017560 0.000000 
#    z 0.000000 0.000000 3.740830 
# 
# 
# High freq. dielectric constant tensor:
#      x y z
#    x 1.753510 0.000000 0.000000 
#    y 0.000000 1.754720 0.000000 
#    z 0.000000 0.000000 1.772050 
# 
# From -- ./inp_files/8160.got.cif
#   From: 2010.03.12/outbox.cif.g09.slc.cpg/sg57_5_cif.got.tgz:8160.got - 2010.04.16 15:48:40.
