data_PCOD8230592
_publ_section_title
;
Structure prediction by ZEFSAII (Michael W. Deem and Ramdas Pophale) SiO2 
 PCOD8230592
Probable space group: P B C M
;
_chemical_formula_sum "Si O2"
_cell_formula_units_Z 64
_cell_length_a 15.223096
_cell_length_b 23.549122
_cell_length_c 8.820625
_cell_angle_alpha 90.000000
_cell_angle_beta 90.000000
_cell_angle_gamma 90.000000
_cell_volume 3162.110663
_symmetry_space_group_name_H-M "P B C M"
_symmetry_group_IT_number 57
_symmetry_cell_setting 'orthorhombic'
loop_
_space_group_symop_operation_xyz
x,y,z
-x,-y,1/2+z
x,1/2-y,-z
-x,1/2+y,1/2-z
-x,-y,-z
x,y,1/2-z
-x,1/2+y,z
x,1/2-y,1/2+z
loop_
_atom_site_type_symbol
_atom_site_label
_atom_site_fract_x
_atom_site_fract_y
_atom_site_fract_z
Si Si1 0.847651 0.494242 0.571650
Si Si2 0.602582 0.111590 0.575260
Si Si3 0.252330 0.310496 0.928848
Si Si4 0.405336 0.125943 0.924277
Si Si5 0.649473 0.999151 0.429288
Si Si6 0.079753 0.876188 0.570728
Si Si7 0.252839 0.689473 0.072031
Si Si8 0.099347 0.382614 0.071438
O O1 0.840949 0.487499 0.750000
O O2 0.748982 0.497739 0.508734
O O3 0.895726 0.438620 0.505929
O O4 0.900956 0.550733 0.526838
O O5 0.630884 0.111529 0.750000
O O6 0.507687 0.141046 0.554496
O O7 0.594470 0.047306 0.515473
O O8 0.674297 0.145082 0.479702
O O9 0.245142 0.305758 0.750000
O O10 0.231067 0.250000 0.000000
O O11 0.349712 0.330809 0.974078
O O12 0.181743 0.354845 0.989966
O O13 0.375395 0.133259 0.750000
O O14 0.389133 0.061492 0.976829
O O15 0.642701 0.009335 0.250000
O O16 0.063823 0.876943 0.750000
O O17 0.156630 0.832723 0.524850
O O18 0.991225 0.855388 0.488157
O O19 0.260522 0.695567 0.250000
O O20 0.271370 0.750000 0.000000
O O21 0.108967 0.372977 0.250000
#
# Coordination Sequence:
#
# PCOD8230592 Si02
#       8
#     8   8   8   8   8   8   8   8
#     4   9  17  34  61  89 122 163 199 243 301 357
#     4  11  23  38  61  95 128 160 204 252 301 363
#     4  12  26  44  66  90 119 159 207 257 304 362
#     4  10  22  41  64  91 127 164 200 250 306 362
#     4  10  18  36  63  89 125 167 201 243 304 361
#     4  10  21  39  61  89 123 162 206 248 300 360
#     4  11  24  43  65  86 118 162 206 259 310 361
#     4  11  22  39  64  93 126 162 199 246 305 362
#
# _framework density 20.239647000000001
#
# number of rings (size 3 to 8) (size 9 to 14) (size 15 to 20)
#    0.000    1.500    2.500    3.000    0.000    3.500 
#    0.000    1.875    0.000    0.000    0.000    0.000 
#    0.000    0.000    0.000    0.000    0.000    0.000 
#
# Total GULP energy -793861.921751 kJ/mol
# GULP energy per Si atom -12404.092527 kJ/mol
# Density = 2.019358 g / cm^3
# Si number density = 20.239647 Si / 1000 Ang^3
#
#
#
# Elastic Constant Matrix: (Units=GPa)
#
#
# Indices 1 2 3 4 5 6 
#
# 1 89.3754 0.3220 33.9519 0.0000 0.0000 0.0000
# 2 0.3220 66.0738 31.2028 0.0000 0.0000 0.0000
# 3 33.9519 31.2028 78.7958 0.0000 0.0000 0.0000
# 4 0.0000 0.0000 0.0000 32.0130 0.0000 0.0000
# 5 0.0000 0.0000 0.0000 0.0000 31.4180 0.0000
# 6 0.0000 0.0000 0.0000 0.0000 0.0000 14.7664
#
#
#
# Elastic Compliance Matrix: (Units=1/GPa)
#
#
# Indices 1 2 3 4 5 6 
#
# 1 0.013978 0.003415 -0.007375 0.000000 0.000000 0.000000
# 2 0.003415 0.019450 -0.009173 0.000000 0.000000 0.000000
# 3 -0.007375 -0.009173 0.019502 0.000000 0.000000 0.000000
# 4 0.000000 0.000000 0.000000 0.031237 0.000000 0.000000
# 5 0.000000 0.000000 0.000000 0.000000 0.031829 0.000000
# 6 0.000000 0.000000 0.000000 0.000000 0.000000 0.067721
#
#
# Mechanical properties :
#
#
# Convention : Reuss Voigt Hill
#
# Bulk Modulus (GPa) = 37.50676 40.57760 39.04218
# Shear Modulus (GPa) = 22.84436 26.89069 24.86752
#
# Velocity S-wave (km/s) = 3.36325 3.64897 3.50902
# Velocity P-wave (km/s) = 5.80116 6.15186 5.97908
#
# Compressibility (1/GPa) = 0.02666186
#
# Stress axis : x y z
#
# Youngs Moduli (GPa) = 71.54027 51.41374 51.27803
#
# Poissons Ratio (x) = -0.17556 0.37818
# Poissons Ratio (y) = -0.24429 0.47040
# Poissons Ratio (z) = 0.52762 0.47164
#
# Static dielectric constant tensor:
#      x y z
#    x 3.736930 0.000000 0.000000 
#    y 0.000000 3.761910 0.000000 
#    z 0.000000 0.000000 3.493960 
# 
# 
# High freq. dielectric constant tensor:
#      x y z
#    x 1.803090 0.000000 0.000000 
#    y 0.000000 1.788900 0.000000 
#    z 0.000000 0.000000 1.778510 
# 
# From -- ./inp_files/5634.got.cif
#   From: 2010.03.12/outbox.cif.g09.slc.cpg/sg57_3_cif.got.tgz:5634.got - 2010.04.16 15:48:40.
