data_PCOD8230575
_publ_section_title
;
Structure prediction by ZEFSAII (Michael W. Deem and Ramdas Pophale) SiO2 
 PCOD8230575
Probable space group: P B C M
;
_chemical_formula_sum "Si O2"
_cell_formula_units_Z 64
_cell_length_a 23.045173
_cell_length_b 9.067427
_cell_length_c 14.871362
_cell_angle_alpha 90.000000
_cell_angle_beta 90.000000
_cell_angle_gamma 90.000000
_cell_volume 3107.526107
_symmetry_space_group_name_H-M "P B C M"
_symmetry_group_IT_number 57
_symmetry_cell_setting 'orthorhombic'
loop_
_space_group_symop_operation_xyz
x,y,z
-x,-y,1/2+z
x,1/2-y,-z
-x,1/2+y,1/2-z
-x,-y,-z
x,y,1/2-z
-x,1/2+y,z
x,1/2-y,1/2+z
loop_
_atom_site_type_symbol
_atom_site_label
_atom_site_fract_x
_atom_site_fract_y
_atom_site_fract_z
Si Si1 0.045687 0.130229 0.926847
Si Si2 0.819040 0.556157 0.353828
Si Si3 0.921829 0.114537 0.946762
Si Si4 0.645202 0.579339 0.987658
Si Si5 0.239302 0.924405 0.987639
Si Si6 0.569153 0.968972 0.851946
Si Si7 0.454088 0.368909 0.147987
Si Si8 0.835975 0.893286 0.150196
O O1 0.094128 0.124381 0.848845
O O2 0.979975 0.162535 0.889620
O O3 0.065743 0.250000 0.000000
O O4 0.049167 0.970994 0.971373
O O5 0.810274 0.516015 0.250000
O O6 0.879341 0.481472 0.385676
O O7 0.767572 0.487167 0.411846
O O8 0.812997 0.729973 0.371267
O O9 0.890067 0.250000 0.000000
O O10 0.623711 0.509940 0.082110
O O11 0.663368 0.750000 0.000000
O O12 0.699232 0.483644 0.951280
O O13 0.594703 0.559664 0.914614
O O14 0.188126 0.988148 0.922474
O O15 0.237453 0.750000 0.000000
O O16 0.590140 0.999597 0.750000
O O17 0.517620 0.077396 0.881196
O O18 0.544278 0.805482 0.863208
O O19 0.440333 0.417940 0.250000
O O20 0.816665 0.944775 0.250000
#
# Coordination Sequence:
#
# PCOD8230575 Si02
#       8
#     8   8   8   8   8   8   8   8
#     4  10  18  35  61  86 122 156 192 236 291 359
#     4  11  23  41  64  87 116 157 203 246 298 364
#     4  10  20  34  59  92 120 156 190 238 298 347
#     4  10  21  37  59  82 112 154 199 240 286 351
#     4  12  26  44  61  85 119 153 199 259 311 352
#     4   9  18  33  55  85 119 152 188 232 284 341
#     4   9  18  33  55  85 119 152 188 232 282 339
#     4  11  23  41  66  88 113 157 204 244 295 366
#
# _framework density 20.595158999999999
#
# number of rings (size 3 to 8) (size 9 to 14) (size 15 to 20)
#    0.000    1.750    2.500    1.875    0.000    3.000 
#    0.000    2.500    0.000    0.000    0.000    0.000 
#    0.000    0.000    0.000    0.000    0.000    0.000 
#
# Total GULP energy -793139.475113 kJ/mol
# GULP energy per Si atom -12392.804299 kJ/mol
# Density = 2.054828 g / cm^3
# Si number density = 20.595159 Si / 1000 Ang^3
#
#
#
# Elastic Constant Matrix: (Units=GPa)
#
#
# Indices 1 2 3 4 5 6 
#
# 1 73.9669 15.3724 18.0119 0.0000 0.0000 0.0000
# 2 15.3724 88.8802 32.9580 0.0000 0.0000 0.0000
# 3 18.0119 32.9580 85.4212 0.0000 0.0000 0.0000
# 4 0.0000 0.0000 0.0000 21.6740 0.0000 0.0000
# 5 0.0000 0.0000 0.0000 0.0000 17.2076 0.0000
# 6 0.0000 0.0000 0.0000 0.0000 0.0000 31.5907
#
#
#
# Elastic Compliance Matrix: (Units=1/GPa)
#
#
# Indices 1 2 3 4 5 6 
#
# 1 0.014443 -0.001597 -0.002429 0.000000 0.000000 0.000000
# 2 -0.001597 0.013306 -0.004797 0.000000 0.000000 0.000000
# 3 -0.002429 -0.004797 0.014070 0.000000 0.000000 0.000000
# 4 0.000000 0.000000 0.000000 0.046138 0.000000 0.000000
# 5 0.000000 0.000000 0.000000 0.000000 0.058114 0.000000
# 6 0.000000 0.000000 0.000000 0.000000 0.000000 0.031655
#
#
# Mechanical properties :
#
#
# Convention : Reuss Voigt Hill
#
# Bulk Modulus (GPa) = 41.37034 42.32810 41.84922
# Shear Modulus (GPa) = 24.57841 26.22285 25.40063
#
# Velocity S-wave (km/s) = 3.45832 3.57214 3.51569
# Velocity P-wave (km/s) = 6.00647 6.13275 6.06994
#
# Compressibility (1/GPa) = 0.02417191
#
# Stress axis : x y z
#
# Youngs Moduli (GPa) = 69.23745 75.15298 71.07433
#
# Poissons Ratio (x) = 0.12004 0.17265
# Poissons Ratio (y) = 0.11059 0.34095
# Poissons Ratio (z) = 0.16819 0.36052
#
# Static dielectric constant tensor:
#      x y z
#    x 3.811530 0.000000 0.000000 
#    y 0.000000 3.759070 0.000000 
#    z 0.000000 0.000000 3.802230 
# 
# 
# High freq. dielectric constant tensor:
#      x y z
#    x 1.803020 0.000000 0.000000 
#    y 0.000000 1.806160 0.000000 
#    z 0.000000 0.000000 1.789720 
# 
# From -- ./inp_files/19510.got.cif
#   From: 2010.03.12/outbox.cif.g09.slc.cpg/sg57_10_cif.got.tgz:19510.got - 2010.04.16 15:48:40.
