data_PCOD8230739
_publ_section_title
;
Structure prediction by ZEFSAII (Michael W. Deem and Ramdas Pophale) SiO2 
 PCOD8230739
Probable space group: P B C M
;
_chemical_formula_sum "Si O2"
_cell_formula_units_Z 64
_cell_length_a 16.616534
_cell_length_b 23.669750
_cell_length_c 9.089322
_cell_angle_alpha 90.000000
_cell_angle_beta 90.000000
_cell_angle_gamma 90.000000
_cell_volume 3574.914016
_symmetry_space_group_name_H-M "P B C M"
_symmetry_group_IT_number 57
_symmetry_cell_setting 'orthorhombic'
loop_
_space_group_symop_operation_xyz
x,y,z
-x,-y,1/2+z
x,1/2-y,-z
-x,1/2+y,1/2-z
-x,-y,-z
x,y,1/2-z
-x,1/2+y,z
x,1/2-y,1/2+z
loop_
_atom_site_type_symbol
_atom_site_label
_atom_site_fract_x
_atom_site_fract_y
_atom_site_fract_z
Si Si1 0.900741 0.192319 0.418092
Si Si2 0.274251 0.688982 0.076102
Si Si3 0.074912 0.310258 0.922475
Si Si4 0.311496 0.021390 0.577612
Si Si5 0.776478 0.882668 0.920764
Si Si6 0.644960 0.088157 0.920736
Si Si7 0.538703 0.596843 0.582542
Si Si8 0.621927 0.691286 0.080568
O O1 0.899418 0.250000 0.500000
O O2 0.902496 0.209536 0.250000
O O3 0.815664 0.161456 0.452262
O O4 0.986070 0.162005 0.457106
O O5 0.292252 0.694771 0.250000
O O6 0.282690 0.750000 0.000000
O O7 0.337296 0.647155 0.001040
O O8 0.088100 0.299500 0.750000
O O9 0.140041 0.355728 0.978069
O O10 0.086887 0.250000 0.000000
O O11 0.298385 0.011857 0.750000
O O12 0.241151 0.061819 0.516719
O O13 0.398834 0.047517 0.540409
O O14 0.304187 0.961599 0.496053
O O15 0.780041 0.900402 0.750000
O O16 0.708502 0.836021 0.948798
O O17 0.668896 0.092692 0.750000
O O18 0.550932 0.073983 0.941350
O O19 0.553323 0.616183 0.750000
O O20 0.552024 0.650839 0.479759
O O21 0.604681 0.701936 0.250000
O O22 0.617916 0.750000 0.000000
#
# Coordination Sequence:
#
# PCOD8230739 Si02
#       8
#     8   8   8   8   8   8   8   8
#     4   8  15  28  47  71  99 130 161 196 238 284
#     4  10  20  35  54  77 104 131 161 198 243 292
#     4   9  16  27  46  73 103 133 165 200 239 284
#     4  10  20  35  54  74  97 126 161 202 245 287
#     4   9  18  31  47  70 100 133 166 200 239 283
#     4  11  22  36  55  76  97 124 160 201 245 293
#     4   9  20  36  52  71  95 125 162 203 245 290
#     4  10  19  30  46  68  98 134 166 198 239 287
#
# _framework density 17.902529000000001
#
# number of rings (size 3 to 8) (size 9 to 14) (size 15 to 20)
#    0.000    2.500    0.000    2.250    0.000    3.500 
#    0.000    0.000    0.000    0.750    0.000    0.000 
#    0.000    0.000    0.000    0.000    0.000    0.000 
#
# Total GULP energy -793245.350758 kJ/mol
# GULP energy per Si atom -12394.458606 kJ/mol
# Density = 1.786178 g / cm^3
# Si number density = 17.902529 Si / 1000 Ang^3
#
#
#
# Elastic Constant Matrix: (Units=GPa)
#
#
# Indices 1 2 3 4 5 6 
#
# 1 68.7207 22.8374 23.7555 0.0000 0.0000 0.0000
# 2 22.8374 90.7870 47.2129 0.0000 0.0000 0.0000
# 3 23.7555 47.2129 83.0367 0.0000 0.0000 0.0000
# 4 0.0000 0.0000 0.0000 31.9973 0.0000 0.0000
# 5 0.0000 0.0000 0.0000 0.0000 21.4125 0.0000
# 6 0.0000 0.0000 0.0000 0.0000 0.0000 18.5015
#
#
#
# Elastic Compliance Matrix: (Units=1/GPa)
#
#
# Indices 1 2 3 4 5 6 
#
# 1 0.016512 -0.002409 -0.003354 0.000000 0.000000 0.000000
# 2 -0.002409 0.015991 -0.008403 0.000000 0.000000 0.000000
# 3 -0.003354 -0.008403 0.017780 0.000000 0.000000 0.000000
# 4 0.000000 0.000000 0.000000 0.031253 0.000000 0.000000
# 5 0.000000 0.000000 0.000000 0.000000 0.046702 0.000000
# 6 0.000000 0.000000 0.000000 0.000000 0.000000 0.054050
#
#
# Mechanical properties :
#
#
# Convention : Reuss Voigt Hill
#
# Bulk Modulus (GPa) = 45.55696 47.79510 46.67603
# Shear Modulus (GPa) = 22.94267 24.29818 23.62043
#
# Velocity S-wave (km/s) = 3.58373 3.68808 3.63628
# Velocity P-wave (km/s) = 6.52891 6.70010 6.61506
#
# Compressibility (1/GPa) = 0.02195054
#
# Stress axis : x y z
#
# Youngs Moduli (GPa) = 60.56318 62.53688 56.24329
#
# Poissons Ratio (x) = 0.15067 0.18863
# Poissons Ratio (y) = 0.14592 0.47259
# Poissons Ratio (z) = 0.20312 0.52547
#
# Static dielectric constant tensor:
#      x y z
#    x 3.855120 0.000000 0.000000 
#    y 0.000000 3.021070 0.000000 
#    z 0.000000 0.000000 3.370520 
# 
# 
# High freq. dielectric constant tensor:
#      x y z
#    x 1.692680 0.000000 0.000000 
#    y 0.000000 1.667090 0.000000 
#    z 0.000000 0.000000 1.702560 
# 
# From -- ./inp_files/7434.got.cif
#   From: 2010.03.12/outbox.cif.g09.slc.cpg/sg57_4_cif.got.tgz:7434.got - 2010.04.16 15:48:40.
