data_PCOD8230641
_publ_section_title
;
Structure prediction by ZEFSAII (Michael W. Deem and Ramdas Pophale) SiO2 
 PCOD8230641
Probable space group: P B C M
;
_chemical_formula_sum "Si O2"
_cell_formula_units_Z 64
_cell_length_a 12.382369
_cell_length_b 31.241748
_cell_length_c 8.864165
_cell_angle_alpha 90.000000
_cell_angle_beta 90.000000
_cell_angle_gamma 90.000000
_cell_volume 3429.074325
_symmetry_space_group_name_H-M "P B C M"
_symmetry_group_IT_number 57
_symmetry_cell_setting 'orthorhombic'
loop_
_space_group_symop_operation_xyz
x,y,z
-x,-y,1/2+z
x,1/2-y,-z
-x,1/2+y,1/2-z
-x,-y,-z
x,y,1/2-z
-x,1/2+y,z
x,1/2-y,1/2+z
loop_
_atom_site_type_symbol
_atom_site_label
_atom_site_fract_x
_atom_site_fract_y
_atom_site_fract_z
Si Si1 0.025074 0.140260 0.426468
Si Si2 0.578770 0.120691 0.585055
Si Si3 0.178525 0.889717 0.070781
Si Si4 0.795587 0.795281 0.575980
Si Si5 0.190574 0.977350 0.575192
Si Si6 0.639994 0.870223 0.571498
Si Si7 0.591612 0.023930 0.583543
Si Si8 0.815164 0.573863 0.928687
O O1 0.017709 0.129980 0.250000
O O2 0.085479 0.185235 0.455821
O O3 0.089316 0.102222 0.505835
O O4 0.905945 0.143709 0.499060
O O5 0.573172 0.143640 0.750000
O O6 0.700896 0.124482 0.516341
O O7 0.484423 0.138169 0.476415
O O8 0.551875 0.071560 0.609904
O O9 0.174597 0.888877 0.250000
O O10 0.141577 0.937655 0.019680
O O11 0.781766 0.750000 0.500000
O O12 0.776400 0.787436 0.750000
O O13 0.705990 0.828548 0.515884
O O14 0.169610 0.967689 0.750000
O O15 0.315658 0.978048 0.538896
O O16 0.150114 0.024960 0.529644
O O17 0.645754 0.876140 0.750000
O O18 0.698795 0.911972 0.498811
O O19 0.621465 0.004544 0.750000
O O20 0.500000 0.000000 0.500000
O O21 0.805929 0.579419 0.750000
#
# Coordination Sequence:
#
# PCOD8230641 Si02
#       8
#     8   8   8   8   8   8   8   8
#     4  10  21  37  56  79 106 134 171 216 261 311
#     4   9  19  33  48  70 100 135 174 211 249 300
#     4  10  21  36  53  74 102 140 185 223 260 308
#     4   9  20  37  58  86 111 131 159 199 251 310
#     4  10  20  32  46  67  97 135 180 226 267 306
#     4  10  20  33  52  80 109 135 168 210 258 310
#     4  10  19  29  42  63  93 130 175 222 262 304
#     4  10  20  33  50  73 102 138 179 221 268 315
#
# _framework density 18.663929
#
# number of rings (size 3 to 8) (size 9 to 14) (size 15 to 20)
#    0.000    2.250    0.000    4.500    0.000   11.500 
#    0.000    0.000    0.000    0.750    0.000    0.000 
#    0.000    0.000    0.000    0.000    0.000    0.000 
#
# Total GULP energy -793037.550405 kJ/mol
# GULP energy per Si atom -12391.211725 kJ/mol
# Density = 1.862145 g / cm^3
# Si number density = 18.663929 Si / 1000 Ang^3
#
#
#
# Elastic Constant Matrix: (Units=GPa)
#
#
# Indices 1 2 3 4 5 6 
#
# 1 107.3307 27.1798 35.6858 0.0000 0.0000 0.0000
# 2 27.1798 51.7010 29.6814 0.0000 0.0000 0.0000
# 3 35.6858 29.6814 75.3401 0.0000 0.0000 0.0000
# 4 0.0000 0.0000 0.0000 27.4256 0.0000 0.0000
# 5 0.0000 0.0000 0.0000 0.0000 33.0080 0.0000
# 6 0.0000 0.0000 0.0000 0.0000 0.0000 14.3739
#
#
#
# Elastic Compliance Matrix: (Units=1/GPa)
#
#
# Indices 1 2 3 4 5 6 
#
# 1 0.011611 -0.003808 -0.004000 0.000000 0.000000 0.000000
# 2 -0.003808 0.026244 -0.008536 0.000000 0.000000 0.000000
# 3 -0.004000 -0.008536 0.018530 0.000000 0.000000 0.000000
# 4 0.000000 0.000000 0.000000 0.036462 0.000000 0.000000
# 5 0.000000 0.000000 0.000000 0.000000 0.030296 0.000000
# 6 0.000000 0.000000 0.000000 0.000000 0.000000 0.069571
#
#
# Mechanical properties :
#
#
# Convention : Reuss Voigt Hill
#
# Bulk Modulus (GPa) = 42.19524 46.60730 44.40127
# Shear Modulus (GPa) = 21.43163 24.41649 22.92406
#
# Velocity S-wave (km/s) = 3.39232 3.62085 3.50845
# Velocity P-wave (km/s) = 6.16448 6.51973 6.34459
#
# Compressibility (1/GPa) = 0.02369935
#
# Stress axis : x y z
#
# Youngs Moduli (GPa) = 86.12457 38.10374 53.96566
#
# Poissons Ratio (x) = 0.14510 0.21584
# Poissons Ratio (y) = 0.32796 0.46063
# Poissons Ratio (z) = 0.34446 0.32524
#
# Static dielectric constant tensor:
#      x y z
#    x 3.425020 0.000000 0.000000 
#    y 0.000000 3.232280 0.000000 
#    z 0.000000 0.000000 3.676810 
# 
# 
# High freq. dielectric constant tensor:
#      x y z
#    x 1.725900 0.000000 0.000000 
#    y 0.000000 1.687870 0.000000 
#    z 0.000000 0.000000 1.734530 
# 
# From -- ./inp_files/3765.got.cif
#   From: 2010.03.12/outbox.cif.g09.slc.cpg/sg57_2_cif.got.tgz:3765.got - 2010.04.16 15:48:40.
