data_PCOD8230039
_publ_section_title
;
Structure prediction by ZEFSAII (Michael W. Deem and Ramdas Pophale) SiO2 
 PCOD8230039
Probable space group: P B C M
;
_chemical_formula_sum "Si O2"
_cell_formula_units_Z 36
_cell_length_a 9.197537
_cell_length_b 13.614673
_cell_length_c 15.320160
_cell_angle_alpha 90.000000
_cell_angle_beta 90.000000
_cell_angle_gamma 90.000000
_cell_volume 1918.412782
_symmetry_space_group_name_H-M "P B C M"
_symmetry_group_IT_number 57
_symmetry_cell_setting 'orthorhombic'
loop_
_space_group_symop_operation_xyz
x,y,z
-x,-y,1/2+z
x,1/2-y,-z
-x,1/2+y,1/2-z
-x,-y,-z
x,y,1/2-z
-x,1/2+y,z
x,1/2-y,1/2+z
loop_
_atom_site_type_symbol
_atom_site_label
_atom_site_fract_x
_atom_site_fract_y
_atom_site_fract_z
Si Si1 0.646296 0.550311 0.594068
Si Si2 0.345752 0.458482 0.602655
Si Si3 0.433937 0.247786 0.345778
Si Si4 0.715049 0.273918 0.750000
Si Si5 0.160948 0.987455 0.750000
Si Si6 0.165623 0.560160 0.750000
O O1 0.509581 0.487993 0.626579
O O2 0.695926 0.517841 0.497424
O O3 0.595539 0.663658 0.587948
O O4 0.774277 0.533505 0.662063
O O5 0.338144 0.343004 0.621277
O O6 0.238393 0.519081 0.662873
O O7 0.374319 0.279004 0.250000
O O8 0.608445 0.225920 0.335830
O O9 0.818417 0.369406 0.750000
O O10 0.819784 0.178497 0.750000
O O11 0.996086 0.020573 0.750000
#
# Coordination Sequence:
#
# PCOD8230039 Si02
#       6
#     8   8   8   4   4   4
#     4  11  21  37  63  92 118 154 206 257 299 350
#     4  11  21  37  63  92 118 154 206 257 299 350
#     4  10  17  34  67  85 125 146 207 260 298 350
#     4  10  20  38  62  88 116 160 212 236 306 376
#     4  12  24  41  61  86 132 167 196 244 305 371
#     4  12  24  41  61  86 132 167 196 244 305 371
#
# _framework density 18.765512000000001
#
# number of rings (size 3 to 8) (size 9 to 14) (size 15 to 20)
#    0.667    0.444    6.667    1.333    0.000    2.667 
#    0.000    1.111    0.000    0.000    0.000    0.000 
#    0.000    0.000    0.000    0.000    0.000    0.000 
#
# Total GULP energy -446293.652739 kJ/mol
# GULP energy per Si atom -12397.045909 kJ/mol
# Density = 1.872280 g / cm^3
# Si number density = 18.765512 Si / 1000 Ang^3
#
#
#
# Elastic Constant Matrix: (Units=GPa)
#
#
# Indices 1 2 3 4 5 6 
#
# 1 91.6736 27.7393 65.7137 0.0000 0.0000 0.0000
# 2 27.7393 118.3060 19.2098 0.0000 0.0000 0.0000
# 3 65.7137 19.2098 91.4786 0.0000 0.0000 0.0000
# 4 0.0000 0.0000 0.0000 7.5313 0.0000 0.0000
# 5 0.0000 0.0000 0.0000 0.0000 20.1105 0.0000
# 6 0.0000 0.0000 0.0000 0.0000 0.0000 26.1634
#
#
#
# Elastic Compliance Matrix: (Units=1/GPa)
#
#
# Indices 1 2 3 4 5 6 
#
# 1 0.023382 -0.002852 -0.016198 0.000000 0.000000 0.000000
# 2 -0.002852 0.009099 0.000138 0.000000 0.000000 0.000000
# 3 -0.016198 0.000138 0.022538 0.000000 0.000000 0.000000
# 4 0.000000 0.000000 0.000000 0.132779 0.000000 0.000000
# 5 0.000000 0.000000 0.000000 0.000000 0.049725 0.000000
# 6 0.000000 0.000000 0.000000 0.000000 0.000000 0.038221
#
#
# Mechanical properties :
#
#
# Convention : Reuss Voigt Hill
#
# Bulk Modulus (GPa) = 58.15372 58.53153 58.34262
# Shear Modulus (GPa) = 15.65927 23.34742 19.50335
#
# Velocity S-wave (km/s) = 2.89185 3.53110 3.22734
# Velocity P-wave (km/s) = 6.49672 6.91980 6.71159
#
# Compressibility (1/GPa) = 0.01719581
#
# Stress axis : x y z
#
# Youngs Moduli (GPa) = 42.76770 109.90223 44.36949
#
# Poissons Ratio (x) = 0.31348 0.71868
# Poissons Ratio (y) = 0.12199 -0.00613
# Poissons Ratio (z) = 0.69273 -0.01520
#
# Static dielectric constant tensor:
#      x y z
#    x 3.116480 0.000000 0.000000 
#    y 0.000000 3.496520 0.000000 
#    z 0.000000 0.000000 3.367240 
# 
# 
# High freq. dielectric constant tensor:
#      x y z
#    x 1.688460 0.000000 0.000000 
#    y 0.000000 1.746460 0.000000 
#    z 0.000000 0.000000 1.730190 
# 
# From -- ./inp_files/20684.got.cif
#   From: 2010.03.12/outbox.cif.g09.slc.cpg/sg57_11_cif.got.tgz:20684.got - 2010.04.16 15:48:40.
