data_PCOD8230601
_publ_section_title
;
Structure prediction by ZEFSAII (Michael W. Deem and Ramdas Pophale) SiO2 
 PCOD8230601
Probable space group: P B C M
;
_chemical_formula_sum "Si O2"
_cell_formula_units_Z 48
_cell_length_a 9.010921
_cell_length_b 24.324186
_cell_length_c 11.450208
_cell_angle_alpha 90.000000
_cell_angle_beta 90.000000
_cell_angle_gamma 90.000000
_cell_volume 2509.694586
_symmetry_space_group_name_H-M "P B C M"
_symmetry_group_IT_number 57
_symmetry_cell_setting 'orthorhombic'
loop_
_space_group_symop_operation_xyz
x,y,z
-x,-y,1/2+z
x,1/2-y,-z
-x,1/2+y,1/2-z
-x,-y,-z
x,y,1/2-z
-x,1/2+y,z
x,1/2-y,1/2+z
loop_
_atom_site_type_symbol
_atom_site_label
_atom_site_fract_x
_atom_site_fract_y
_atom_site_fract_z
Si Si1 0.564765 0.060868 0.513285
Si Si2 0.808900 0.936308 0.250000
Si Si3 0.173920 0.494124 0.012612
Si Si4 0.609654 0.380761 0.250000
Si Si5 0.299413 0.394315 0.886624
Si Si6 0.655148 0.682511 0.750000
Si Si7 0.046588 0.859542 0.250000
Si Si8 0.144680 0.193739 0.552796
O O1 0.552167 0.083527 0.642815
O O2 0.472775 0.102525 0.429159
O O3 0.500000 0.000000 0.500000
O O4 0.742770 0.053719 0.490249
O O5 0.769977 0.969466 0.365244
O O6 0.723389 0.879009 0.250000
O O7 0.985462 0.922138 0.250000
O O8 0.226363 0.453994 0.908424
O O9 0.000000 0.500000 0.000000
O O10 0.522428 0.322178 0.250000
O O11 0.778182 0.362653 0.250000
O O12 0.295793 0.379752 0.750000
O O13 0.201693 0.349225 0.955524
O O14 0.714959 0.711837 0.866561
O O15 0.988487 0.830344 0.131670
O O16 0.081292 0.250000 0.500000
#
# Coordination Sequence:
#
# PCOD8230601 Si02
#       8
#     8   4   8   4   8   4   4   8
#     4  10  23  34  57  86 122 159 199 244 293 345
#     4  10  18  38  56  76 118 157 207 240 270 354
#     4  11  22  35  56  84 117 163 199 238 288 357
#     4  12  20  40  62  86 120 161 201 252 290 356
#     4  11  23  38  55  87 120 150 197 249 299 348
#     4  10  18  38  64  83 109 150 198 244 286 343
#     4  10  22  38  68  87 115 160 204 246 306 359
#     4  10  21  41  64  88 113 151 200 250 304 361
#
# _framework density 19.125833
#
# number of rings (size 3 to 8) (size 9 to 14) (size 15 to 20)
#    0.000    1.667    5.000    2.000    9.333    0.000 
#    0.000    0.833    0.000    0.000    0.000    0.000 
#    0.000    0.000    0.000    0.000    0.000    0.000 
#
# Total GULP energy -594699.579297 kJ/mol
# GULP energy per Si atom -12389.574569 kJ/mol
# Density = 1.908230 g / cm^3
# Si number density = 19.125833 Si / 1000 Ang^3
#
#
#
# Elastic Constant Matrix: (Units=GPa)
#
#
# Indices 1 2 3 4 5 6 
#
# 1 116.4859 13.8019 28.9388 0.0000 0.0000 0.0000
# 2 13.8019 51.2464 30.6731 0.0000 0.0000 0.0000
# 3 28.9388 30.6731 141.8309 0.0000 0.0000 0.0000
# 4 0.0000 0.0000 0.0000 -34.6038 0.0000 0.0000
# 5 0.0000 0.0000 0.0000 0.0000 13.8055 0.0000
# 6 0.0000 0.0000 0.0000 0.0000 0.0000 16.8940
#
#
#
# Elastic Compliance Matrix: (Units=1/GPa)
#
#
# Indices 1 2 3 4 5 6 
#
# 1 0.009149 -0.001547 -0.001532 0.000000 0.000000 0.000000
# 2 -0.001547 0.022677 -0.004589 0.000000 0.000000 0.000000
# 3 -0.001532 -0.004589 0.008356 0.000000 0.000000 0.000000
# 4 0.000000 0.000000 0.000000 -0.028899 0.000000 0.000000
# 5 0.000000 0.000000 0.000000 0.000000 0.072435 0.000000
# 6 0.000000 0.000000 0.000000 0.000000 0.000000 0.059193
#
#
# Mechanical properties :
#
#
# Convention : Reuss Voigt Hill
#
# Bulk Modulus (GPa) = 40.24839 50.71010 45.47925
# Shear Modulus (GPa) = 30.02517 14.96243 22.49380
#
# Velocity S-wave (km/s) = 3.96646 2.80002 3.43314
# Velocity P-wave (km/s) = 6.48589 6.08482 6.28855
#
# Compressibility (1/GPa) = 0.02484571
#
# Stress axis : x y z
#
# Youngs Moduli (GPa) = 109.30579 44.09832 119.68026
#
# Poissons Ratio (x) = 0.06822 0.18336
# Poissons Ratio (y) = 0.16909 0.54916
# Poissons Ratio (z) = 0.16747 0.20235
#
# Static dielectric constant tensor:
#      x y z
#    x 3.885600 0.000000 0.000000 
#    y 0.000000 3.337450 0.000000 
#    z 0.000000 0.000000 3.343140 
# 
# 
# High freq. dielectric constant tensor:
#      x y z
#    x 1.747420 0.000000 0.000000 
#    y 0.000000 1.708400 0.000000 
#    z 0.000000 0.000000 1.753440 
# 
# From -- ./inp_files/12090.got.cif
#   From: 2010.03.12/outbox.cif.g09.slc.cpg/sg57_7_cif.got.tgz:12090.got - 2010.04.16 15:48:40.
