data_PCOD8230073
_publ_section_title
;
Structure prediction by ZEFSAII (Michael W. Deem and Ramdas Pophale) SiO2 
 PCOD8230073
Probable space group: P B C M
;
_chemical_formula_sum "Si O2"
_cell_formula_units_Z 64
_cell_length_a 17.218647
_cell_length_b 23.643844
_cell_length_c 9.004457
_cell_angle_alpha 90.000000
_cell_angle_beta 90.000000
_cell_angle_gamma 90.000000
_cell_volume 3665.849544
_symmetry_space_group_name_H-M "P B C M"
_symmetry_group_IT_number 57
_symmetry_cell_setting 'orthorhombic'
loop_
_space_group_symop_operation_xyz
x,y,z
-x,-y,1/2+z
x,1/2-y,-z
-x,1/2+y,1/2-z
-x,-y,-z
x,y,1/2-z
-x,1/2+y,z
x,1/2-y,1/2+z
loop_
_atom_site_type_symbol
_atom_site_label
_atom_site_fract_x
_atom_site_fract_y
_atom_site_fract_z
Si Si1 0.723873 0.427657 0.425086
Si Si2 0.049085 0.692490 0.925930
Si Si3 0.085995 0.115663 0.574876
Si Si4 0.232890 0.189717 0.926472
Si Si5 0.816761 0.983708 0.074689
Si Si6 0.694994 0.905044 0.579405
Si Si7 0.225702 0.806547 0.423526
Si Si8 0.419619 0.498701 0.582734
O O1 0.732014 0.436802 0.250000
O O2 0.801909 0.456163 0.494991
O O3 0.723049 0.361246 0.468029
O O4 0.644767 0.457324 0.484168
O O5 0.041457 0.699262 0.750000
O O6 0.137466 0.681250 0.975597
O O7 0.996030 0.640081 0.985538
O O8 0.017892 0.750000 0.000000
O O9 0.084005 0.116499 0.750000
O O10 0.155040 0.157059 0.523569
O O11 0.104027 0.050277 0.525138
O O12 0.244284 0.193677 0.750000
O O13 0.228587 0.250000 0.000000
O O14 0.305675 0.156855 0.003401
O O15 0.814745 0.993431 0.250000
O O16 0.747506 0.943302 0.025929
O O17 0.725385 0.902764 0.750000
O O18 0.610300 0.933942 0.575735
O O19 0.259347 0.750000 0.500000
O O20 0.228937 0.795328 0.250000
O O21 0.500000 0.500000 0.500000
O O22 0.435886 0.517868 0.750000
#
# Coordination Sequence:
#
# PCOD8230073 Si02
#       8
#     8   8   8   8   8   8   8   8
#     4   9  18  33  49  69  96 124 150 183 228 278
#     4   9  16  28  44  62  86 119 156 198 240 277
#     4   8  15  26  40  61  90 120 155 196 237 271
#     4  10  18  27  41  63  90 124 161 195 227 265
#     4   9  16  27  44  66  90 120 155 191 227 269
#     4   9  17  30  45  64  92 122 149 183 221 264
#     4   9  18  32  51  70  91 120 156 193 232 273
#     4   9  18  31  50  73  95 115 141 177 220 269
#
# _framework density 17.458435999999999
#
# number of rings (size 3 to 8) (size 9 to 14) (size 15 to 20)
#    0.000    3.000    0.000    3.000    0.000    3.000 
#    0.000    3.750    0.000    0.750    0.000    3.500 
#    0.000    0.000    0.000    0.000    0.000    0.000 
#
# Total GULP energy -792837.733101 kJ/mol
# GULP energy per Si atom -12388.089580 kJ/mol
# Density = 1.741870 g / cm^3
# Si number density = 17.458436 Si / 1000 Ang^3
#
#
#
# Elastic Constant Matrix: (Units=GPa)
#
#
# Indices 1 2 3 4 5 6 
#
# 1 64.1455 39.4791 21.6772 0.0000 0.0000 0.0000
# 2 39.4791 115.0880 35.7980 0.0000 0.0000 0.0000
# 3 21.6772 35.7980 42.3633 0.0000 0.0000 0.0000
# 4 0.0000 0.0000 0.0000 30.2436 0.0000 0.0000
# 5 0.0000 0.0000 0.0000 0.0000 19.0089 0.0000
# 6 0.0000 0.0000 0.0000 0.0000 0.0000 18.9594
#
#
#
# Elastic Compliance Matrix: (Units=1/GPa)
#
#
# Indices 1 2 3 4 5 6 
#
# 1 0.020931 -0.005221 -0.006299 0.000000 0.000000 0.000000
# 2 -0.005221 0.013089 -0.008389 0.000000 0.000000 0.000000
# 3 -0.006299 -0.008389 0.033918 0.000000 0.000000 0.000000
# 4 0.000000 0.000000 0.000000 0.033065 0.000000 0.000000
# 5 0.000000 0.000000 0.000000 0.000000 0.052607 0.000000
# 6 0.000000 0.000000 0.000000 0.000000 0.000000 0.052744
#
#
# Mechanical properties :
#
#
# Convention : Reuss Voigt Hill
#
# Bulk Modulus (GPa) = 35.56138 46.16725 40.86431
# Shear Modulus (GPa) = 19.56595 21.95189 20.75892
#
# Velocity S-wave (km/s) = 3.35134 3.54980 3.45200
# Velocity P-wave (km/s) = 5.94884 6.58050 6.27263
#
# Compressibility (1/GPa) = 0.02812039
#
# Stress axis : x y z
#
# Youngs Moduli (GPa) = 47.77499 76.39725 29.48328
#
# Poissons Ratio (x) = 0.39887 0.18571
# Poissons Ratio (y) = 0.24943 0.24734
# Poissons Ratio (z) = 0.30092 0.64092
#
# Static dielectric constant tensor:
#      x y z
#    x 3.148760 0.000000 0.000000 
#    y 0.000000 3.657960 0.000000 
#    z 0.000000 0.000000 3.240250 
# 
# 
# High freq. dielectric constant tensor:
#      x y z
#    x 1.637020 0.000000 0.000000 
#    y 0.000000 1.676210 0.000000 
#    z 0.000000 0.000000 1.667400 
# 
# From -- ./inp_files/7363.got.cif
#   From: 2010.03.12/outbox.cif.g09.slc.cpg/sg57_4_cif.got.tgz:7363.got - 2010.04.16 15:48:40.
