data_PCOD8230890
_publ_section_title
;
Structure prediction by ZEFSAII (Michael W. Deem and Ramdas Pophale) SiO2 
 PCOD8230890
Probable space group: P B C M
;
_chemical_formula_sum "Si O2"
_cell_formula_units_Z 64
_cell_length_a 21.317081
_cell_length_b 19.324021
_cell_length_c 9.058091
_cell_angle_alpha 90.000000
_cell_angle_beta 90.000000
_cell_angle_gamma 90.000000
_cell_volume 3731.315014
_symmetry_space_group_name_H-M "P B C M"
_symmetry_group_IT_number 57
_symmetry_cell_setting 'orthorhombic'
loop_
_space_group_symop_operation_xyz
x,y,z
-x,-y,1/2+z
x,1/2-y,-z
-x,1/2+y,1/2-z
-x,-y,-z
x,y,1/2-z
-x,1/2+y,z
x,1/2-y,1/2+z
loop_
_atom_site_type_symbol
_atom_site_label
_atom_site_fract_x
_atom_site_fract_y
_atom_site_fract_z
Si Si1 0.912414 0.963088 0.084796
Si Si2 0.446147 0.184946 0.584708
Si Si3 0.015312 0.606524 0.083733
Si Si4 0.308404 0.454188 0.579675
Si Si5 0.449687 0.452927 0.923739
Si Si6 0.702250 0.683680 0.585887
Si Si7 0.808867 0.039173 0.580240
Si Si8 0.125634 0.678899 0.925163
O O1 0.900098 0.935776 0.250000
O O2 0.953528 0.031842 0.088628
O O3 0.947734 0.902294 0.994627
O O4 0.846710 0.981375 0.009508
O O5 0.475805 0.250000 0.500000
O O6 0.474478 0.177873 0.750000
O O7 0.465977 0.122381 0.481759
O O8 0.371931 0.192222 0.595281
O O9 0.006745 0.635628 0.250000
O O10 0.057378 0.659543 0.989339
O O11 0.309939 0.431716 0.750000
O O12 0.378759 0.474087 0.528210
O O13 0.280623 0.388316 0.493347
O O14 0.264524 0.521669 0.554207
O O15 0.458572 0.456564 0.750000
O O16 0.500000 0.500000 0.000000
O O17 0.730920 0.750000 0.500000
O O18 0.731390 0.682257 0.750000
O O19 0.828639 0.030360 0.750000
O O20 0.824690 0.118045 0.531745
O O21 0.120755 0.689023 0.750000
O O22 0.149393 0.750000 0.000000
#
# Coordination Sequence:
#
# PCOD8230890 Si02
#       8
#     8   8   8   8   8   8   8   8
#     4   9  16  26  43  68  94 118 146 183 228 275
#     4   9  16  27  44  67  93 119 148 184 228 280
#     4   9  16  27  44  66  92 120 150 185 226 272
#     4   9  18  32  49  69  94 126 163 202 245 294
#     4  10  19  31  48  70  96 126 161 203 251 300
#     4   9  16  26  43  67  93 119 147 182 225 276
#     4   9  18  32  49  69  94 126 163 202 246 296
#     4  10  19  31  48  70  96 126 164 208 249 288
#
# _framework density 17.152128999999999
#
# number of rings (size 3 to 8) (size 9 to 14) (size 15 to 20)
#    0.000    2.750    0.000    2.250    0.000    7.500 
#    0.000    0.000    0.000    1.500    0.000    3.500 
#    0.000    0.000    0.000    0.000    0.000    0.000 
#
# Total GULP energy -793320.150764 kJ/mol
# GULP energy per Si atom -12395.627356 kJ/mol
# Density = 1.711309 g / cm^3
# Si number density = 17.152129 Si / 1000 Ang^3
#
#
#
# Elastic Constant Matrix: (Units=GPa)
#
#
# Indices 1 2 3 4 5 6 
#
# 1 71.7465 53.6156 41.4305 0.0000 0.0000 0.0000
# 2 53.6156 102.1639 50.1717 0.0000 0.0000 0.0000
# 3 41.4305 50.1717 108.2903 0.0000 0.0000 0.0000
# 4 0.0000 0.0000 0.0000 31.4471 0.0000 0.0000
# 5 0.0000 0.0000 0.0000 0.0000 19.1943 0.0000
# 6 0.0000 0.0000 0.0000 0.0000 0.0000 18.8804
#
#
#
# Elastic Compliance Matrix: (Units=1/GPa)
#
#
# Indices 1 2 3 4 5 6 
#
# 1 0.024460 -0.010668 -0.004415 0.000000 0.000000 0.000000
# 2 -0.010668 0.017324 -0.003945 0.000000 0.000000 0.000000
# 3 -0.004415 -0.003945 0.012751 0.000000 0.000000 0.000000
# 4 0.000000 0.000000 0.000000 0.031799 0.000000 0.000000
# 5 0.000000 0.000000 0.000000 0.000000 0.052099 0.000000
# 6 0.000000 0.000000 0.000000 0.000000 0.000000 0.052965
#
#
# Mechanical properties :
#
#
# Convention : Reuss Voigt Hill
#
# Bulk Modulus (GPa) = 60.68511 63.62626 62.15569
# Shear Modulus (GPa) = 21.28124 23.03655 22.15890
#
# Velocity S-wave (km/s) = 3.52623 3.66877 3.59821
# Velocity P-wave (km/s) = 7.21362 7.42444 7.31979
#
# Compressibility (1/GPa) = 0.01647851
#
# Stress axis : x y z
#
# Youngs Moduli (GPa) = 40.88320 57.72276 78.42272
#
# Poissons Ratio (x) = 0.61580 0.34627
# Poissons Ratio (y) = 0.43615 0.30937
# Poissons Ratio (z) = 0.18051 0.22771
#
# Static dielectric constant tensor:
#      x y z
#    x 2.931640 0.000000 0.000000 
#    y 0.000000 3.084030 0.000000 
#    z 0.000000 0.000000 3.438310 
# 
# 
# High freq. dielectric constant tensor:
#      x y z
#    x 1.621290 0.000000 0.000000 
#    y 0.000000 1.645220 0.000000 
#    z 0.000000 0.000000 1.679640 
# 
# From -- ./inp_files/8772.got.cif
#   From: 2010.03.12/outbox.cif.g09.slc.cpg/sg57_5_cif.got.tgz:8772.got - 2010.04.16 15:48:40.
