data_PCOD8230835
_publ_section_title
;
Structure prediction by ZEFSAII (Michael W. Deem and Ramdas Pophale) SiO2 
 PCOD8230835
Probable space group: P B C M
;
_chemical_formula_sum "Si O2"
_cell_formula_units_Z 56
_cell_length_a 17.600548
_cell_length_b 22.374385
_cell_length_c 9.081173
_cell_angle_alpha 90.000000
_cell_angle_beta 90.000000
_cell_angle_gamma 90.000000
_cell_volume 3576.178979
_symmetry_space_group_name_H-M "P B C M"
_symmetry_group_IT_number 57
_symmetry_cell_setting 'orthorhombic'
loop_
_space_group_symop_operation_xyz
x,y,z
-x,-y,1/2+z
x,1/2-y,-z
-x,1/2+y,1/2-z
-x,-y,-z
x,y,1/2-z
-x,1/2+y,z
x,1/2-y,1/2+z
loop_
_atom_site_type_symbol
_atom_site_label
_atom_site_fract_x
_atom_site_fract_y
_atom_site_fract_z
Si Si1 0.879223 0.098639 0.578972
Si Si2 0.675767 0.971196 0.081770
Si Si3 0.485916 0.437765 0.422226
Si Si4 0.744116 0.313224 0.423918
Si Si5 0.623745 0.396745 0.574811
Si Si6 0.984511 0.938087 0.921146
Si Si7 0.176893 0.029943 0.080690
O O1 0.898988 0.093334 0.750000
O O2 0.822094 0.152025 0.544464
O O3 0.959105 0.111008 0.493405
O O4 0.842836 0.036545 0.520963
O O5 0.699212 0.975080 0.250000
O O6 0.604605 0.925754 0.058828
O O7 0.655560 0.038311 0.027565
O O8 0.748486 0.944643 0.998297
O O9 0.500000 0.500000 0.500000
O O10 0.507596 0.441282 0.250000
O O11 0.538710 0.389271 0.505575
O O12 0.753976 0.250000 0.500000
O O13 0.728224 0.307333 0.250000
O O14 0.674458 0.346175 0.501251
O O15 0.620049 0.388190 0.750000
O O16 0.003677 0.943954 0.750000
O O17 0.894404 0.924683 0.944365
O O18 0.000000 0.000000 0.000000
O O19 0.198276 0.024736 0.250000
#
# Coordination Sequence:
#
# PCOD8230835 Si02
#       7
#     8   8   8   8   8   8   8
#     4   9  18  31  44  60  83 114 148 184 225 263
#     4   9  17  26  40  63  88 115 148 179 213 261
#     4   9  17  28  41  61  86 115 149 183 220 264
#     4  11  22  35  49  66  88 116 153 194 230 267
#     4  10  19  31  45  63  85 115 152 186 226 268
#     4   9  17  27  40  60  84 113 147 180 216 263
#     4   9  16  26  40  61  87 115 146 177 216 260
#
# _framework density 15.659171000000001
#
# number of rings (size 3 to 8) (size 9 to 14) (size 15 to 20)
#    0.000    2.571    1.429    3.429    0.000    6.857 
#    0.000    0.000    0.000    0.000    0.000    0.000 
#    0.000    1.143    0.000   10.286    0.000    7.714 
#
# Total GULP energy -693949.915341 kJ/mol
# GULP energy per Si atom -12391.962774 kJ/mol
# Density = 1.562353 g / cm^3
# Si number density = 15.659171 Si / 1000 Ang^3
#
#
#
# Elastic Constant Matrix: (Units=GPa)
#
#
# Indices 1 2 3 4 5 6 
#
# 1 139.6871 41.5488 71.6043 0.0000 0.0000 0.0000
# 2 41.5488 45.9602 31.1082 0.0000 0.0000 0.0000
# 3 71.6043 31.1082 90.0684 0.0000 0.0000 0.0000
# 4 0.0000 0.0000 0.0000 18.4943 0.0000 0.0000
# 5 0.0000 0.0000 0.0000 0.0000 34.6574 0.0000
# 6 0.0000 0.0000 0.0000 0.0000 0.0000 16.1681
#
#
#
# Elastic Compliance Matrix: (Units=1/GPa)
#
#
# Indices 1 2 3 4 5 6 
#
# 1 0.013381 -0.006391 -0.008431 0.000000 0.000000 0.000000
# 2 -0.006391 0.031448 -0.005781 0.000000 0.000000 0.000000
# 3 -0.008431 -0.005781 0.019802 0.000000 0.000000 0.000000
# 4 0.000000 0.000000 0.000000 0.054071 0.000000 0.000000
# 5 0.000000 0.000000 0.000000 0.000000 0.028854 0.000000
# 6 0.000000 0.000000 0.000000 0.000000 0.000000 0.061850
#
#
# Mechanical properties :
#
#
# Convention : Reuss Voigt Hill
#
# Bulk Modulus (GPa) = 42.68750 62.69317 52.69034
# Shear Modulus (GPa) = 19.34829 22.62759 20.98794
#
# Velocity S-wave (km/s) = 3.51891 3.80545 3.66498
# Velocity P-wave (km/s) = 6.62041 7.70919 7.18545
#
# Compressibility (1/GPa) = 0.02342606
#
# Stress axis : x y z
#
# Youngs Moduli (GPa) = 74.73013 31.79842 50.49964
#
# Poissons Ratio (x) = 0.20321 0.42577
# Poissons Ratio (y) = 0.47756 0.29195
# Poissons Ratio (z) = 0.63006 0.18383
#
# Static dielectric constant tensor:
#      x y z
#    x 3.418410 0.000000 0.000000 
#    y 0.000000 2.539070 0.000000 
#    z 0.000000 0.000000 3.139290 
# 
# 
# High freq. dielectric constant tensor:
#      x y z
#    x 1.617660 0.000000 0.000000 
#    y 0.000000 1.525770 0.000000 
#    z 0.000000 0.000000 1.615930 
# 
# From -- ./inp_files/7302.got.cif
#   From: 2010.03.12/outbox.cif.g09.slc.cpg/sg57_4_cif.got.tgz:7302.got - 2010.04.16 15:48:40.
