data_PCOD8230734
_publ_section_title
;
Structure prediction by ZEFSAII (Michael W. Deem and Ramdas Pophale) SiO2 
 PCOD8230734
Probable space group: P B C M
;
_chemical_formula_sum "Si O2"
_cell_formula_units_Z 56
_cell_length_a 15.834189
_cell_length_b 24.149951
_cell_length_c 8.974700
_cell_angle_alpha 90.000000
_cell_angle_beta 90.000000
_cell_angle_gamma 90.000000
_cell_volume 3431.879406
_symmetry_space_group_name_H-M "P B C M"
_symmetry_group_IT_number 57
_symmetry_cell_setting 'orthorhombic'
loop_
_space_group_symop_operation_xyz
x,y,z
-x,-y,1/2+z
x,1/2-y,-z
-x,1/2+y,1/2-z
-x,-y,-z
x,y,1/2-z
-x,1/2+y,z
x,1/2-y,1/2+z
loop_
_atom_site_type_symbol
_atom_site_label
_atom_site_fract_x
_atom_site_fract_y
_atom_site_fract_z
Si Si1 0.078856 0.693264 0.574011
Si Si2 0.968679 0.084300 0.077327
Si Si3 0.698023 0.977157 0.423503
Si Si4 0.273006 0.694685 0.923102
Si Si5 0.540510 0.947822 0.577868
Si Si6 0.129899 0.009498 0.422638
Si Si7 0.631205 0.399963 0.581963
O O1 0.046055 0.750000 0.500000
O O2 0.064015 0.695947 0.750000
O O3 0.025612 0.643125 0.504466
O O4 0.176429 0.683377 0.530708
O O5 0.945840 0.092442 0.250000
O O6 0.058707 0.055645 0.055054
O O7 0.895330 0.047346 0.003947
O O8 0.706843 0.963730 0.250000
O O9 0.629054 0.934833 0.495067
O O10 0.786336 0.965865 0.503923
O O11 0.668604 0.039736 0.454056
O O12 0.281650 0.704478 0.750000
O O13 0.307855 0.750000 0.000000
O O14 0.329512 0.642871 0.967808
O O15 0.558556 0.961457 0.750000
O O16 0.471013 0.898902 0.563220
O O17 0.500000 0.000000 0.500000
O O18 0.145076 0.995672 0.250000
O O19 0.655825 0.382927 0.750000
#
# Coordination Sequence:
#
# PCOD8230734 Si02
#       7
#     8   8   8   8   8   8   8
#     4  10  20  33  49  69  93 123 158 195 235 277
#     4  10  20  33  48  68  95 125 158 195 235 281
#     4  10  19  30  46  68  93 122 154 189 228 270
#     4  10  20  31  45  65  89 118 151 186 222 264
#     4   9  17  29  44  64  91 120 150 184 220 262
#     4  10  20  32  47  68  95 127 159 193 235 282
#     4   9  18  30  44  64  91 121 150 183 223 263
#
# _framework density 16.317589999999999
#
# number of rings (size 3 to 8) (size 9 to 14) (size 15 to 20)
#    0.000    2.286    0.000    4.286    0.000    9.143 
#    0.000    0.000    0.000    0.000    0.000    1.000 
#    0.000    0.000    0.000    0.000    0.000    0.000 
#
# Total GULP energy -694427.953947 kJ/mol
# GULP energy per Si atom -12400.499178 kJ/mol
# Density = 1.628045 g / cm^3
# Si number density = 16.317590 Si / 1000 Ang^3
#
#
#
# Elastic Constant Matrix: (Units=GPa)
#
#
# Indices 1 2 3 4 5 6 
#
# 1 74.9782 16.6026 41.8570 0.0000 0.0000 0.0000
# 2 16.6026 71.3848 39.2204 0.0000 0.0000 0.0000
# 3 41.8570 39.2204 106.8197 0.0000 0.0000 0.0000
# 4 0.0000 0.0000 0.0000 29.7061 0.0000 0.0000
# 5 0.0000 0.0000 0.0000 0.0000 30.3287 0.0000
# 6 0.0000 0.0000 0.0000 0.0000 0.0000 17.6563
#
#
#
# Elastic Compliance Matrix: (Units=1/GPa)
#
#
# Indices 1 2 3 4 5 6 
#
# 1 0.017079 -0.000370 -0.006557 0.000000 0.000000 0.000000
# 2 -0.000370 0.017557 -0.006301 0.000000 0.000000 0.000000
# 3 -0.006557 -0.006301 0.014244 0.000000 0.000000 0.000000
# 4 0.000000 0.000000 0.000000 0.033663 0.000000 0.000000
# 5 0.000000 0.000000 0.000000 0.000000 0.032972 0.000000
# 6 0.000000 0.000000 0.000000 0.000000 0.000000 0.056637
#
#
# Mechanical properties :
#
#
# Convention : Reuss Voigt Hill
#
# Bulk Modulus (GPa) = 44.59356 49.83809 47.21582
# Shear Modulus (GPa) = 24.26204 25.90508 25.08356
#
# Velocity S-wave (km/s) = 3.86017 3.98874 3.92498
# Velocity P-wave (km/s) = 6.87428 7.19876 7.03839
#
# Compressibility (1/GPa) = 0.02242477
#
# Stress axis : x y z
#
# Youngs Moduli (GPa) = 58.54993 56.95839 70.20311
#
# Poissons Ratio (x) = 0.02107 0.46030
# Poissons Ratio (y) = 0.02166 0.44237
# Poissons Ratio (z) = 0.38389 0.35891
#
# Static dielectric constant tensor:
#      x y z
#    x 3.206120 0.000000 0.000000 
#    y 0.000000 2.869090 0.000000 
#    z 0.000000 0.000000 3.259670 
# 
# 
# High freq. dielectric constant tensor:
#      x y z
#    x 1.620210 0.000000 0.000000 
#    y 0.000000 1.594290 0.000000 
#    z 0.000000 0.000000 1.648940 
# 
# From -- ./inp_files/7319.got.cif
#   From: 2010.03.12/outbox.cif.g09.slc.cpg/sg57_4_cif.got.tgz:7319.got - 2010.04.16 15:48:40.
