data_PCOD8230127
_publ_section_title
;
Structure prediction by ZEFSAII (Michael W. Deem and Ramdas Pophale) SiO2 
 PCOD8230127
Probable space group: P B C M
;
_chemical_formula_sum "Si O2"
_cell_formula_units_Z 64
_cell_length_a 16.640178
_cell_length_b 21.622471
_cell_length_c 8.807619
_cell_angle_alpha 90.000000
_cell_angle_beta 90.000000
_cell_angle_gamma 90.000000
_cell_volume 3168.996873
_symmetry_space_group_name_H-M "P B C M"
_symmetry_group_IT_number 57
_symmetry_cell_setting 'orthorhombic'
loop_
_space_group_symop_operation_xyz
x,y,z
-x,-y,1/2+z
x,1/2-y,-z
-x,1/2+y,1/2-z
-x,-y,-z
x,y,1/2-z
-x,1/2+y,z
x,1/2-y,1/2+z
loop_
_atom_site_type_symbol
_atom_site_label
_atom_site_fract_x
_atom_site_fract_y
_atom_site_fract_z
Si Si1 0.946049 0.089642 0.083559
Si Si2 0.621903 0.814940 0.430025
Si Si3 0.308769 0.880029 0.428006
Si Si4 0.073592 0.184353 0.072682
Si Si5 0.451738 0.683568 0.430899
Si Si6 0.184061 0.517097 0.572038
Si Si7 0.764632 0.618682 0.073576
Si Si8 0.182964 0.805865 0.916163
O O1 0.972176 0.064368 0.250000
O O2 0.874954 0.137537 0.102406
O O3 0.020380 0.126861 0.005650
O O4 0.906002 0.033798 0.988494
O O5 0.650955 0.750000 0.500000
O O6 0.611581 0.808755 0.250000
O O7 0.538745 0.835559 0.505921
O O8 0.688422 0.865973 0.470038
O O9 0.326506 0.882900 0.250000
O O10 0.392777 0.871997 0.516963
O O11 0.258305 0.940088 0.485625
O O12 0.257063 0.820143 0.472149
O O13 0.052492 0.189034 0.250000
O O14 0.166694 0.169594 0.043556
O O15 0.051344 0.250000 0.000000
O O16 0.425968 0.750000 0.500000
O O17 0.454157 0.688488 0.250000
O O18 0.177555 0.524935 0.750000
O O19 0.202547 0.447707 0.521026
O O20 0.739366 0.617668 0.250000
O O21 0.215455 0.786644 0.750000
O O22 0.136172 0.750000 0.000000
#
# Coordination Sequence:
#
# PCOD8230127 Si02
#       8
#     8   8   8   8   8   8   8   8
#     4   9  19  34  51  75 108 143 179 223 271 320
#     4  11  22  38  60  86 113 143 179 222 275 328
#     4  10  19  33  51  74 105 141 182 223 266 320
#     4  10  21  36  56  82 112 143 179 227 279 330
#     4  11  21  35  56  83 113 144 178 221 274 327
#     4   9  20  37  57  79 108 148 188 227 270 321
#     4  10  21  39  59  81 110 144 185 231 278 325
#     4  10  18  28  44  68 100 138 178 219 266 318
#
# _framework density 20.195665000000002
#
# number of rings (size 3 to 8) (size 9 to 14) (size 15 to 20)
#    0.000    2.000    0.000    4.875    0.000    4.000 
#    0.000    0.625    0.000    0.000    0.000    0.000 
#    0.000    0.000    0.000    0.000    0.000    0.000 
#
# Total GULP energy -793291.497117 kJ/mol
# GULP energy per Si atom -12395.179642 kJ/mol
# Density = 2.014970 g / cm^3
# Si number density = 20.195665 Si / 1000 Ang^3
#
#
#
# Elastic Constant Matrix: (Units=GPa)
#
#
# Indices 1 2 3 4 5 6 
#
# 1 85.6065 11.0813 28.1087 0.0000 0.0000 0.0000
# 2 11.0813 52.7258 22.3618 0.0000 0.0000 0.0000
# 3 28.1087 22.3618 93.4938 0.0000 0.0000 0.0000
# 4 0.0000 0.0000 0.0000 25.1337 0.0000 0.0000
# 5 0.0000 0.0000 0.0000 0.0000 29.6164 0.0000
# 6 0.0000 0.0000 0.0000 0.0000 0.0000 24.9277
#
#
#
# Elastic Compliance Matrix: (Units=1/GPa)
#
#
# Indices 1 2 3 4 5 6 
#
# 1 0.013029 -0.001199 -0.003630 0.000000 0.000000 0.000000
# 2 -0.001199 0.021217 -0.004714 0.000000 0.000000 0.000000
# 3 -0.003630 -0.004714 0.012915 0.000000 0.000000 0.000000
# 4 0.000000 0.000000 0.000000 0.039787 0.000000 0.000000
# 5 0.000000 0.000000 0.000000 0.000000 0.033765 0.000000
# 6 0.000000 0.000000 0.000000 0.000000 0.000000 0.040116
#
#
# Mechanical properties :
#
#
# Convention : Reuss Voigt Hill
#
# Bulk Modulus (GPa) = 35.61979 39.43666 37.52823
# Shear Modulus (GPa) = 26.41675 27.28717 26.85196
#
# Velocity S-wave (km/s) = 3.62061 3.67977 3.65031
# Velocity P-wave (km/s) = 5.92908 6.13384 6.03233
#
# Compressibility (1/GPa) = 0.02807428
#
# Stress axis : x y z
#
# Youngs Moduli (GPa) = 76.75477 47.13114 77.42968
#
# Poissons Ratio (x) = 0.05649 0.28110
# Poissons Ratio (y) = 0.09199 0.36504
# Poissons Ratio (z) = 0.27865 0.22220
#
# Static dielectric constant tensor:
#      x y z
#    x 3.744600 0.000000 0.000000 
#    y 0.000000 3.651490 0.000000 
#    z 0.000000 0.000000 3.504740 
# 
# 
# High freq. dielectric constant tensor:
#      x y z
#    x 1.792560 0.000000 0.000000 
#    y 0.000000 1.775350 0.000000 
#    z 0.000000 0.000000 1.784630 
# 
# From -- ./inp_files/7285.got.cif
#   From: 2010.03.12/outbox.cif.g09.slc.cpg/sg57_4_cif.got.tgz:7285.got - 2010.04.16 15:48:40.
