data_PCOD8230617
_publ_section_title
;
Structure prediction by ZEFSAII (Michael W. Deem and Ramdas Pophale) SiO2 
 PCOD8230617
Probable space group: P B C M
;
_chemical_formula_sum "Si O2"
_cell_formula_units_Z 64
_cell_length_a 18.054113
_cell_length_b 26.249016
_cell_length_c 9.173826
_cell_angle_alpha 90.000000
_cell_angle_beta 90.000000
_cell_angle_gamma 90.000000
_cell_volume 4347.500920
_symmetry_space_group_name_H-M "P B C M"
_symmetry_group_IT_number 57
_symmetry_cell_setting 'orthorhombic'
loop_
_space_group_symop_operation_xyz
x,y,z
-x,-y,1/2+z
x,1/2-y,-z
-x,1/2+y,1/2-z
-x,-y,-z
x,y,1/2-z
-x,1/2+y,z
x,1/2-y,1/2+z
loop_
_atom_site_type_symbol
_atom_site_label
_atom_site_fract_x
_atom_site_fract_y
_atom_site_fract_z
Si Si1 0.545584 0.542518 0.581894
Si Si2 0.826916 0.300298 0.920478
Si Si3 0.821815 0.003136 0.084638
Si Si4 0.917829 0.102540 0.080497
Si Si5 0.967439 0.952072 0.417957
Si Si6 0.343287 0.698729 0.421365
Si Si7 0.671856 0.000246 0.920702
Si Si8 0.408980 0.894613 0.415940
O O1 0.500000 0.500000 0.500000
O O2 0.556096 0.527177 0.750000
O O3 0.625735 0.544442 0.503769
O O4 0.497335 0.594293 0.569055
O O5 0.835241 0.291391 0.750000
O O6 0.876649 0.347027 0.975112
O O7 0.742042 0.311942 0.962202
O O8 0.856182 0.250000 0.000000
O O9 0.790969 0.005530 0.250000
O O10 0.864187 0.055270 0.047149
O O11 0.878076 0.954999 0.067340
O O12 0.756092 0.996213 0.971326
O O13 0.937619 0.105473 0.250000
O O14 0.995519 0.097675 0.992204
O O15 0.991287 0.954492 0.250000
O O16 0.000000 0.000000 0.500000
O O17 0.371226 0.750000 0.500000
O O18 0.355353 0.705152 0.250000
O O19 0.390907 0.651254 0.476442
O O20 0.666665 0.989504 0.750000
O O21 0.639008 0.055753 0.960411
O O22 0.389751 0.879089 0.250000
#
# Coordination Sequence:
#
# PCOD8230617 Si02
#       8
#     8   8   8   8   8   8   8   8
#     4   9  17  29  43  59  82 109 137 171 206 242
#     4   9  18  30  42  59  82 108 139 173 208 242
#     4   9  17  28  41  58  82 110 139 171 206 245
#     4   9  17  29  43  59  81 109 141 174 208 246
#     4   9  17  28  41  58  80 107 138 170 206 246
#     4  10  19  30  44  60  81 109 139 173 208 241
#     4  10  19  28  41  62  85 110 141 173 204 243
#     4   9  18  30  42  59  82 108 139 171 203 241
#
# _framework density 14.721101000000001
#
# number of rings (size 3 to 8) (size 9 to 14) (size 15 to 20)
#    0.000    2.750    0.000    3.750    0.000    7.500 
#    0.000    0.000    0.000    0.000    0.000    0.000 
#    0.000    1.000    0.000    7.000    0.000    5.125 
#
# Total GULP energy -793307.749454 kJ/mol
# GULP energy per Si atom -12395.433585 kJ/mol
# Density = 1.468760 g / cm^3
# Si number density = 14.721101 Si / 1000 Ang^3
#
#
#
# Elastic Constant Matrix: (Units=GPa)
#
#
# Indices 1 2 3 4 5 6 
#
# 1 79.0235 44.3239 48.6636 0.0000 0.0000 0.0000
# 2 44.3239 72.8631 42.5258 0.0000 0.0000 0.0000
# 3 48.6636 42.5258 86.5141 0.0000 0.0000 0.0000
# 4 0.0000 0.0000 0.0000 24.6796 0.0000 0.0000
# 5 0.0000 0.0000 0.0000 0.0000 28.3996 0.0000
# 6 0.0000 0.0000 0.0000 0.0000 0.0000 22.8418
#
#
#
# Elastic Compliance Matrix: (Units=1/GPa)
#
#
# Indices 1 2 3 4 5 6 
#
# 1 0.022916 -0.008998 -0.008467 0.000000 0.000000 0.000000
# 2 -0.008998 0.022779 -0.006135 0.000000 0.000000 0.000000
# 3 -0.008467 -0.006135 0.019337 0.000000 0.000000 0.000000
# 4 0.000000 0.000000 0.000000 0.040519 0.000000 0.000000
# 5 0.000000 0.000000 0.000000 0.000000 0.035212 0.000000
# 6 0.000000 0.000000 0.000000 0.000000 0.000000 0.043779
#
#
# Mechanical properties :
#
#
# Convention : Reuss Voigt Hill
#
# Bulk Modulus (GPa) = 56.08317 56.60302 56.34310
# Shear Modulus (GPa) = 21.03606 22.04335 21.53970
#
# Velocity S-wave (km/s) = 3.78428 3.87382 3.82931
# Velocity P-wave (km/s) = 7.56797 7.65130 7.60975
#
# Compressibility (1/GPa) = 0.01783066
#
# Stress axis : x y z
#
# Youngs Moduli (GPa) = 43.63857 43.89975 51.71392
#
# Poissons Ratio (x) = 0.39503 0.43785
# Poissons Ratio (y) = 0.39268 0.31729
# Poissons Ratio (z) = 0.36947 0.26935
#
# Static dielectric constant tensor:
#      x y z
#    x 3.491430 0.000000 0.000000 
#    y 0.000000 2.888390 0.000000 
#    z 0.000000 0.000000 3.019370 
# 
# 
# High freq. dielectric constant tensor:
#      x y z
#    x 1.550890 0.000000 0.000000 
#    y 0.000000 1.526960 0.000000 
#    z 0.000000 0.000000 1.577390 
# 
# From -- ./inp_files/7446.got.cif
#   From: 2010.03.12/outbox.cif.g09.slc.cpg/sg57_4_cif.got.tgz:7446.got - 2010.04.16 15:48:40.
