data_PCOD8230031
_publ_section_title
;
Structure prediction by ZEFSAII (Michael W. Deem and Ramdas Pophale) SiO2 
 PCOD8230031
Probable space group: P B C M
;
_chemical_formula_sum "Si O2"
_cell_formula_units_Z 64
_cell_length_a 23.089366
_cell_length_b 9.761013
_cell_length_c 15.027617
_cell_angle_alpha 90.000000
_cell_angle_beta 90.000000
_cell_angle_gamma 90.000000
_cell_volume 3386.858223
_symmetry_space_group_name_H-M "P B C M"
_symmetry_group_IT_number 57
_symmetry_cell_setting 'orthorhombic'
loop_
_space_group_symop_operation_xyz
x,y,z
-x,-y,1/2+z
x,1/2-y,-z
-x,1/2+y,1/2-z
-x,-y,-z
x,y,1/2-z
-x,1/2+y,z
x,1/2-y,1/2+z
loop_
_atom_site_type_symbol
_atom_site_label
_atom_site_fract_x
_atom_site_fract_y
_atom_site_fract_z
Si Si1 0.048206 0.370991 0.066384
Si Si2 0.819743 0.525512 0.350729
Si Si3 0.922159 0.120915 0.945494
Si Si4 0.641693 0.406307 0.989034
Si Si5 0.252639 0.090545 0.989923
Si Si6 0.563315 0.051315 0.851515
Si Si7 0.542443 0.138696 0.148519
Si Si8 0.838750 0.842855 0.152969
O O1 0.093722 0.380449 0.146940
O O2 0.983179 0.344294 0.104905
O O3 0.066938 0.250000 0.000000
O O4 0.056438 0.512870 0.016817
O O5 0.800482 0.487772 0.250000
O O6 0.873571 0.428996 0.376903
O O7 0.766033 0.512797 0.418856
O O8 0.838264 0.681240 0.360143
O O9 0.897137 0.250000 0.000000
O O10 0.592268 0.417675 0.914930
O O11 0.663525 0.250000 0.000000
O O12 0.692891 0.504450 0.954838
O O13 0.618160 0.462911 0.083468
O O14 0.270456 0.250000 0.000000
O O15 0.199754 0.078910 0.920241
O O16 0.585279 0.033888 0.750000
O O17 0.533228 0.199222 0.865543
O O18 0.517342 0.934775 0.876901
O O19 0.560007 0.104369 0.250000
O O20 0.815185 0.885734 0.250000
#
# Coordination Sequence:
#
# PCOD8230031 Si02
#       8
#     8   8   8   8   8   8   8   8
#     4  10  17  34  56  80 108 143 175 213 272 328
#     4  10  20  37  59  78 104 144 182 221 276 333
#     4  10  20  31  56  83 110 139 171 219 271 326
#     4  10  21  35  54  76 106 143 175 214 269 319
#     4  10  21  38  55  76 102 135 187 234 264 309
#     4   9  18  33  53  79 110 141 173 210 256 312
#     4   9  18  33  53  79 110 140 171 209 256 311
#     4  10  19  35  59  79 102 141 185 225 271 326
#
# _framework density 18.896567999999998
#
# number of rings (size 3 to 8) (size 9 to 14) (size 15 to 20)
#    0.000    2.250    2.500    0.750    0.000    3.000 
#    0.000    0.625    0.000    0.000    0.000    0.000 
#    0.000    0.000    0.000    0.000    0.000    0.000 
#
# Total GULP energy -793322.247809 kJ/mol
# GULP energy per Si atom -12395.660122 kJ/mol
# Density = 1.885356 g / cm^3
# Si number density = 18.896568 Si / 1000 Ang^3
#
#
#
# Elastic Constant Matrix: (Units=GPa)
#
#
# Indices 1 2 3 4 5 6 
#
# 1 78.0546 31.7237 32.8838 0.0000 0.0000 0.0000
# 2 31.7237 61.7546 27.3702 0.0000 0.0000 0.0000
# 3 32.8838 27.3702 86.7915 0.0000 0.0000 0.0000
# 4 0.0000 0.0000 0.0000 19.0128 0.0000 0.0000
# 5 0.0000 0.0000 0.0000 0.0000 17.2036 0.0000
# 6 0.0000 0.0000 0.0000 0.0000 0.0000 34.0290
#
#
#
# Elastic Compliance Matrix: (Units=1/GPa)
#
#
# Indices 1 2 3 4 5 6 
#
# 1 0.017540 -0.007050 -0.004422 0.000000 0.000000 0.000000
# 2 -0.007050 0.021658 -0.004159 0.000000 0.000000 0.000000
# 3 -0.004422 -0.004159 0.014509 0.000000 0.000000 0.000000
# 4 0.000000 0.000000 0.000000 0.052596 0.000000 0.000000
# 5 0.000000 0.000000 0.000000 0.000000 0.058127 0.000000
# 6 0.000000 0.000000 0.000000 0.000000 0.000000 0.029387
#
#
# Mechanical properties :
#
#
# Convention : Reuss Voigt Hill
#
# Bulk Modulus (GPa) = 44.55482 45.61735 45.08608
# Shear Modulus (GPa) = 21.49967 23.02395 22.26181
#
# Velocity S-wave (km/s) = 3.37672 3.49437 3.43605
# Velocity P-wave (km/s) = 6.23157 6.36190 6.29707
#
# Compressibility (1/GPa) = 0.02244426
#
# Stress axis : x y z
#
# Youngs Moduli (GPa) = 57.01207 46.17193 68.92340
#
# Poissons Ratio (x) = 0.32553 0.30480
# Poissons Ratio (y) = 0.40196 0.28663
# Poissons Ratio (z) = 0.25212 0.19202
#
# Static dielectric constant tensor:
#      x y z
#    x 3.432900 0.000000 0.000000 
#    y 0.000000 3.399780 0.000000 
#    z 0.000000 0.000000 3.541870 
# 
# 
# High freq. dielectric constant tensor:
#      x y z
#    x 1.723180 0.000000 0.000000 
#    y 0.000000 1.729010 0.000000 
#    z 0.000000 0.000000 1.727210 
# 
# From -- ./inp_files/19511.got.cif
#   From: 2010.03.12/outbox.cif.g09.slc.cpg/sg57_10_cif.got.tgz:19511.got - 2010.04.16 15:48:40.
