data_PCOD8230306
_publ_section_title
;
Structure prediction by ZEFSAII (Michael W. Deem and Ramdas Pophale) SiO2 
 PCOD8230306
Probable space group: P B C M
;
_chemical_formula_sum "Si O2"
_cell_formula_units_Z 64
_cell_length_a 9.681273
_cell_length_b 19.203316
_cell_length_c 19.743381
_cell_angle_alpha 90.000000
_cell_angle_beta 90.000000
_cell_angle_gamma 90.000000
_cell_volume 3670.542203
_symmetry_space_group_name_H-M "P B C M"
_symmetry_group_IT_number 57
_symmetry_cell_setting 'orthorhombic'
loop_
_space_group_symop_operation_xyz
x,y,z
-x,-y,1/2+z
x,1/2-y,-z
-x,1/2+y,1/2-z
-x,-y,-z
x,y,1/2-z
-x,1/2+y,z
x,1/2-y,1/2+z
loop_
_atom_site_type_symbol
_atom_site_label
_atom_site_fract_x
_atom_site_fract_y
_atom_site_fract_z
Si Si1 0.784057 0.559537 0.827344
Si Si2 0.523945 0.562069 0.911265
Si Si3 0.654498 0.320085 0.914665
Si Si4 0.098297 0.070663 0.427141
Si Si5 0.588587 0.585967 0.435478
Si Si6 0.712853 0.338456 0.065912
Si Si7 0.984123 0.088004 0.572123
Si Si8 0.138028 0.901320 0.672316
O O1 0.799770 0.582898 0.750000
O O2 0.634352 0.582075 0.854006
O O3 0.902879 0.597766 0.869659
O O4 0.798064 0.477255 0.837381
O O5 0.486177 0.481250 0.904351
O O6 0.387500 0.606955 0.897666
O O7 0.591479 0.579908 0.983438
O O8 0.495917 0.346555 0.908724
O O9 0.659302 0.237099 0.913221
O O10 0.748415 0.347001 0.853595
O O11 0.712185 0.350552 0.985116
O O12 0.254649 0.092715 0.410021
O O13 0.054044 0.101319 0.499609
O O14 0.003324 0.105276 0.369714
O O15 0.088737 0.987197 0.427076
O O16 0.869485 0.353349 0.088509
O O17 0.103676 0.884551 0.750000
#
# Coordination Sequence:
#
# PCOD8230306 Si02
#       8
#     8   8   8   8   8   8   8   8
#     4  10  20  34  53  81 113 143 180 229 284 332
#     4  10  18  31  53  83 108 141 180 230 279 322
#     4  10  20  35  54  80 112 145 185 228 271 336
#     4  10  18  30  55  84 106 135 182 233 276 323
#     4  10  18  30  56  83 107 140 185 232 273 319
#     4  10  20  34  56  82 111 141 183 237 278 316
#     4  10  18  31  54  82 107 138 178 232 281 324
#     4  10  20  35  54  79 111 146 181 224 277 334
#
# _framework density 17.436115999999998
#
# number of rings (size 3 to 8) (size 9 to 14) (size 15 to 20)
#    0.000    2.000    5.000    0.000    0.000    0.000 
#    0.000    4.375    2.750    0.000    0.000    0.000 
#    0.000    0.000    0.000    0.000    0.000    0.000 
#
# Total GULP energy -793744.099718 kJ/mol
# GULP energy per Si atom -12402.251558 kJ/mol
# Density = 1.739643 g / cm^3
# Si number density = 17.436116 Si / 1000 Ang^3
#
#
#
# Elastic Constant Matrix: (Units=GPa)
#
#
# Indices 1 2 3 4 5 6 
#
# 1 139.6126 36.4251 61.5409 0.0000 0.0000 0.0000
# 2 36.4251 62.6918 29.1528 0.0000 0.0000 0.0000
# 3 61.5409 29.1528 104.4165 0.0000 0.0000 0.0000
# 4 0.0000 0.0000 0.0000 14.3140 0.0000 0.0000
# 5 0.0000 0.0000 0.0000 0.0000 26.7597 0.0000
# 6 0.0000 0.0000 0.0000 0.0000 0.0000 25.8531
#
#
#
# Elastic Compliance Matrix: (Units=1/GPa)
#
#
# Indices 1 2 3 4 5 6 
#
# 1 0.010357 -0.003653 -0.005084 0.000000 0.000000 0.000000
# 2 -0.003653 0.019620 -0.003325 0.000000 0.000000 0.000000
# 3 -0.005084 -0.003325 0.013502 0.000000 0.000000 0.000000
# 4 0.000000 0.000000 0.000000 0.069862 0.000000 0.000000
# 5 0.000000 0.000000 0.000000 0.000000 0.037370 0.000000
# 6 0.000000 0.000000 0.000000 0.000000 0.000000 0.038680
#
#
# Mechanical properties :
#
#
# Convention : Reuss Voigt Hill
#
# Bulk Modulus (GPa) = 51.66829 62.32872 56.99851
# Shear Modulus (GPa) = 22.73086 25.35883 24.04485
#
# Velocity S-wave (km/s) = 3.61455 3.81778 3.71755
# Velocity P-wave (km/s) = 6.86420 7.43360 7.15456
#
# Compressibility (1/GPa) = 0.01935423
#
# Stress axis : x y z
#
# Youngs Moduli (GPa) = 96.55385 50.96922 74.06462
#
# Poissons Ratio (x) = 0.18621 0.37655
# Poissons Ratio (y) = 0.35274 0.24623
# Poissons Ratio (z) = 0.49089 0.16945
#
# Static dielectric constant tensor:
#      x y z
#    x 3.261620 0.000000 0.000000 
#    y 0.000000 2.964580 0.000000 
#    z 0.000000 0.000000 3.073180 
# 
# 
# High freq. dielectric constant tensor:
#      x y z
#    x 1.685510 0.000000 0.000000 
#    y 0.000000 1.646390 0.000000 
#    z 0.000000 0.000000 1.650940 
# 
# From -- ./inp_files/24635.got.cif
#   From: 2010.03.12/outbox.cif.g09.slc.cpg/sg57_13_cif.got.tgz:24635.got - 2010.04.16 15:48:40.
