data_PCOD8230020
_publ_section_title
;
Structure prediction by ZEFSAII (Michael W. Deem and Ramdas Pophale) SiO2 
 PCOD8230020
Probable space group: P B C M
;
_chemical_formula_sum "Si O2"
_cell_formula_units_Z 64
_cell_length_a 9.115057
_cell_length_b 18.498304
_cell_length_c 20.521437
_cell_angle_alpha 90.000000
_cell_angle_beta 90.000000
_cell_angle_gamma 90.000000
_cell_volume 3460.183014
_symmetry_space_group_name_H-M "P B C M"
_symmetry_group_IT_number 57
_symmetry_cell_setting 'orthorhombic'
loop_
_space_group_symop_operation_xyz
x,y,z
-x,-y,1/2+z
x,1/2-y,-z
-x,1/2+y,1/2-z
-x,-y,-z
x,y,1/2-z
-x,1/2+y,z
x,1/2-y,1/2+z
loop_
_atom_site_type_symbol
_atom_site_label
_atom_site_fract_x
_atom_site_fract_y
_atom_site_fract_z
Si Si1 0.165355 0.366036 0.499040
Si Si2 0.829734 0.141810 0.476034
Si Si3 0.338815 0.429270 0.177252
Si Si4 0.488046 0.716792 0.822950
Si Si5 0.931288 0.669558 0.822916
Si Si6 0.646586 0.500330 0.956304
Si Si7 0.799946 0.281000 0.398509
Si Si8 0.254854 0.239210 0.398924
O O1 0.245899 0.440616 0.486490
O O2 0.214409 0.306131 0.446749
O O3 0.215231 0.337292 0.570005
O O4 0.991979 0.380643 0.500551
O O5 0.846652 0.198906 0.416564
O O6 0.744368 0.179162 0.536318
O O7 0.729981 0.075424 0.455246
O O8 0.344744 0.465129 0.250000
O O9 0.454715 0.364693 0.175060
O O10 0.173432 0.399835 0.163911
O O11 0.386181 0.484224 0.120161
O O12 0.504727 0.748758 0.750000
O O13 0.319331 0.719594 0.842190
O O14 0.575129 0.763518 0.877336
O O15 0.992315 0.668790 0.750000
O O16 0.837136 0.743512 0.833272
O O17 0.065389 0.670739 0.872638
O O18 0.500000 0.500000 0.000000
#
# Coordination Sequence:
#
# PCOD8230020 Si02
#       8
#     8   8   8   8   8   8   8   8
#     4  11  20  37  58  84 113 147 188 242 290 341
#     4  11  23  36  58  82 120 150 184 248 300 340
#     4   9  19  39  60  81 113 154 197 237 284 350
#     4  10  20  33  56  85 114 149 188 236 284 343
#     4  10  17  32  60  85 109 147 190 229 279 350
#     4  12  24  37  58  88 114 160 201 239 292 359
#     4  11  20  36  54  90 117 139 190 246 299 339
#     4  10  18  34  60  81 111 147 188 237 295 334
#
# _framework density 18.496131999999999
#
# number of rings (size 3 to 8) (size 9 to 14) (size 15 to 20)
#    0.000    1.500    5.000    3.375    1.750    1.000 
#    0.000    1.250    0.000    0.000    0.000    0.000 
#    0.000    0.000    0.000    0.000    0.000    0.000 
#
# Total GULP energy -793175.200520 kJ/mol
# GULP energy per Si atom -12393.362508 kJ/mol
# Density = 1.845403 g / cm^3
# Si number density = 18.496132 Si / 1000 Ang^3
#
#
#
# Elastic Constant Matrix: (Units=GPa)
#
#
# Indices 1 2 3 4 5 6 
#
# 1 99.0744 20.0830 45.2649 0.0000 0.0000 0.0000
# 2 20.0830 71.3083 42.2735 0.0000 0.0000 0.0000
# 3 45.2649 42.2735 123.1182 0.0000 0.0000 0.0000
# 4 0.0000 0.0000 0.0000 25.2232 0.0000 0.0000
# 5 0.0000 0.0000 0.0000 0.0000 33.7349 0.0000
# 6 0.0000 0.0000 0.0000 0.0000 0.0000 19.4953
#
#
#
# Elastic Compliance Matrix: (Units=1/GPa)
#
#
# Indices 1 2 3 4 5 6 
#
# 1 0.012185 -0.000974 -0.004145 0.000000 0.000000 0.000000
# 2 -0.000974 0.017686 -0.005714 0.000000 0.000000 0.000000
# 3 -0.004145 -0.005714 0.011608 0.000000 0.000000 0.000000
# 4 0.000000 0.000000 0.000000 0.039646 0.000000 0.000000
# 5 0.000000 0.000000 0.000000 0.000000 0.029643 0.000000
# 6 0.000000 0.000000 0.000000 0.000000 0.000000 0.051294
#
#
# Mechanical properties :
#
#
# Convention : Reuss Voigt Hill
#
# Bulk Modulus (GPa) = 50.47674 56.52708 53.50191
# Shear Modulus (GPa) = 26.26969 28.08264 27.17617
#
# Velocity S-wave (km/s) = 3.77275 3.90076 3.83729
# Velocity P-wave (km/s) = 6.80646 7.13553 6.97294
#
# Compressibility (1/GPa) = 0.01981111
#
# Stress axis : x y z
#
# Youngs Moduli (GPa) = 82.06951 56.54325 86.14496
#
# Poissons Ratio (x) = 0.05509 0.35709
# Poissons Ratio (y) = 0.07996 0.49226
# Poissons Ratio (z) = 0.34020 0.32310
#
# Static dielectric constant tensor:
#      x y z
#    x 3.399900 0.000000 0.000000 
#    y 0.000000 3.125360 0.000000 
#    z 0.000000 0.000000 3.759910 
# 
# 
# High freq. dielectric constant tensor:
#      x y z
#    x 1.721460 0.000000 0.000000 
#    y 0.000000 1.676800 0.000000 
#    z 0.000000 0.000000 1.731360 
# 
# From -- ./inp_files/24623.got.cif
#   From: 2010.03.12/outbox.cif.g09.slc.cpg/sg57_13_cif.got.tgz:24623.got - 2010.04.16 15:48:40.
