data_PCOD8230369
_publ_section_title
;
Structure prediction by ZEFSAII (Michael W. Deem and Ramdas Pophale) SiO2 
 PCOD8230369
Probable space group: P B C M
;
_chemical_formula_sum "Si O2"
_cell_formula_units_Z 48
_cell_length_a 31.041904
_cell_length_b 9.547427
_cell_length_c 8.504483
_cell_angle_alpha 90.000000
_cell_angle_beta 90.000000
_cell_angle_gamma 90.000000
_cell_volume 2520.476283
_symmetry_space_group_name_H-M "P B C M"
_symmetry_group_IT_number 57
_symmetry_cell_setting 'orthorhombic'
loop_
_space_group_symop_operation_xyz
x,y,z
-x,-y,1/2+z
x,1/2-y,-z
-x,1/2+y,1/2-z
-x,-y,-z
x,y,1/2-z
-x,1/2+y,z
x,1/2-y,1/2+z
loop_
_atom_site_type_symbol
_atom_site_label
_atom_site_fract_x
_atom_site_fract_y
_atom_site_fract_z
Si Si1 0.631789 0.099937 0.064424
Si Si2 0.535916 0.100069 0.435252
Si Si3 0.795446 0.594469 0.436270
Si Si4 0.708095 0.595027 0.563338
Si Si5 0.115003 0.092389 0.935908
Si Si6 0.961128 0.092288 0.563869
O O1 0.632675 0.107644 0.250000
O O2 0.583876 0.056224 0.005690
O O3 0.666564 0.989157 0.002336
O O4 0.645290 0.250000 0.000000
O O5 0.523557 0.250000 0.500000
O O6 0.534149 0.101496 0.250000
O O7 0.500000 0.000000 0.500000
O O8 0.790283 0.750000 0.500000
O O9 0.801336 0.590730 0.250000
O O10 0.751025 0.519929 0.490394
O O11 0.838028 0.531115 0.517574
O O12 0.701622 0.750000 0.500000
O O13 0.712516 0.596286 0.750000
O O14 0.108995 0.095815 0.750000
O O15 0.107823 0.250000 0.000000
O O16 0.082435 0.982841 0.011330
O O17 0.963571 0.250000 0.500000
O O18 0.963773 0.098796 0.750000
O O19 0.000000 0.000000 0.500000
#
# Coordination Sequence:
#
# PCOD8230369 Si02
#       6
#     8   8   8   8   8   8
#     4   9  20  36  54  75 104 138 176 216 265 321
#     4  10  20  36  55  78 105 138 176 220 269 324
#     4  10  18  31  52  80 110 144 182 225 272 323
#     4  10  19  33  52  78 107 139 178 223 267 317
#     4  11  21  37  60  87 116 151 189 231 278 330
#     4  12  25  43  63  88 118 152 190 233 280 331
#
# _framework density 19.044021000000001
#
# number of rings (size 3 to 8) (size 9 to 14) (size 15 to 20)
#    0.000    1.667    0.000    8.000    0.000    2.667 
#    0.000    2.500    0.000    2.000    0.000    0.000 
#    0.000    0.000    0.000    0.000    0.000    0.000 
#
# Total GULP energy -595064.907089 kJ/mol
# GULP energy per Si atom -12397.185564 kJ/mol
# Density = 1.900068 g / cm^3
# Si number density = 19.044021 Si / 1000 Ang^3
#
#
#
# Elastic Constant Matrix: (Units=GPa)
#
#
# Indices 1 2 3 4 5 6 
#
# 1 179.0322 98.0192 45.9009 0.0000 0.0000 0.0000
# 2 98.0192 113.0707 45.0894 0.0000 0.0000 0.0000
# 3 45.9009 45.0894 116.3977 0.0000 0.0000 0.0000
# 4 0.0000 0.0000 0.0000 30.3377 0.0000 0.0000
# 5 0.0000 0.0000 0.0000 0.0000 30.7878 0.0000
# 6 0.0000 0.0000 0.0000 0.0000 0.0000 35.7460
#
#
#
# Elastic Compliance Matrix: (Units=1/GPa)
#
#
# Indices 1 2 3 4 5 6 
#
# 1 0.010685 -0.008968 -0.000740 0.000000 0.000000 0.000000
# 2 -0.008968 0.017986 -0.003431 0.000000 0.000000 0.000000
# 3 -0.000740 -0.003431 0.010212 0.000000 0.000000 0.000000
# 4 0.000000 0.000000 0.000000 0.032962 0.000000 0.000000
# 5 0.000000 0.000000 0.000000 0.000000 0.032480 0.000000
# 6 0.000000 0.000000 0.000000 0.000000 0.000000 0.027975
#
#
# Mechanical properties :
#
#
# Convention : Reuss Voigt Hill
#
# Bulk Modulus (GPa) = 79.32508 87.39106 83.35807
# Shear Modulus (GPa) = 30.71631 34.00703 32.36167
#
# Velocity S-wave (km/s) = 4.02046 4.23035 4.12674
# Velocity P-wave (km/s) = 7.95589 8.35761 8.15922
#
# Compressibility (1/GPa) = 0.01260635
#
# Stress axis : x y z
#
# Youngs Moduli (GPa) = 93.58918 55.59836 97.92372
#
# Poissons Ratio (x) = 0.49859 0.07244
# Poissons Ratio (y) = 0.83928 0.33598
# Poissons Ratio (z) = 0.06923 0.19076
#
# Static dielectric constant tensor:
#      x y z
#    x 4.156960 0.000000 0.000000 
#    y 0.000000 3.324550 0.000000 
#    z 0.000000 0.000000 3.626760 
# 
# 
# High freq. dielectric constant tensor:
#      x y z
#    x 1.766740 0.000000 0.000000 
#    y 0.000000 1.713650 0.000000 
#    z 0.000000 0.000000 1.756850 
# 
# From -- ./inp_files/10005.got.cif
#   From: 2010.03.12/outbox.cif.g09.slc.cpg/sg57_6_cif.got.tgz:10005.got - 2010.04.16 15:48:40.
