data_PCOD8230566
_publ_section_title
;
Structure prediction by ZEFSAII (Michael W. Deem and Ramdas Pophale) SiO2 
 PCOD8230566
Probable space group: P B C M
;
_chemical_formula_sum "Si O2"
_cell_formula_units_Z 64
_cell_length_a 12.074303
_cell_length_b 15.538019
_cell_length_c 17.486365
_cell_angle_alpha 90.000000
_cell_angle_beta 90.000000
_cell_angle_gamma 90.000000
_cell_volume 3280.630042
_symmetry_space_group_name_H-M "P B C M"
_symmetry_group_IT_number 57
_symmetry_cell_setting 'orthorhombic'
loop_
_space_group_symop_operation_xyz
x,y,z
-x,-y,1/2+z
x,1/2-y,-z
-x,1/2+y,1/2-z
-x,-y,-z
x,y,1/2-z
-x,1/2+y,z
x,1/2-y,1/2+z
loop_
_atom_site_type_symbol
_atom_site_label
_atom_site_fract_x
_atom_site_fract_y
_atom_site_fract_z
Si Si1 0.243839 0.230447 0.163392
Si Si2 0.475926 0.310050 0.162756
Si Si3 0.388631 0.856347 0.840614
Si Si4 0.982755 0.491217 0.340300
Si Si5 0.736472 0.957195 0.840305
Si Si6 0.863678 0.354457 0.841114
Si Si7 0.017161 0.300374 0.158579
Si Si8 0.479372 0.513102 0.588377
O O1 0.208077 0.209845 0.250000
O O2 0.345245 0.294660 0.158755
O O3 0.280062 0.139558 0.128633
O O4 0.134838 0.269573 0.123877
O O5 0.512258 0.330671 0.250000
O O6 0.546473 0.228983 0.130626
O O7 0.487102 0.390623 0.108254
O O8 0.390300 0.856625 0.750000
O O9 0.262490 0.855641 0.872068
O O10 0.449990 0.942613 0.866223
O O11 0.997405 0.489322 0.250000
O O12 0.859012 0.515458 0.363305
O O13 0.069453 0.562067 0.373287
O O14 0.001246 0.396187 0.375300
O O15 0.712273 0.969159 0.750000
O O16 0.649497 0.011402 0.889056
O O17 0.864614 0.356852 0.750000
O O18 0.922223 0.266067 0.869494
O O19 0.017158 0.305000 0.250000
O O20 0.500000 0.500000 0.500000
#
# Coordination Sequence:
#
# PCOD8230566 Si02
#       8
#     8   8   8   8   8   8   8   8
#     4   9  16  30  53  81 113 142 180 232 281 329
#     4  10  21  37  61  88 109 144 192 238 285 337
#     4  10  21  38  59  85 117 148 187 240 288 336
#     4   9  17  27  48  81 116 146 174 221 283 336
#     4  10  18  35  58  80 110 148 191 237 277 329
#     4   9  17  29  47  79 117 143 170 222 287 338
#     4   9  16  26  44  79 115 140 170 218 282 339
#     4  12  26  40  56  81 115 155 193 237 289 341
#
# _framework density 19.508448000000001
#
# number of rings (size 3 to 8) (size 9 to 14) (size 15 to 20)
#    0.000    2.250    2.500    1.125    3.500    0.500 
#    0.000    0.000    0.000    0.750    0.000    0.000 
#    0.000    0.000    0.000    0.000    0.000    0.000 
#
# Total GULP energy -793295.896695 kJ/mol
# GULP energy per Si atom -12395.248386 kJ/mol
# Density = 1.946405 g / cm^3
# Si number density = 19.508448 Si / 1000 Ang^3
#
#
#
# Elastic Constant Matrix: (Units=GPa)
#
#
# Indices 1 2 3 4 5 6 
#
# 1 128.9187 41.5197 18.0107 0.0000 0.0000 0.0000
# 2 41.5197 132.0290 9.9494 0.0000 0.0000 0.0000
# 3 18.0107 9.9494 22.1271 0.0000 0.0000 0.0000
# 4 0.0000 0.0000 0.0000 6.6811 0.0000 0.0000
# 5 0.0000 0.0000 0.0000 0.0000 1.7355 0.0000
# 6 0.0000 0.0000 0.0000 0.0000 0.0000 32.0359
#
#
#
# Elastic Compliance Matrix: (Units=1/GPa)
#
#
# Indices 1 2 3 4 5 6 
#
# 1 0.009479 -0.002483 -0.006598 0.000000 0.000000 0.000000
# 2 -0.002483 0.008490 -0.001796 0.000000 0.000000 0.000000
# 3 -0.006598 -0.001796 0.051372 0.000000 0.000000 0.000000
# 4 0.000000 0.000000 0.000000 0.149675 0.000000 0.000000
# 5 0.000000 0.000000 0.000000 0.000000 0.576213 0.000000
# 6 0.000000 0.000000 0.000000 0.000000 0.000000 0.031215
#
#
# Mechanical properties :
#
#
# Convention : Reuss Voigt Hill
#
# Bulk Modulus (GPa) = 21.01521 46.89271 33.95396
# Shear Modulus (GPa) = 5.78662 22.33017 14.05839
#
# Velocity S-wave (km/s) = 1.72414 3.38692 2.68737
# Velocity P-wave (km/s) = 3.84178 6.27569 5.20306
#
# Compressibility (1/GPa) = 0.04758458
#
# Stress axis : x y z
#
# Youngs Moduli (GPa) = 105.50182 117.77943 19.46585
#
# Poissons Ratio (x) = 0.29251 0.12844
# Poissons Ratio (y) = 0.26201 0.03497
# Poissons Ratio (z) = 0.69615 0.21156
#
# Static dielectric constant tensor:
#      x y z
#    x 3.789380 0.000000 0.000000 
#    y 0.000000 3.934880 0.000000 
#    z 0.000000 0.000000 2.910240 
# 
# 
# High freq. dielectric constant tensor:
#      x y z
#    x 1.777280 0.000000 0.000000 
#    y 0.000000 1.776760 0.000000 
#    z 0.000000 0.000000 1.683600 
# 
# From -- ./inp_files/22018.got.cif
#   From: 2010.03.12/outbox.cif.g09.slc.cpg/sg57_12_cif.got.tgz:22018.got - 2010.04.16 15:48:40.
