data_PCOD8230041
_publ_section_title
;
Structure prediction by ZEFSAII (Michael W. Deem and Ramdas Pophale) SiO2 
 PCOD8230041
Probable space group: P B C M
;
_chemical_formula_sum "Si O2"
_cell_formula_units_Z 44
_cell_length_a 9.545381
_cell_length_b 18.106866
_cell_length_c 13.772397
_cell_angle_alpha 90.000000
_cell_angle_beta 90.000000
_cell_angle_gamma 90.000000
_cell_volume 2380.378881
_symmetry_space_group_name_H-M "P B C M"
_symmetry_group_IT_number 57
_symmetry_cell_setting 'orthorhombic'
loop_
_space_group_symop_operation_xyz
x,y,z
-x,-y,1/2+z
x,1/2-y,-z
-x,1/2+y,1/2-z
-x,-y,-z
x,y,1/2-z
-x,1/2+y,z
x,1/2-y,1/2+z
loop_
_atom_site_type_symbol
_atom_site_label
_atom_site_fract_x
_atom_site_fract_y
_atom_site_fract_z
Si Si1 0.099337 0.860167 0.750000
Si Si2 0.580194 0.378912 0.750000
Si Si3 0.400705 0.102524 0.750000
Si Si4 0.105419 0.034095 0.750000
Si Si5 0.899475 0.691248 0.084247
Si Si6 0.681734 0.771469 0.750000
Si Si7 0.887625 0.947737 0.044914
Si Si8 0.587465 0.998597 0.405260
O O1 0.264650 0.842665 0.750000
O O2 0.033513 0.823588 0.847262
O O3 0.064289 0.947463 0.750000
O O4 0.463308 0.315182 0.750000
O O5 0.557494 0.426924 0.653829
O O6 0.273707 0.041136 0.750000
O O7 0.355720 0.185761 0.750000
O O8 0.473031 0.075583 0.849487
O O9 0.051170 0.075780 0.652252
O O10 0.768999 0.713476 0.152196
O O11 0.936183 0.750000 0.000000
O O12 0.852731 0.619104 0.025531
O O13 0.749814 0.995472 0.064709
O O14 0.000000 0.000000 0.000000
O O15 0.500000 0.000000 0.500000
#
# Coordination Sequence:
#
# PCOD8230041 Si02
#       8
#     4   4   4   4   8   4   8   8
#     4  11  20  41  62  84 121 165 191 247 316 359
#     4  11  20  39  57  84 117 162 195 241 306 359
#     4   9  19  38  59  80 112 158 193 234 300 355
#     4  10  17  35  59  83 114 153 189 242 293 347
#     4  11  23  38  60  92 122 154 204 252 302 363
#     4  11  24  39  61  85 124 160 196 250 305 362
#     4  11  19  34  59  85 111 151 200 236 292 352
#     4  10  19  34  58  83 111 147 194 244 288 344
#
# _framework density 18.484452999999998
#
# number of rings (size 3 to 8) (size 9 to 14) (size 15 to 20)
#    0.000    1.455    5.455    3.273    0.000    0.727 
#    0.000    5.455    0.000    0.000    0.000    0.000 
#    0.000    0.000    0.000    0.000    0.000    0.000 
#
# Total GULP energy -545135.746027 kJ/mol
# GULP energy per Si atom -12389.448773 kJ/mol
# Density = 1.844238 g / cm^3
# Si number density = 18.484453 Si / 1000 Ang^3
#
#
#
# Elastic Constant Matrix: (Units=GPa)
#
#
# Indices 1 2 3 4 5 6 
#
# 1 92.2982 48.4578 63.0655 0.0000 0.0000 0.0000
# 2 48.4578 107.5916 62.5421 0.0000 0.0000 0.0000
# 3 63.0655 62.5421 182.8660 0.0000 0.0000 0.0000
# 4 0.0000 0.0000 0.0000 33.2977 0.0000 0.0000
# 5 0.0000 0.0000 0.0000 0.0000 29.0948 0.0000
# 6 0.0000 0.0000 0.0000 0.0000 0.0000 22.7945
#
#
#
# Elastic Compliance Matrix: (Units=1/GPa)
#
#
# Indices 1 2 3 4 5 6 
#
# 1 0.016087 -0.005018 -0.003832 0.000000 0.000000 0.000000
# 2 -0.005018 0.013166 -0.002772 0.000000 0.000000 0.000000
# 3 -0.003832 -0.002772 0.007738 0.000000 0.000000 0.000000
# 4 0.000000 0.000000 0.000000 0.030032 0.000000 0.000000
# 5 0.000000 0.000000 0.000000 0.000000 0.034370 0.000000
# 6 0.000000 0.000000 0.000000 0.000000 0.000000 0.043870
#
#
# Mechanical properties :
#
#
# Convention : Reuss Voigt Hill
#
# Bulk Modulus (GPa) = 72.74336 81.20962 76.97649
# Shear Modulus (GPa) = 28.88659 30.95010 29.91835
#
# Velocity S-wave (km/s) = 3.95745 4.09636 4.02751
# Velocity P-wave (km/s) = 7.76667 8.14880 7.96003
#
# Compressibility (1/GPa) = 0.01374696
#
# Stress axis : x y z
#
# Youngs Moduli (GPa) = 62.16126 75.95319 129.23021
#
# Poissons Ratio (x) = 0.38114 0.49518
# Poissons Ratio (y) = 0.31193 0.35827
# Poissons Ratio (z) = 0.23819 0.21057
#
# Static dielectric constant tensor:
#      x y z
#    x 2.965080 0.000000 0.000000 
#    y 0.000000 3.179300 0.000000 
#    z 0.000000 0.000000 3.823690 
# 
# 
# High freq. dielectric constant tensor:
#      x y z
#    x 1.691820 0.000000 0.000000 
#    y 0.000000 1.706570 0.000000 
#    z 0.000000 0.000000 1.753620 
# 
# From -- ./inp_files/16263.got.cif
#   From: 2010.03.12/outbox.cif.g09.slc.cpg/sg57_9_cif.got.tgz:16263.got - 2010.04.16 15:48:40.
