data_PCOD8230415
_publ_section_title
;
Structure prediction by ZEFSAII (Michael W. Deem and Ramdas Pophale) SiO2 
 PCOD8230415
Probable space group: P B C M
;
_chemical_formula_sum "Si O2"
_cell_formula_units_Z 64
_cell_length_a 18.810568
_cell_length_b 23.191817
_cell_length_c 8.848053
_cell_angle_alpha 90.000000
_cell_angle_beta 90.000000
_cell_angle_gamma 90.000000
_cell_volume 3859.974188
_symmetry_space_group_name_H-M "P B C M"
_symmetry_group_IT_number 57
_symmetry_cell_setting 'orthorhombic'
loop_
_space_group_symop_operation_xyz
x,y,z
-x,-y,1/2+z
x,1/2-y,-z
-x,1/2+y,1/2-z
-x,-y,-z
x,y,1/2-z
-x,1/2+y,z
x,1/2-y,1/2+z
loop_
_atom_site_type_symbol
_atom_site_label
_atom_site_fract_x
_atom_site_fract_y
_atom_site_fract_z
Si Si1 0.396780 0.974961 0.073668
Si Si2 0.901153 0.026138 0.076780
Si Si3 0.020293 0.409425 0.074535
Si Si4 0.893654 0.688959 0.428594
Si Si5 0.481008 0.089308 0.426806
Si Si6 0.604511 0.688567 0.572168
Si Si7 0.244583 0.136169 0.572261
Si Si8 0.744267 0.504331 0.574900
O O1 0.403501 0.961946 0.250000
O O2 0.427194 0.037764 0.031530
O O3 0.440232 0.926300 0.983967
O O4 0.315149 0.972025 0.022663
O O5 0.920322 0.039700 0.250000
O O6 0.926562 0.961749 0.036072
O O7 0.817190 0.030210 0.047144
O O8 0.940287 0.072981 0.972301
O O9 0.022328 0.393074 0.250000
O O10 0.044918 0.354960 0.978251
O O11 0.913042 0.750000 0.500000
O O12 0.892615 0.694596 0.250000
O O13 0.816687 0.668730 0.483406
O O14 0.483246 0.101687 0.250000
O O15 0.455827 0.146044 0.512163
O O16 0.590471 0.750000 0.500000
O O17 0.597260 0.693337 0.750000
O O18 0.681964 0.665890 0.524931
O O19 0.228473 0.140857 0.750000
O O20 0.246918 0.069959 0.519803
O O21 0.721645 0.503639 0.750000
#
# Coordination Sequence:
#
# PCOD8230415 Si02
#       8
#     8   8   8   8   8   8   8   8
#     4  10  20  32  50  75 102 131 169 212 257 306
#     4   9  18  32  51  74 102 134 168 207 255 305
#     4  10  19  34  52  73 101 132 170 213 256 300
#     4  12  24  36  52  72 100 137 178 216 255 301
#     4  10  20  34  51  72  99 133 172 212 257 303
#     4  11  22  35  52  72 101 137 176 215 254 299
#     4  10  20  35  51  72 103 139 176 213 250 294
#     4  10  18  32  52  75 105 138 169 206 254 304
#
# _framework density 16.580421999999999
#
# number of rings (size 3 to 8) (size 9 to 14) (size 15 to 20)
#    0.000    1.750    2.500    3.000    0.000    4.500 
#    0.000    0.000    0.000    0.000    0.000    0.875 
#    0.000    6.000    0.000    0.000    0.000    0.000 
#
# Total GULP energy -793920.168343 kJ/mol
# GULP energy per Si atom -12405.002630 kJ/mol
# Density = 1.654268 g / cm^3
# Si number density = 16.580422 Si / 1000 Ang^3
#
#
#
# Elastic Constant Matrix: (Units=GPa)
#
#
# Indices 1 2 3 4 5 6 
#
# 1 93.8004 48.5621 36.4732 0.0000 0.0000 0.0000
# 2 48.5621 88.1925 40.6136 0.0000 0.0000 0.0000
# 3 36.4732 40.6136 70.6465 0.0000 0.0000 0.0000
# 4 0.0000 0.0000 0.0000 26.8592 0.0000 0.0000
# 5 0.0000 0.0000 0.0000 0.0000 31.0292 0.0000
# 6 0.0000 0.0000 0.0000 0.0000 0.0000 23.9956
#
#
#
# Elastic Compliance Matrix: (Units=1/GPa)
#
#
# Indices 1 2 3 4 5 6 
#
# 1 0.015816 -0.006730 -0.004296 0.000000 0.000000 0.000000
# 2 -0.006730 0.018286 -0.007037 0.000000 0.000000 0.000000
# 3 -0.004296 -0.007037 0.020419 0.000000 0.000000 0.000000
# 4 0.000000 0.000000 0.000000 0.037231 0.000000 0.000000
# 5 0.000000 0.000000 0.000000 0.000000 0.032228 0.000000
# 6 0.000000 0.000000 0.000000 0.000000 0.000000 0.041674
#
#
# Mechanical properties :
#
#
# Convention : Reuss Voigt Hill
#
# Bulk Modulus (GPa) = 54.37059 55.99303 55.18181
# Shear Modulus (GPa) = 24.04861 24.84283 24.44572
#
# Velocity S-wave (km/s) = 3.81257 3.87502 3.84392
# Velocity P-wave (km/s) = 7.22801 7.33927 7.28385
#
# Compressibility (1/GPa) = 0.01839229
#
# Stress axis : x y z
#
# Youngs Moduli (GPa) = 63.22748 54.68766 48.97468
#
# Poissons Ratio (x) = 0.36807 0.21040
# Poissons Ratio (y) = 0.42555 0.34465
# Poissons Ratio (z) = 0.27164 0.38486
#
# Static dielectric constant tensor:
#      x y z
#    x 3.101960 0.000000 0.000000 
#    y 0.000000 2.973560 0.000000 
#    z 0.000000 0.000000 3.141060 
# 
# 
# High freq. dielectric constant tensor:
#      x y z
#    x 1.633110 0.000000 0.000000 
#    y 0.000000 1.614580 0.000000 
#    z 0.000000 0.000000 1.648720 
# 
# From -- ./inp_files/7151.got.cif
#   From: 2010.03.12/outbox.cif.g09.slc.cpg/sg57_4_cif.got.tgz:7151.got - 2010.04.16 15:48:40.
