data_PCOD8230275
_publ_section_title
;
Structure prediction by ZEFSAII (Michael W. Deem and Ramdas Pophale) SiO2 
 PCOD8230275
Probable space group: P B C M
;
_chemical_formula_sum "Si O2"
_cell_formula_units_Z 56
_cell_length_a 16.752019
_cell_length_b 21.380548
_cell_length_c 9.257139
_cell_angle_alpha 90.000000
_cell_angle_beta 90.000000
_cell_angle_gamma 90.000000
_cell_volume 3315.604910
_symmetry_space_group_name_H-M "P B C M"
_symmetry_group_IT_number 57
_symmetry_cell_setting 'orthorhombic'
loop_
_space_group_symop_operation_xyz
x,y,z
-x,-y,1/2+z
x,1/2-y,-z
-x,1/2+y,1/2-z
-x,-y,-z
x,y,1/2-z
-x,1/2+y,z
x,1/2-y,1/2+z
loop_
_atom_site_type_symbol
_atom_site_label
_atom_site_fract_x
_atom_site_fract_y
_atom_site_fract_z
Si Si1 0.275989 0.537752 0.419582
Si Si2 0.426806 0.809833 0.414011
Si Si3 0.251500 0.844514 0.090409
Si Si4 0.008422 0.912747 0.909148
Si Si5 0.118464 0.467017 0.408884
Si Si6 0.920060 0.306278 0.089269
Si Si7 0.561303 0.046360 0.922998
O O1 0.298048 0.538476 0.250000
O O2 0.240584 0.604820 0.464203
O O3 0.207958 0.486600 0.454001
O O4 0.353025 0.524123 0.517437
O O5 0.464248 0.750000 0.500000
O O6 0.454247 0.800456 0.250000
O O7 0.331537 0.804795 0.433366
O O8 0.454455 0.880067 0.465280
O O9 0.257284 0.877273 0.250000
O O10 0.175846 0.798732 0.088103
O O11 0.000608 0.882239 0.750000
O O12 0.057622 0.975835 0.897668
O O13 0.057651 0.871148 0.018731
O O14 0.918337 0.920907 0.971199
O O15 0.121919 0.435078 0.250000
O O16 0.954888 0.303948 0.250000
O O17 0.959243 0.250000 0.000000
O O18 0.558062 0.038172 0.750000
O O19 0.500000 0.000000 0.000000
#
# Coordination Sequence:
#
# PCOD8230275 Si02
#       7
#     8   8   8   8   8   8   8
#     4  10  18  30  50  73  98 128 162 201 245 294
#     4   9  18  31  47  70  98 129 166 202 239 291
#     4   9  18  30  43  64  95 129 165 202 235 280
#     4  10  19  31  46  66  92 123 162 203 243 285
#     4   9  18  31  47  69  94 122 158 199 242 288
#     4  11  21  31  44  62  91 128 166 206 247 291
#     4  10  21  36  52  75 105 135 170 208 252 303
#
# _framework density 16.889828999999999
#
# number of rings (size 3 to 8) (size 9 to 14) (size 15 to 20)
#    0.000    2.286    1.429    3.000    0.000    5.143 
#    0.000    0.000    0.000    0.000    0.000    1.000 
#    0.000    4.571    0.000    0.000    0.000    0.000 
#
# Total GULP energy -693864.438152 kJ/mol
# GULP energy per Si atom -12390.436396 kJ/mol
# Density = 1.685139 g / cm^3
# Si number density = 16.889829 Si / 1000 Ang^3
#
#
#
# Elastic Constant Matrix: (Units=GPa)
#
#
# Indices 1 2 3 4 5 6 
#
# 1 61.5685 28.8788 36.6709 0.0000 0.0000 0.0000
# 2 28.8788 59.4640 39.9989 0.0000 0.0000 0.0000
# 3 36.6709 39.9989 113.1329 0.0000 0.0000 0.0000
# 4 0.0000 0.0000 0.0000 29.1131 0.0000 0.0000
# 5 0.0000 0.0000 0.0000 0.0000 21.7615 0.0000
# 6 0.0000 0.0000 0.0000 0.0000 0.0000 13.0109
#
#
#
# Elastic Compliance Matrix: (Units=1/GPa)
#
#
# Indices 1 2 3 4 5 6 
#
# 1 0.022679 -0.007963 -0.004536 0.000000 0.000000 0.000000
# 2 -0.007963 0.024860 -0.006208 0.000000 0.000000 0.000000
# 3 -0.004536 -0.006208 0.012504 0.000000 0.000000 0.000000
# 4 0.000000 0.000000 0.000000 0.034349 0.000000 0.000000
# 5 0.000000 0.000000 0.000000 0.000000 0.045953 0.000000
# 6 0.000000 0.000000 0.000000 0.000000 0.000000 0.076859
#
#
# Mechanical properties :
#
#
# Convention : Reuss Voigt Hill
#
# Bulk Modulus (GPa) = 44.19073 49.47361 46.83217
# Shear Modulus (GPa) = 19.07229 21.35157 20.21193
#
# Velocity S-wave (km/s) = 3.36403 3.55937 3.46308
# Velocity P-wave (km/s) = 6.42727 6.80057 6.61655
#
# Compressibility (1/GPa) = 0.02262918
#
# Stress axis : x y z
#
# Youngs Moduli (GPa) = 44.09445 40.22487 79.97199
#
# Poissons Ratio (x) = 0.32031 0.36273
# Poissons Ratio (y) = 0.35112 0.49650
# Poissons Ratio (z) = 0.20000 0.24973
#
# Static dielectric constant tensor:
#      x y z
#    x 2.979500 0.000000 0.000000 
#    y 0.000000 2.898710 0.000000 
#    z 0.000000 0.000000 3.478630 
# 
# 
# High freq. dielectric constant tensor:
#      x y z
#    x 1.618590 0.000000 0.000000 
#    y 0.000000 1.620070 0.000000 
#    z 0.000000 0.000000 1.670020 
# 
# From -- ./inp_files/6982.got.cif
#   From: 2010.03.12/outbox.cif.g09.slc.cpg/sg57_4_cif.got.tgz:6982.got - 2010.04.16 15:48:40.
