data_PCOD8230149
_publ_section_title
;
Structure prediction by ZEFSAII (Michael W. Deem and Ramdas Pophale) SiO2 
 PCOD8230149
Probable space group: P B C M
;
_chemical_formula_sum "Si O2"
_cell_formula_units_Z 64
_cell_length_a 15.164079
_cell_length_b 24.071171
_cell_length_c 9.174840
_cell_angle_alpha 90.000000
_cell_angle_beta 90.000000
_cell_angle_gamma 90.000000
_cell_volume 3348.973845
_symmetry_space_group_name_H-M "P B C M"
_symmetry_group_IT_number 57
_symmetry_cell_setting 'orthorhombic'
loop_
_space_group_symop_operation_xyz
x,y,z
-x,-y,1/2+z
x,1/2-y,-z
-x,1/2+y,1/2-z
-x,-y,-z
x,y,1/2-z
-x,1/2+y,z
x,1/2-y,1/2+z
loop_
_atom_site_type_symbol
_atom_site_label
_atom_site_fract_x
_atom_site_fract_y
_atom_site_fract_z
Si Si1 0.884536 0.865824 0.915326
Si Si2 0.817959 0.519384 0.418348
Si Si3 0.556835 0.866700 0.414787
Si Si4 0.961798 0.308409 0.076013
Si Si5 0.375231 0.907568 0.420532
Si Si6 0.179030 0.895564 0.079505
Si Si7 0.642144 0.516778 0.583437
Si Si8 0.295276 0.194575 0.417498
O O1 0.913835 0.850939 0.750000
O O2 0.891268 0.932510 0.943037
O O3 0.782665 0.849562 0.940117
O O4 0.943848 0.832892 0.029665
O O5 0.787140 0.518989 0.250000
O O6 0.853869 0.458024 0.461567
O O7 0.735059 0.534729 0.516291
O O8 0.576774 0.846825 0.250000
O O9 0.451812 0.861960 0.451124
O O10 0.577159 0.931556 0.432870
O O11 0.612413 0.828781 0.522863
O O12 0.960860 0.301438 0.250000
O O13 0.887068 0.350107 0.012259
O O14 0.944478 0.250000 0.000000
O O15 0.369794 0.921593 0.250000
O O16 0.279527 0.885687 0.476268
O O17 0.399755 0.964609 0.500714
O O18 0.174803 0.886343 0.250000
O O19 0.657043 0.499860 0.750000
O O20 0.267020 0.250000 0.500000
O O21 0.310404 0.209179 0.250000
#
# Coordination Sequence:
#
# PCOD8230149 Si02
#       8
#     8   8   8   8   8   8   8   8
#     4  10  21  37  59  86 111 141 178 221 276 337
#     4   9  17  34  57  81 112 148 182 215 271 341
#     4  10  20  33  52  79 110 146 186 226 269 319
#     4  11  23  39  59  82 106 140 184 230 276 323
#     4   9  18  34  55  77 108 148 184 222 272 328
#     4   8  17  35  58  81 109 145 184 224 270 327
#     4  10  18  28  47  81 117 145 180 223 266 316
#     4  11  23  38  56  78 108 147 185 227 276 329
#
# _framework density 19.110330999999999
#
# number of rings (size 3 to 8) (size 9 to 14) (size 15 to 20)
#    0.000    2.250    1.250    2.625    0.000    4.000 
#    0.000    5.625    0.000    1.500    0.000    0.000 
#    0.000    0.000    0.000    0.000    0.000    0.000 
#
# Total GULP energy -793392.568361 kJ/mol
# GULP energy per Si atom -12396.758881 kJ/mol
# Density = 1.906684 g / cm^3
# Si number density = 19.110331 Si / 1000 Ang^3
#
#
#
# Elastic Constant Matrix: (Units=GPa)
#
#
# Indices 1 2 3 4 5 6 
#
# 1 78.0317 54.3576 37.3030 0.0000 0.0000 0.0000
# 2 54.3576 109.0050 42.7118 0.0000 0.0000 0.0000
# 3 37.3030 42.7118 81.1815 0.0000 0.0000 0.0000
# 4 0.0000 0.0000 0.0000 28.0802 0.0000 0.0000
# 5 0.0000 0.0000 0.0000 0.0000 18.9836 0.0000
# 6 0.0000 0.0000 0.0000 0.0000 0.0000 26.9988
#
#
#
# Elastic Compliance Matrix: (Units=1/GPa)
#
#
# Indices 1 2 3 4 5 6 
#
# 1 0.021299 -0.008549 -0.005289 0.000000 0.000000 0.000000
# 2 -0.008549 0.014987 -0.003957 0.000000 0.000000 0.000000
# 3 -0.005289 -0.003957 0.016830 0.000000 0.000000 0.000000
# 4 0.000000 0.000000 0.000000 0.035612 0.000000 0.000000
# 5 0.000000 0.000000 0.000000 0.000000 0.052677 0.000000
# 6 0.000000 0.000000 0.000000 0.000000 0.000000 0.037039
#
#
# Mechanical properties :
#
#
# Convention : Reuss Voigt Hill
#
# Bulk Modulus (GPa) = 57.05574 59.66256 58.35915
# Shear Modulus (GPa) = 22.74000 23.73558 23.23779
#
# Velocity S-wave (km/s) = 3.45328 3.52807 3.49087
# Velocity P-wave (km/s) = 6.76912 6.91984 6.84489
#
# Compressibility (1/GPa) = 0.01752672
#
# Stress axis : x y z
#
# Youngs Moduli (GPa) = 46.95086 66.72271 59.41611
#
# Poissons Ratio (x) = 0.57039 0.31426
# Poissons Ratio (y) = 0.40137 0.23512
# Poissons Ratio (z) = 0.24833 0.26403
#
# Static dielectric constant tensor:
#      x y z
#    x 3.550510 0.000000 0.000000 
#    y 0.000000 3.525690 0.000000 
#    z 0.000000 0.000000 3.404490 
# 
# 
# High freq. dielectric constant tensor:
#      x y z
#    x 1.736900 0.000000 0.000000 
#    y 0.000000 1.735390 0.000000 
#    z 0.000000 0.000000 1.733090 
# 
# From -- ./inp_files/5754.got.cif
#   From: 2010.03.12/outbox.cif.g09.slc.cpg/sg57_3_cif.got.tgz:5754.got - 2010.04.16 15:48:40.
