data_PCOD8230952
_publ_section_title
;
Structure prediction by ZEFSAII (Michael W. Deem and Ramdas Pophale) SiO2 
 PCOD8230952
Probable space group: P B C M
;
_chemical_formula_sum "Si O2"
_cell_formula_units_Z 48
_cell_length_a 11.720941
_cell_length_b 26.268389
_cell_length_c 8.906145
_cell_angle_alpha 90.000000
_cell_angle_beta 90.000000
_cell_angle_gamma 90.000000
_cell_volume 2742.115100
_symmetry_space_group_name_H-M "P B C M"
_symmetry_group_IT_number 57
_symmetry_cell_setting 'orthorhombic'
loop_
_space_group_symop_operation_xyz
x,y,z
-x,-y,1/2+z
x,1/2-y,-z
-x,1/2+y,1/2-z
-x,-y,-z
x,y,1/2-z
-x,1/2+y,z
x,1/2-y,1/2+z
loop_
_atom_site_type_symbol
_atom_site_label
_atom_site_fract_x
_atom_site_fract_y
_atom_site_fract_z
Si Si1 0.847401 0.610289 0.917853
Si Si2 0.638441 0.541067 0.580216
Si Si3 0.500640 0.874027 0.925057
Si Si4 0.962798 0.446972 0.927660
Si Si5 0.327599 0.303975 0.427447
Si Si6 0.709474 0.066423 0.426917
O O1 0.892904 0.621426 0.750000
O O2 0.768300 0.560628 0.916393
O O3 0.774998 0.658723 0.977412
O O4 0.953668 0.599169 0.026122
O O5 0.587749 0.544866 0.750000
O O6 0.565480 0.574078 0.465216
O O7 0.643522 0.483974 0.513569
O O8 0.516234 0.862412 0.750000
O O9 0.366703 0.883641 0.966895
O O10 0.550995 0.826367 0.016573
O O11 0.964811 0.453626 0.750000
O O12 0.837949 0.430077 0.989824
O O13 0.000000 0.500000 0.000000
O O14 0.302655 0.250000 0.500000
O O15 0.334932 0.299045 0.250000
O O16 0.717149 0.059202 0.250000
#
# Coordination Sequence:
#
# PCOD8230952 Si02
#       6
#     8   8   8   8   8   8
#     4   9  18  33  51  74 104 134 166 211 258 297
#     4   9  16  30  47  66 102 140 169 208 252 289
#     4  10  19  31  49  74 101 131 171 209 251 305
#     4  11  20  32  49  71 103 143 181 212 247 295
#     4  10  21  38  59  79 102 127 160 212 267 312
#     4   9  18  31  46  67 103 143 172 206 248 292
#
# _framework density 17.504736999999999
#
# number of rings (size 3 to 8) (size 9 to 14) (size 15 to 20)
#    0.000    2.333    1.667    3.000    0.000    3.333 
#    0.000    4.167    0.000    1.000    0.000    2.333 
#    0.000    0.000    0.000    0.000    0.000    0.000 
#
# Total GULP energy -594974.881353 kJ/mol
# GULP energy per Si atom -12395.310028 kJ/mol
# Density = 1.746490 g / cm^3
# Si number density = 17.504737 Si / 1000 Ang^3
#
#
#
# Elastic Constant Matrix: (Units=GPa)
#
#
# Indices 1 2 3 4 5 6 
#
# 1 96.4843 39.2105 35.2782 0.0000 0.0000 0.0000
# 2 39.2105 93.7735 30.0160 0.0000 0.0000 0.0000
# 3 35.2782 30.0160 62.0802 0.0000 0.0000 0.0000
# 4 0.0000 0.0000 0.0000 27.5343 0.0000 0.0000
# 5 0.0000 0.0000 0.0000 0.0000 24.7392 0.0000
# 6 0.0000 0.0000 0.0000 0.0000 0.0000 16.1557
#
#
#
# Elastic Compliance Matrix: (Units=1/GPa)
#
#
# Indices 1 2 3 4 5 6 
#
# 1 0.014236 -0.003979 -0.006166 0.000000 0.000000 0.000000
# 2 -0.003979 0.013729 -0.004377 0.000000 0.000000 0.000000
# 3 -0.006166 -0.004377 0.021728 0.000000 0.000000 0.000000
# 4 0.000000 0.000000 0.000000 0.036318 0.000000 0.000000
# 5 0.000000 0.000000 0.000000 0.000000 0.040422 0.000000
# 6 0.000000 0.000000 0.000000 0.000000 0.000000 0.061898
#
#
# Mechanical properties :
#
#
# Convention : Reuss Voigt Hill
#
# Bulk Modulus (GPa) = 48.42725 51.26085 49.84405
# Shear Modulus (GPa) = 22.29583 23.54139 22.91861
#
# Velocity S-wave (km/s) = 3.57277 3.67121 3.62232
# Velocity P-wave (km/s) = 6.68916 6.87880 6.78464
#
# Compressibility (1/GPa) = 0.02064953
#
# Stress axis : x y z
#
# Youngs Moduli (GPa) = 70.24495 72.84001 46.02285
#
# Poissons Ratio (x) = 0.28983 0.28378
# Poissons Ratio (y) = 0.27950 0.20143
# Poissons Ratio (z) = 0.43313 0.31881
#
# Static dielectric constant tensor:
#      x y z
#    x 3.446180 0.000000 0.000000 
#    y 0.000000 3.098260 0.000000 
#    z 0.000000 0.000000 3.140750 
# 
# 
# High freq. dielectric constant tensor:
#      x y z
#    x 1.674080 0.000000 0.000000 
#    y 0.000000 1.648690 0.000000 
#    z 0.000000 0.000000 1.669640 
# 
# From -- ./inp_files/3307.got.cif
#   From: 2010.03.12/outbox.cif.g09.slc.cpg/sg57_2_cif.got.tgz:3307.got - 2010.04.16 15:48:40.
