data_PCOD8230297
_publ_section_title
;
Structure prediction by ZEFSAII (Michael W. Deem and Ramdas Pophale) SiO2 
 PCOD8230297
Probable space group: P B C M
;
_chemical_formula_sum "Si O2"
_cell_formula_units_Z 64
_cell_length_a 20.125156
_cell_length_b 19.306847
_cell_length_c 8.834691
_cell_angle_alpha 90.000000
_cell_angle_beta 90.000000
_cell_angle_gamma 90.000000
_cell_volume 3432.748411
_symmetry_space_group_name_H-M "P B C M"
_symmetry_group_IT_number 57
_symmetry_cell_setting 'orthorhombic'
loop_
_space_group_symop_operation_xyz
x,y,z
-x,-y,1/2+z
x,1/2-y,-z
-x,1/2+y,1/2-z
-x,-y,-z
x,y,1/2-z
-x,1/2+y,z
x,1/2-y,1/2+z
loop_
_atom_site_type_symbol
_atom_site_label
_atom_site_fract_x
_atom_site_fract_y
_atom_site_fract_z
Si Si1 0.984278 0.928992 0.424111
Si Si2 0.400026 0.174968 0.570338
Si Si3 0.157372 0.044913 0.571001
Si Si4 0.239265 0.820498 0.927966
Si Si5 0.486201 0.572704 0.574342
Si Si6 0.335907 0.925728 0.075764
Si Si7 0.875345 0.103424 0.928657
Si Si8 0.707241 0.580018 0.072905
O O1 0.986107 0.946558 0.250000
O O2 0.908474 0.907216 0.465933
O O3 0.046354 0.878141 0.463261
O O4 0.000000 0.000000 0.500000
O O5 0.407437 0.250000 0.500000
O O6 0.397657 0.180851 0.750000
O O7 0.463517 0.130848 0.512641
O O8 0.332906 0.139571 0.512286
O O9 0.170790 0.038842 0.750000
O O10 0.218112 0.082556 0.489933
O O11 0.147656 0.968335 0.504141
O O12 0.233092 0.812052 0.750000
O O13 0.267565 0.750000 0.000000
O O14 0.288812 0.882740 0.966108
O O15 0.166795 0.834832 0.998662
O O16 0.500000 0.500000 0.500000
O O17 0.497827 0.561045 0.750000
O O18 0.411160 0.596892 0.540415
O O19 0.316562 0.910829 0.250000
O O20 0.327011 0.006529 0.037932
O O21 0.861087 0.098418 0.750000
O O22 0.708019 0.596481 0.250000
#
# Coordination Sequence:
#
# PCOD8230297 Si02
#       8
#     8   8   8   8   8   8   8   8
#     4   8  16  28  46  74 108 142 178 227 279 330
#     4  11  24  41  62  88 119 152 192 235 285 344
#     4  10  18  30  51  82 114 146 188 234 283 335
#     4  12  25  39  56  79 111 152 196 241 290 347
#     4  10  21  38  62  89 117 150 190 235 282 338
#     4  10  21  38  59  85 117 149 189 237 286 340
#     4  10  18  32  52  76 109 147 187 233 286 338
#     4  11  21  35  59  86 118 155 190 235 288 338
#
# _framework density 18.643953
#
# number of rings (size 3 to 8) (size 9 to 14) (size 15 to 20)
#    0.000    1.750    2.500    2.625    0.000    3.000 
#    0.000    1.250    0.000    0.750    0.000    3.500 
#    0.000    0.000    0.000    0.000    0.000    0.000 
#
# Total GULP energy -793348.737085 kJ/mol
# GULP energy per Si atom -12396.074017 kJ/mol
# Density = 1.860152 g / cm^3
# Si number density = 18.643953 Si / 1000 Ang^3
#
#
#
# Elastic Constant Matrix: (Units=GPa)
#
#
# Indices 1 2 3 4 5 6 
#
# 1 142.7352 51.1229 48.2928 0.0000 0.0000 0.0000
# 2 51.1229 94.2686 43.1822 0.0000 0.0000 0.0000
# 3 48.2928 43.1822 81.1139 0.0000 0.0000 0.0000
# 4 0.0000 0.0000 0.0000 29.5465 0.0000 0.0000
# 5 0.0000 0.0000 0.0000 0.0000 27.7010 0.0000
# 6 0.0000 0.0000 0.0000 0.0000 0.0000 21.3312
#
#
#
# Elastic Compliance Matrix: (Units=1/GPa)
#
#
# Indices 1 2 3 4 5 6 
#
# 1 0.009531 -0.003398 -0.003865 0.000000 0.000000 0.000000
# 2 -0.003398 0.015241 -0.006091 0.000000 0.000000 0.000000
# 3 -0.003865 -0.006091 0.017872 0.000000 0.000000 0.000000
# 4 0.000000 0.000000 0.000000 0.033845 0.000000 0.000000
# 5 0.000000 0.000000 0.000000 0.000000 0.036100 0.000000
# 6 0.000000 0.000000 0.000000 0.000000 0.000000 0.046880
#
#
# Mechanical properties :
#
#
# Convention : Reuss Voigt Hill
#
# Bulk Modulus (GPa) = 62.75214 67.03483 64.89349
# Shear Modulus (GPa) = 26.11131 27.41705 26.76418
#
# Velocity S-wave (km/s) = 3.74642 3.83895 3.79297
# Velocity P-wave (km/s) = 7.24192 7.46213 7.35285
#
# Compressibility (1/GPa) = 0.01593571
#
# Stress axis : x y z
#
# Youngs Moduli (GPa) = 104.92233 65.61372 55.95325
#
# Poissons Ratio (x) = 0.22296 0.21628
# Poissons Ratio (y) = 0.35653 0.34078
# Poissons Ratio (z) = 0.40557 0.39962
#
# Static dielectric constant tensor:
#      x y z
#    x 3.995820 0.000000 0.000000 
#    y 0.000000 3.173480 0.000000 
#    z 0.000000 0.000000 3.487470 
# 
# 
# High freq. dielectric constant tensor:
#      x y z
#    x 1.746090 0.000000 0.000000 
#    y 0.000000 1.685720 0.000000 
#    z 0.000000 0.000000 1.733600 
# 
# From -- ./inp_files/8429.got.cif
#   From: 2010.03.12/outbox.cif.g09.slc.cpg/sg57_5_cif.got.tgz:8429.got - 2010.04.16 15:48:40.
