data_PCOD8230513
_publ_section_title
;
Structure prediction by ZEFSAII (Michael W. Deem and Ramdas Pophale) SiO2 
 PCOD8230513
Probable space group: P B C M
;
_chemical_formula_sum "Si O2"
_cell_formula_units_Z 48
_cell_length_a 29.279982
_cell_length_b 8.726466
_cell_length_c 9.651225
_cell_angle_alpha 90.000000
_cell_angle_beta 90.000000
_cell_angle_gamma 90.000000
_cell_volume 2465.991906
_symmetry_space_group_name_H-M "P B C M"
_symmetry_group_IT_number 57
_symmetry_cell_setting 'orthorhombic'
loop_
_space_group_symop_operation_xyz
x,y,z
-x,-y,1/2+z
x,1/2-y,-z
-x,1/2+y,1/2-z
-x,-y,-z
x,y,1/2-z
-x,1/2+y,z
x,1/2-y,1/2+z
loop_
_atom_site_type_symbol
_atom_site_label
_atom_site_fract_x
_atom_site_fract_y
_atom_site_fract_z
Si Si1 0.202930 0.900561 0.091668
Si Si2 0.536237 0.596346 0.413061
Si Si3 0.104851 0.570581 0.519134
Si Si4 0.058906 0.521737 0.250000
Si Si5 0.289511 0.401844 0.588017
Si Si6 0.374394 0.604705 0.593559
Si Si7 0.037892 0.879608 0.250000
O O1 0.208155 0.846962 0.250000
O O2 0.240938 0.023814 0.050747
O O3 0.208818 0.750000 0.000000
O O4 0.154065 0.987062 0.072057
O O5 0.542286 0.750000 0.500000
O O6 0.500000 0.500000 0.500000
O O7 0.521505 0.623023 0.250000
O O8 0.584363 0.512852 0.416877
O O9 0.111540 0.750000 0.500000
O O10 0.091189 0.483644 0.379379
O O11 0.062431 0.541046 0.620362
O O12 0.042936 0.697265 0.250000
O O13 0.015536 0.411948 0.250000
O O14 0.295958 0.250000 0.500000
O O15 0.293613 0.360388 0.750000
O O16 0.328496 0.521283 0.542842
O O17 0.385166 0.750000 0.500000
O O18 0.368299 0.664218 0.750000
#
# Coordination Sequence:
#
# PCOD8230513 Si02
#       7
#     8   8   8   4   8   8   4
#     4  10  20  35  58  83 107 138 183 231 274 328
#     4  11  23  39  60  89 123 164 206 253 303 356
#     4   9  18  32  52  75 101 132 173 217 263 317
#     4  10  20  32  52  74 100 136 170 216 261 322
#     4  10  22  40  58  84 117 150 185 230 285 343
#     4  10  22  39  61  88 119 153 199 247 292 346
#     4  10  18  34  50  74 102 132 172 212 263 316
#
# _framework density 19.464783000000001
#
# number of rings (size 3 to 8) (size 9 to 14) (size 15 to 20)
#    0.000    2.000    0.833    2.500    3.500    4.000 
#    0.000    1.667    0.000    0.000    0.000    0.000 
#    0.000    0.000    0.000    0.000    0.000    0.000 
#
# Total GULP energy -595128.523447 kJ/mol
# GULP energy per Si atom -12398.510905 kJ/mol
# Density = 1.942048 g / cm^3
# Si number density = 19.464783 Si / 1000 Ang^3
#
#
#
# Elastic Constant Matrix: (Units=GPa)
#
#
# Indices 1 2 3 4 5 6 
#
# 1 106.0940 24.6347 32.7516 0.0000 0.0000 0.0000
# 2 24.6347 77.8194 49.9394 0.0000 0.0000 0.0000
# 3 32.7516 49.9394 121.1978 0.0000 0.0000 0.0000
# 4 0.0000 0.0000 0.0000 32.7775 0.0000 0.0000
# 5 0.0000 0.0000 0.0000 0.0000 30.2687 0.0000
# 6 0.0000 0.0000 0.0000 0.0000 0.0000 24.6828
#
#
#
# Elastic Compliance Matrix: (Units=1/GPa)
#
#
# Indices 1 2 3 4 5 6 
#
# 1 0.010518 -0.002047 -0.001999 0.000000 0.000000 0.000000
# 2 -0.002047 0.017868 -0.006809 0.000000 0.000000 0.000000
# 3 -0.001999 -0.006809 0.011597 0.000000 0.000000 0.000000
# 4 0.000000 0.000000 0.000000 0.030509 0.000000 0.000000
# 5 0.000000 0.000000 0.000000 0.000000 0.033037 0.000000
# 6 0.000000 0.000000 0.000000 0.000000 0.000000 0.040514
#
#
# Mechanical properties :
#
#
# Convention : Reuss Voigt Hill
#
# Bulk Modulus (GPa) = 54.72644 57.75139 56.23891
# Shear Modulus (GPa) = 29.09612 30.73150 29.91381
#
# Velocity S-wave (km/s) = 3.87047 3.97775 3.92448
# Velocity P-wave (km/s) = 6.93907 7.12957 7.03497
#
# Compressibility (1/GPa) = 0.01827270
#
# Stress axis : x y z
#
# Youngs Moduli (GPa) = 95.07572 55.96592 86.22967
#
# Poissons Ratio (x) = 0.11455 0.17236
# Poissons Ratio (y) = 0.19460 0.58717
# Poissons Ratio (z) = 0.19005 0.38109
#
# Static dielectric constant tensor:
#      x y z
#    x 3.803030 0.000000 0.000000 
#    y 0.000000 3.224380 0.000000 
#    z 0.000000 0.000000 3.709620 
# 
# 
# High freq. dielectric constant tensor:
#      x y z
#    x 1.777540 0.000000 0.000000 
#    y 0.000000 1.731740 0.000000 
#    z 0.000000 0.000000 1.770660 
# 
# From -- ./inp_files/10185.got.cif
#   From: 2010.03.12/outbox.cif.g09.slc.cpg/sg57_6_cif.got.tgz:10185.got - 2010.04.16 15:48:40.
