data_PCOD8230280
_publ_section_title
;
Structure prediction by ZEFSAII (Michael W. Deem and Ramdas Pophale) SiO2 
 PCOD8230280
Probable space group: P B C M
;
_chemical_formula_sum "Si O2"
_cell_formula_units_Z 64
_cell_length_a 12.447547
_cell_length_b 29.352283
_cell_length_c 9.283775
_cell_angle_alpha 90.000000
_cell_angle_beta 90.000000
_cell_angle_gamma 90.000000
_cell_volume 3391.956447
_symmetry_space_group_name_H-M "P B C M"
_symmetry_group_IT_number 57
_symmetry_cell_setting 'orthorhombic'
loop_
_space_group_symop_operation_xyz
x,y,z
-x,-y,1/2+z
x,1/2-y,-z
-x,1/2+y,1/2-z
-x,-y,-z
x,y,1/2-z
-x,1/2+y,z
x,1/2-y,1/2+z
loop_
_atom_site_type_symbol
_atom_site_label
_atom_site_fract_x
_atom_site_fract_y
_atom_site_fract_z
Si Si1 0.052211 0.291785 0.582067
Si Si2 0.846832 0.319229 0.414970
Si Si3 0.680677 0.036977 0.085245
Si Si4 0.881385 0.607345 0.085670
Si Si5 0.535883 0.391565 0.080520
Si Si6 0.313020 0.435084 0.418565
Si Si7 0.121181 0.905680 0.913691
Si Si8 0.606935 0.206711 0.586391
O O1 0.112467 0.250000 0.500000
O O2 0.041192 0.280461 0.750000
O O3 0.115905 0.338473 0.555420
O O4 0.933511 0.294354 0.514303
O O5 0.887397 0.322054 0.250000
O O6 0.827477 0.369874 0.475785
O O7 0.735414 0.292514 0.424581
O O8 0.641175 0.040356 0.250000
O O9 0.807821 0.048753 0.073818
O O10 0.664654 0.986144 0.023223
O O11 0.611616 0.071825 0.993659
O O12 0.850065 0.597615 0.250000
O O13 0.996743 0.584836 0.047293
O O14 0.793439 0.585101 0.986228
O O15 0.559381 0.394370 0.250000
O O16 0.412963 0.402996 0.042332
O O17 0.559954 0.340653 0.022497
O O18 0.292010 0.437726 0.250000
O O19 0.124902 0.885667 0.750000
O O20 0.560305 0.250000 0.500000
O O21 0.568013 0.212155 0.750000
#
# Coordination Sequence:
#
# PCOD8230280 Si02
#       8
#     8   8   8   8   8   8   8   8
#     4  10  20  34  53  79 109 143 183 229 276 326
#     4  10  18  30  50  78 110 144 178 214 266 329
#     4  10  20  35  58  87 111 140 182 226 279 334
#     4   9  20  37  54  76 110 147 182 224 273 325
#     4  10  21  39  57  79 112 144 180 229 277 324
#     4  10  22  38  57  80 109 145 187 233 276 323
#     4   9  18  33  53  79 114 145 173 220 273 323
#     4  10  21  34  51  77 108 141 177 216 267 324
#
# _framework density 18.868167
#
# number of rings (size 3 to 8) (size 9 to 14) (size 15 to 20)
#    0.000    2.250    1.250    2.250    0.000    6.500 
#    0.000    0.625    0.000    3.000    0.000    0.000 
#    0.000    0.000    0.000    0.000    0.000    0.000 
#
# Total GULP energy -793547.396408 kJ/mol
# GULP energy per Si atom -12399.178069 kJ/mol
# Density = 1.882522 g / cm^3
# Si number density = 18.868167 Si / 1000 Ang^3
#
#
#
# Elastic Constant Matrix: (Units=GPa)
#
#
# Indices 1 2 3 4 5 6 
#
# 1 73.9094 44.9999 36.8726 0.0000 0.0000 0.0000
# 2 44.9999 131.8291 52.9470 0.0000 0.0000 0.0000
# 3 36.8726 52.9470 72.5074 0.0000 0.0000 0.0000
# 4 0.0000 0.0000 0.0000 32.3833 0.0000 0.0000
# 5 0.0000 0.0000 0.0000 0.0000 25.5208 0.0000
# 6 0.0000 0.0000 0.0000 0.0000 0.0000 16.4019
#
#
#
# Elastic Compliance Matrix: (Units=1/GPa)
#
#
# Indices 1 2 3 4 5 6 
#
# 1 0.019360 -0.003756 -0.007103 0.000000 0.000000 0.000000
# 2 -0.003756 0.011462 -0.006460 0.000000 0.000000 0.000000
# 3 -0.007103 -0.006460 0.022121 0.000000 0.000000 0.000000
# 4 0.000000 0.000000 0.000000 0.030880 0.000000 0.000000
# 5 0.000000 0.000000 0.000000 0.000000 0.039184 0.000000
# 6 0.000000 0.000000 0.000000 0.000000 0.000000 0.060968
#
#
# Mechanical properties :
#
#
# Convention : Reuss Voigt Hill
#
# Bulk Modulus (GPa) = 54.62636 60.87608 57.75122
# Shear Modulus (GPa) = 22.25036 24.42296 23.33666
#
# Velocity S-wave (km/s) = 3.43775 3.60168 3.52067
# Velocity P-wave (km/s) = 6.69119 7.04486 6.87030
#
# Compressibility (1/GPa) = 0.01830618
#
# Stress axis : x y z
#
# Youngs Moduli (GPa) = 51.65187 87.24294 45.20593
#
# Poissons Ratio (x) = 0.32768 0.32109
# Poissons Ratio (y) = 0.19400 0.29203
# Poissons Ratio (z) = 0.36687 0.56359
#
# Static dielectric constant tensor:
#      x y z
#    x 3.260240 0.000000 0.000000 
#    y 0.000000 3.674590 0.000000 
#    z 0.000000 0.000000 3.481580 
# 
# 
# High freq. dielectric constant tensor:
#      x y z
#    x 1.713270 0.000000 0.000000 
#    y 0.000000 1.737670 0.000000 
#    z 0.000000 0.000000 1.731680 
# 
# From -- ./inp_files/3899.got.cif
#   From: 2010.03.12/outbox.cif.g09.slc.cpg/sg57_2_cif.got.tgz:3899.got - 2010.04.16 15:48:40.
