data_PCOD8230593
_publ_section_title
;
Structure prediction by ZEFSAII (Michael W. Deem and Ramdas Pophale) SiO2 
 PCOD8230593
Probable space group: P B C M
;
_chemical_formula_sum "Si O2"
_cell_formula_units_Z 64
_cell_length_a 11.836949
_cell_length_b 12.126628
_cell_length_c 24.439752
_cell_angle_alpha 90.000000
_cell_angle_beta 90.000000
_cell_angle_gamma 90.000000
_cell_volume 3508.137656
_symmetry_space_group_name_H-M "P B C M"
_symmetry_group_IT_number 57
_symmetry_cell_setting 'orthorhombic'
loop_
_space_group_symop_operation_xyz
x,y,z
-x,-y,1/2+z
x,1/2-y,-z
-x,1/2+y,1/2-z
-x,-y,-z
x,y,1/2-z
-x,1/2+y,z
x,1/2-y,1/2+z
loop_
_atom_site_type_symbol
_atom_site_label
_atom_site_fract_x
_atom_site_fract_y
_atom_site_fract_z
Si Si1 0.759194 0.064088 0.497146
Si Si2 0.896629 0.112139 0.106120
Si Si3 0.305673 0.339168 0.546678
Si Si4 0.071593 0.419143 0.312575
Si Si5 0.184605 0.534818 0.688845
Si Si6 0.267487 0.805080 0.104760
Si Si7 0.862381 0.809325 0.638511
Si Si8 0.445888 0.675532 0.051948
O O1 0.864321 0.074125 0.455436
O O2 0.771509 0.157094 0.543990
O O3 0.642331 0.078261 0.463090
O O4 0.760607 0.945929 0.525541
O O5 0.819651 0.213394 0.126045
O O6 0.025915 0.151326 0.106417
O O7 0.875366 0.011661 0.148044
O O8 0.314156 0.250000 0.500000
O O9 0.235390 0.284480 0.595265
O O10 0.431469 0.372535 0.568830
O O11 0.101218 0.450502 0.250000
O O12 0.120896 0.299861 0.326197
O O13 0.937592 0.411903 0.321006
O O14 0.228446 0.557101 0.750000
O O15 0.271228 0.592834 0.646722
O O16 0.179451 0.404301 0.679495
O O17 0.392258 0.750784 0.100456
O O18 0.468081 0.750000 0.000000
#
# Coordination Sequence:
#
# PCOD8230593 Si02
#       8
#     8   8   8   8   8   8   8   8
#     4  10  19  35  55  77 116 148 186 226 273 329
#     4  10  21  34  54  83 114 147 184 222 279 333
#     4  11  21  32  50  81 113 150 186 219 273 335
#     4  10  21  37  55  78 112 148 185 233 275 323
#     4  10  20  35  57  79 102 142 191 230 269 328
#     4  10  18  37  57  82 107 144 186 229 276 328
#     4  11  21  35  51  81 117 143 184 220 283 336
#     4   8  18  33  54  77 103 143 187 225 265 319
#
# _framework density 18.243297999999999
#
# number of rings (size 3 to 8) (size 9 to 14) (size 15 to 20)
#    0.000    2.000    2.500    2.625    0.000    2.500 
#    0.000    0.000    0.000    1.500    0.000    0.000 
#    0.000    0.000    0.000    0.000    0.000    0.000 
#
# Total GULP energy -793550.810624 kJ/mol
# GULP energy per Si atom -12399.231416 kJ/mol
# Density = 1.820178 g / cm^3
# Si number density = 18.243298 Si / 1000 Ang^3
#
#
#
# Elastic Constant Matrix: (Units=GPa)
#
#
# Indices 1 2 3 4 5 6 
#
# 1 65.0605 15.4953 36.6373 0.0000 0.0000 0.0000
# 2 15.4953 89.7887 33.7986 0.0000 0.0000 0.0000
# 3 36.6373 33.7986 104.0268 0.0000 0.0000 0.0000
# 4 0.0000 0.0000 0.0000 28.2510 0.0000 0.0000
# 5 0.0000 0.0000 0.0000 0.0000 39.1582 0.0000
# 6 0.0000 0.0000 0.0000 0.0000 0.0000 20.9592
#
#
#
# Elastic Compliance Matrix: (Units=1/GPa)
#
#
# Indices 1 2 3 4 5 6 
#
# 1 0.019233 -0.000877 -0.006489 0.000000 0.000000 0.000000
# 2 -0.000877 0.012729 -0.003827 0.000000 0.000000 0.000000
# 3 -0.006489 -0.003827 0.013142 0.000000 0.000000 0.000000
# 4 0.000000 0.000000 0.000000 0.035397 0.000000 0.000000
# 5 0.000000 0.000000 0.000000 0.000000 0.025537 0.000000
# 6 0.000000 0.000000 0.000000 0.000000 0.000000 0.047712
#
#
# Mechanical properties :
#
#
# Convention : Reuss Voigt Hill
#
# Bulk Modulus (GPa) = 44.01622 47.85982 45.93802
# Shear Modulus (GPa) = 27.21710 29.20333 28.21022
#
# Velocity S-wave (km/s) = 3.86670 4.00530 3.93661
# Velocity P-wave (km/s) = 6.64190 6.90515 6.77480
#
# Compressibility (1/GPa) = 0.02271890
#
# Stress axis : x y z
#
# Youngs Moduli (GPa) = 51.99350 78.56012 76.09395
#
# Poissons Ratio (x) = 0.06886 0.49377
# Poissons Ratio (y) = 0.04558 0.29121
# Poissons Ratio (z) = 0.33738 0.30065
#
# Static dielectric constant tensor:
#      x y z
#    x 3.406130 0.000000 0.000000 
#    y 0.000000 3.625670 0.000000 
#    z 0.000000 0.000000 3.250880 
# 
# 
# High freq. dielectric constant tensor:
#      x y z
#    x 1.687360 0.000000 0.000000 
#    y 0.000000 1.717340 0.000000 
#    z 0.000000 0.000000 1.692390 
# 
# From -- ./inp_files/28676.got.cif
#   From: 2010.03.12/outbox.cif.g09.slc.cpg/sg57_15_cif.got.tgz:28676.got - 2010.04.16 15:48:40.
