data_PCOD8230271
_publ_section_title
;
Structure prediction by ZEFSAII (Michael W. Deem and Ramdas Pophale) SiO2 
 PCOD8230271
Probable space group: P B C M
;
_chemical_formula_sum "Si O2"
_cell_formula_units_Z 64
_cell_length_a 11.289300
_cell_length_b 33.444490
_cell_length_c 8.951257
_cell_angle_alpha 90.000000
_cell_angle_beta 90.000000
_cell_angle_gamma 90.000000
_cell_volume 3379.680284
_symmetry_space_group_name_H-M "P B C M"
_symmetry_group_IT_number 57
_symmetry_cell_setting 'orthorhombic'
loop_
_space_group_symop_operation_xyz
x,y,z
-x,-y,1/2+z
x,1/2-y,-z
-x,1/2+y,1/2-z
-x,-y,-z
x,y,1/2-z
-x,1/2+y,z
x,1/2-y,1/2+z
loop_
_atom_site_type_symbol
_atom_site_label
_atom_site_fract_x
_atom_site_fract_y
_atom_site_fract_z
Si Si1 0.806036 0.866121 0.078699
Si Si2 0.716310 0.518040 0.079336
Si Si3 0.054864 0.432040 0.574774
Si Si4 0.358309 0.876280 0.926835
Si Si5 0.426156 0.080979 0.920336
Si Si6 0.442421 0.709661 0.425037
Si Si7 0.285847 0.209638 0.073638
Si Si8 0.812047 0.433989 0.076577
O O1 0.839126 0.858033 0.250000
O O2 0.684066 0.889755 0.063594
O O3 0.911801 0.890054 0.000904
O O4 0.795772 0.824923 0.991150
O O5 0.686823 0.529192 0.250000
O O6 0.845569 0.535175 0.036952
O O7 0.718686 0.470340 0.054559
O O8 0.613928 0.537069 0.976451
O O9 0.038635 0.425647 0.750000
O O10 0.932588 0.446853 0.504006
O O11 0.347301 0.880021 0.750000
O O12 0.370091 0.829756 0.975752
O O13 0.470782 0.901764 0.977846
O O14 0.241078 0.893878 0.003831
O O15 0.471014 0.077420 0.750000
O O16 0.390441 0.750000 0.500000
O O17 0.433207 0.716187 0.250000
O O18 0.577977 0.702664 0.474675
O O19 0.271565 0.211607 0.250000
O O20 0.237807 0.250000 0.000000
O O21 0.837942 0.426374 0.250000
#
# Coordination Sequence:
#
# PCOD8230271 Si02
#       8
#     8   8   8   8   8   8   8   8
#     4  10  19  32  52  79 109 140 174 219 269 322
#     4   9  20  37  57  79 107 140 178 224 274 324
#     4  10  20  36  58  80 103 138 179 225 274 322
#     4  11  22  37  55  78 111 148 182 220 266 323
#     4  10  20  33  53  80 108 141 180 220 270 321
#     4   9  19  33  53  79 108 141 177 217 261 311
#     4  10  18  30  49  78 111 142 174 215 265 322
#     4  11  23  38  55  79 107 141 184 228 269 316
#
# _framework density 18.936703000000001
#
# number of rings (size 3 to 8) (size 9 to 14) (size 15 to 20)
#    0.000    2.000    1.250    2.625    0.000    4.500 
#    0.000    0.000    0.000    0.750    0.000    3.500 
#    0.000    0.000    0.000    0.000    0.000    0.000 
#
# Total GULP energy -793782.663016 kJ/mol
# GULP energy per Si atom -12402.854110 kJ/mol
# Density = 1.889360 g / cm^3
# Si number density = 18.936703 Si / 1000 Ang^3
#
#
#
# Elastic Constant Matrix: (Units=GPa)
#
#
# Indices 1 2 3 4 5 6 
#
# 1 29.5374 13.8278 17.2653 0.0000 0.0000 0.0000
# 2 13.8278 112.0585 39.5164 0.0000 0.0000 0.0000
# 3 17.2653 39.5164 91.8782 0.0000 0.0000 0.0000
# 4 0.0000 0.0000 0.0000 35.1878 0.0000 0.0000
# 5 0.0000 0.0000 0.0000 0.0000 30.2905 0.0000
# 6 0.0000 0.0000 0.0000 0.0000 0.0000 24.5649
#
#
#
# Elastic Compliance Matrix: (Units=1/GPa)
#
#
# Indices 1 2 3 4 5 6 
#
# 1 0.038667 -0.002604 -0.006146 0.000000 0.000000 0.000000
# 2 -0.002604 0.010695 -0.004110 0.000000 0.000000 0.000000
# 3 -0.006146 -0.004110 0.013807 0.000000 0.000000 0.000000
# 4 0.000000 0.000000 0.000000 0.028419 0.000000 0.000000
# 5 0.000000 0.000000 0.000000 0.000000 0.033014 0.000000
# 6 0.000000 0.000000 0.000000 0.000000 0.000000 0.040708
#
#
# Mechanical properties :
#
#
# Convention : Reuss Voigt Hill
#
# Bulk Modulus (GPa) = 26.70418 41.63259 34.16839
# Shear Modulus (GPa) = 24.56841 28.86627 26.71734
#
# Velocity S-wave (km/s) = 3.60585 3.90854 3.76024
# Velocity P-wave (km/s) = 5.60969 6.51166 6.07743
#
# Compressibility (1/GPa) = 0.03744732
#
# Stress axis : x y z
#
# Youngs Moduli (GPa) = 25.86184 93.50380 72.42806
#
# Poissons Ratio (x) = 0.24349 0.44515
# Poissons Ratio (y) = 0.06735 0.29771
# Poissons Ratio (z) = 0.15895 0.38434
#
# Static dielectric constant tensor:
#      x y z
#    x 3.198160 0.000000 0.000000 
#    y 0.000000 3.545150 0.000000 
#    z 0.000000 0.000000 3.522580 
# 
# 
# High freq. dielectric constant tensor:
#      x y z
#    x 1.705760 0.000000 0.000000 
#    y 0.000000 1.739600 0.000000 
#    z 0.000000 0.000000 1.746590 
# 
# From -- ./inp_files/3919.got.cif
#   From: 2010.03.12/outbox.cif.g09.slc.cpg/sg57_2_cif.got.tgz:3919.got - 2010.04.16 15:48:40.
