data_PCOD8230119
_publ_section_title
;
Structure prediction by ZEFSAII (Michael W. Deem and Ramdas Pophale) SiO2 
 PCOD8230119
Probable space group: P B C M
;
_chemical_formula_sum "Si O2"
_cell_formula_units_Z 56
_cell_length_a 16.200930
_cell_length_b 21.108212
_cell_length_c 9.226840
_cell_angle_alpha 90.000000
_cell_angle_beta 90.000000
_cell_angle_gamma 90.000000
_cell_volume 3155.327065
_symmetry_space_group_name_H-M "P B C M"
_symmetry_group_IT_number 57
_symmetry_cell_setting 'orthorhombic'
loop_
_space_group_symop_operation_xyz
x,y,z
-x,-y,1/2+z
x,1/2-y,-z
-x,1/2+y,1/2-z
-x,-y,-z
x,y,1/2-z
-x,1/2+y,z
x,1/2-y,1/2+z
loop_
_atom_site_type_symbol
_atom_site_label
_atom_site_fract_x
_atom_site_fract_y
_atom_site_fract_z
Si Si1 0.182961 0.810062 0.913935
Si Si2 0.398652 0.438486 0.086983
Si Si3 0.293094 0.605330 0.589167
Si Si4 0.940194 0.550059 0.422350
Si Si5 0.445534 0.914666 0.586650
Si Si6 0.012503 0.310788 0.587099
Si Si7 0.247279 0.461688 0.589855
O O1 0.216180 0.809080 0.750000
O O2 0.085368 0.810930 0.917993
O O3 0.218903 0.750000 0.000000
O O4 0.215046 0.871747 0.996542
O O5 0.399593 0.411010 0.250000
O O6 0.420567 0.512176 0.090398
O O7 0.466534 0.402962 0.989557
O O8 0.307963 0.424391 0.019312
O O9 0.294382 0.636032 0.750000
O O10 0.377104 0.623584 0.505156
O O11 0.284653 0.530905 0.604480
O O12 0.954182 0.543696 0.250000
O O13 0.846197 0.535683 0.469161
O O14 0.000000 0.500000 0.500000
O O15 0.958156 0.621736 0.477074
O O16 0.449876 0.887732 0.750000
O O17 0.047704 0.250000 0.500000
O O18 0.045648 0.303266 0.750000
O O19 0.248155 0.429583 0.750000
#
# Coordination Sequence:
#
# PCOD8230119 Si02
#       7
#     8   8   8   8   8   8   8
#     4  10  19  31  46  64  87 117 153 192 232 274
#     4   9  16  26  41  62  88 117 151 187 222 268
#     4  10  18  28  43  65  92 121 152 185 225 276
#     4  10  20  33  49  72 100 129 162 202 248 296
#     4   9  16  26  41  61  87 119 150 181 221 270
#     4   9  19  34  51  70  94 126 165 205 243 287
#     4   9  18  30  44  64  93 125 153 186 233 285
#
# _framework density 17.747764
#
# number of rings (size 3 to 8) (size 9 to 14) (size 15 to 20)
#    0.000    2.571    0.000    2.571    0.000    5.714 
#    0.000    0.000    0.000    0.000    0.000    1.000 
#    0.000    2.286    0.000    0.000    0.000    0.000 
#
# Total GULP energy -694175.783552 kJ/mol
# GULP energy per Si atom -12395.996135 kJ/mol
# Density = 1.770737 g / cm^3
# Si number density = 17.747764 Si / 1000 Ang^3
#
#
#
# Elastic Constant Matrix: (Units=GPa)
#
#
# Indices 1 2 3 4 5 6 
#
# 1 85.6011 25.5963 51.5655 0.0000 0.0000 0.0000
# 2 25.5963 52.6531 30.1407 0.0000 0.0000 0.0000
# 3 51.5655 30.1407 133.7166 0.0000 0.0000 0.0000
# 4 0.0000 0.0000 0.0000 22.7282 0.0000 0.0000
# 5 0.0000 0.0000 0.0000 0.0000 29.2466 0.0000
# 6 0.0000 0.0000 0.0000 0.0000 0.0000 12.1064
#
#
#
# Elastic Compliance Matrix: (Units=1/GPa)
#
#
# Indices 1 2 3 4 5 6 
#
# 1 0.016271 -0.004958 -0.005157 0.000000 0.000000 0.000000
# 2 -0.004958 0.023316 -0.003344 0.000000 0.000000 0.000000
# 3 -0.005157 -0.003344 0.010221 0.000000 0.000000 0.000000
# 4 0.000000 0.000000 0.000000 0.043998 0.000000 0.000000
# 5 0.000000 0.000000 0.000000 0.000000 0.034192 0.000000
# 6 0.000000 0.000000 0.000000 0.000000 0.000000 0.082601
#
#
# Mechanical properties :
#
#
# Convention : Reuss Voigt Hill
#
# Bulk Modulus (GPa) = 43.68500 54.06395 48.87447
# Shear Modulus (GPa) = 20.39586 23.79414 22.09500
#
# Velocity S-wave (km/s) = 3.39367 3.66551 3.53221
# Velocity P-wave (km/s) = 6.32644 6.96011 6.65083
#
# Compressibility (1/GPa) = 0.02289115
#
# Stress axis : x y z
#
# Youngs Moduli (GPa) = 61.45822 42.88811 97.83763
#
# Poissons Ratio (x) = 0.21263 0.50457
# Poissons Ratio (y) = 0.30469 0.32715
# Poissons Ratio (z) = 0.31695 0.14341
#
# Static dielectric constant tensor:
#      x y z
#    x 3.263360 0.000000 0.000000 
#    y 0.000000 2.939450 0.000000 
#    z 0.000000 0.000000 3.625740 
# 
# 
# High freq. dielectric constant tensor:
#      x y z
#    x 1.682840 0.000000 0.000000 
#    y 0.000000 1.632960 0.000000 
#    z 0.000000 0.000000 1.699620 
# 
# From -- ./inp_files/5210.got.cif
#   From: 2010.03.12/outbox.cif.g09.slc.cpg/sg57_3_cif.got.tgz:5210.got - 2010.04.16 15:48:40.
