data_PCOD8230874
_publ_section_title
;
Structure prediction by ZEFSAII (Michael W. Deem and Ramdas Pophale) SiO2 
 PCOD8230874
Probable space group: P B C M
;
_chemical_formula_sum "Si O2"
_cell_formula_units_Z 64
_cell_length_a 16.238967
_cell_length_b 24.060935
_cell_length_c 9.067608
_cell_angle_alpha 90.000000
_cell_angle_beta 90.000000
_cell_angle_gamma 90.000000
_cell_volume 3542.938683
_symmetry_space_group_name_H-M "P B C M"
_symmetry_group_IT_number 57
_symmetry_cell_setting 'orthorhombic'
loop_
_space_group_symop_operation_xyz
x,y,z
-x,-y,1/2+z
x,1/2-y,-z
-x,1/2+y,1/2-z
-x,-y,-z
x,y,1/2-z
-x,1/2+y,z
x,1/2-y,1/2+z
loop_
_atom_site_type_symbol
_atom_site_label
_atom_site_fract_x
_atom_site_fract_y
_atom_site_fract_z
Si Si1 0.018909 0.941723 0.925759
Si Si2 0.127756 0.114316 0.576987
Si Si3 0.615998 0.890518 0.585499
Si Si4 0.706831 0.306320 0.923246
Si Si5 0.517377 0.193463 0.076567
Si Si6 0.725809 0.529635 0.921374
Si Si7 0.763124 0.804241 0.916624
Si Si8 0.796673 0.084344 0.075101
O O1 0.011228 0.947512 0.750000
O O2 0.109085 0.921291 0.974896
O O3 0.955690 0.896955 0.988731
O O4 0.000000 0.000000 0.000000
O O5 0.109632 0.120630 0.750000
O O6 0.192478 0.065180 0.545558
O O7 0.161046 0.171772 0.510889
O O8 0.596278 0.911320 0.750000
O O9 0.535689 0.859360 0.518328
O O10 0.643689 0.944608 0.494163
O O11 0.689073 0.846828 0.585172
O O12 0.719443 0.298784 0.750000
O O13 0.611985 0.318363 0.963036
O O14 0.759466 0.358027 0.986291
O O15 0.738155 0.250000 0.000000
O O16 0.502352 0.201026 0.250000
O O17 0.486730 0.250000 0.000000
O O18 0.706599 0.528152 0.750000
O O19 0.743218 0.467920 0.985041
O O20 0.791801 0.790758 0.750000
O O21 0.731004 0.750000 0.000000
O O22 0.790732 0.083458 0.250000
#
# Coordination Sequence:
#
# PCOD8230874 Si02
#       8
#     8   8   8   8   8   8   8   8
#     4  11  20  33  53  77 102 128 166 210 253 303
#     4  10  19  33  50  72 100 130 168 210 249 298
#     4   9  18  30  45  71 104 132 165 207 253 294
#     4   9  18  35  57  76  99 131 167 208 252 297
#     4   9  17  30  50  74  99 130 169 211 251 294
#     4   9  17  31  49  70  98 133 169 201 244 302
#     4  10  19  31  47  69  99 137 171 204 250 300
#     4   9  18  34  54  75 100 133 168 204 252 307
#
# _framework density 18.064101999999998
#
# number of rings (size 3 to 8) (size 9 to 14) (size 15 to 20)
#    0.000    2.500    1.250    1.500    0.000    1.500 
#    0.000    3.125    0.000    1.500    0.000    0.000 
#    0.000    0.000    0.000    0.000    0.000    0.000 
#
# Total GULP energy -793489.802683 kJ/mol
# GULP energy per Si atom -12398.278167 kJ/mol
# Density = 1.802299 g / cm^3
# Si number density = 18.064102 Si / 1000 Ang^3
#
#
#
# Elastic Constant Matrix: (Units=GPa)
#
#
# Indices 1 2 3 4 5 6 
#
# 1 89.0415 50.6137 32.7526 0.0000 0.0000 0.0000
# 2 50.6137 103.5341 39.1479 0.0000 0.0000 0.0000
# 3 32.7526 39.1479 63.0107 0.0000 0.0000 0.0000
# 4 0.0000 0.0000 0.0000 29.7736 0.0000 0.0000
# 5 0.0000 0.0000 0.0000 0.0000 21.9087 0.0000
# 6 0.0000 0.0000 0.0000 0.0000 0.0000 28.6950
#
#
#
# Elastic Compliance Matrix: (Units=1/GPa)
#
#
# Indices 1 2 3 4 5 6 
#
# 1 0.016542 -0.006320 -0.004672 0.000000 0.000000 0.000000
# 2 -0.006320 0.015039 -0.006058 0.000000 0.000000 0.000000
# 3 -0.004672 -0.006058 0.022063 0.000000 0.000000 0.000000
# 4 0.000000 0.000000 0.000000 0.033587 0.000000 0.000000
# 5 0.000000 0.000000 0.000000 0.000000 0.045644 0.000000
# 6 0.000000 0.000000 0.000000 0.000000 0.000000 0.034849
#
#
# Mechanical properties :
#
#
# Convention : Reuss Voigt Hill
#
# Bulk Modulus (GPa) = 51.16929 55.62385 53.39657
# Shear Modulus (GPa) = 23.99943 24.94694 24.47318
#
# Velocity S-wave (km/s) = 3.64891 3.72024 3.68475
# Velocity P-wave (km/s) = 6.79270 7.02232 6.90846
#
# Compressibility (1/GPa) = 0.01954297
#
# Stress axis : x y z
#
# Youngs Moduli (GPa) = 60.45342 66.49319 45.32542
#
# Poissons Ratio (x) = 0.42025 0.21174
# Poissons Ratio (y) = 0.38207 0.27460
# Poissons Ratio (z) = 0.28242 0.40285
#
# Static dielectric constant tensor:
#      x y z
#    x 3.414910 0.000000 0.000000 
#    y 0.000000 3.484410 0.000000 
#    z 0.000000 0.000000 3.313270 
# 
# 
# High freq. dielectric constant tensor:
#      x y z
#    x 1.690390 0.000000 0.000000 
#    y 0.000000 1.694260 0.000000 
#    z 0.000000 0.000000 1.688810 
# 
# From -- ./inp_files/7368.got.cif
#   From: 2010.03.12/outbox.cif.g09.slc.cpg/sg57_4_cif.got.tgz:7368.got - 2010.04.16 15:48:40.
