data_PCOD8230686
_publ_section_title
;
Structure prediction by ZEFSAII (Michael W. Deem and Ramdas Pophale) SiO2 
 PCOD8230686
Probable space group: P B C M
;
_chemical_formula_sum "Si O2"
_cell_formula_units_Z 64
_cell_length_a 15.104959
_cell_length_b 30.232421
_cell_length_c 9.068285
_cell_angle_alpha 90.000000
_cell_angle_beta 90.000000
_cell_angle_gamma 90.000000
_cell_volume 4141.118310
_symmetry_space_group_name_H-M "P B C M"
_symmetry_group_IT_number 57
_symmetry_cell_setting 'orthorhombic'
loop_
_space_group_symop_operation_xyz
x,y,z
-x,-y,1/2+z
x,1/2-y,-z
-x,1/2+y,1/2-z
-x,-y,-z
x,y,1/2-z
-x,1/2+y,z
x,1/2-y,1/2+z
loop_
_atom_site_type_symbol
_atom_site_label
_atom_site_fract_x
_atom_site_fract_y
_atom_site_fract_z
Si Si1 0.584812 0.552708 0.415832
Si Si2 0.902714 0.879345 0.420648
Si Si3 0.101803 0.292562 0.915300
Si Si4 0.108984 0.706836 0.082688
Si Si5 0.758876 0.950085 0.079434
Si Si6 0.893342 0.381986 0.076067
Si Si7 0.763823 0.052254 0.076554
Si Si8 0.586556 0.052575 0.583379
O O1 0.579097 0.571179 0.250000
O O2 0.676144 0.568974 0.488218
O O3 0.581995 0.500027 0.416837
O O4 0.502021 0.571907 0.507951
O O5 0.894670 0.867035 0.250000
O O6 0.864690 0.837417 0.508652
O O7 0.845605 0.922231 0.462957
O O8 0.003839 0.889685 0.462260
O O9 0.138873 0.291405 0.750000
O O10 0.996334 0.291171 0.917845
O O11 0.140556 0.250000 0.000000
O O12 0.145308 0.705447 0.250000
O O13 0.147555 0.750000 0.000000
O O14 0.141634 0.663627 0.994905
O O15 0.733546 0.945303 0.250000
O O16 0.779197 0.000792 0.040352
O O17 0.875786 0.380516 0.250000
O O18 0.842917 0.422631 0.003212
O O19 0.764809 0.062030 0.250000
O O20 0.670681 0.068885 0.010386
O O21 0.593699 0.070838 0.750000
#
# Coordination Sequence:
#
# PCOD8230686 Si02
#       8
#     8   8   8   8   8   8   8   8
#     4   9  16  26  42  63  83 104 134 174 217 258
#     4   9  18  31  44  59  83 115 149 182 214 251
#     4   9  16  26  42  62  82 105 135 173 217 260
#     4   9  16  27  43  62  82 105 135 173 217 260
#     4   9  18  31  44  59  83 116 149 180 215 253
#     4  10  19  30  43  60  84 115 149 182 215 252
#     4  10  19  30  43  60  84 114 148 183 216 252
#     4   9  16  27  43  61  81 106 136 172 216 261
#
# _framework density 15.454762000000001
#
# number of rings (size 3 to 8) (size 9 to 14) (size 15 to 20)
#    0.000    2.750    0.000    2.250    0.000    8.000 
#    0.000    0.000    0.000    0.000    0.000    0.000 
#    0.000    1.000    0.000    7.000    0.000    6.000 
#
# Total GULP energy -793582.318522 kJ/mol
# GULP energy per Si atom -12399.723727 kJ/mol
# Density = 1.541959 g / cm^3
# Si number density = 15.454762 Si / 1000 Ang^3
#
#
#
# Elastic Constant Matrix: (Units=GPa)
#
#
# Indices 1 2 3 4 5 6 
#
# 1 77.0535 45.5214 51.8241 0.0000 0.0000 0.0000
# 2 45.5214 77.6951 52.3904 0.0000 0.0000 0.0000
# 3 51.8241 52.3904 118.2596 0.0000 0.0000 0.0000
# 4 0.0000 0.0000 0.0000 25.6881 0.0000 0.0000
# 5 0.0000 0.0000 0.0000 0.0000 24.4450 0.0000
# 6 0.0000 0.0000 0.0000 0.0000 0.0000 1.2825
#
#
#
# Elastic Compliance Matrix: (Units=1/GPa)
#
#
# Indices 1 2 3 4 5 6 
#
# 1 0.022222 -0.009202 -0.005662 0.000000 0.000000 0.000000
# 2 -0.009202 0.022164 -0.005786 0.000000 0.000000 0.000000
# 3 -0.005662 -0.005786 0.013500 0.000000 0.000000 0.000000
# 4 0.000000 0.000000 0.000000 0.038929 0.000000 0.000000
# 5 0.000000 0.000000 0.000000 0.000000 0.040908 0.000000
# 6 0.000000 0.000000 0.000000 0.000000 0.000000 0.779704
#
#
# Mechanical properties :
#
#
# Convention : Reuss Voigt Hill
#
# Bulk Modulus (GPa) = 60.29023 63.60888 61.94956
# Shear Modulus (GPa) = 5.18534 18.50127 11.84330
#
# Velocity S-wave (km/s) = 1.83370 3.46370 2.77125
# Velocity P-wave (km/s) = 6.60142 7.56596 7.10009
#
# Compressibility (1/GPa) = 0.01658643
#
# Stress axis : x y z
#
# Youngs Moduli (GPa) = 44.99965 45.11773 74.07179
#
# Poissons Ratio (x) = 0.41519 0.41936
# Poissons Ratio (y) = 0.41411 0.42860
# Poissons Ratio (z) = 0.25477 0.26106
#
# Static dielectric constant tensor:
#      x y z
#    x 2.791580 0.000000 0.000000 
#    y 0.000000 2.790460 0.000000 
#    z 0.000000 0.000000 3.164510 
# 
# 
# High freq. dielectric constant tensor:
#      x y z
#    x 1.562470 0.000000 0.000000 
#    y 0.000000 1.562640 0.000000 
#    z 0.000000 0.000000 1.611830 
# 
# From -- ./inp_files/6063.got.cif
#   From: 2010.03.12/outbox.cif.g09.slc.cpg/sg57_4_cif.got.tgz:6063.got - 2010.04.16 15:48:40.
