data_PCOD8230948
_publ_section_title
;
Structure prediction by ZEFSAII (Michael W. Deem and Ramdas Pophale) SiO2 
 PCOD8230948
Probable space group: P B C M
;
_chemical_formula_sum "Si O2"
_cell_formula_units_Z 48
_cell_length_a 20.254828
_cell_length_b 13.812642
_cell_length_c 9.231205
_cell_angle_alpha 90.000000
_cell_angle_beta 90.000000
_cell_angle_gamma 90.000000
_cell_volume 2582.639036
_symmetry_space_group_name_H-M "P B C M"
_symmetry_group_IT_number 57
_symmetry_cell_setting 'orthorhombic'
loop_
_space_group_symop_operation_xyz
x,y,z
-x,-y,1/2+z
x,1/2-y,-z
-x,1/2+y,1/2-z
-x,-y,-z
x,y,1/2-z
-x,1/2+y,z
x,1/2-y,1/2+z
loop_
_atom_site_type_symbol
_atom_site_label
_atom_site_fract_x
_atom_site_fract_y
_atom_site_fract_z
Si Si1 0.778083 0.348824 0.418286
Si Si2 0.975002 0.651732 0.079912
Si Si3 0.645705 0.047917 0.582810
Si Si4 0.387813 0.160304 0.086468
Si Si5 0.911189 0.047762 0.916708
Si Si6 0.538108 0.154322 0.420768
O O1 0.793505 0.250000 0.500000
O O2 0.773208 0.323892 0.250000
O O3 0.709886 0.395514 0.474050
O O4 0.835318 0.426916 0.448708
O O5 0.982414 0.673259 0.250000
O O6 0.921982 0.566196 0.049160
O O7 0.951774 0.750000 0.000000
O O8 0.045187 0.616493 0.018516
O O9 0.629517 0.073121 0.750000
O O10 0.582819 0.068670 0.482895
O O11 0.658711 0.932965 0.566685
O O12 0.390644 0.195999 0.250000
O O13 0.462333 0.134937 0.035411
O O14 0.356993 0.250000 0.000000
O O15 0.930457 0.069481 0.750000
O O16 0.564716 0.250000 0.500000
O O17 0.548738 0.163386 0.250000
#
# Coordination Sequence:
#
# PCOD8230948 Si02
#       6
#     8   8   8   8   8   8
#     4  10  21  36  53  73 100 132 164 200 244 294
#     4  10  19  32  53  79 106 134 166 206 249 291
#     4  10  20  34  51  72  99 130 164 203 247 294
#     4   9  19  34  51  71  96 127 163 205 251 296
#     4   9  19  35  53  75 103 136 171 205 244 290
#     4  10  19  31  49  73  99 127 161 203 250 297
#
# _framework density 18.585639
#
# number of rings (size 3 to 8) (size 9 to 14) (size 15 to 20)
#    0.000    2.333    0.000    2.500    0.000    6.000 
#    0.000    0.833    0.000    0.000    0.000    0.000 
#    0.000    0.000    0.000    0.000    0.000    0.000 
#
# Total GULP energy -595202.748451 kJ/mol
# GULP energy per Si atom -12400.057259 kJ/mol
# Density = 1.854334 g / cm^3
# Si number density = 18.585639 Si / 1000 Ang^3
#
#
#
# Elastic Constant Matrix: (Units=GPa)
#
#
# Indices 1 2 3 4 5 6 
#
# 1 56.4646 37.2687 26.8569 0.0000 0.0000 0.0000
# 2 37.2687 119.2912 49.7321 0.0000 0.0000 0.0000
# 3 26.8569 49.7321 71.5778 0.0000 0.0000 0.0000
# 4 0.0000 0.0000 0.0000 35.6208 0.0000 0.0000
# 5 0.0000 0.0000 0.0000 0.0000 19.1940 0.0000
# 6 0.0000 0.0000 0.0000 0.0000 0.0000 27.2934
#
#
#
# Elastic Compliance Matrix: (Units=1/GPa)
#
#
# Indices 1 2 3 4 5 6 
#
# 1 0.023640 -0.005191 -0.005263 0.000000 0.000000 0.000000
# 2 -0.005191 0.012941 -0.007044 0.000000 0.000000 0.000000
# 3 -0.005263 -0.007044 0.020840 0.000000 0.000000 0.000000
# 4 0.000000 0.000000 0.000000 0.028073 0.000000 0.000000
# 5 0.000000 0.000000 0.000000 0.000000 0.052100 0.000000
# 6 0.000000 0.000000 0.000000 0.000000 0.000000 0.036639
#
#
# Mechanical properties :
#
#
# Convention : Reuss Voigt Hill
#
# Bulk Modulus (GPa) = 44.59406 52.78322 48.68864
# Shear Modulus (GPa) = 23.07296 25.32003 24.19649
#
# Velocity S-wave (km/s) = 3.52723 3.69500 3.61209
# Velocity P-wave (km/s) = 6.37451 6.83123 6.60682
#
# Compressibility (1/GPa) = 0.02242451
#
# Stress axis : x y z
#
# Youngs Moduli (GPa) = 42.30107 77.27250 47.98578
#
# Poissons Ratio (x) = 0.40115 0.25255
# Poissons Ratio (y) = 0.21960 0.33799
# Poissons Ratio (z) = 0.22263 0.54428
#
# Static dielectric constant tensor:
#      x y z
#    x 3.232600 0.000000 0.000000 
#    y 0.000000 3.513740 0.000000 
#    z 0.000000 0.000000 3.419060 
# 
# 
# High freq. dielectric constant tensor:
#      x y z
#    x 1.696430 0.000000 0.000000 
#    y 0.000000 1.729050 0.000000 
#    z 0.000000 0.000000 1.721930 
# 
# From -- ./inp_files/6547.got.cif
#   From: 2010.03.12/outbox.cif.g09.slc.cpg/sg57_4_cif.got.tgz:6547.got - 2010.04.16 15:48:40.
