data_PCOD8230994
_publ_section_title
;
Structure prediction by ZEFSAII (Michael W. Deem and Ramdas Pophale) SiO2 
 PCOD8230994
Probable space group: P B C M
;
_chemical_formula_sum "Si O2"
_cell_formula_units_Z 48
_cell_length_a 12.714180
_cell_length_b 13.746950
_cell_length_c 13.684187
_cell_angle_alpha 90.000000
_cell_angle_beta 90.000000
_cell_angle_gamma 90.000000
_cell_volume 2391.738580
_symmetry_space_group_name_H-M "P B C M"
_symmetry_group_IT_number 57
_symmetry_cell_setting 'orthorhombic'
loop_
_space_group_symop_operation_xyz
x,y,z
-x,-y,1/2+z
x,1/2-y,-z
-x,1/2+y,1/2-z
-x,-y,-z
x,y,1/2-z
-x,1/2+y,z
x,1/2-y,1/2+z
loop_
_atom_site_type_symbol
_atom_site_label
_atom_site_fract_x
_atom_site_fract_y
_atom_site_fract_z
Si Si1 0.571999 0.972710 0.864566
Si Si2 0.807643 0.329131 0.863214
Si Si3 0.206635 0.081047 0.143795
Si Si4 0.601740 0.362872 0.978933
Si Si5 0.116758 0.880351 0.144361
Si Si6 0.008514 0.139895 0.469032
O O1 0.562540 0.998624 0.750000
O O2 0.672491 0.901623 0.885577
O O3 0.473587 0.908019 0.896460
O O4 0.584479 0.074185 0.923093
O O5 0.778433 0.346213 0.750000
O O6 0.719279 0.373791 0.934185
O O7 0.817997 0.214398 0.889421
O O8 0.920592 0.380051 0.885546
O O9 0.180352 0.128725 0.250000
O O10 0.126440 0.118296 0.062880
O O11 0.201305 0.964730 0.153454
O O12 0.574104 0.250000 0.000000
O O13 0.062747 0.859646 0.250000
O O14 0.026165 0.916750 0.068185
O O15 0.005749 0.250000 0.500000
#
# Coordination Sequence:
#
# PCOD8230994 Si02
#       6
#     8   8   8   8   8   8
#     4  10  23  40  58  84 115 148 190 234 282 345
#     4  10  19  33  54  83 112 139 179 228 279 326
#     4  10  19  33  52  73 101 138 175 213 263 324
#     4  11  22  38  61  85 111 146 189 239 289 335
#     4   9  18  31  50  76 105 137 176 221 266 317
#     4  10  19  31  50  76 108 141 176 217 266 324
#
# _framework density 20.069082000000002
#
# number of rings (size 3 to 8) (size 9 to 14) (size 15 to 20)
#    0.000    2.000    0.000    5.000    0.000    4.000 
#    0.000    0.000    0.000    4.000    0.000    0.000 
#    0.000    0.000    0.000    0.000    0.000    0.000 
#
# Total GULP energy -594820.511564 kJ/mol
# GULP energy per Si atom -12392.093991 kJ/mol
# Density = 2.002340 g / cm^3
# Si number density = 20.069082 Si / 1000 Ang^3
#
#
#
# Elastic Constant Matrix: (Units=GPa)
#
#
# Indices 1 2 3 4 5 6 
#
# 1 116.3788 22.8084 56.7909 0.0000 0.0000 0.0000
# 2 22.8084 35.1938 29.7783 0.0000 0.0000 0.0000
# 3 56.7909 29.7783 126.3945 0.0000 0.0000 0.0000
# 4 0.0000 0.0000 0.0000 23.4259 0.0000 0.0000
# 5 0.0000 0.0000 0.0000 0.0000 39.0460 0.0000
# 6 0.0000 0.0000 0.0000 0.0000 0.0000 60.3665
#
#
#
# Elastic Compliance Matrix: (Units=1/GPa)
#
#
# Indices 1 2 3 4 5 6 
#
# 1 0.011402 -0.003815 -0.004224 0.000000 0.000000 0.000000
# 2 -0.003815 0.036765 -0.006948 0.000000 0.000000 0.000000
# 3 -0.004224 -0.006948 0.011447 0.000000 0.000000 0.000000
# 4 0.000000 0.000000 0.000000 0.042688 0.000000 0.000000
# 5 0.000000 0.000000 0.000000 0.000000 0.025611 0.000000
# 6 0.000000 0.000000 0.000000 0.000000 0.000000 0.016565
#
#
# Mechanical properties :
#
#
# Convention : Reuss Voigt Hill
#
# Bulk Modulus (GPa) = 33.73851 55.19135 44.46493
# Shear Modulus (GPa) = 27.12516 35.80700 31.46608
#
# Velocity S-wave (km/s) = 3.68039 4.22855 3.96395
# Velocity P-wave (km/s) = 5.90830 7.16946 6.56922
#
# Compressibility (1/GPa) = 0.02963972
#
# Stress axis : x y z
#
# Youngs Moduli (GPa) = 87.70701 27.19970 87.36277
#
# Poissons Ratio (x) = 0.10377 0.36903
# Poissons Ratio (y) = 0.33461 0.60696
# Poissons Ratio (z) = 0.37048 0.18897
#
# Static dielectric constant tensor:
#      x y z
#    x 3.668120 0.000000 0.000000 
#    y 0.000000 3.482750 0.000000 
#    z 0.000000 0.000000 4.435130 
# 
# 
# High freq. dielectric constant tensor:
#      x y z
#    x 1.776950 0.000000 0.000000 
#    y 0.000000 1.760090 0.000000 
#    z 0.000000 0.000000 1.801410 
# 
# From -- ./inp_files/17574.got.cif
#   From: 2010.03.12/outbox.cif.g09.slc.cpg/sg57_9_cif.got.tgz:17574.got - 2010.04.16 15:48:40.
