data_PCOD8230865
_publ_section_title
;
Structure prediction by ZEFSAII (Michael W. Deem and Ramdas Pophale) SiO2 
 PCOD8230865
Probable space group: P B C M
;
_chemical_formula_sum "Si O2"
_cell_formula_units_Z 64
_cell_length_a 15.540741
_cell_length_b 28.428071
_cell_length_c 8.984327
_cell_angle_alpha 90.000000
_cell_angle_beta 90.000000
_cell_angle_gamma 90.000000
_cell_volume 3969.215371
_symmetry_space_group_name_H-M "P B C M"
_symmetry_group_IT_number 57
_symmetry_cell_setting 'orthorhombic'
loop_
_space_group_symop_operation_xyz
x,y,z
-x,-y,1/2+z
x,1/2-y,-z
-x,1/2+y,1/2-z
-x,-y,-z
x,y,1/2-z
-x,1/2+y,z
x,1/2-y,1/2+z
loop_
_atom_site_type_symbol
_atom_site_label
_atom_site_fract_x
_atom_site_fract_y
_atom_site_fract_z
Si Si1 0.906033 0.547788 0.576605
Si Si2 0.485138 0.800524 0.074837
Si Si3 0.104136 0.953948 0.075817
Si Si4 0.996969 0.799383 0.926004
Si Si5 0.326448 0.200517 0.922332
Si Si6 0.319219 0.699130 0.073709
Si Si7 0.843439 0.362988 0.575944
Si Si8 0.157008 0.351253 0.424428
O O1 0.897732 0.536615 0.750000
O O2 0.865087 0.504104 0.488300
O O3 0.854407 0.594446 0.530049
O O4 0.005185 0.555150 0.530560
O O5 0.466274 0.797083 0.250000
O O6 0.579618 0.822736 0.042294
O O7 0.487693 0.750000 0.000000
O O8 0.405182 0.826550 0.993458
O O9 0.118633 0.954307 0.250000
O O10 0.161759 0.912732 0.007021
O O11 0.993118 0.792650 0.750000
O O12 0.071370 0.835334 0.974811
O O13 0.019304 0.750000 0.000000
O O14 0.906086 0.818099 0.983435
O O15 0.320423 0.212640 0.750000
O O16 0.254052 0.162936 0.968490
O O17 0.309959 0.250000 0.000000
O O18 0.327869 0.705046 0.250000
O O19 0.239240 0.666927 0.028713
O O20 0.305272 0.750000 0.000000
O O21 0.844940 0.373134 0.750000
O O22 0.137253 0.344129 0.250000
#
# Coordination Sequence:
#
# PCOD8230865 Si02
#       8
#     8   8   8   8   8   8   8   8
#     4   9  18  32  49  68  92 121 152 192 236 276
#     4   9  16  28  45  66  90 119 152 191 232 269
#     4  10  19  31  50  71  90 118 155 195 235 275
#     4  11  22  33  45  63  92 128 160 191 223 265
#     4   9  18  30  46  67  94 124 156 190 227 271
#     4  10  19  31  47  68  93 124 157 192 231 274
#     4  10  21  34  47  66  93 124 157 191 231 275
#     4  10  19  33  49  68  93 124 159 191 227 274
#
# _framework density 16.124093999999999
#
# number of rings (size 3 to 8) (size 9 to 14) (size 15 to 20)
#    0.000    2.250    1.250    3.000    0.000    4.500 
#    0.000    0.000    0.000    0.000    0.000    0.875 
#    0.000    0.000    0.000    0.000    0.000    0.000 
#
# Total GULP energy -793459.756428 kJ/mol
# GULP energy per Si atom -12397.808694 kJ/mol
# Density = 1.608739 g / cm^3
# Si number density = 16.124094 Si / 1000 Ang^3
#
#
#
# Elastic Constant Matrix: (Units=GPa)
#
#
# Indices 1 2 3 4 5 6 
#
# 1 102.9597 40.8387 35.1995 0.0000 0.0000 0.0000
# 2 40.8387 95.9097 36.4998 0.0000 0.0000 0.0000
# 3 35.1995 36.4998 56.7356 0.0000 0.0000 0.0000
# 4 0.0000 0.0000 0.0000 23.5102 0.0000 0.0000
# 5 0.0000 0.0000 0.0000 0.0000 22.5416 0.0000
# 6 0.0000 0.0000 0.0000 0.0000 0.0000 11.4851
#
#
#
# Elastic Compliance Matrix: (Units=1/GPa)
#
#
# Indices 1 2 3 4 5 6 
#
# 1 0.013063 -0.003281 -0.005994 0.000000 0.000000 0.000000
# 2 -0.003281 0.014631 -0.007377 0.000000 0.000000 0.000000
# 3 -0.005994 -0.007377 0.026090 0.000000 0.000000 0.000000
# 4 0.000000 0.000000 0.000000 0.042535 0.000000 0.000000
# 5 0.000000 0.000000 0.000000 0.000000 0.044362 0.000000
# 6 0.000000 0.000000 0.000000 0.000000 0.000000 0.087070
#
#
# Mechanical properties :
#
#
# Convention : Reuss Voigt Hill
#
# Bulk Modulus (GPa) = 48.82676 53.40901 51.11788
# Shear Modulus (GPa) = 18.66499 21.04516 19.85508
#
# Velocity S-wave (km/s) = 3.40602 3.61667 3.51293
# Velocity P-wave (km/s) = 6.76872 7.11590 6.94448
#
# Compressibility (1/GPa) = 0.02048057
#
# Stress axis : x y z
#
# Youngs Moduli (GPa) = 76.55117 68.34783 38.32915
#
# Poissons Ratio (x) = 0.22428 0.22973
# Poissons Ratio (y) = 0.25120 0.28275
# Poissons Ratio (z) = 0.45881 0.50419
#
# Static dielectric constant tensor:
#      x y z
#    x 3.535810 0.000000 0.000000 
#    y 0.000000 2.941760 0.000000 
#    z 0.000000 0.000000 3.119400 
# 
# 
# High freq. dielectric constant tensor:
#      x y z
#    x 1.613590 0.000000 0.000000 
#    y 0.000000 1.596750 0.000000 
#    z 0.000000 0.000000 1.629400 
# 
# From -- ./inp_files/7476.got.cif
#   From: 2010.03.12/outbox.cif.g09.slc.cpg/sg57_4_cif.got.tgz:7476.got - 2010.04.16 15:48:40.
