data_PCOD8230312
_publ_section_title
;
Structure prediction by ZEFSAII (Michael W. Deem and Ramdas Pophale) SiO2 
 PCOD8230312
Probable space group: P B C M
;
_chemical_formula_sum "Si O2"
_cell_formula_units_Z 64
_cell_length_a 15.682239
_cell_length_b 28.658311
_cell_length_c 8.773755
_cell_angle_alpha 90.000000
_cell_angle_beta 90.000000
_cell_angle_gamma 90.000000
_cell_volume 3943.157847
_symmetry_space_group_name_H-M "P B C M"
_symmetry_group_IT_number 57
_symmetry_cell_setting 'orthorhombic'
loop_
_space_group_symop_operation_xyz
x,y,z
-x,-y,1/2+z
x,1/2-y,-z
-x,1/2+y,1/2-z
-x,-y,-z
x,y,1/2-z
-x,1/2+y,z
x,1/2-y,1/2+z
loop_
_atom_site_type_symbol
_atom_site_label
_atom_site_fract_x
_atom_site_fract_y
_atom_site_fract_z
Si Si1 0.502466 0.950576 0.073908
Si Si2 0.843122 0.895386 0.430254
Si Si3 0.313027 0.044304 0.930354
Si Si4 0.318712 0.558043 0.929872
Si Si5 0.098392 0.297276 0.069837
Si Si6 0.914186 0.296757 0.928118
Si Si7 0.162051 0.894789 0.572642
Si Si8 0.991865 0.050579 0.930518
O O1 0.495893 0.960411 0.250000
O O2 0.595958 0.929212 0.034413
O O3 0.415282 0.923545 0.026960
O O4 0.500000 0.000000 0.000000
O O5 0.842877 0.899486 0.250000
O O6 0.759889 0.921445 0.495809
O O7 0.842346 0.840956 0.479071
O O8 0.928889 0.919258 0.493931
O O9 0.302357 0.035160 0.750000
O O10 0.304841 0.995041 0.015343
O O11 0.300864 0.560502 0.750000
O O12 0.256554 0.593005 0.017318
O O13 0.092547 0.292209 0.250000
O O14 0.138270 0.250000 0.000000
O O15 0.004243 0.306605 0.007109
O O16 0.929902 0.289010 0.750000
O O17 0.852084 0.340088 0.960706
O O18 0.872405 0.250000 0.000000
O O19 0.151549 0.906330 0.750000
O O20 0.095795 0.926147 0.481081
O O21 0.993091 0.046947 0.750000
O O22 0.000000 0.000000 0.000000
#
# Coordination Sequence:
#
# PCOD8230312 Si02
#       8
#     8   8   8   8   8   8   8   8
#     4   8  15  27  45  67  91 118 153 191 233 275
#     4   9  18  30  46  66  90 120 153 184 224 269
#     4   9  16  30  49  68  93 125 156 191 228 277
#     4  10  19  30  45  69  96 124 156 195 236 275
#     4  10  18  31  48  67  89 116 150 189 232 275
#     4  10  20  33  50  69  89 115 152 195 238 281
#     4  11  22  34  47  67  92 125 162 193 231 280
#     4  11  21  33  46  65  95 130 161 191 223 267
#
# _framework density 16.230646
#
# number of rings (size 3 to 8) (size 9 to 14) (size 15 to 20)
#    0.000    2.250    1.250    3.375    0.000    3.000 
#    0.000    1.875    0.000    0.000    0.000    0.875 
#    0.000    4.000    0.000    0.000    0.000    0.000 
#
# Total GULP energy -793077.076490 kJ/mol
# GULP energy per Si atom -12391.829320 kJ/mol
# Density = 1.619370 g / cm^3
# Si number density = 16.230646 Si / 1000 Ang^3
#
#
#
# Elastic Constant Matrix: (Units=GPa)
#
#
# Indices 1 2 3 4 5 6 
#
# 1 101.9482 45.2191 24.7147 0.0000 0.0000 0.0000
# 2 45.2191 103.2089 34.6531 0.0000 0.0000 0.0000
# 3 24.7147 34.6531 57.5146 0.0000 0.0000 0.0000
# 4 0.0000 0.0000 0.0000 22.5821 0.0000 0.0000
# 5 0.0000 0.0000 0.0000 0.0000 17.9173 0.0000
# 6 0.0000 0.0000 0.0000 0.0000 0.0000 12.9939
#
#
#
# Elastic Compliance Matrix: (Units=1/GPa)
#
#
# Indices 1 2 3 4 5 6 
#
# 1 0.012476 -0.004596 -0.002592 0.000000 0.000000 0.000000
# 2 -0.004596 0.013839 -0.006363 0.000000 0.000000 0.000000
# 3 -0.002592 -0.006363 0.022335 0.000000 0.000000 0.000000
# 4 0.000000 0.000000 0.000000 0.044283 0.000000 0.000000
# 5 0.000000 0.000000 0.000000 0.000000 0.055812 0.000000
# 6 0.000000 0.000000 0.000000 0.000000 0.000000 0.076959
#
#
# Mechanical properties :
#
#
# Convention : Reuss Voigt Hill
#
# Bulk Modulus (GPa) = 46.40942 52.42729 49.41835
# Shear Modulus (GPa) = 19.23164 21.23765 20.23465
#
# Velocity S-wave (km/s) = 3.44597 3.62123 3.53469
# Velocity P-wave (km/s) = 6.66998 7.06088 6.86821
#
# Compressibility (1/GPa) = 0.02154735
#
# Stress axis : x y z
#
# Youngs Moduli (GPa) = 80.15585 72.25864 44.77342
#
# Poissons Ratio (x) = 0.33208 0.11605
# Poissons Ratio (y) = 0.36837 0.28491
# Poissons Ratio (z) = 0.20776 0.45981
#
# Static dielectric constant tensor:
#      x y z
#    x 3.585020 0.000000 0.000000 
#    y 0.000000 3.041250 0.000000 
#    z 0.000000 0.000000 3.026330 
# 
# 
# High freq. dielectric constant tensor:
#      x y z
#    x 1.618920 0.000000 0.000000 
#    y 0.000000 1.604130 0.000000 
#    z 0.000000 0.000000 1.628550 
# 
# From -- ./inp_files/6055.got.cif
#   From: 2010.03.12/outbox.cif.g09.slc.cpg/sg57_4_cif.got.tgz:6055.got - 2010.04.16 15:48:40.
