data_PCOD8230140
_publ_section_title
;
Structure prediction by ZEFSAII (Michael W. Deem and Ramdas Pophale) SiO2 
 PCOD8230140
Probable space group: P B C M
;
_chemical_formula_sum "Si O2"
_cell_formula_units_Z 48
_cell_length_a 15.004111
_cell_length_b 21.440733
_cell_length_c 9.010713
_cell_angle_alpha 90.000000
_cell_angle_beta 90.000000
_cell_angle_gamma 90.000000
_cell_volume 2898.738604
_symmetry_space_group_name_H-M "P B C M"
_symmetry_group_IT_number 57
_symmetry_cell_setting 'orthorhombic'
loop_
_space_group_symop_operation_xyz
x,y,z
-x,-y,1/2+z
x,1/2-y,-z
-x,1/2+y,1/2-z
-x,-y,-z
x,y,1/2-z
-x,1/2+y,z
x,1/2-y,1/2+z
loop_
_atom_site_type_symbol
_atom_site_label
_atom_site_fract_x
_atom_site_fract_y
_atom_site_fract_z
Si Si1 0.381716 0.048525 0.076433
Si Si2 0.013297 0.065346 0.577544
Si Si3 0.205700 0.036203 0.919270
Si Si4 0.450355 0.913832 0.422553
Si Si5 0.699505 0.315858 0.425873
Si Si6 0.151011 0.604001 0.074526
O O1 0.382441 0.058253 0.250000
O O2 0.402360 0.977648 0.027551
O O3 0.283894 0.065804 0.017377
O O4 0.456196 0.094323 0.008009
O O5 0.986388 0.060983 0.750000
O O6 0.118684 0.080657 0.560960
O O7 0.948588 0.114210 0.493585
O O8 0.000000 0.000000 0.500000
O O9 0.237902 0.035811 0.750000
O O10 0.184812 0.965119 0.968365
O O11 0.472415 0.915392 0.250000
O O12 0.386139 0.857385 0.465679
O O13 0.680740 0.250000 0.500000
O O14 0.713632 0.309937 0.250000
O O15 0.787077 0.345081 0.498226
O O16 0.147952 0.614844 0.250000
#
# Coordination Sequence:
#
# PCOD8230140 Si02
#       6
#     8   8   8   8   8   8
#     4  10  18  28  47  71  95 126 161 198 243 295
#     4   9  17  28  43  66  95 128 160 193 234 282
#     4   9  17  28  44  68  98 129 158 191 237 289
#     4   9  19  33  46  66  95 127 160 199 246 292
#     4  11  22  36  52  71  96 129 167 206 245 290
#     4  10  19  31  47  68  95 129 163 200 241 287
#
# _framework density 16.558926
#
# number of rings (size 3 to 8) (size 9 to 14) (size 15 to 20)
#    0.000    2.333    1.667    3.000    0.000    5.333 
#    0.000    0.000    0.000    0.000    0.000    1.167 
#    0.000    5.333    0.000    0.000    0.000    0.000 
#
# Total GULP energy -595090.138083 kJ/mol
# GULP energy per Si atom -12397.711210 kJ/mol
# Density = 1.652124 g / cm^3
# Si number density = 16.558926 Si / 1000 Ang^3
#
#
#
# Elastic Constant Matrix: (Units=GPa)
#
#
# Indices 1 2 3 4 5 6 
#
# 1 139.9501 45.6955 68.3588 0.0000 0.0000 0.0000
# 2 45.6955 61.1134 36.1823 0.0000 0.0000 0.0000
# 3 68.3588 36.1823 91.1710 0.0000 0.0000 0.0000
# 4 0.0000 0.0000 0.0000 21.1397 0.0000 0.0000
# 5 0.0000 0.0000 0.0000 0.0000 34.2711 0.0000
# 6 0.0000 0.0000 0.0000 0.0000 0.0000 18.8977
#
#
#
# Elastic Compliance Matrix: (Units=1/GPa)
#
#
# Indices 1 2 3 4 5 6 
#
# 1 0.012297 -0.004883 -0.007282 0.000000 0.000000 0.000000
# 2 -0.004883 0.023328 -0.005597 0.000000 0.000000 0.000000
# 3 -0.007282 -0.005597 0.018649 0.000000 0.000000 0.000000
# 4 0.000000 0.000000 0.000000 0.047304 0.000000 0.000000
# 5 0.000000 0.000000 0.000000 0.000000 0.029179 0.000000
# 6 0.000000 0.000000 0.000000 0.000000 0.000000 0.052916
#
#
# Mechanical properties :
#
#
# Convention : Reuss Voigt Hill
#
# Bulk Modulus (GPa) = 53.33211 65.85640 59.59426
# Shear Modulus (GPa) = 22.17815 24.32823 23.25319
#
# Velocity S-wave (km/s) = 3.66368 3.83716 3.75142
# Velocity P-wave (km/s) = 7.08337 7.71291 7.40483
#
# Compressibility (1/GPa) = 0.01875043
#
# Stress axis : x y z
#
# Youngs Moduli (GPa) = 81.32270 42.86757 53.62106
#
# Poissons Ratio (x) = 0.20933 0.39047
# Poissons Ratio (y) = 0.39711 0.30009
# Poissons Ratio (z) = 0.59219 0.23991
#
# Static dielectric constant tensor:
#      x y z
#    x 3.419370 0.000000 0.000000 
#    y 0.000000 2.695820 0.000000 
#    z 0.000000 0.000000 3.218630 
# 
# 
# High freq. dielectric constant tensor:
#      x y z
#    x 1.652410 0.000000 0.000000 
#    y 0.000000 1.574150 0.000000 
#    z 0.000000 0.000000 1.653090 
# 
# From -- ./inp_files/4833.got.cif
#   From: 2010.03.12/outbox.cif.g09.slc.cpg/sg57_3_cif.got.tgz:4833.got - 2010.04.16 15:48:40.
