data_PCOD8230517
_publ_section_title
;
Structure prediction by ZEFSAII (Michael W. Deem and Ramdas Pophale) SiO2 
 PCOD8230517
Probable space group: P B C M
;
_chemical_formula_sum "Si O2"
_cell_formula_units_Z 64
_cell_length_a 15.204648
_cell_length_b 9.545576
_cell_length_c 25.997171
_cell_angle_alpha 90.000000
_cell_angle_beta 90.000000
_cell_angle_gamma 90.000000
_cell_volume 3773.154606
_symmetry_space_group_name_H-M "P B C M"
_symmetry_group_IT_number 57
_symmetry_cell_setting 'orthorhombic'
loop_
_space_group_symop_operation_xyz
x,y,z
-x,-y,1/2+z
x,1/2-y,-z
-x,1/2+y,1/2-z
-x,-y,-z
x,y,1/2-z
-x,1/2+y,z
x,1/2-y,1/2+z
loop_
_atom_site_type_symbol
_atom_site_label
_atom_site_fract_x
_atom_site_fract_y
_atom_site_fract_z
Si Si1 0.351807 0.035183 0.894152
Si Si2 0.794846 0.603352 0.974991
Si Si3 0.418597 0.967348 0.308246
Si Si4 0.503005 0.129697 0.963271
Si Si5 0.404073 0.208792 0.807913
Si Si6 0.338808 0.787775 0.105569
Si Si7 0.018899 0.124438 0.962859
Si Si8 0.831030 0.355148 0.452737
O O1 0.281056 0.047699 0.938653
O O2 0.444129 0.098455 0.913789
O O3 0.330958 0.134899 0.844809
O O4 0.360086 0.872280 0.878553
O O5 0.883703 0.602007 0.938254
O O6 0.767889 0.750000 0.000000
O O7 0.804103 0.505353 0.025105
O O8 0.382425 0.956115 0.250000
O O9 0.511675 0.891362 0.312428
O O10 0.350885 0.888999 0.345677
O O11 0.426785 0.131452 0.324601
O O12 0.600468 0.167054 0.942694
O O13 0.465082 0.250000 0.000000
O O14 0.500000 0.000000 0.000000
O O15 0.366812 0.207865 0.750000
O O16 0.236849 0.802933 0.090022
O O17 0.931096 0.143647 0.927467
O O18 0.038660 0.250000 0.000000
O O19 0.000000 0.000000 0.000000
O O20 0.834128 0.250000 0.500000
#
# Coordination Sequence:
#
# PCOD8230517 Si02
#       8
#     8   8   8   8   8   8   8   8
#     4  12  23  35  52  75 102 139 175 214 253 301
#     4  10  20  33  49  78 107 138 175 213 252 304
#     4  10  22  39  57  75  97 128 172 221 264 307
#     4  12  24  35  45  68 106 144 173 201 238 296
#     4  10  22  39  57  75  97 129 171 221 266 305
#     4  12  23  35  52  76 100 140 178 209 257 301
#     4   8  16  30  51  71  99 137 173 210 254 292
#     4  10  18  34  52  73 107 142 172 211 250 304
#
# _framework density 16.961933999999999
#
# number of rings (size 3 to 8) (size 9 to 14) (size 15 to 20)
#    0.000    1.500    3.750    2.250    3.500    1.500 
#    0.000    0.000    0.000    0.000    0.000    0.875 
#    0.000    0.000    0.000    0.000    0.000    0.000 
#
# Total GULP energy -792910.957559 kJ/mol
# GULP energy per Si atom -12389.233712 kJ/mol
# Density = 1.692333 g / cm^3
# Si number density = 16.961934 Si / 1000 Ang^3
#
#
#
# Elastic Constant Matrix: (Units=GPa)
#
#
# Indices 1 2 3 4 5 6 
#
# 1 67.6270 6.7988 11.6976 0.0000 0.0000 0.0000
# 2 6.7988 133.4706 32.7630 0.0000 0.0000 0.0000
# 3 11.6976 32.7630 63.2078 0.0000 0.0000 0.0000
# 4 0.0000 0.0000 0.0000 29.2718 0.0000 0.0000
# 5 0.0000 0.0000 0.0000 0.0000 -0.4497 0.0000
# 6 0.0000 0.0000 0.0000 0.0000 0.0000 16.1924
#
#
#
# Elastic Compliance Matrix: (Units=1/GPa)
#
#
# Indices 1 2 3 4 5 6 
#
# 1 0.015277 -0.000096 -0.002777 0.000000 0.000000 0.000000
# 2 -0.000096 0.008585 -0.004432 0.000000 0.000000 0.000000
# 3 -0.002777 -0.004432 0.018632 0.000000 0.000000 0.000000
# 4 0.000000 0.000000 0.000000 0.034163 0.000000 0.000000
# 5 0.000000 0.000000 0.000000 0.000000 -2.223579 0.000000
# 6 0.000000 0.000000 0.000000 0.000000 0.000000 0.061757
#
#
# Mechanical properties :
#
#
# Convention : Reuss Voigt Hill
#
# Bulk Modulus (GPa) = 35.86461 40.75824 38.31142
# Shear Modulus (GPa) = -2.42570 23.20597 10.39013
#
# Velocity S-wave (km/s) = -1.19716 3.70282 2.47767
# Velocity P-wave (km/s) = 4.39080 6.50866 5.55166
#
# Compressibility (1/GPa) = 0.02788264
#
# Stress axis : x y z
#
# Youngs Moduli (GPa) = 65.45750 116.48006 53.67064
#
# Poissons Ratio (x) = 0.01124 0.14906
# Poissons Ratio (y) = 0.00631 0.23788
# Poissons Ratio (z) = 0.18179 0.51626
#
# Static dielectric constant tensor:
#      x y z
#    x 3.525020 0.000000 0.000000 
#    y 0.000000 3.528180 0.000000 
#    z 0.000000 0.000000 3.063220 
# 
# 
# High freq. dielectric constant tensor:
#      x y z
#    x 1.641280 0.000000 0.000000 
#    y 0.000000 1.686330 0.000000 
#    z 0.000000 0.000000 1.615830 
# 
# From -- ./inp_files/29914.got.cif
#   From: 2010.03.12/outbox.cif.g09.slc.cpg/sg57_15_cif.got.tgz:29914.got - 2010.04.16 15:48:40.
