data_PCOD8230637
_publ_section_title
;
Structure prediction by ZEFSAII (Michael W. Deem and Ramdas Pophale) SiO2 
 PCOD8230637
Probable space group: P B C M
;
_chemical_formula_sum "Si O2"
_cell_formula_units_Z 56
_cell_length_a 14.617832
_cell_length_b 26.550482
_cell_length_c 8.977953
_cell_angle_alpha 90.000000
_cell_angle_beta 90.000000
_cell_angle_gamma 90.000000
_cell_volume 3484.437697
_symmetry_space_group_name_H-M "P B C M"
_symmetry_group_IT_number 57
_symmetry_cell_setting 'orthorhombic'
loop_
_space_group_symop_operation_xyz
x,y,z
-x,-y,1/2+z
x,1/2-y,-z
-x,1/2+y,1/2-z
-x,-y,-z
x,y,1/2-z
-x,1/2+y,z
x,1/2-y,1/2+z
loop_
_atom_site_type_symbol
_atom_site_label
_atom_site_fract_x
_atom_site_fract_y
_atom_site_fract_z
Si Si1 0.931811 0.066985 0.927091
Si Si2 0.700729 0.939092 0.423589
Si Si3 0.521033 0.889333 0.075553
Si Si4 0.622388 0.466740 0.417867
Si Si5 0.112959 0.046530 0.425116
Si Si6 0.389959 0.803982 0.428140
Si Si7 0.238183 0.623410 0.916080
O O1 0.942671 0.070246 0.750000
O O2 0.859922 0.108989 0.990159
O O3 0.894291 0.011809 0.972717
O O4 0.029034 0.077512 0.003597
O O5 0.725101 0.941265 0.250000
O O6 0.629262 0.893409 0.459401
O O7 0.792927 0.929821 0.515068
O O8 0.649439 0.989886 0.468564
O O9 0.500375 0.890909 0.250000
O O10 0.467272 0.938743 0.014205
O O11 0.477353 0.837114 0.016054
O O12 0.607562 0.488385 0.250000
O O13 0.704454 0.427397 0.412664
O O14 0.110208 0.053818 0.250000
O O15 0.399319 0.750000 0.500000
O O16 0.387833 0.799514 0.250000
O O17 0.297089 0.831327 0.490446
O O18 0.216367 0.641463 0.750000
#
# Coordination Sequence:
#
# PCOD8230637 Si02
#       7
#     8   8   8   8   8   8   8
#     4   9  16  29  45  62  84 117 156 184 213 258
#     4  11  19  27  40  63  90 121 156 186 213 256
#     4   8  17  30  45  62  87 121 151 178 221 273
#     4   9  15  28  44  60  85 120 153 182 216 257
#     4  10  19  29  42  61  88 122 154 185 220 253
#     4   9  17  32  51  69  90 115 145 183 225 272
#     4   8  14  27  47  65  86 119 150 175 218 275
#
# _framework density 16.071459999999998
#
# number of rings (size 3 to 8) (size 9 to 14) (size 15 to 20)
#    0.000    2.857    1.429    3.000    0.000    0.571 
#    0.000    5.714    0.000    0.000    0.000    1.000 
#    0.000    0.000    0.000    0.000    0.000    0.000 
#
# Total GULP energy -693830.223298 kJ/mol
# GULP energy per Si atom -12389.825416 kJ/mol
# Density = 1.603488 g / cm^3
# Si number density = 16.071460 Si / 1000 Ang^3
#
#
#
# Elastic Constant Matrix: (Units=GPa)
#
#
# Indices 1 2 3 4 5 6 
#
# 1 141.8792 49.7033 33.2766 0.0000 0.0000 0.0000
# 2 49.7033 67.0480 17.7405 0.0000 0.0000 0.0000
# 3 33.2766 17.7405 32.7581 0.0000 0.0000 0.0000
# 4 0.0000 0.0000 0.0000 18.4560 0.0000 0.0000
# 5 0.0000 0.0000 0.0000 0.0000 22.7529 0.0000
# 6 0.0000 0.0000 0.0000 0.0000 0.0000 12.9413
#
#
#
# Elastic Compliance Matrix: (Units=1/GPa)
#
#
# Indices 1 2 3 4 5 6 
#
# 1 0.011037 -0.006088 -0.007915 0.000000 0.000000 0.000000
# 2 -0.006088 0.020767 -0.005063 0.000000 0.000000 0.000000
# 3 -0.007915 -0.005063 0.041309 0.000000 0.000000 0.000000
# 4 0.000000 0.000000 0.000000 0.054183 0.000000 0.000000
# 5 0.000000 0.000000 0.000000 0.000000 0.043950 0.000000
# 6 0.000000 0.000000 0.000000 0.000000 0.000000 0.077272
#
#
# Mechanical properties :
#
#
# Convention : Reuss Voigt Hill
#
# Bulk Modulus (GPa) = 28.58576 49.23625 38.91100
# Shear Modulus (GPa) = 16.76106 20.22769 18.49437
#
# Velocity S-wave (km/s) = 3.23291 3.55154 3.39596
# Velocity P-wave (km/s) = 5.63568 6.89349 6.29608
#
# Compressibility (1/GPa) = 0.03498245
#
# Stress axis : x y z
#
# Youngs Moduli (GPa) = 90.60119 48.15294 24.20789
#
# Poissons Ratio (x) = 0.29315 0.19161
# Poissons Ratio (y) = 0.55156 0.12255
# Poissons Ratio (z) = 0.71712 0.24377
#
# Static dielectric constant tensor:
#      x y z
#    x 3.323760 0.000000 0.000000 
#    y 0.000000 2.807060 0.000000 
#    z 0.000000 0.000000 2.837660 
# 
# 
# High freq. dielectric constant tensor:
#      x y z
#    x 1.628980 0.000000 0.000000 
#    y 0.000000 1.570090 0.000000 
#    z 0.000000 0.000000 1.596070 
# 
# From -- ./inp_files/5922.got.cif
#   From: 2010.03.12/outbox.cif.g09.slc.cpg/sg57_3_cif.got.tgz:5922.got - 2010.04.16 15:48:40.
