data_PCOD8230115
_publ_section_title
;
Structure prediction by ZEFSAII (Michael W. Deem and Ramdas Pophale) SiO2 
 PCOD8230115
Probable space group: P B C M
;
_chemical_formula_sum "Si O2"
_cell_formula_units_Z 64
_cell_length_a 29.113434
_cell_length_b 14.044399
_cell_length_c 8.973368
_cell_angle_alpha 90.000000
_cell_angle_beta 90.000000
_cell_angle_gamma 90.000000
_cell_volume 3669.036840
_symmetry_space_group_name_H-M "P B C M"
_symmetry_group_IT_number 57
_symmetry_cell_setting 'orthorhombic'
loop_
_space_group_symop_operation_xyz
x,y,z
-x,-y,1/2+z
x,1/2-y,-z
-x,1/2+y,1/2-z
-x,-y,-z
x,y,1/2-z
-x,1/2+y,z
x,1/2-y,1/2+z
loop_
_atom_site_type_symbol
_atom_site_label
_atom_site_fract_x
_atom_site_fract_y
_atom_site_fract_z
Si Si1 0.848507 0.652531 0.923449
Si Si2 0.572939 0.853441 0.427652
Si Si3 0.983065 0.349524 0.575047
Si Si4 0.661024 0.966489 0.072988
Si Si5 0.485199 0.648208 0.076380
Si Si6 0.616198 0.151003 0.078310
Si Si7 0.745901 0.651075 0.926309
Si Si8 0.063421 0.457863 0.423240
O O1 0.848443 0.674867 0.750000
O O2 0.797459 0.621076 0.975872
O O3 0.883819 0.567440 0.962225
O O4 0.864462 0.750000 0.000000
O O5 0.572618 0.750000 0.500000
O O6 0.570597 0.849481 0.250000
O O7 0.619048 0.902927 0.487171
O O8 0.526688 0.907123 0.490205
O O9 0.968357 0.250000 0.500000
O O10 0.986633 0.331794 0.750000
O O11 0.945499 0.431424 0.535421
O O12 0.032052 0.385857 0.516828
O O13 0.659654 0.963846 0.250000
O O14 0.710040 0.928046 0.014239
O O15 0.653348 0.074638 0.017258
O O16 0.498108 0.658172 0.250000
O O17 0.434423 0.602541 0.056080
O O18 0.479866 0.750000 0.000000
O O19 0.624219 0.172630 0.250000
O O20 0.624677 0.250000 0.000000
O O21 0.742216 0.663243 0.750000
O O22 0.731680 0.750000 0.000000
O O23 0.052116 0.440366 0.250000
#
# Coordination Sequence:
#
# PCOD8230115 Si02
#       8
#     8   8   8   8   8   8   8   8
#     4   9  17  29  47  70  93 119 151 186 224 265
#     4  10  18  28  43  63  89 117 141 168 205 253
#     4  10  19  30  45  66  95 129 162 196 233 274
#     4   9  18  31  47  66  88 115 143 173 215 264
#     4   9  16  27  43  61  83 110 140 174 210 250
#     4   9  18  33  49  64  83 109 143 180 216 254
#     4   9  17  31  50  70  93 119 145 177 220 268
#     4   9  18  31  46  67  94 124 161 199 232 271
#
# _framework density 17.443269999999998
#
# number of rings (size 3 to 8) (size 9 to 14) (size 15 to 20)
#    0.000    2.750    0.000    2.625    0.000    3.000 
#    0.000    2.500    0.000    0.750    0.000    0.000 
#    0.000    0.000    0.000    0.000    0.000    0.000 
#
# Total GULP energy -793104.974215 kJ/mol
# GULP energy per Si atom -12392.265222 kJ/mol
# Density = 1.740357 g / cm^3
# Si number density = 17.443270 Si / 1000 Ang^3
#
#
#
# Elastic Constant Matrix: (Units=GPa)
#
#
# Indices 1 2 3 4 5 6 
#
# 1 129.9156 77.1130 35.0379 0.0000 0.0000 0.0000
# 2 77.1130 107.3925 35.1984 0.0000 0.0000 0.0000
# 3 35.0379 35.1984 54.8305 0.0000 0.0000 0.0000
# 4 0.0000 0.0000 0.0000 21.8612 0.0000 0.0000
# 5 0.0000 0.0000 0.0000 0.0000 17.4666 0.0000
# 6 0.0000 0.0000 0.0000 0.0000 0.0000 28.1882
#
#
#
# Elastic Compliance Matrix: (Units=1/GPa)
#
#
# Indices 1 2 3 4 5 6 
#
# 1 0.013823 -0.008904 -0.003117 0.000000 0.000000 0.000000
# 2 -0.008904 0.017528 -0.005562 0.000000 0.000000 0.000000
# 3 -0.003117 -0.005562 0.023801 0.000000 0.000000 0.000000
# 4 0.000000 0.000000 0.000000 0.045743 0.000000 0.000000
# 5 0.000000 0.000000 0.000000 0.000000 0.057252 0.000000
# 6 0.000000 0.000000 0.000000 0.000000 0.000000 0.035476
#
#
# Mechanical properties :
#
#
# Convention : Reuss Voigt Hill
#
# Bulk Modulus (GPa) = 50.03821 65.20415 57.62118
# Shear Modulus (GPa) = 21.23573 23.15582 22.19577
#
# Velocity S-wave (km/s) = 3.49294 3.64743 3.57102
# Velocity P-wave (km/s) = 6.70940 7.42968 7.07871
#
# Compressibility (1/GPa) = 0.01998473
#
# Stress axis : x y z
#
# Youngs Moduli (GPa) = 72.34276 57.05098 42.01521
#
# Poissons Ratio (x) = 0.50798 0.13098
# Poissons Ratio (y) = 0.64413 0.23371
# Poissons Ratio (z) = 0.22552 0.31734
#
# Static dielectric constant tensor:
#      x y z
#    x 3.618040 0.000000 0.000000 
#    y 0.000000 3.215200 0.000000 
#    z 0.000000 0.000000 3.178550 
# 
# 
# High freq. dielectric constant tensor:
#      x y z
#    x 1.666600 0.000000 0.000000 
#    y 0.000000 1.661580 0.000000 
#    z 0.000000 0.000000 1.666130 
# 
# From -- ./inp_files/10350.got.cif
#   From: 2010.03.12/outbox.cif.g09.slc.cpg/sg57_6_cif.got.tgz:10350.got - 2010.04.16 15:48:40.
