data_PCOD8230215
_publ_section_title
;
Structure prediction by ZEFSAII (Michael W. Deem and Ramdas Pophale) SiO2 
 PCOD8230215
Probable space group: P B C M
;
_chemical_formula_sum "Si O2"
_cell_formula_units_Z 40
_cell_length_a 12.819980
_cell_length_b 20.062931
_cell_length_c 8.730190
_cell_angle_alpha 90.000000
_cell_angle_beta 90.000000
_cell_angle_gamma 90.000000
_cell_volume 2245.460516
_symmetry_space_group_name_H-M "P B C M"
_symmetry_group_IT_number 57
_symmetry_cell_setting 'orthorhombic'
loop_
_space_group_symop_operation_xyz
x,y,z
-x,-y,1/2+z
x,1/2-y,-z
-x,1/2+y,1/2-z
-x,-y,-z
x,y,1/2-z
-x,1/2+y,z
x,1/2-y,1/2+z
loop_
_atom_site_type_symbol
_atom_site_label
_atom_site_fract_x
_atom_site_fract_y
_atom_site_fract_z
Si Si1 0.460203 0.568820 0.930474
Si Si2 0.976353 0.069570 0.072753
Si Si3 0.390993 0.177939 0.429556
Si Si4 0.198757 0.409012 0.571864
Si Si5 0.754277 0.049888 0.070174
O O1 0.472810 0.565148 0.750000
O O2 0.500000 0.500000 0.000000
O O3 0.525549 0.629725 0.994788
O O4 0.340076 0.581291 0.974976
O O5 0.966449 0.055895 0.250000
O O6 0.859585 0.092102 0.020888
O O7 0.078328 0.115416 0.036262
O O8 0.000000 0.000000 0.000000
O O9 0.405081 0.250000 0.500000
O O10 0.412506 0.180718 0.250000
O O11 0.274276 0.152295 0.467042
O O12 0.209771 0.430032 0.750000
O O13 0.231503 0.471954 0.469718
O O14 0.729358 0.055979 0.250000
#
# Coordination Sequence:
#
# PCOD8230215 Si02
#       5
#     8   8   8   8   8
#     4  12  23  36  55  79 109 143 185 231 278 329
#     4   8  15  27  45  73 104 135 169 211 259 311
#     4  11  23  38  56  79 109 145 183 225 276 331
#     4   9  17  31  51  74 105 140 176 218 267 318
#     4  10  18  29  50  79 109 139 176 221 272 319
#
# _framework density 17.813718999999999
#
# number of rings (size 3 to 8) (size 9 to 14) (size 15 to 20)
#    0.000    2.000    2.000    3.000    0.000    1.600 
#    0.000    0.000    0.000    1.200    0.000    2.800 
#    0.000    0.000    0.000    0.000    0.000    0.000 
#
# Total GULP energy -495556.735346 kJ/mol
# GULP energy per Si atom -12388.918384 kJ/mol
# Density = 1.777317 g / cm^3
# Si number density = 17.813719 Si / 1000 Ang^3
#
#
#
# Elastic Constant Matrix: (Units=GPa)
#
#
# Indices 1 2 3 4 5 6 
#
# 1 187.2954 68.4588 59.3836 0.0000 0.0000 0.0000
# 2 68.4588 92.2917 41.5104 0.0000 0.0000 0.0000
# 3 59.3836 41.5104 89.4429 0.0000 0.0000 0.0000
# 4 0.0000 0.0000 0.0000 22.9032 0.0000 0.0000
# 5 0.0000 0.0000 0.0000 0.0000 25.8347 0.0000
# 6 0.0000 0.0000 0.0000 0.0000 0.0000 19.8093
#
#
#
# Elastic Compliance Matrix: (Units=1/GPa)
#
#
# Indices 1 2 3 4 5 6 
#
# 1 0.008002 -0.004482 -0.003233 0.000000 0.000000 0.000000
# 2 -0.004482 0.016204 -0.004545 0.000000 0.000000 0.000000
# 3 -0.003233 -0.004545 0.015436 0.000000 0.000000 0.000000
# 4 0.000000 0.000000 0.000000 0.043662 0.000000 0.000000
# 5 0.000000 0.000000 0.000000 0.000000 0.038708 0.000000
# 6 0.000000 0.000000 0.000000 0.000000 0.000000 0.050481
#
#
# Mechanical properties :
#
#
# Convention : Reuss Voigt Hill
#
# Bulk Modulus (GPa) = 66.12308 78.63729 72.38019
# Shear Modulus (GPa) = 24.74604 27.02126 25.88365
#
# Velocity S-wave (km/s) = 3.73118 3.89894 3.81598
# Velocity P-wave (km/s) = 7.46740 8.03175 7.75471
#
# Compressibility (1/GPa) = 0.01512331
#
# Stress axis : x y z
#
# Youngs Moduli (GPa) = 124.96341 61.71454 64.78392
#
# Poissons Ratio (x) = 0.27659 0.20945
# Poissons Ratio (y) = 0.56005 0.29441
# Poissons Ratio (z) = 0.40401 0.28047
#
# Static dielectric constant tensor:
#      x y z
#    x 4.569390 0.000000 0.000000 
#    y 0.000000 2.998060 0.000000 
#    z 0.000000 0.000000 3.416110 
# 
# 
# High freq. dielectric constant tensor:
#      x y z
#    x 1.723200 0.000000 0.000000 
#    y 0.000000 1.626670 0.000000 
#    z 0.000000 0.000000 1.700590 
# 
# From -- ./inp_files/2906.got.cif
#   From: 2010.03.12/outbox.cif.g09.slc.cpg/sg57_2_cif.got.tgz:2906.got - 2010.04.16 15:48:40.
