data_PCOD8230093
_publ_section_title
;
Structure prediction by ZEFSAII (Michael W. Deem and Ramdas Pophale) SiO2 
 PCOD8230093
Probable space group: P B C M
;
_chemical_formula_sum "Si O2"
_cell_formula_units_Z 48
_cell_length_a 10.349956
_cell_length_b 29.588315
_cell_length_c 9.275448
_cell_angle_alpha 90.000000
_cell_angle_beta 90.000000
_cell_angle_gamma 90.000000
_cell_volume 2840.492403
_symmetry_space_group_name_H-M "P B C M"
_symmetry_group_IT_number 57
_symmetry_cell_setting 'orthorhombic'
loop_
_space_group_symop_operation_xyz
x,y,z
-x,-y,1/2+z
x,1/2-y,-z
-x,1/2+y,1/2-z
-x,-y,-z
x,y,1/2-z
-x,1/2+y,z
x,1/2-y,1/2+z
loop_
_atom_site_type_symbol
_atom_site_label
_atom_site_fract_x
_atom_site_fract_y
_atom_site_fract_z
Si Si1 0.499307 0.119541 0.583190
Si Si2 0.517897 0.292713 0.586717
Si Si3 0.611713 0.475175 0.084852
Si Si4 0.123344 0.017092 0.083165
Si Si5 0.210024 0.209003 0.091462
Si Si6 0.760688 0.611288 0.081588
O O1 0.475386 0.132971 0.750000
O O2 0.559032 0.161929 0.497462
O O3 0.601296 0.078835 0.569755
O O4 0.365428 0.102647 0.514192
O O5 0.576250 0.250000 0.500000
O O6 0.573009 0.293515 0.750000
O O7 0.364204 0.289100 0.589733
O O8 0.598528 0.490937 0.250000
O O9 0.750754 0.490626 0.024573
O O10 0.500000 0.500000 0.000000
O O11 0.101578 0.006391 0.250000
O O12 0.139644 0.070713 0.055712
O O13 0.000000 0.000000 0.000000
O O14 0.154072 0.216665 0.250000
O O15 0.170997 0.158794 0.035150
O O16 0.149605 0.250000 0.000000
O O17 0.718106 0.614416 0.250000
#
# Coordination Sequence:
#
# PCOD8230093 Si02
#       6
#     8   8   8   8   8   8
#     4  10  18  27  44  71  96 123 161 203 246 294
#     4   9  16  26  40  61  93 129 159 194 241 292
#     4  10  20  33  51  73  98 128 166 208 248 294
#     4  10  21  36  51  70  98 131 167 208 252 299
#     4   8  14  23  37  59  86 118 150 184 229 278
#     4   9  17  30  46  64  93 129 160 196 244 291
#
# _framework density 16.898478999999998
#
# number of rings (size 3 to 8) (size 9 to 14) (size 15 to 20)
#    0.000    2.667    1.667    2.000    0.000    6.000 
#    0.000    0.000    0.000    0.000    0.000    1.167 
#    0.000    5.333    0.000    0.000    0.000    0.000 
#
# Total GULP energy -595006.345380 kJ/mol
# GULP energy per Si atom -12395.965529 kJ/mol
# Density = 1.686002 g / cm^3
# Si number density = 16.898479 Si / 1000 Ang^3
#
#
#
# Elastic Constant Matrix: (Units=GPa)
#
#
# Indices 1 2 3 4 5 6 
#
# 1 73.5014 49.8119 39.2604 0.0000 0.0000 0.0000
# 2 49.8119 143.5216 61.1480 0.0000 0.0000 0.0000
# 3 39.2604 61.1480 92.2360 0.0000 0.0000 0.0000
# 4 0.0000 0.0000 0.0000 32.4600 0.0000 0.0000
# 5 0.0000 0.0000 0.0000 0.0000 18.8634 0.0000
# 6 0.0000 0.0000 0.0000 0.0000 0.0000 12.8235
#
#
#
# Elastic Compliance Matrix: (Units=1/GPa)
#
#
# Indices 1 2 3 4 5 6 
#
# 1 0.019494 -0.004502 -0.005313 0.000000 0.000000 0.000000
# 2 -0.004502 0.010750 -0.005210 0.000000 0.000000 0.000000
# 3 -0.005313 -0.005210 0.016557 0.000000 0.000000 0.000000
# 4 0.000000 0.000000 0.000000 0.030807 0.000000 0.000000
# 5 0.000000 0.000000 0.000000 0.000000 0.053013 0.000000
# 6 0.000000 0.000000 0.000000 0.000000 0.000000 0.077982
#
#
# Mechanical properties :
#
#
# Convention : Reuss Voigt Hill
#
# Bulk Modulus (GPa) = 59.69946 67.74437 63.72192
# Shear Modulus (GPa) = 20.47181 23.43198 21.95189
#
# Velocity S-wave (km/s) = 3.48438 3.72779 3.60814
# Velocity P-wave (km/s) = 7.18282 7.66189 7.42622
#
# Compressibility (1/GPa) = 0.01675057
#
# Stress axis : x y z
#
# Youngs Moduli (GPa) = 51.29716 93.02253 60.39564
#
# Poissons Ratio (x) = 0.41881 0.32088
# Poissons Ratio (y) = 0.23095 0.31469
# Poissons Ratio (z) = 0.27254 0.48469
#
# Static dielectric constant tensor:
#      x y z
#    x 2.620390 0.000000 0.000000 
#    y 0.000000 3.630080 0.000000 
#    z 0.000000 0.000000 3.304170 
# 
# 
# High freq. dielectric constant tensor:
#      x y z
#    x 1.578580 0.000000 0.000000 
#    y 0.000000 1.675110 0.000000 
#    z 0.000000 0.000000 1.658010 
# 
# From -- ./inp_files/3531.got.cif
#   From: 2010.03.12/outbox.cif.g09.slc.cpg/sg57_2_cif.got.tgz:3531.got - 2010.04.16 15:48:40.
