data_PCOD8230289
_publ_section_title
;
Structure prediction by ZEFSAII (Michael W. Deem and Ramdas Pophale) SiO2 
 PCOD8230289
Probable space group: P B C M
;
_chemical_formula_sum "Si O2"
_cell_formula_units_Z 48
_cell_length_a 18.423770
_cell_length_b 16.579138
_cell_length_c 8.918415
_cell_angle_alpha 90.000000
_cell_angle_beta 90.000000
_cell_angle_gamma 90.000000
_cell_volume 2724.131871
_symmetry_space_group_name_H-M "P B C M"
_symmetry_group_IT_number 57
_symmetry_cell_setting 'orthorhombic'
loop_
_space_group_symop_operation_xyz
x,y,z
-x,-y,1/2+z
x,1/2-y,-z
-x,1/2+y,1/2-z
-x,-y,-z
x,y,1/2-z
-x,1/2+y,z
x,1/2-y,1/2+z
loop_
_atom_site_type_symbol
_atom_site_label
_atom_site_fract_x
_atom_site_fract_y
_atom_site_fract_z
Si Si1 0.784308 0.437821 0.920909
Si Si2 0.828982 0.667737 0.928298
Si Si3 0.341136 0.668327 0.080021
Si Si4 0.421771 0.505874 0.428299
Si Si5 0.294668 0.422459 0.573600
Si Si6 0.074557 0.016612 0.920247
O O1 0.766374 0.469528 0.750000
O O2 0.745541 0.350950 0.942145
O O3 0.871573 0.438860 0.941976
O O4 0.750835 0.496793 0.043697
O O5 0.823079 0.674622 0.750000
O O6 0.884490 0.596910 0.978157
O O7 0.859381 0.750000 0.000000
O O8 0.749033 0.651241 0.997341
O O9 0.360521 0.684783 0.250000
O O10 0.387420 0.591880 0.022729
O O11 0.363729 0.750000 0.000000
O O12 0.500000 0.500000 0.500000
O O13 0.425383 0.496440 0.250000
O O14 0.373555 0.433158 0.496997
O O15 0.303477 0.406810 0.750000
O O16 0.053222 0.029412 0.750000
O O17 0.000000 0.000000 0.000000
#
# Coordination Sequence:
#
# PCOD8230289 Si02
#       6
#     8   8   8   8   8   8
#     4   8  16  32  49  68  96 130 165 205 246 289
#     4  10  20  35  53  75 102 133 169 214 260 304
#     4   9  18  32  51  73  99 128 162 205 252 295
#     4  10  20  35  53  75 103 135 170 209 251 301
#     4  10  18  30  51  76  98 127 165 203 246 301
#     4   9  18  32  51  73 101 133 167 206 251 300
#
# _framework density 17.620294000000001
#
# number of rings (size 3 to 8) (size 9 to 14) (size 15 to 20)
#    0.000    2.667    0.000    4.500    0.000    6.667 
#    0.000    1.667    0.000    6.000    0.000    0.000 
#    0.000    0.000    0.000    0.000    0.000    0.000 
#
# Total GULP energy -594753.292680 kJ/mol
# GULP energy per Si atom -12390.693597 kJ/mol
# Density = 1.758019 g / cm^3
# Si number density = 17.620294 Si / 1000 Ang^3
#
#
#
# Elastic Constant Matrix: (Units=GPa)
#
#
# Indices 1 2 3 4 5 6 
#
# 1 141.7858 45.5494 51.0507 0.0000 0.0000 0.0000
# 2 45.5494 81.7995 36.2649 0.0000 0.0000 0.0000
# 3 51.0507 36.2649 85.5057 0.0000 0.0000 0.0000
# 4 0.0000 0.0000 0.0000 28.6141 0.0000 0.0000
# 5 0.0000 0.0000 0.0000 0.0000 33.6538 0.0000
# 6 0.0000 0.0000 0.0000 0.0000 0.0000 17.6549
#
#
#
# Elastic Compliance Matrix: (Units=1/GPa)
#
#
# Indices 1 2 3 4 5 6 
#
# 1 0.009736 -0.003503 -0.004327 0.000000 0.000000 0.000000
# 2 -0.003503 0.016316 -0.004829 0.000000 0.000000 0.000000
# 3 -0.004327 -0.004829 0.016327 0.000000 0.000000 0.000000
# 4 0.000000 0.000000 0.000000 0.034948 0.000000 0.000000
# 5 0.000000 0.000000 0.000000 0.000000 0.029714 0.000000
# 6 0.000000 0.000000 0.000000 0.000000 0.000000 0.056642
#
#
# Mechanical properties :
#
#
# Convention : Reuss Voigt Hill
#
# Bulk Modulus (GPa) = 58.61214 63.86899 61.24056
# Shear Modulus (GPa) = 25.68207 27.73296 26.70751
#
# Velocity S-wave (km/s) = 3.82190 3.97157 3.89745
# Velocity P-wave (km/s) = 7.26719 7.57346 7.42191
#
# Compressibility (1/GPa) = 0.01706131
#
# Stress axis : x y z
#
# Youngs Moduli (GPa) = 102.70791 61.28785 61.24967
#
# Poissons Ratio (x) = 0.21470 0.26504
# Poissons Ratio (y) = 0.35980 0.29575
# Poissons Ratio (z) = 0.44444 0.29594
#
# Static dielectric constant tensor:
#      x y z
#    x 3.353510 0.000000 0.000000 
#    y 0.000000 3.206390 0.000000 
#    z 0.000000 0.000000 3.237120 
# 
# 
# High freq. dielectric constant tensor:
#      x y z
#    x 1.676190 0.000000 0.000000 
#    y 0.000000 1.654950 0.000000 
#    z 0.000000 0.000000 1.685770 
# 
# From -- ./inp_files/6580.got.cif
#   From: 2010.03.12/outbox.cif.g09.slc.cpg/sg57_4_cif.got.tgz:6580.got - 2010.04.16 15:48:40.
