data_PCOD8230049
_publ_section_title
;
Structure prediction by ZEFSAII (Michael W. Deem and Ramdas Pophale) SiO2 
 PCOD8230049
Probable space group: P B C M
;
_chemical_formula_sum "Si O2"
_cell_formula_units_Z 64
_cell_length_a 18.230875
_cell_length_b 25.066679
_cell_length_c 9.365544
_cell_angle_alpha 90.000000
_cell_angle_beta 90.000000
_cell_angle_gamma 90.000000
_cell_volume 4279.936459
_symmetry_space_group_name_H-M "P B C M"
_symmetry_group_IT_number 57
_symmetry_cell_setting 'orthorhombic'
loop_
_space_group_symop_operation_xyz
x,y,z
-x,-y,1/2+z
x,1/2-y,-z
-x,1/2+y,1/2-z
-x,-y,-z
x,y,1/2-z
-x,1/2+y,z
x,1/2-y,1/2+z
loop_
_atom_site_type_symbol
_atom_site_label
_atom_site_fract_x
_atom_site_fract_y
_atom_site_fract_z
Si Si1 0.596703 0.545046 0.588584
Si Si2 0.777679 0.200219 0.414223
Si Si3 0.725422 0.993935 0.582652
Si Si4 0.107650 0.497417 0.585473
Si Si5 0.020736 0.580930 0.417111
Si Si6 0.052169 0.801486 0.584479
Si Si7 0.312889 0.901659 0.916260
Si Si8 0.468618 0.573174 0.407986
O O1 0.611654 0.564109 0.750000
O O2 0.672410 0.548010 0.498899
O O3 0.534680 0.583162 0.518724
O O4 0.565737 0.485644 0.582218
O O5 0.745870 0.250000 0.500000
O O6 0.764631 0.212633 0.250000
O O7 0.862458 0.190613 0.449664
O O8 0.732894 0.149112 0.464090
O O9 0.705733 0.993494 0.750000
O O10 0.809786 0.978017 0.554385
O O11 0.713915 0.052419 0.520638
O O12 0.097387 0.513390 0.750000
O O13 0.087002 0.549978 0.495232
O O14 0.055833 0.447586 0.544251
O O15 0.039534 0.578806 0.250000
O O16 0.014507 0.642918 0.465734
O O17 0.020520 0.750000 0.500000
O O18 0.037091 0.790298 0.750000
O O19 0.299209 0.917789 0.750000
O O20 0.399451 0.888299 0.940020
O O21 0.500841 0.582961 0.250000
#
# Coordination Sequence:
#
# PCOD8230049 Si02
#       8
#     8   8   8   8   8   8   8   8
#     4   9  16  25  37  53  75 102 129 156 186 223
#     4   9  17  28  40  56  77 101 130 162 195 228
#     4  10  18  26  38  57  80 104 131 163 197 233
#     4   9  18  29  41  60  83 107 136 169 203 241
#     4   9  17  30  45  59  79 108 138 167 203 245
#     4   9  17  28  43  60  79 105 135 168 202 237
#     4   9  17  28  41  56  76 104 136 164 191 231
#     4   8  14  24  37  53  73  98 127 158 188 217
#
# _framework density 14.953493999999999
#
# number of rings (size 3 to 8) (size 9 to 14) (size 15 to 20)
#    0.000    3.000    0.000    2.250    0.000    6.000 
#    0.000    2.500    0.000    0.000    0.000    0.000 
#    0.000    1.000    0.000    3.750    0.000    3.125 
#
# Total GULP energy -793314.767509 kJ/mol
# GULP energy per Si atom -12395.543242 kJ/mol
# Density = 1.491946 g / cm^3
# Si number density = 14.953494 Si / 1000 Ang^3
#
#
#
# Elastic Constant Matrix: (Units=GPa)
#
#
# Indices 1 2 3 4 5 6 
#
# 1 76.0049 27.4496 41.4868 0.0000 0.0000 0.0000
# 2 27.4496 69.1492 30.0566 0.0000 0.0000 0.0000
# 3 41.4868 30.0566 71.5983 0.0000 0.0000 0.0000
# 4 0.0000 0.0000 0.0000 20.1915 0.0000 0.0000
# 5 0.0000 0.0000 0.0000 0.0000 22.4196 0.0000
# 6 0.0000 0.0000 0.0000 0.0000 0.0000 17.6372
#
#
#
# Elastic Compliance Matrix: (Units=1/GPa)
#
#
# Indices 1 2 3 4 5 6 
#
# 1 0.019926 -0.003537 -0.010061 0.000000 0.000000 0.000000
# 2 -0.003537 0.018317 -0.005640 0.000000 0.000000 0.000000
# 3 -0.010061 -0.005640 0.022164 0.000000 0.000000 0.000000
# 4 0.000000 0.000000 0.000000 0.049526 0.000000 0.000000
# 5 0.000000 0.000000 0.000000 0.000000 0.044604 0.000000
# 6 0.000000 0.000000 0.000000 0.000000 0.000000 0.056698
#
#
# Mechanical properties :
#
#
# Convention : Reuss Voigt Hill
#
# Bulk Modulus (GPa) = 45.59671 46.08206 45.83938
# Shear Modulus (GPa) = 19.45356 19.90028 19.67692
#
# Velocity S-wave (km/s) = 3.61076 3.65199 3.63143
# Velocity P-wave (km/s) = 6.92402 6.97614 6.95013
#
# Compressibility (1/GPa) = 0.02193141
#
# Stress axis : x y z
#
# Youngs Moduli (GPa) = 50.18499 54.59427 45.11726
#
# Poissons Ratio (x) = 0.19308 0.45394
# Poissons Ratio (y) = 0.17749 0.25447
# Poissons Ratio (z) = 0.50493 0.30792
#
# Static dielectric constant tensor:
#      x y z
#    x 3.022920 0.000000 0.000000 
#    y 0.000000 2.713290 0.000000 
#    z 0.000000 0.000000 2.984730 
# 
# 
# High freq. dielectric constant tensor:
#      x y z
#    x 1.566190 0.000000 0.000000 
#    y 0.000000 1.528380 0.000000 
#    z 0.000000 0.000000 1.579910 
# 
# From -- ./inp_files/7470.got.cif
#   From: 2010.03.12/outbox.cif.g09.slc.cpg/sg57_4_cif.got.tgz:7470.got - 2010.04.16 15:48:40.
