data_PCOD8230785
_publ_section_title
;
Structure prediction by ZEFSAII (Michael W. Deem and Ramdas Pophale) SiO2 
 PCOD8230785
Probable space group: P B C M
;
_chemical_formula_sum "Si O2"
_cell_formula_units_Z 64
_cell_length_a 18.903663
_cell_length_b 21.137306
_cell_length_c 9.256515
_cell_angle_alpha 90.000000
_cell_angle_beta 90.000000
_cell_angle_gamma 90.000000
_cell_volume 3698.648926
_symmetry_space_group_name_H-M "P B C M"
_symmetry_group_IT_number 57
_symmetry_cell_setting 'orthorhombic'
loop_
_space_group_symop_operation_xyz
x,y,z
-x,-y,1/2+z
x,1/2-y,-z
-x,1/2+y,1/2-z
-x,-y,-z
x,y,1/2-z
-x,1/2+y,z
x,1/2-y,1/2+z
loop_
_atom_site_type_symbol
_atom_site_label
_atom_site_fract_x
_atom_site_fract_y
_atom_site_fract_z
Si Si1 0.043447 0.553936 0.416865
Si Si2 0.803420 0.005917 0.417786
Si Si3 0.463999 0.942848 0.583798
Si Si4 0.973985 0.685207 0.421583
Si Si5 0.158204 0.135359 0.586027
Si Si6 0.390641 0.101521 0.095015
Si Si7 0.308157 0.191196 0.590479
Si Si8 0.334785 0.960866 0.087923
O O1 0.024680 0.543230 0.250000
O O2 0.126693 0.547291 0.445997
O O3 0.000000 0.500000 0.500000
O O4 0.023879 0.625687 0.463577
O O5 0.780828 0.006078 0.250000
O O6 0.819709 0.934272 0.468571
O O7 0.741534 0.037023 0.511707
O O8 0.446980 0.961782 0.750000
O O9 0.524492 0.888441 0.578735
O O10 0.391184 0.919505 0.505991
O O11 0.500000 0.000000 0.500000
O O12 0.000025 0.750000 0.500000
O O13 0.971982 0.697341 0.250000
O O14 0.896455 0.666655 0.476573
O O15 0.127480 0.131302 0.750000
O O16 0.224748 0.181421 0.581217
O O17 0.366825 0.130916 0.250000
O O18 0.370364 0.028644 0.095227
O O19 0.348778 0.129810 0.962402
O O20 0.334047 0.250000 0.500000
O O21 0.333904 0.204559 0.750000
O O22 0.325526 0.932804 0.250000
#
# Coordination Sequence:
#
# PCOD8230785 Si02
#       8
#     8   8   8   8   8   8   8   8
#     4  10  21  36  55  78 105 137 175 218 270 322
#     4  10  19  33  52  75 104 136 170 211 262 317
#     4   9  17  29  46  69  96 127 160 198 244 292
#     4  11  23  37  55  78 103 138 178 220 266 317
#     4  10  20  34  52  74 100 136 175 214 260 310
#     4   9  18  31  46  66  94 127 163 203 244 290
#     4  11  22  33  46  66  94 132 173 210 249 295
#     4  10  19  30  47  73 101 130 164 202 247 303
#
# _framework density 17.303616000000002
#
# number of rings (size 3 to 8) (size 9 to 14) (size 15 to 20)
#    0.000    2.000    2.500    2.625    0.000    6.000 
#    0.000    0.000    0.000    0.000    0.000    0.875 
#    0.000    2.000    0.000    0.000    0.000    0.000 
#
# Total GULP energy -793207.951097 kJ/mol
# GULP energy per Si atom -12393.874236 kJ/mol
# Density = 1.726423 g / cm^3
# Si number density = 17.303616 Si / 1000 Ang^3
#
#
#
# Elastic Constant Matrix: (Units=GPa)
#
#
# Indices 1 2 3 4 5 6 
#
# 1 89.4122 24.2527 50.2360 0.0000 0.0000 0.0000
# 2 24.2527 50.7438 32.5893 0.0000 0.0000 0.0000
# 3 50.2360 32.5893 113.9707 0.0000 0.0000 0.0000
# 4 0.0000 0.0000 0.0000 23.3817 0.0000 0.0000
# 5 0.0000 0.0000 0.0000 0.0000 24.1714 0.0000
# 6 0.0000 0.0000 0.0000 0.0000 0.0000 8.4801
#
#
#
# Elastic Compliance Matrix: (Units=1/GPa)
#
#
# Indices 1 2 3 4 5 6 
#
# 1 0.015406 -0.003677 -0.005739 0.000000 0.000000 0.000000
# 2 -0.003677 0.025018 -0.005533 0.000000 0.000000 0.000000
# 3 -0.005739 -0.005533 0.012886 0.000000 0.000000 0.000000
# 4 0.000000 0.000000 0.000000 0.042768 0.000000 0.000000
# 5 0.000000 0.000000 0.000000 0.000000 0.041371 0.000000
# 6 0.000000 0.000000 0.000000 0.000000 0.000000 0.117924
#
#
# Mechanical properties :
#
#
# Convention : Reuss Voigt Hill
#
# Bulk Modulus (GPa) = 42.71463 52.03142 47.37303
# Shear Modulus (GPa) = 17.06044 21.00988 19.03516
#
# Velocity S-wave (km/s) = 3.14338 3.48830 3.32033
# Velocity P-wave (km/s) = 6.15739 6.80877 6.49125
#
# Compressibility (1/GPa) = 0.02341118
#
# Stress axis : x y z
#
# Youngs Moduli (GPa) = 64.90892 39.97157 77.60365
#
# Poissons Ratio (x) = 0.14699 0.44538
# Poissons Ratio (y) = 0.23870 0.42936
# Poissons Ratio (z) = 0.37253 0.22115
#
# Static dielectric constant tensor:
#      x y z
#    x 3.415010 0.000000 0.000000 
#    y 0.000000 3.099640 0.000000 
#    z 0.000000 0.000000 3.812010 
# 
# 
# High freq. dielectric constant tensor:
#      x y z
#    x 1.666800 0.000000 0.000000 
#    y 0.000000 1.625900 0.000000 
#    z 0.000000 0.000000 1.683280 
# 
# From -- ./inp_files/7175.got.cif
#   From: 2010.03.12/outbox.cif.g09.slc.cpg/sg57_4_cif.got.tgz:7175.got - 2010.04.16 15:48:40.
