data_PCOD8230598
_publ_section_title
;
Structure prediction by ZEFSAII (Michael W. Deem and Ramdas Pophale) SiO2 
 PCOD8230598
Probable space group: P B C M
;
_chemical_formula_sum "Si O2"
_cell_formula_units_Z 64
_cell_length_a 11.959013
_cell_length_b 14.584980
_cell_length_c 17.551588
_cell_angle_alpha 90.000000
_cell_angle_beta 90.000000
_cell_angle_gamma 90.000000
_cell_volume 3061.382475
_symmetry_space_group_name_H-M "P B C M"
_symmetry_group_IT_number 57
_symmetry_cell_setting 'orthorhombic'
loop_
_space_group_symop_operation_xyz
x,y,z
-x,-y,1/2+z
x,1/2-y,-z
-x,1/2+y,1/2-z
-x,-y,-z
x,y,1/2-z
-x,1/2+y,z
x,1/2-y,1/2+z
loop_
_atom_site_type_symbol
_atom_site_label
_atom_site_fract_x
_atom_site_fract_y
_atom_site_fract_z
Si Si1 0.489005 0.519264 0.163185
Si Si2 0.067128 0.931017 0.163312
Si Si3 0.251640 0.597979 0.338648
Si Si4 0.100249 0.120839 0.425176
Si Si5 0.647529 0.846712 0.588344
Si Si6 0.882975 0.246453 0.412939
Si Si7 0.388350 0.145500 0.586017
Si Si8 0.845319 0.573906 0.902658
O O1 0.496386 0.490879 0.250000
O O2 0.383503 0.584847 0.145861
O O3 0.601624 0.573035 0.141864
O O4 0.481585 0.422448 0.119204
O O5 0.109937 0.938163 0.250000
O O6 0.126695 0.849291 0.118615
O O7 0.936345 0.904355 0.161805
O O8 0.083813 0.027547 0.121024
O O9 0.223468 0.577806 0.250000
O O10 0.212126 0.698522 0.361889
O O11 0.182341 0.533935 0.396869
O O12 0.219204 0.164706 0.401250
O O13 0.101983 0.099083 0.515246
O O14 0.004624 0.196012 0.405956
O O15 0.618402 0.875474 0.503017
O O16 0.584845 0.750839 0.606488
O O17 0.844544 0.250000 0.500000
O O18 0.266110 0.127333 0.621213
#
# Coordination Sequence:
#
# PCOD8230598 Si02
#       8
#     8   8   8   8   8   8   8   8
#     4  10  22  41  62  87 122 163 203 250 306 364
#     4  12  24  36  56  90 126 161 199 249 310 364
#     4  10  21  39  60  84 121 163 207 252 299 360
#     4  11  23  40  63  91 127 158 201 258 309 364
#     4  10  21  40  65  93 122 156 202 257 307 355
#     4  12  23  39  62  89 125 164 209 248 305 370
#     4   9  20  38  66  93 115 157 207 252 292 361
#     4  10  18  37  63  87 117 160 203 244 297 364
#
# _framework density 20.905588999999999
#
# number of rings (size 3 to 8) (size 9 to 14) (size 15 to 20)
#    0.000    1.500    2.500    3.000    1.750    2.000 
#    4.500    1.250    0.000    0.000    0.000    0.000 
#    0.000    0.000    0.000    0.000    0.000    0.000 
#
# Total GULP energy -793408.166438 kJ/mol
# GULP energy per Si atom -12397.002601 kJ/mol
# Density = 2.085801 g / cm^3
# Si number density = 20.905589 Si / 1000 Ang^3
#
#
#
# Elastic Constant Matrix: (Units=GPa)
#
#
# Indices 1 2 3 4 5 6 
#
# 1 45.1456 10.0508 17.6581 0.0000 0.0000 0.0000
# 2 10.0508 95.1028 30.8265 0.0000 0.0000 0.0000
# 3 17.6581 30.8265 70.3367 0.0000 0.0000 0.0000
# 4 0.0000 0.0000 0.0000 25.4865 0.0000 0.0000
# 5 0.0000 0.0000 0.0000 0.0000 24.7371 0.0000
# 6 0.0000 0.0000 0.0000 0.0000 0.0000 25.4573
#
#
#
# Elastic Compliance Matrix: (Units=1/GPa)
#
#
# Indices 1 2 3 4 5 6 
#
# 1 0.024602 -0.000697 -0.005871 0.000000 0.000000 0.000000
# 2 -0.000697 0.012276 -0.005205 0.000000 0.000000 0.000000
# 3 -0.005871 -0.005205 0.017972 0.000000 0.000000 0.000000
# 4 0.000000 0.000000 0.000000 0.039236 0.000000 0.000000
# 5 0.000000 0.000000 0.000000 0.000000 0.040425 0.000000
# 6 0.000000 0.000000 0.000000 0.000000 0.000000 0.039281
#
#
# Mechanical properties :
#
#
# Convention : Reuss Voigt Hill
#
# Bulk Modulus (GPa) = 31.94456 36.40620 34.17538
# Shear Modulus (GPa) = 24.06459 25.27282 24.66871
#
# Velocity S-wave (km/s) = 3.39648 3.48070 3.43885
# Velocity P-wave (km/s) = 5.54031 5.79707 5.67014
#
# Compressibility (1/GPa) = 0.03130423
#
# Stress axis : x y z
#
# Youngs Moduli (GPa) = 40.64702 81.46111 55.64064
#
# Poissons Ratio (x) = 0.05678 0.32666
# Poissons Ratio (y) = 0.02833 0.28962
# Poissons Ratio (z) = 0.23863 0.42402
#
# Static dielectric constant tensor:
#      x y z
#    x 3.729600 0.000000 0.000000 
#    y 0.000000 3.882440 0.000000 
#    z 0.000000 0.000000 3.693490 
# 
# 
# High freq. dielectric constant tensor:
#      x y z
#    x 1.803720 0.000000 0.000000 
#    y 0.000000 1.827560 0.000000 
#    z 0.000000 0.000000 1.810610 
# 
# From -- ./inp_files/22085.got.cif
#   From: 2010.03.12/outbox.cif.g09.slc.cpg/sg57_12_cif.got.tgz:22085.got - 2010.04.16 15:48:40.
