data_PCOD8230595
_publ_section_title
;
Structure prediction by ZEFSAII (Michael W. Deem and Ramdas Pophale) SiO2 
 PCOD8230595
Probable space group: P B C M
;
_chemical_formula_sum "Si O2"
_cell_formula_units_Z 48
_cell_length_a 10.969612
_cell_length_b 15.956310
_cell_length_c 14.359622
_cell_angle_alpha 90.000000
_cell_angle_beta 90.000000
_cell_angle_gamma 90.000000
_cell_volume 2513.429683
_symmetry_space_group_name_H-M "P B C M"
_symmetry_group_IT_number 57
_symmetry_cell_setting 'orthorhombic'
loop_
_space_group_symop_operation_xyz
x,y,z
-x,-y,1/2+z
x,1/2-y,-z
-x,1/2+y,1/2-z
-x,-y,-z
x,y,1/2-z
-x,1/2+y,z
x,1/2-y,1/2+z
loop_
_atom_site_type_symbol
_atom_site_label
_atom_site_fract_x
_atom_site_fract_y
_atom_site_fract_z
Si Si1 0.934302 0.841417 0.964068
Si Si2 0.711310 0.282740 0.359248
Si Si3 0.203005 0.875371 0.966787
Si Si4 0.718025 0.940272 0.027467
Si Si5 0.289071 0.152275 0.355349
Si Si6 0.429630 0.184233 0.857461
O O1 0.856768 0.832515 0.867900
O O2 0.060221 0.889715 0.944971
O O3 0.970239 0.750000 0.000000
O O4 0.849752 0.893039 0.037801
O O5 0.746960 0.293317 0.250000
O O6 0.737599 0.188390 0.393056
O O7 0.787413 0.345648 0.425220
O O8 0.571137 0.303383 0.377508
O O9 0.272707 0.962141 0.950739
O O10 0.618363 0.900180 0.095171
O O11 0.671064 0.925846 0.920736
O O12 0.323655 0.130460 0.250000
O O13 0.358533 0.234057 0.394511
O O14 0.400536 0.173877 0.750000
#
# Coordination Sequence:
#
# PCOD8230595 Si02
#       6
#     8   8   8   8   8   8
#     4  10  18  37  59  83 119 152 187 235 282 353
#     4  10  24  41  58  80 118 160 193 232 291 355
#     4  11  23  38  61  86 119 153 192 238 296 344
#     4  10  21  36  62  87 116 143 197 248 285 330
#     4   9  19  34  60  87 115 152 191 236 288 337
#     4  10  20  39  60  84 114 152 199 240 283 345
#
# _framework density 19.097411999999998
#
# number of rings (size 3 to 8) (size 9 to 14) (size 15 to 20)
#    1.000    1.000    3.333    1.000    4.667    2.667 
#    0.000    0.833    0.000    0.000    0.000    0.000 
#    0.000    0.000    0.000    0.000    0.000    0.000 
#
# Total GULP energy -594864.494831 kJ/mol
# GULP energy per Si atom -12393.010309 kJ/mol
# Density = 1.905394 g / cm^3
# Si number density = 19.097412 Si / 1000 Ang^3
#
#
#
# Elastic Constant Matrix: (Units=GPa)
#
#
# Indices 1 2 3 4 5 6 
#
# 1 74.8031 17.2160 19.9330 0.0000 0.0000 0.0000
# 2 17.2160 82.5098 8.2480 0.0000 0.0000 0.0000
# 3 19.9330 8.2480 51.5438 0.0000 0.0000 0.0000
# 4 0.0000 0.0000 0.0000 14.3223 0.0000 0.0000
# 5 0.0000 0.0000 0.0000 0.0000 25.2278 0.0000
# 6 0.0000 0.0000 0.0000 0.0000 0.0000 16.9942
#
#
#
# Elastic Compliance Matrix: (Units=1/GPa)
#
#
# Indices 1 2 3 4 5 6 
#
# 1 0.015463 -0.002671 -0.005552 0.000000 0.000000 0.000000
# 2 -0.002671 0.012778 -0.001012 0.000000 0.000000 0.000000
# 3 -0.005552 -0.001012 0.021710 0.000000 0.000000 0.000000
# 4 0.000000 0.000000 0.000000 0.069821 0.000000 0.000000
# 5 0.000000 0.000000 0.000000 0.000000 0.039639 0.000000
# 6 0.000000 0.000000 0.000000 0.000000 0.000000 0.058843
#
#
# Mechanical properties :
#
#
# Convention : Reuss Voigt Hill
#
# Bulk Modulus (GPa) = 31.76576 33.29451 32.53013
# Shear Modulus (GPa) = 20.22500 22.20617 21.21559
#
# Velocity S-wave (km/s) = 3.25783 3.41366 3.33665
# Velocity P-wave (km/s) = 5.55166 5.74538 5.64935
#
# Compressibility (1/GPa) = 0.03148044
#
# Stress axis : x y z
#
# Youngs Moduli (GPa) = 64.67140 78.25768 46.06160
#
# Poissons Ratio (x) = 0.20905 0.25575
# Poissons Ratio (y) = 0.17276 0.04660
# Poissons Ratio (z) = 0.35908 0.07917
#
# Static dielectric constant tensor:
#      x y z
#    x 3.458420 0.000000 0.000000 
#    y 0.000000 3.293420 0.000000 
#    z 0.000000 0.000000 3.329300 
# 
# 
# High freq. dielectric constant tensor:
#      x y z
#    x 1.745470 0.000000 0.000000 
#    y 0.000000 1.732420 0.000000 
#    z 0.000000 0.000000 1.728210 
# 
# From -- ./inp_files/17578.got.cif
#   From: 2010.03.12/outbox.cif.g09.slc.cpg/sg57_9_cif.got.tgz:17578.got - 2010.04.16 15:48:40.
