data_PCOD8230050
_publ_section_title
;
Structure prediction by ZEFSAII (Michael W. Deem and Ramdas Pophale) SiO2 
 PCOD8230050
Probable space group: P B C M
;
_chemical_formula_sum "Si O2"
_cell_formula_units_Z 64
_cell_length_a 26.483683
_cell_length_b 18.573669
_cell_length_c 8.793473
_cell_angle_alpha 90.000000
_cell_angle_beta 90.000000
_cell_angle_gamma 90.000000
_cell_volume 4325.501999
_symmetry_space_group_name_H-M "P B C M"
_symmetry_group_IT_number 57
_symmetry_cell_setting 'orthorhombic'
loop_
_space_group_symop_operation_xyz
x,y,z
-x,-y,1/2+z
x,1/2-y,-z
-x,1/2+y,1/2-z
-x,-y,-z
x,y,1/2-z
-x,1/2+y,z
x,1/2-y,1/2+z
loop_
_atom_site_type_symbol
_atom_site_label
_atom_site_fract_x
_atom_site_fract_y
_atom_site_fract_z
Si Si1 0.453962 0.539196 0.073451
Si Si2 0.398564 0.094238 0.927741
Si Si3 0.806880 0.827313 0.931062
Si Si4 0.299000 0.174003 0.569706
Si Si5 0.951098 0.465320 0.428505
Si Si6 0.896113 0.586207 0.930398
Si Si7 0.507450 0.674163 0.071512
Si Si8 0.005140 0.326626 0.073861
O O1 0.463448 0.534958 0.250000
O O2 0.404146 0.491895 0.031118
O O3 0.458928 0.623176 0.025423
O O4 0.500000 0.500000 0.000000
O O5 0.407606 0.108239 0.750000
O O6 0.342136 0.116677 0.973626
O O7 0.439477 0.142408 0.014344
O O8 0.806597 0.821904 0.750000
O O9 0.821608 0.750000 0.000000
O O10 0.752446 0.852648 0.991725
O O11 0.846446 0.886024 0.986859
O O12 0.315849 0.250000 0.500000
O O13 0.290827 0.181763 0.750000
O O14 0.948562 0.481961 0.250000
O O15 0.903915 0.503308 0.513005
O O16 0.000000 0.500000 0.500000
O O17 0.956774 0.379121 0.457530
O O18 0.889084 0.586956 0.750000
O O19 0.943167 0.635890 0.984659
O O20 0.512585 0.683954 0.250000
O O21 0.494856 0.750000 0.000000
O O22 0.011869 0.312215 0.250000
O O23 0.994814 0.250000 0.000000
#
# Coordination Sequence:
#
# PCOD8230050 Si02
#       8
#     8   8   8   8   8   8   8   8
#     4   8  15  27  40  56  77 103 133 166 201 238
#     4   9  17  29  44  59  78 105 138 171 205 242
#     4  11  21  32  45  61  83 110 139 174 209 244
#     4  10  19  30  43  59  80 106 135 170 205 240
#     4   9  17  29  42  60  84 111 142 176 211 248
#     4  10  19  31  45  62  83 111 145 177 210 250
#     4  10  18  26  39  58  82 109 137 167 200 239
#     4   9  18  28  41  61  85 111 140 171 203 241
#
# _framework density 14.795970000000001
#
# number of rings (size 3 to 8) (size 9 to 14) (size 15 to 20)
#    0.000    2.500    0.000    4.875    0.000    6.500 
#    0.000    0.000    0.000    0.000    0.000    0.000 
#    0.000    1.000    0.000    9.250    0.000    2.500 
#
# Total GULP energy -792853.703962 kJ/mol
# GULP energy per Si atom -12388.339124 kJ/mol
# Density = 1.476229 g / cm^3
# Si number density = 14.795970 Si / 1000 Ang^3
#
#
#
# Elastic Constant Matrix: (Units=GPa)
#
#
# Indices 1 2 3 4 5 6 
#
# 1 85.1880 63.2791 38.6757 0.0000 0.0000 0.0000
# 2 63.2791 117.0628 44.7561 0.0000 0.0000 0.0000
# 3 38.6757 44.7561 70.9445 0.0000 0.0000 0.0000
# 4 0.0000 0.0000 0.0000 22.6579 0.0000 0.0000
# 5 0.0000 0.0000 0.0000 0.0000 18.6053 0.0000
# 6 0.0000 0.0000 0.0000 0.0000 0.0000 25.9574
#
#
#
# Elastic Compliance Matrix: (Units=1/GPa)
#
#
# Indices 1 2 3 4 5 6 
#
# 1 0.021238 -0.009296 -0.005714 0.000000 0.000000 0.000000
# 2 -0.009296 0.015327 -0.004601 0.000000 0.000000 0.000000
# 3 -0.005714 -0.004601 0.020113 0.000000 0.000000 0.000000
# 4 0.000000 0.000000 0.000000 0.044135 0.000000 0.000000
# 5 0.000000 0.000000 0.000000 0.000000 0.053748 0.000000
# 6 0.000000 0.000000 0.000000 0.000000 0.000000 0.038525
#
#
# Mechanical properties :
#
#
# Convention : Reuss Voigt Hill
#
# Bulk Modulus (GPa) = 57.28631 62.95747 60.12189
# Shear Modulus (GPa) = 20.99741 21.87642 21.43692
#
# Velocity S-wave (km/s) = 3.77122 3.84935 3.81049
# Velocity P-wave (km/s) = 7.60029 7.89933 7.75125
#
# Compressibility (1/GPa) = 0.01745618
#
# Stress axis : x y z
#
# Youngs Moduli (GPa) = 47.08588 65.24643 49.71904
#
# Poissons Ratio (x) = 0.60652 0.28407
# Poissons Ratio (y) = 0.43770 0.22877
# Poissons Ratio (z) = 0.26903 0.30021
#
# Static dielectric constant tensor:
#      x y z
#    x 2.853900 0.000000 0.000000 
#    y 0.000000 3.372990 0.000000 
#    z 0.000000 0.000000 3.005710 
# 
# 
# High freq. dielectric constant tensor:
#      x y z
#    x 1.532480 0.000000 0.000000 
#    y 0.000000 1.560180 0.000000 
#    z 0.000000 0.000000 1.581800 
# 
# From -- ./inp_files/9813.got.cif
#   From: 2010.03.12/outbox.cif.g09.slc.cpg/sg57_5_cif.got.tgz:9813.got - 2010.04.16 15:48:40.
