data_PCOD8230099
_publ_section_title
;
Structure prediction by ZEFSAII (Michael W. Deem and Ramdas Pophale) SiO2 
 PCOD8230099
Probable space group: P B C M
;
_chemical_formula_sum "Si O2"
_cell_formula_units_Z 64
_cell_length_a 26.117441
_cell_length_b 18.410433
_cell_length_c 8.954435
_cell_angle_alpha 90.000000
_cell_angle_beta 90.000000
_cell_angle_gamma 90.000000
_cell_volume 4305.591405
_symmetry_space_group_name_H-M "P B C M"
_symmetry_group_IT_number 57
_symmetry_cell_setting 'orthorhombic'
loop_
_space_group_symop_operation_xyz
x,y,z
-x,-y,1/2+z
x,1/2-y,-z
-x,1/2+y,1/2-z
-x,-y,-z
x,y,1/2-z
-x,1/2+y,z
x,1/2-y,1/2+z
loop_
_atom_site_type_symbol
_atom_site_label
_atom_site_fract_x
_atom_site_fract_y
_atom_site_fract_z
Si Si1 0.548417 0.464212 0.075529
Si Si2 0.393501 0.080635 0.927233
Si Si3 0.807769 0.824918 0.923603
Si Si4 0.311156 0.325237 0.575818
Si Si5 0.045197 0.539181 0.420657
Si Si6 0.893196 0.591176 0.926116
Si Si7 0.508741 0.673975 0.921950
Si Si8 0.012107 0.325845 0.925796
O O1 0.549797 0.483495 0.250000
O O2 0.541443 0.377256 0.051970
O O3 0.500000 0.500000 0.000000
O O4 0.597837 0.499195 0.994074
O O5 0.389084 0.075090 0.750000
O O6 0.439836 0.133527 0.979236
O O7 0.341092 0.109620 0.996986
O O8 0.820986 0.819390 0.750000
O O9 0.748353 0.841183 0.951569
O O10 0.824730 0.750000 0.000000
O O11 0.839186 0.890081 0.998728
O O12 0.327950 0.250000 0.500000
O O13 0.324884 0.320867 0.750000
O O14 0.033432 0.525691 0.250000
O O15 0.097590 0.495619 0.460593
O O16 0.000000 0.500000 0.500000
O O17 0.039482 0.625106 0.456107
O O18 0.890905 0.607329 0.750000
O O19 0.937784 0.639905 0.998321
O O20 0.516467 0.691403 0.750000
O O21 0.499267 0.750000 0.000000
O O22 0.022969 0.316787 0.750000
O O23 0.998871 0.250000 0.000000
#
# Coordination Sequence:
#
# PCOD8230099 Si02
#       8
#     8   8   8   8   8   8   8   8
#     4   9  17  29  42  59  83 110 141 175 210 247
#     4  10  19  30  44  62  83 111 145 175 209 250
#     4  10  20  32  44  60  82 109 140 173 208 243
#     4  10  20  32  45  61  83 110 140 175 210 244
#     4   8  16  28  41  57  78 104 134 167 201 238
#     4  10  18  29  44  60  79 107 140 171 205 242
#     4   9  18  28  40  60  84 110 139 170 203 242
#     4  10  18  28  41  59  83 109 137 168 201 240
#
# _framework density 14.864390999999999
#
# number of rings (size 3 to 8) (size 9 to 14) (size 15 to 20)
#    0.000    2.500    0.000    3.750    0.000    6.500 
#    0.000    0.000    0.000    0.000    0.000    0.000 
#    0.000    1.000    0.000    7.500    0.000    4.375 
#
# Total GULP energy -793001.862961 kJ/mol
# GULP energy per Si atom -12390.654109 kJ/mol
# Density = 1.483056 g / cm^3
# Si number density = 14.864391 Si / 1000 Ang^3
#
#
#
# Elastic Constant Matrix: (Units=GPa)
#
#
# Indices 1 2 3 4 5 6 
#
# 1 59.8224 43.3567 38.3640 0.0000 0.0000 0.0000
# 2 43.3567 91.7051 47.0072 0.0000 0.0000 0.0000
# 3 38.3640 47.0072 87.2621 0.0000 0.0000 0.0000
# 4 0.0000 0.0000 0.0000 25.3390 0.0000 0.0000
# 5 0.0000 0.0000 0.0000 0.0000 22.2044 0.0000
# 6 0.0000 0.0000 0.0000 0.0000 0.0000 27.0435
#
#
#
# Elastic Compliance Matrix: (Units=1/GPa)
#
#
# Indices 1 2 3 4 5 6 
#
# 1 0.028409 -0.009711 -0.007259 0.000000 0.000000 0.000000
# 2 -0.009711 0.018383 -0.005634 0.000000 0.000000 0.000000
# 3 -0.007259 -0.005634 0.017686 0.000000 0.000000 0.000000
# 4 0.000000 0.000000 0.000000 0.039465 0.000000 0.000000
# 5 0.000000 0.000000 0.000000 0.000000 0.045036 0.000000
# 6 0.000000 0.000000 0.000000 0.000000 0.000000 0.036977
#
#
# Mechanical properties :
#
#
# Convention : Reuss Voigt Hill
#
# Bulk Modulus (GPa) = 51.88880 55.13838 53.51359
# Shear Modulus (GPa) = 21.04495 22.25482 21.64989
#
# Velocity S-wave (km/s) = 3.76679 3.87355 3.82054
# Velocity P-wave (km/s) = 7.34181 7.56179 7.45261
#
# Compressibility (1/GPa) = 0.01927198
#
# Stress axis : x y z
#
# Youngs Moduli (GPa) = 35.20016 54.39711 56.54250
#
# Poissons Ratio (x) = 0.52823 0.41043
# Poissons Ratio (y) = 0.34181 0.31855
# Poissons Ratio (z) = 0.25551 0.30646
#
# Static dielectric constant tensor:
#      x y z
#    x 2.799200 0.000000 0.000000 
#    y 0.000000 3.497980 0.000000 
#    z 0.000000 0.000000 3.065600 
# 
# 
# High freq. dielectric constant tensor:
#      x y z
#    x 1.533680 0.000000 0.000000 
#    y 0.000000 1.559740 0.000000 
#    z 0.000000 0.000000 1.589300 
# 
# From -- ./inp_files/9807.got.cif
#   From: 2010.03.12/outbox.cif.g09.slc.cpg/sg57_5_cif.got.tgz:9807.got - 2010.04.16 15:48:40.
