data_PCOD8230499
_publ_section_title
;
Structure prediction by ZEFSAII (Michael W. Deem and Ramdas Pophale) SiO2 
 PCOD8230499
Probable space group: P B C M
;
_chemical_formula_sum "Si O2"
_cell_formula_units_Z 64
_cell_length_a 9.775870
_cell_length_b 18.721081
_cell_length_c 18.477549
_cell_angle_alpha 90.000000
_cell_angle_beta 90.000000
_cell_angle_gamma 90.000000
_cell_volume 3381.665935
_symmetry_space_group_name_H-M "P B C M"
_symmetry_group_IT_number 57
_symmetry_cell_setting 'orthorhombic'
loop_
_space_group_symop_operation_xyz
x,y,z
-x,-y,1/2+z
x,1/2-y,-z
-x,1/2+y,1/2-z
-x,-y,-z
x,y,1/2-z
-x,1/2+y,z
x,1/2-y,1/2+z
loop_
_atom_site_type_symbol
_atom_site_label
_atom_site_fract_x
_atom_site_fract_y
_atom_site_fract_z
Si Si1 0.839273 0.238947 0.421381
Si Si2 0.592352 0.152649 0.919521
Si Si3 0.359731 0.251808 0.586899
Si Si4 0.090298 0.220759 0.166425
Si Si5 0.511236 0.895040 0.926242
Si Si6 0.268174 0.984571 0.426690
Si Si7 0.773447 0.425566 0.583038
Si Si8 0.962415 0.555252 0.334315
O O1 0.907278 0.250000 0.500000
O O2 0.708021 0.288058 0.411460
O O3 0.795521 0.158203 0.414312
O O4 0.951591 0.258428 0.360854
O O5 0.454029 0.185761 0.885135
O O6 0.645583 0.078120 0.885406
O O7 0.562591 0.135464 0.002755
O O8 0.345871 0.250000 0.500000
O O9 0.213180 0.242834 0.622852
O O10 0.425642 0.326701 0.615052
O O11 0.110272 0.238029 0.250000
O O12 0.083086 0.136388 0.150908
O O13 0.383568 0.935820 0.886538
O O14 0.632247 0.949548 0.943505
O O15 0.205922 0.957672 0.502633
O O16 0.144923 0.004773 0.374388
O O17 0.885575 0.461721 0.635377
O O18 0.961227 0.536746 0.250000
#
# Coordination Sequence:
#
# PCOD8230499 Si02
#       8
#     8   8   8   8   8   8   8   8
#     4  11  17  34  58  83 111 143 187 238 289 332
#     4  10  19  33  58  87 116 142 178 242 294 335
#     4  10  18  35  57  85 115 145 182 235 291 335
#     4  10  22  37  54  79 113 153 195 232 274 337
#     4  10  18  33  57  88 116 140 187 238 286 340
#     4  11  20  35  59  88 114 148 191 238 286 345
#     4  10  19  33  58  85 111 144 191 238 285 336
#     4  10  22  39  54  77 117 157 193 232 277 340
#
# _framework density 18.925583
#
# number of rings (size 3 to 8) (size 9 to 14) (size 15 to 20)
#    0.000    1.750    5.000    2.625    0.000    0.000 
#    0.000    4.375    0.000    0.000    0.000    0.875 
#    0.000    0.000    0.000    0.000    0.000    0.000 
#
# Total GULP energy -793114.223416 kJ/mol
# GULP energy per Si atom -12392.409741 kJ/mol
# Density = 1.888251 g / cm^3
# Si number density = 18.925583 Si / 1000 Ang^3
#
#
#
# Elastic Constant Matrix: (Units=GPa)
#
#
# Indices 1 2 3 4 5 6 
#
# 1 145.8713 40.9551 48.8171 0.0000 0.0000 0.0000
# 2 40.9551 60.9349 18.6367 0.0000 0.0000 0.0000
# 3 48.8171 18.6367 61.0907 0.0000 0.0000 0.0000
# 4 0.0000 0.0000 0.0000 18.8265 0.0000 0.0000
# 5 0.0000 0.0000 0.0000 0.0000 6.4156 0.0000
# 6 0.0000 0.0000 0.0000 0.0000 0.0000 142.6809
#
#
#
# Elastic Compliance Matrix: (Units=1/GPa)
#
#
# Indices 1 2 3 4 5 6 
#
# 1 0.010574 -0.004988 -0.006928 0.000000 0.000000 0.000000
# 2 -0.004988 0.020453 -0.002253 0.000000 0.000000 0.000000
# 3 -0.006928 -0.002253 0.022593 0.000000 0.000000 0.000000
# 4 0.000000 0.000000 0.000000 0.053117 0.000000 0.000000
# 5 0.000000 0.000000 0.000000 0.000000 0.155871 0.000000
# 6 0.000000 0.000000 0.000000 0.000000 0.000000 0.007009
#
#
# Mechanical properties :
#
#
# Convention : Reuss Voigt Hill
#
# Bulk Modulus (GPa) = 39.55637 53.85719 46.70678
# Shear Modulus (GPa) = 16.31946 44.21712 30.26829
#
# Velocity S-wave (km/s) = 2.93967 4.83884 4.00350
# Velocity P-wave (km/s) = 5.69812 7.72906 6.78995
#
# Compressibility (1/GPa) = 0.02528038
#
# Stress axis : x y z
#
# Youngs Moduli (GPa) = 94.56749 48.89306 44.26182
#
# Poissons Ratio (x) = 0.24389 0.30666
# Poissons Ratio (y) = 0.47173 0.09974
# Poissons Ratio (z) = 0.65519 0.11017
#
# Static dielectric constant tensor:
#      x y z
#    x 3.970390 0.000000 0.000000 
#    y 0.000000 3.664750 0.000000 
#    z 0.000000 0.000000 3.137450 
# 
# 
# High freq. dielectric constant tensor:
#      x y z
#    x 1.757610 0.000000 0.000000 
#    y 0.000000 1.731980 0.000000 
#    z 0.000000 0.000000 1.687450 
# 
# From -- ./inp_files/24588.got.cif
#   From: 2010.03.12/outbox.cif.g09.slc.cpg/sg57_13_cif.got.tgz:24588.got - 2010.04.16 15:48:40.
