data_PCOD8230452
_publ_section_title
;
Structure prediction by ZEFSAII (Michael W. Deem and Ramdas Pophale) SiO2 
 PCOD8230452
Probable space group: P B C M
;
_chemical_formula_sum "Si O2"
_cell_formula_units_Z 36
_cell_length_a 10.788036
_cell_length_b 12.884771
_cell_length_c 14.340499
_cell_angle_alpha 90.000000
_cell_angle_beta 90.000000
_cell_angle_gamma 90.000000
_cell_volume 1993.349056
_symmetry_space_group_name_H-M "P B C M"
_symmetry_group_IT_number 57
_symmetry_cell_setting 'orthorhombic'
loop_
_space_group_symop_operation_xyz
x,y,z
-x,-y,1/2+z
x,1/2-y,-z
-x,1/2+y,1/2-z
-x,-y,-z
x,y,1/2-z
-x,1/2+y,z
x,1/2-y,1/2+z
loop_
_atom_site_type_symbol
_atom_site_label
_atom_site_fract_x
_atom_site_fract_y
_atom_site_fract_z
Si Si1 0.541012 0.024202 0.643082
Si Si2 0.939127 0.250000 0.000000
Si Si3 0.902463 0.927892 0.550208
Si Si4 0.362644 0.127400 0.993584
Si Si5 0.803819 0.390756 0.351945
O O1 0.513080 0.992471 0.750000
O O2 0.423088 0.084055 0.601125
O O3 0.656207 0.103455 0.636903
O O4 0.568951 0.920259 0.584229
O O5 0.853305 0.182767 0.932893
O O6 0.026651 0.319353 0.931979
O O7 0.781221 0.905629 0.487521
O O8 0.859214 0.991414 0.641641
O O9 0.000000 0.000000 0.500000
O O10 0.377366 0.250000 0.000000
O O11 0.839646 0.346971 0.250000
#
# Coordination Sequence:
#
# PCOD8230452 Si02
#       5
#     8   4   8   8   8
#     4   9  20  37  54  81 115 143 180 230 276 324
#     4  10  18  32  56  80 106 146 186 220 272 332
#     4   9  18  34  54  78 109 141 182 226 270 325
#     4  10  19  34  60  81 108 149 185 222 279 328
#     4   9  19  34  53  77 108 145 180 226 279 322
#
# _framework density 18.060057
#
# number of rings (size 3 to 8) (size 9 to 14) (size 15 to 20)
#    0.000    2.667    1.111    0.000    1.556    1.778 
#    0.000    4.444    0.000    0.000    0.000    0.000 
#    0.000    0.000    0.000    0.000    0.000    0.000 
#
# Total GULP energy -446076.469004 kJ/mol
# GULP energy per Si atom -12391.013028 kJ/mol
# Density = 1.801895 g / cm^3
# Si number density = 18.060057 Si / 1000 Ang^3
#
#
#
# Elastic Constant Matrix: (Units=GPa)
#
#
# Indices 1 2 3 4 5 6 
#
# 1 100.4772 46.0908 48.0095 0.0000 0.0000 0.0000
# 2 46.0908 108.6772 46.8661 0.0000 0.0000 0.0000
# 3 48.0095 46.8661 121.6110 0.0000 0.0000 0.0000
# 4 0.0000 0.0000 0.0000 18.9702 0.0000 0.0000
# 5 0.0000 0.0000 0.0000 0.0000 15.1063 0.0000
# 6 0.0000 0.0000 0.0000 0.0000 0.0000 23.8583
#
#
#
# Elastic Compliance Matrix: (Units=1/GPa)
#
#
# Indices 1 2 3 4 5 6 
#
# 1 0.013675 -0.004164 -0.003794 0.000000 0.000000 0.000000
# 2 -0.004164 0.012303 -0.003098 0.000000 0.000000 0.000000
# 3 -0.003794 -0.003098 0.010915 0.000000 0.000000 0.000000
# 4 0.000000 0.000000 0.000000 0.052714 0.000000 0.000000
# 5 0.000000 0.000000 0.000000 0.000000 0.066198 0.000000
# 6 0.000000 0.000000 0.000000 0.000000 0.000000 0.041914
#
#
# Mechanical properties :
#
#
# Convention : Reuss Voigt Hill
#
# Bulk Modulus (GPa) = 67.64885 68.07758 67.86321
# Shear Modulus (GPa) = 22.24619 24.24022 23.24320
#
# Velocity S-wave (km/s) = 3.51349 3.66758 3.59136
# Velocity P-wave (km/s) = 7.34837 7.46403 7.40643
#
# Compressibility (1/GPa) = 0.01478222
#
# Stress axis : x y z
#
# Youngs Moduli (GPa) = 73.12425 81.27951 91.62054
#
# Poissons Ratio (x) = 0.33842 0.34763
# Poissons Ratio (y) = 0.30446 0.28381
# Poissons Ratio (z) = 0.27745 0.25178
#
# Static dielectric constant tensor:
#      x y z
#    x 3.598240 0.000000 0.000000 
#    y 0.000000 3.563820 0.000000 
#    z 0.000000 0.000000 3.241650 
# 
# 
# High freq. dielectric constant tensor:
#      x y z
#    x 1.713250 0.000000 0.000000 
#    y 0.000000 1.700770 0.000000 
#    z 0.000000 0.000000 1.675850 
# 
# From -- ./inp_files/15795.got.cif
#   From: 2010.03.12/outbox.cif.g09.slc.cpg/sg57_8_cif.got.tgz:15795.got - 2010.04.16 15:48:40.
