data_PCOD8230353
_publ_section_title
;
Structure prediction by ZEFSAII (Michael W. Deem and Ramdas Pophale) SiO2 
 PCOD8230353
Probable space group: P B C M
;
_chemical_formula_sum "Si O2"
_cell_formula_units_Z 56
_cell_length_a 14.902560
_cell_length_b 22.415505
_cell_length_c 9.136299
_cell_angle_alpha 90.000000
_cell_angle_beta 90.000000
_cell_angle_gamma 90.000000
_cell_volume 3051.966138
_symmetry_space_group_name_H-M "P B C M"
_symmetry_group_IT_number 57
_symmetry_cell_setting 'orthorhombic'
loop_
_space_group_symop_operation_xyz
x,y,z
-x,-y,1/2+z
x,1/2-y,-z
-x,1/2+y,1/2-z
-x,-y,-z
x,y,1/2-z
-x,1/2+y,z
x,1/2-y,1/2+z
loop_
_atom_site_type_symbol
_atom_site_label
_atom_site_fract_x
_atom_site_fract_y
_atom_site_fract_z
Si Si1 0.426069 0.190561 0.075290
Si Si2 0.924238 0.420548 0.077931
Si Si3 0.294154 0.088012 0.422938
Si Si4 0.588624 0.018055 0.580921
Si Si5 0.605164 0.154261 0.919546
Si Si6 0.196308 0.690391 0.922084
Si Si7 0.897705 0.943779 0.922477
O O1 0.426205 0.195982 0.250000
O O2 0.358437 0.139876 0.015246
O O3 0.389047 0.250000 0.000000
O O4 0.527530 0.179498 0.022630
O O5 0.938234 0.415314 0.250000
O O6 0.856992 0.368537 0.022576
O O7 0.887246 0.486163 0.035406
O O8 0.020259 0.411482 0.002103
O O9 0.294880 0.092400 0.250000
O O10 0.191406 0.091231 0.477511
O O11 0.331738 0.024272 0.475156
O O12 0.569109 0.006996 0.750000
O O13 0.618392 0.084760 0.547987
O O14 0.500000 0.000000 0.500000
O O15 0.579734 0.165888 0.750000
O O16 0.698812 0.184600 0.962310
O O17 0.182847 0.697752 0.750000
O O18 0.158564 0.750000 0.000000
O O19 0.912094 0.937413 0.750000
#
# Coordination Sequence:
#
# PCOD8230353 Si02
#       7
#     8   8   8   8   8   8   8
#     4  11  22  36  52  71 100 138 179 217 254 300
#     4   9  18  34  55  80 107 132 165 213 264 311
#     4   9  18  33  53  76 103 136 171 208 253 308
#     4  10  18  31  51  77 106 135 169 210 258 306
#     4  10  20  34  54  78 105 138 175 213 259 311
#     4  10  21  36  53  76 106 142 178 214 259 311
#     4   9  17  33  58  81 102 133 170 208 259 319
#
# _framework density 18.348828000000001
#
# number of rings (size 3 to 8) (size 9 to 14) (size 15 to 20)
#    0.000    2.286    1.429    1.714    0.000    5.714 
#    0.000    2.857    0.000    6.857    0.000    0.000 
#    0.000    0.000    0.000    0.000    0.000    0.000 
#
# Total GULP energy -694268.876512 kJ/mol
# GULP energy per Si atom -12397.658509 kJ/mol
# Density = 1.830707 g / cm^3
# Si number density = 18.348828 Si / 1000 Ang^3
#
#
#
# Elastic Constant Matrix: (Units=GPa)
#
#
# Indices 1 2 3 4 5 6 
#
# 1 117.4003 46.2589 26.9710 0.0000 0.0000 0.0000
# 2 46.2589 104.2200 32.1153 0.0000 0.0000 0.0000
# 3 26.9710 32.1153 36.2882 0.0000 0.0000 0.0000
# 4 0.0000 0.0000 0.0000 26.5940 0.0000 0.0000
# 5 0.0000 0.0000 0.0000 0.0000 29.4793 0.0000
# 6 0.0000 0.0000 0.0000 0.0000 0.0000 24.5501
#
#
#
# Elastic Compliance Matrix: (Units=1/GPa)
#
#
# Indices 1 2 3 4 5 6 
#
# 1 0.011020 -0.003255 -0.005310 0.000000 0.000000 0.000000
# 2 -0.003255 0.014155 -0.010107 0.000000 0.000000 0.000000
# 3 -0.005310 -0.010107 0.040449 0.000000 0.000000 0.000000
# 4 0.000000 0.000000 0.000000 0.037602 0.000000 0.000000
# 5 0.000000 0.000000 0.000000 0.000000 0.033922 0.000000
# 6 0.000000 0.000000 0.000000 0.000000 0.000000 0.040733
#
#
# Mechanical properties :
#
#
# Convention : Reuss Voigt Hill
#
# Bulk Modulus (GPa) = 35.36241 52.06656 43.71449
# Shear Modulus (GPa) = 22.25656 26.29557 24.27607
#
# Velocity S-wave (km/s) = 3.48655 3.78973 3.64130
# Velocity P-wave (km/s) = 5.96005 6.89833 6.44628
#
# Compressibility (1/GPa) = 0.02827861
#
# Stress axis : x y z
#
# Youngs Moduli (GPa) = 90.74086 70.64863 24.72256
#
# Poissons Ratio (x) = 0.22998 0.13127
# Poissons Ratio (y) = 0.29538 0.24988
# Poissons Ratio (z) = 0.48183 0.71408
#
# Static dielectric constant tensor:
#      x y z
#    x 3.409090 0.000000 0.000000 
#    y 0.000000 3.564010 0.000000 
#    z 0.000000 0.000000 3.169040 
# 
# 
# High freq. dielectric constant tensor:
#      x y z
#    x 1.712070 0.000000 0.000000 
#    y 0.000000 1.715410 0.000000 
#    z 0.000000 0.000000 1.690150 
# 
# From -- ./inp_files/5238.got.cif
#   From: 2010.03.12/outbox.cif.g09.slc.cpg/sg57_3_cif.got.tgz:5238.got - 2010.04.16 15:48:40.
