data_PCOD8230399
_publ_section_title
;
Structure prediction by ZEFSAII (Michael W. Deem and Ramdas Pophale) SiO2 
 PCOD8230399
Probable space group: P B C M
;
_chemical_formula_sum "Si O2"
_cell_formula_units_Z 48
_cell_length_a 29.162176
_cell_length_b 9.700401
_cell_length_c 9.733316
_cell_angle_alpha 90.000000
_cell_angle_beta 90.000000
_cell_angle_gamma 90.000000
_cell_volume 2753.407162
_symmetry_space_group_name_H-M "P B C M"
_symmetry_group_IT_number 57
_symmetry_cell_setting 'orthorhombic'
loop_
_space_group_symop_operation_xyz
x,y,z
-x,-y,1/2+z
x,1/2-y,-z
-x,1/2+y,1/2-z
-x,-y,-z
x,y,1/2-z
-x,1/2+y,z
x,1/2-y,1/2+z
loop_
_atom_site_type_symbol
_atom_site_label
_atom_site_fract_x
_atom_site_fract_y
_atom_site_fract_z
Si Si1 0.526408 0.386527 0.912999
Si Si2 0.962384 0.876926 0.250000
Si Si3 0.947430 0.947533 0.750000
Si Si4 0.801014 0.881291 0.094304
Si Si5 0.632509 0.379156 0.906591
Si Si6 0.104453 0.411989 0.487221
Si Si7 0.700463 0.884551 0.092248
O O1 0.511258 0.375661 0.750000
O O2 0.579851 0.423750 0.920309
O O3 0.515955 0.250000 0.000000
O O4 0.500000 0.500000 0.000000
O O5 0.966147 0.710042 0.250000
O O6 0.935346 0.937874 0.121652
O O7 0.012596 0.940857 0.250000
O O8 0.914194 0.980451 0.624125
O O9 0.809471 0.831594 0.250000
O O10 0.845313 0.975405 0.051436
O O11 0.751397 0.955020 0.079506
O O12 0.797480 0.750000 0.000000
O O13 0.644520 0.339908 0.750000
O O14 0.663361 0.505443 0.958851
O O15 0.644735 0.250000 0.000000
O O16 0.113142 0.250000 0.500000
O O17 0.691297 0.841340 0.250000
O O18 0.694888 0.750000 0.000000
#
# Coordination Sequence:
#
# PCOD8230399 Si02
#       7
#     8   4   4   8   8   8   8
#     4  10  20  35  54  78 105 140 179 220 263 309
#     4  10  18  32  46  68  90 118 152 186 229 276
#     4  10  20  30  48  66  92 118 152 188 227 276
#     4   9  16  27  46  70  96 121 152 196 241 282
#     4   9  19  35  54  74 103 139 176 209 249 305
#     4   9  17  28  45  68  90 119 151 188 230 277
#     4   9  18  32  50  76 103 128 161 209 258 298
#
# _framework density 17.432946999999999
#
# number of rings (size 3 to 8) (size 9 to 14) (size 15 to 20)
#    0.000    2.667    0.833    1.000    3.500    2.000 
#    0.000    1.667    0.000    2.000    0.000    0.000 
#    0.000    0.000    0.000    0.000    0.000    0.000 
#
# Total GULP energy -594700.061111 kJ/mol
# GULP energy per Si atom -12389.584606 kJ/mol
# Density = 1.739327 g / cm^3
# Si number density = 17.432947 Si / 1000 Ang^3
#
#
#
# Elastic Constant Matrix: (Units=GPa)
#
#
# Indices 1 2 3 4 5 6 
#
# 1 112.4965 64.0675 61.1157 0.0000 0.0000 0.0000
# 2 64.0675 69.3214 47.3371 0.0000 0.0000 0.0000
# 3 61.1157 47.3371 130.0389 0.0000 0.0000 0.0000
# 4 0.0000 0.0000 0.0000 40.2135 0.0000 0.0000
# 5 0.0000 0.0000 0.0000 0.0000 24.9664 0.0000
# 6 0.0000 0.0000 0.0000 0.0000 0.0000 -84.7466
#
#
#
# Elastic Compliance Matrix: (Units=1/GPa)
#
#
# Indices 1 2 3 4 5 6 
#
# 1 0.019921 -0.015994 -0.003540 0.000000 0.000000 0.000000
# 2 -0.015994 0.032038 -0.004146 0.000000 0.000000 0.000000
# 3 -0.003540 -0.004146 0.010863 0.000000 0.000000 0.000000
# 4 0.000000 0.000000 0.000000 0.024867 0.000000 0.000000
# 5 0.000000 0.000000 0.000000 0.000000 0.040054 0.000000
# 6 0.000000 0.000000 0.000000 0.000000 0.000000 -0.011800
#
#
# Mechanical properties :
#
#
# Convention : Reuss Voigt Hill
#
# Bulk Modulus (GPa) = 64.67316 72.98860 68.83088
# Shear Modulus (GPa) = 29.68106 5.37575 17.52841
#
# Velocity S-wave (km/s) = 4.13071 1.75794 3.17436
# Velocity P-wave (km/s) = 7.74139 6.78819 7.28041
#
# Compressibility (1/GPa) = 0.01546237
#
# Stress axis : x y z
#
# Youngs Moduli (GPa) = 50.19825 31.21284 92.05421
#
# Poissons Ratio (x) = 0.49920 0.32591
# Poissons Ratio (y) = 0.80285 0.38165
# Poissons Ratio (z) = 0.17772 0.12941
#
# Static dielectric constant tensor:
#      x y z
#    x 3.731150 0.000000 0.000000 
#    y 0.000000 2.814030 0.000000 
#    z 0.000000 0.000000 3.669230 
# 
# 
# High freq. dielectric constant tensor:
#      x y z
#    x 1.692570 0.000000 0.000000 
#    y 0.000000 1.619100 0.000000 
#    z 0.000000 0.000000 1.693240 
# 
# From -- ./inp_files/10156.got.cif
#   From: 2010.03.12/outbox.cif.g09.slc.cpg/sg57_6_cif.got.tgz:10156.got - 2010.04.16 15:48:40.
