data_PCOD8230672
_publ_section_title
;
Structure prediction by ZEFSAII (Michael W. Deem and Ramdas Pophale) SiO2 
 PCOD8230672
Probable space group: P B C M
;
_chemical_formula_sum "Si O2"
_cell_formula_units_Z 48
_cell_length_a 11.910520
_cell_length_b 25.540413
_cell_length_c 9.043402
_cell_angle_alpha 90.000000
_cell_angle_beta 90.000000
_cell_angle_gamma 90.000000
_cell_volume 2750.999270
_symmetry_space_group_name_H-M "P B C M"
_symmetry_group_IT_number 57
_symmetry_cell_setting 'orthorhombic'
loop_
_space_group_symop_operation_xyz
x,y,z
-x,-y,1/2+z
x,1/2-y,-z
-x,1/2+y,1/2-z
-x,-y,-z
x,y,1/2-z
-x,1/2+y,z
x,1/2-y,1/2+z
loop_
_atom_site_type_symbol
_atom_site_label
_atom_site_fract_x
_atom_site_fract_y
_atom_site_fract_z
Si Si1 0.648229 0.532648 0.085004
Si Si2 0.495380 0.628513 0.077222
Si Si3 0.169327 0.115762 0.417194
Si Si4 0.326991 0.305003 0.074720
Si Si5 0.959966 0.053145 0.075207
Si Si6 0.289153 0.567531 0.423180
O O1 0.624443 0.512529 0.250000
O O2 0.555289 0.574247 0.034912
O O3 0.769358 0.559920 0.074782
O O4 0.644439 0.483106 0.979297
O O5 0.514683 0.641906 0.250000
O O6 0.363147 0.619703 0.038365
O O7 0.551308 0.674475 0.981170
O O8 0.177343 0.138565 0.250000
O O9 0.225156 0.156754 0.529043
O O10 0.041440 0.102239 0.462958
O O11 0.330063 0.299382 0.250000
O O12 0.301484 0.250000 0.000000
O O13 0.958296 0.042962 0.250000
O O14 0.837307 0.070552 0.013207
O O15 0.000000 0.000000 0.000000
O O16 0.283428 0.561115 0.250000
#
# Coordination Sequence:
#
# PCOD8230672 Si02
#       6
#     8   8   8   8   8   8
#     4   9  16  27  44  66 100 141 171 206 249 287
#     4   9  19  34  48  70 104 134 166 209 255 301
#     4   9  18  33  50  73 106 139 171 213 256 294
#     4  11  22  37  59  81  98 123 162 212 266 317
#     4  10  19  31  48  72 106 145 180 211 247 292
#     4  10  19  29  46  71 102 141 177 206 242 293
#
# _framework density 17.448205000000002
#
# number of rings (size 3 to 8) (size 9 to 14) (size 15 to 20)
#    0.000    2.333    1.667    3.000    0.000    4.000 
#    0.000    0.000    0.000    1.000    0.000    0.000 
#    0.000    0.000    0.000    0.000    0.000    0.000 
#
# Total GULP energy -594936.319869 kJ/mol
# GULP energy per Si atom -12394.506664 kJ/mol
# Density = 1.740849 g / cm^3
# Si number density = 17.448205 Si / 1000 Ang^3
#
#
#
# Elastic Constant Matrix: (Units=GPa)
#
#
# Indices 1 2 3 4 5 6 
#
# 1 95.1571 30.5428 33.3751 0.0000 0.0000 0.0000
# 2 30.5428 68.8868 36.3951 0.0000 0.0000 0.0000
# 3 33.3751 36.3951 65.3299 0.0000 0.0000 0.0000
# 4 0.0000 0.0000 0.0000 28.8600 0.0000 0.0000
# 5 0.0000 0.0000 0.0000 0.0000 20.2476 0.0000
# 6 0.0000 0.0000 0.0000 0.0000 0.0000 14.2233
#
#
#
# Elastic Compliance Matrix: (Units=1/GPa)
#
#
# Indices 1 2 3 4 5 6 
#
# 1 0.013303 -0.003270 -0.004974 0.000000 0.000000 0.000000
# 2 -0.003270 0.021375 -0.010237 0.000000 0.000000 0.000000
# 3 -0.004974 -0.010237 0.023551 0.000000 0.000000 0.000000
# 4 0.000000 0.000000 0.000000 0.034650 0.000000 0.000000
# 5 0.000000 0.000000 0.000000 0.000000 0.049389 0.000000
# 6 0.000000 0.000000 0.000000 0.000000 0.000000 0.070307
#
#
# Mechanical properties :
#
#
# Convention : Reuss Voigt Hill
#
# Bulk Modulus (GPa) = 47.02376 47.77777 47.40077
# Shear Modulus (GPa) = 19.48339 21.27023 20.37681
#
# Velocity S-wave (km/s) = 3.34524 3.49528 3.42108
# Velocity P-wave (km/s) = 6.47533 6.61297 6.54451
#
# Compressibility (1/GPa) = 0.02126584
#
# Stress axis : x y z
#
# Youngs Moduli (GPa) = 75.16936 46.78297 42.46020
#
# Poissons Ratio (x) = 0.15299 0.21121
# Poissons Ratio (y) = 0.24582 0.43469
# Poissons Ratio (z) = 0.37392 0.47894
#
# Static dielectric constant tensor:
#      x y z
#    x 3.731070 0.000000 0.000000 
#    y 0.000000 2.951910 0.000000 
#    z 0.000000 0.000000 6.490780 
# 
# 
# High freq. dielectric constant tensor:
#      x y z
#    x 1.683290 0.000000 0.000000 
#    y 0.000000 1.637180 0.000000 
#    z 0.000000 0.000000 1.667430 
# 
# From -- ./inp_files/3112.got.cif
#   From: 2010.03.12/outbox.cif.g09.slc.cpg/sg57_2_cif.got.tgz:3112.got - 2010.04.16 15:48:40.
