data_PCOD8230638
_publ_section_title
;
Structure prediction by ZEFSAII (Michael W. Deem and Ramdas Pophale) SiO2 
 PCOD8230638
Probable space group: P B C M
;
_chemical_formula_sum "Si O2"
_cell_formula_units_Z 64
_cell_length_a 25.831970
_cell_length_b 18.292952
_cell_length_c 9.018297
_cell_angle_alpha 90.000000
_cell_angle_beta 90.000000
_cell_angle_gamma 90.000000
_cell_volume 4261.533005
_symmetry_space_group_name_H-M "P B C M"
_symmetry_group_IT_number 57
_symmetry_cell_setting 'orthorhombic'
loop_
_space_group_symop_operation_xyz
x,y,z
-x,-y,1/2+z
x,1/2-y,-z
-x,1/2+y,1/2-z
-x,-y,-z
x,y,1/2-z
-x,1/2+y,z
x,1/2-y,1/2+z
loop_
_atom_site_type_symbol
_atom_site_label
_atom_site_fract_x
_atom_site_fract_y
_atom_site_fract_z
Si Si1 0.548833 0.464573 0.076916
Si Si2 0.391709 0.079867 0.926205
Si Si3 0.810966 0.823989 0.921434
Si Si4 0.308764 0.325398 0.575877
Si Si5 0.956446 0.453133 0.577599
Si Si6 0.892197 0.586197 0.918351
Si Si7 0.509405 0.674238 0.920039
Si Si8 0.002818 0.327614 0.076305
O O1 0.550239 0.485275 0.250000
O O2 0.541561 0.377006 0.056404
O O3 0.500000 0.500000 0.000000
O O4 0.598932 0.498347 0.994083
O O5 0.386322 0.073947 0.750000
O O6 0.438730 0.133062 0.976029
O O7 0.339168 0.108884 0.998555
O O8 0.821230 0.812159 0.750000
O O9 0.751303 0.840980 0.955746
O O10 0.829638 0.750000 0.000000
O O11 0.844683 0.892055 0.977234
O O12 0.326436 0.250000 0.500000
O O13 0.321305 0.321114 0.750000
O O14 0.970115 0.442697 0.750000
O O15 0.903199 0.499309 0.559463
O O16 0.955567 0.374554 0.496079
O O17 0.000000 0.500000 0.500000
O O18 0.875835 0.602326 0.750000
O O19 0.942947 0.633089 0.958834
O O20 0.517520 0.693300 0.750000
O O21 0.499815 0.750000 0.000000
O O22 0.992418 0.319746 0.250000
O O23 0.003561 0.250000 0.000000
#
# Coordination Sequence:
#
# PCOD8230638 Si02
#       8
#     8   8   8   8   8   8   8   8
#     4   9  17  29  42  59  83 110 140 175 210 248
#     4  10  19  30  44  62  82 111 146 176 211 252
#     4  10  20  31  44  61  83 111 143 177 213 248
#     4  10  20  32  44  61  84 111 142 178 214 248
#     4   9  17  29  43  60  82 109 140 174 210 250
#     4   9  18  30  44  61  82 110 143 175 210 248
#     4   9  18  28  40  60  84 109 139 170 204 244
#     4  10  19  29  42  62  86 113 143 175 210 250
#
# _framework density 15.018069000000001
#
# number of rings (size 3 to 8) (size 9 to 14) (size 15 to 20)
#    0.000    2.500    0.000    4.500    0.000    9.500 
#    0.000    0.000    0.000    0.000    0.000    0.000 
#    0.000    1.000    0.000    5.500    0.000    4.250 
#
# Total GULP energy -793305.251432 kJ/mol
# GULP energy per Si atom -12395.394554 kJ/mol
# Density = 1.498389 g / cm^3
# Si number density = 15.018069 Si / 1000 Ang^3
#
#
#
# Elastic Constant Matrix: (Units=GPa)
#
#
# Indices 1 2 3 4 5 6 
#
# 1 54.4232 34.8157 39.6115 0.0000 0.0000 0.0000
# 2 34.8157 83.2803 50.0535 0.0000 0.0000 0.0000
# 3 39.6115 50.0535 96.7864 0.0000 0.0000 0.0000
# 4 0.0000 0.0000 0.0000 30.7005 0.0000 0.0000
# 5 0.0000 0.0000 0.0000 0.0000 23.5890 0.0000
# 6 0.0000 0.0000 0.0000 0.0000 0.0000 24.4908
#
#
#
# Elastic Compliance Matrix: (Units=1/GPa)
#
#
# Indices 1 2 3 4 5 6 
#
# 1 0.028874 -0.007209 -0.008089 0.000000 0.000000 0.000000
# 2 -0.007209 0.019223 -0.006991 0.000000 0.000000 0.000000
# 3 -0.008089 -0.006991 0.017258 0.000000 0.000000 0.000000
# 4 0.000000 0.000000 0.000000 0.032573 0.000000 0.000000
# 5 0.000000 0.000000 0.000000 0.000000 0.042393 0.000000
# 6 0.000000 0.000000 0.000000 0.000000 0.000000 0.040832
#
#
# Mechanical properties :
#
#
# Convention : Reuss Voigt Hill
#
# Bulk Modulus (GPa) = 48.13007 53.71681 50.92344
# Shear Modulus (GPa) = 21.49103 23.09001 22.29052
#
# Velocity S-wave (km/s) = 3.78698 3.92533 3.85677
# Velocity P-wave (km/s) = 7.15816 7.50933 7.33585
#
# Compressibility (1/GPa) = 0.02077703
#
# Stress axis : x y z
#
# Youngs Moduli (GPa) = 34.63353 52.02059 57.94465
#
# Poissons Ratio (x) = 0.37503 0.46870
# Poissons Ratio (y) = 0.24968 0.40508
# Poissons Ratio (z) = 0.28014 0.36367
#
# Static dielectric constant tensor:
#      x y z
#    x 2.717710 0.000000 0.000000 
#    y 0.000000 3.100180 0.000000 
#    z 0.000000 0.000000 3.173510 
# 
# 
# High freq. dielectric constant tensor:
#      x y z
#    x 1.536650 0.000000 0.000000 
#    y 0.000000 1.565460 0.000000 
#    z 0.000000 0.000000 1.594760 
# 
# From -- ./inp_files/9812.got.cif
#   From: 2010.03.12/outbox.cif.g09.slc.cpg/sg57_5_cif.got.tgz:9812.got - 2010.04.16 15:48:40.
