data_PCOD8230235
_publ_section_title
;
Structure prediction by ZEFSAII (Michael W. Deem and Ramdas Pophale) SiO2 
 PCOD8230235
Probable space group: P B C M
;
_chemical_formula_sum "Si O2"
_cell_formula_units_Z 48
_cell_length_a 12.670422
_cell_length_b 25.473121
_cell_length_c 8.785533
_cell_angle_alpha 90.000000
_cell_angle_beta 90.000000
_cell_angle_gamma 90.000000
_cell_volume 2835.576397
_symmetry_space_group_name_H-M "P B C M"
_symmetry_group_IT_number 57
_symmetry_cell_setting 'orthorhombic'
loop_
_space_group_symop_operation_xyz
x,y,z
-x,-y,1/2+z
x,1/2-y,-z
-x,1/2+y,1/2-z
-x,-y,-z
x,y,1/2-z
-x,1/2+y,z
x,1/2-y,1/2+z
loop_
_atom_site_type_symbol
_atom_site_label
_atom_site_fract_x
_atom_site_fract_y
_atom_site_fract_z
Si Si1 0.007041 0.693678 0.073565
Si Si2 0.386059 0.004050 0.071806
Si Si3 0.623892 0.608316 0.569750
Si Si4 0.774391 0.692848 0.427265
Si Si5 0.384853 0.889328 0.071790
Si Si6 0.784829 0.307843 0.068874
O O1 0.036741 0.698832 0.250000
O O2 0.891843 0.667240 0.051331
O O3 0.996333 0.750000 0.000000
O O4 0.104584 0.665510 0.987224
O O5 0.394154 0.015093 0.250000
O O6 0.333227 0.947008 0.038834
O O7 0.326967 0.053344 0.993549
O O8 0.500000 0.000000 0.000000
O O9 0.627934 0.606474 0.750000
O O10 0.691600 0.656277 0.510386
O O11 0.504054 0.615450 0.506525
O O12 0.766143 0.750000 0.500000
O O13 0.746402 0.697443 0.250000
O O14 0.393374 0.880327 0.250000
O O15 0.309065 0.844460 0.003270
O O16 0.784130 0.304904 0.250000
O O17 0.770103 0.250000 0.000000
#
# Coordination Sequence:
#
# PCOD8230235 Si02
#       6
#     8   8   8   8   8   8
#     4   9  17  30  47  67  90 118 155 194 229 269
#     4   9  16  30  49  68  91 122 161 198 234 275
#     4  10  19  32  49  71  98 125 156 193 235 282
#     4  10  20  33  49  70  96 125 156 192 234 278
#     4   8  17  31  47  68  95 125 154 190 232 275
#     4  10  18  30  47  68  94 123 154 187 228 274
#
# _framework density 16.927775
#
# number of rings (size 3 to 8) (size 9 to 14) (size 15 to 20)
#    0.000    2.667    0.000    4.500    0.000    2.667 
#    0.000   11.667    0.000    1.000    0.000    0.000 
#    0.000    0.000    0.000    0.000    0.000    0.000 
#
# Total GULP energy -594645.643591 kJ/mol
# GULP energy per Si atom -12388.450908 kJ/mol
# Density = 1.688925 g / cm^3
# Si number density = 16.927775 Si / 1000 Ang^3
#
#
#
# Elastic Constant Matrix: (Units=GPa)
#
#
# Indices 1 2 3 4 5 6 
#
# 1 98.8262 62.4062 38.8486 0.0000 0.0000 0.0000
# 2 62.4062 106.5781 42.5008 0.0000 0.0000 0.0000
# 3 38.8486 42.5008 90.0852 0.0000 0.0000 0.0000
# 4 0.0000 0.0000 0.0000 27.2321 0.0000 0.0000
# 5 0.0000 0.0000 0.0000 0.0000 22.3608 0.0000
# 6 0.0000 0.0000 0.0000 0.0000 0.0000 2.8243
#
#
#
# Elastic Compliance Matrix: (Units=1/GPa)
#
#
# Indices 1 2 3 4 5 6 
#
# 1 0.016773 -0.008544 -0.003202 0.000000 0.000000 0.000000
# 2 -0.008544 0.015910 -0.003821 0.000000 0.000000 0.000000
# 3 -0.003202 -0.003821 0.014284 0.000000 0.000000 0.000000
# 4 0.000000 0.000000 0.000000 0.036721 0.000000 0.000000
# 5 0.000000 0.000000 0.000000 0.000000 0.044721 0.000000
# 6 0.000000 0.000000 0.000000 0.000000 0.000000 0.354068
#
#
# Mechanical properties :
#
#
# Convention : Reuss Voigt Hill
#
# Bulk Modulus (GPa) = 63.16519 64.77784 63.97151
# Shear Modulus (GPa) = 9.63594 20.59903 15.11749
#
# Velocity S-wave (km/s) = 2.38846 3.49216 2.99165
# Velocity P-wave (km/s) = 6.70834 7.38989 7.05735
#
# Compressibility (1/GPa) = 0.01583151
#
# Stress axis : x y z
#
# Youngs Moduli (GPa) = 59.61910 62.85444 70.00687
#
# Poissons Ratio (x) = 0.53706 0.22417
# Poissons Ratio (y) = 0.50941 0.26751
# Poissons Ratio (z) = 0.19091 0.24018
#
# Static dielectric constant tensor:
#      x y z
#    x 3.599790 0.000000 0.000000 
#    y 0.000000 4.008780 0.000000 
#    z 0.000000 0.000000 3.264140 
# 
# 
# High freq. dielectric constant tensor:
#      x y z
#    x 1.638440 0.000000 0.000000 
#    y 0.000000 1.638120 0.000000 
#    z 0.000000 0.000000 1.659390 
# 
# From -- ./inp_files/3303.got.cif
#   From: 2010.03.12/outbox.cif.g09.slc.cpg/sg57_2_cif.got.tgz:3303.got - 2010.04.16 15:48:40.
