data_PCOD8230477
_publ_section_title
;
Structure prediction by ZEFSAII (Michael W. Deem and Ramdas Pophale) SiO2 
 PCOD8230477
Probable space group: P B C M
;
_chemical_formula_sum "Si O2"
_cell_formula_units_Z 64
_cell_length_a 24.143823
_cell_length_b 14.925516
_cell_length_c 8.866299
_cell_angle_alpha 90.000000
_cell_angle_beta 90.000000
_cell_angle_gamma 90.000000
_cell_volume 3195.050788
_symmetry_space_group_name_H-M "P B C M"
_symmetry_group_IT_number 57
_symmetry_cell_setting 'orthorhombic'
loop_
_space_group_symop_operation_xyz
x,y,z
-x,-y,1/2+z
x,1/2-y,-z
-x,1/2+y,1/2-z
-x,-y,-z
x,y,1/2-z
-x,1/2+y,z
x,1/2-y,1/2+z
loop_
_atom_site_type_symbol
_atom_site_label
_atom_site_fract_x
_atom_site_fract_y
_atom_site_fract_z
Si Si1 0.007150 0.150315 0.071728
Si Si2 0.502474 0.097231 0.072204
Si Si3 0.722488 0.164154 0.072832
Si Si4 0.382647 0.408928 0.573516
Si Si5 0.610937 0.111928 0.928748
Si Si6 0.794913 0.504944 0.924472
Si Si7 0.267931 0.339759 0.927294
Si Si8 0.077486 0.002707 0.575258
O O1 0.011473 0.163902 0.250000
O O2 0.954344 0.088430 0.025456
O O3 0.003727 0.250000 0.000000
O O4 0.059849 0.092560 0.014799
O O5 0.513001 0.089703 0.250000
O O6 0.441431 0.140886 0.038867
O O7 0.552611 0.151836 0.993546
O O8 0.500000 0.000000 0.000000
O O9 0.717138 0.174744 0.250000
O O10 0.758639 0.079505 0.026192
O O11 0.753116 0.250000 0.000000
O O12 0.661716 0.164174 0.999910
O O13 0.372455 0.415813 0.750000
O O14 0.384064 0.510104 0.511804
O O15 0.329488 0.358807 0.502703
O O16 0.611174 0.122182 0.750000
O O17 0.785231 0.529957 0.750000
O O18 0.858557 0.483416 0.957927
O O19 0.775732 0.584780 0.030309
O O20 0.270068 0.328667 0.750000
O O21 0.244692 0.250000 0.000000
O O22 0.065688 0.022576 0.750000
#
# Coordination Sequence:
#
# PCOD8230477 Si02
#       8
#     8   8   8   8   8   8   8   8
#     4  10  20  36  61  92 125 161 196 236 284 334
#     4   9  16  28  48  77 106 139 182 231 289 352
#     4  11  23  38  58  84 113 148 191 237 290 351
#     4   8  16  31  52  75 105 141 181 230 284 343
#     4  10  18  33  54  78 107 143 186 234 290 350
#     4  10  22  41  62  86 116 153 196 243 288 335
#     4  11  22  38  58  83 113 150 192 239 291 347
#     4   9  20  39  61  87 121 157 198 242 283 334
#
# _framework density 20.030982000000002
#
# number of rings (size 3 to 8) (size 9 to 14) (size 15 to 20)
#    0.000    2.250    1.250    2.625    0.000    2.500 
#    0.000    2.500    0.000    1.500    0.000    0.000 
#    0.000    0.000    0.000    0.000    0.000    0.000 
#
# Total GULP energy -793259.316271 kJ/mol
# GULP energy per Si atom -12394.676817 kJ/mol
# Density = 1.998539 g / cm^3
# Si number density = 20.030982 Si / 1000 Ang^3
#
#
#
# Elastic Constant Matrix: (Units=GPa)
#
#
# Indices 1 2 3 4 5 6 
#
# 1 109.0069 39.4726 33.5681 0.0000 0.0000 0.0000
# 2 39.4726 122.0407 47.8096 0.0000 0.0000 0.0000
# 3 33.5681 47.8096 78.7691 0.0000 0.0000 0.0000
# 4 0.0000 0.0000 0.0000 30.1414 0.0000 0.0000
# 5 0.0000 0.0000 0.0000 0.0000 28.2489 0.0000
# 6 0.0000 0.0000 0.0000 0.0000 0.0000 -11.0458
#
#
#
# Elastic Compliance Matrix: (Units=1/GPa)
#
#
# Indices 1 2 3 4 5 6 
#
# 1 0.011016 -0.002262 -0.003322 0.000000 0.000000 0.000000
# 2 -0.002262 0.011214 -0.005843 0.000000 0.000000 0.000000
# 3 -0.003322 -0.005843 0.017657 0.000000 0.000000 0.000000
# 4 0.000000 0.000000 0.000000 0.033177 0.000000 0.000000
# 5 0.000000 0.000000 0.000000 0.000000 0.035400 0.000000
# 6 0.000000 0.000000 0.000000 0.000000 0.000000 -0.090532
#
#
# Mechanical properties :
#
#
# Convention : Reuss Voigt Hill
#
# Bulk Modulus (GPa) = 58.70284 61.27971 59.99127
# Shear Modulus (GPa) = 107.61386 22.06665 64.84026
#
# Velocity S-wave (km/s) = 7.33760 3.32268 5.69563
# Velocity P-wave (km/s) = 10.05767 6.73640 8.55967
#
# Compressibility (1/GPa) = 0.01703495
#
# Stress axis : x y z
#
# Youngs Moduli (GPa) = 90.78055 89.17074 56.63373
#
# Poissons Ratio (x) = 0.20167 0.18812
# Poissons Ratio (y) = 0.20531 0.33091
# Poissons Ratio (z) = 0.30155 0.52102
#
# Static dielectric constant tensor:
#      x y z
#    x 3.882900 0.000000 0.000000 
#    y 0.000000 3.583880 0.000000 
#    z 0.000000 0.000000 3.611600 
# 
# 
# High freq. dielectric constant tensor:
#      x y z
#    x 1.785260 0.000000 0.000000 
#    y 0.000000 1.772970 0.000000 
#    z 0.000000 0.000000 1.775810 
# 
# From -- ./inp_files/9498.got.cif
#   From: 2010.03.12/outbox.cif.g09.slc.cpg/sg57_5_cif.got.tgz:9498.got - 2010.04.16 15:48:40.
