data_PCOD8230754
_publ_section_title
;
Structure prediction by ZEFSAII (Michael W. Deem and Ramdas Pophale) SiO2 
 PCOD8230754
Probable space group: P B C M
;
_chemical_formula_sum "Si O2"
_cell_formula_units_Z 48
_cell_length_a 15.890099
_cell_length_b 18.636250
_cell_length_c 8.828191
_cell_angle_alpha 90.000000
_cell_angle_beta 90.000000
_cell_angle_gamma 90.000000
_cell_volume 2614.308599
_symmetry_space_group_name_H-M "P B C M"
_symmetry_group_IT_number 57
_symmetry_cell_setting 'orthorhombic'
loop_
_space_group_symop_operation_xyz
x,y,z
-x,-y,1/2+z
x,1/2-y,-z
-x,1/2+y,1/2-z
-x,-y,-z
x,y,1/2-z
-x,1/2+y,z
x,1/2-y,1/2+z
loop_
_atom_site_type_symbol
_atom_site_label
_atom_site_fract_x
_atom_site_fract_y
_atom_site_fract_z
Si Si1 0.765557 0.461899 0.923880
Si Si2 0.331986 0.102730 0.578875
Si Si3 0.477416 0.323339 0.927529
Si Si4 0.333253 0.676317 0.428876
Si Si5 0.158255 0.326941 0.069873
Si Si6 0.081467 0.464322 0.570896
O O1 0.798034 0.458018 0.750000
O O2 0.690673 0.519349 0.935040
O O3 0.728686 0.386643 0.982261
O O4 0.841226 0.483222 0.033201
O O5 0.355797 0.123242 0.750000
O O6 0.413452 0.114213 0.475034
O O7 0.253270 0.151255 0.524387
O O8 0.476269 0.314532 0.750000
O O9 0.571785 0.340436 0.985988
O O10 0.443595 0.250000 0.000000
O O11 0.299442 0.750000 0.500000
O O12 0.332069 0.683638 0.250000
O O13 0.146741 0.325865 0.250000
O O14 0.135951 0.250000 0.000000
O O15 0.094597 0.385655 0.001316
O O16 0.071598 0.456400 0.750000
O O17 0.000000 0.500000 0.500000
#
# Coordination Sequence:
#
# PCOD8230754 Si02
#       6
#     8   8   8   8   8   8
#     4   9  19  37  56  75 102 135 171 213 265 318
#     4   9  18  31  49  73 103 138 173 212 258 308
#     4  10  19  30  46  70 101 138 178 217 258 304
#     4   9  19  35  53  73 101 137 176 219 263 306
#     4  10  20  35  55  81 112 144 177 215 262 313
#     4  11  22  38  60  84 109 138 173 214 263 318
#
# _framework density 18.360495
#
# number of rings (size 3 to 8) (size 9 to 14) (size 15 to 20)
#    0.000    2.333    0.000    4.000    0.000    6.667 
#    0.000    0.833    0.000    2.000    0.000    0.000 
#    0.000    0.000    0.000    0.000    0.000    0.000 
#
# Total GULP energy -595265.779745 kJ/mol
# GULP energy per Si atom -12401.370411 kJ/mol
# Density = 1.831871 g / cm^3
# Si number density = 18.360495 Si / 1000 Ang^3
#
#
#
# Elastic Constant Matrix: (Units=GPa)
#
#
# Indices 1 2 3 4 5 6 
#
# 1 75.9206 65.4457 37.1368 0.0000 0.0000 0.0000
# 2 65.4457 144.3002 46.6334 0.0000 0.0000 0.0000
# 3 37.1368 46.6334 79.9668 0.0000 0.0000 0.0000
# 4 0.0000 0.0000 0.0000 31.9421 0.0000 0.0000
# 5 0.0000 0.0000 0.0000 0.0000 29.4748 0.0000
# 6 0.0000 0.0000 0.0000 0.0000 0.0000 26.2912
#
#
#
# Elastic Compliance Matrix: (Units=1/GPa)
#
#
# Indices 1 2 3 4 5 6 
#
# 1 0.023640 -0.008840 -0.005824 0.000000 0.000000 0.000000
# 2 -0.008840 0.011845 -0.002802 0.000000 0.000000 0.000000
# 3 -0.005824 -0.002802 0.016844 0.000000 0.000000 0.000000
# 4 0.000000 0.000000 0.000000 0.031307 0.000000 0.000000
# 5 0.000000 0.000000 0.000000 0.000000 0.033927 0.000000
# 6 0.000000 0.000000 0.000000 0.000000 0.000000 0.038035
#
#
# Mechanical properties :
#
#
# Convention : Reuss Voigt Hill
#
# Bulk Modulus (GPa) = 57.47862 66.51327 61.99595
# Shear Modulus (GPa) = 25.46746 27.60643 26.53694
#
# Velocity S-wave (km/s) = 3.72839 3.88181 3.80587
# Velocity P-wave (km/s) = 7.06457 7.50974 7.29055
#
# Compressibility (1/GPa) = 0.01739777
#
# Stress axis : x y z
#
# Youngs Moduli (GPa) = 42.30031 84.42543 59.36898
#
# Poissons Ratio (x) = 0.74631 0.34574
# Poissons Ratio (y) = 0.37393 0.16636
# Poissons Ratio (z) = 0.24634 0.23657
#
# Static dielectric constant tensor:
#      x y z
#    x 3.299390 0.000000 0.000000 
#    y 0.000000 3.431920 0.000000 
#    z 0.000000 0.000000 3.349710 
# 
# 
# High freq. dielectric constant tensor:
#      x y z
#    x 1.698070 0.000000 0.000000 
#    y 0.000000 1.712720 0.000000 
#    z 0.000000 0.000000 1.713420 
# 
# From -- ./inp_files/4628.got.cif
#   From: 2010.03.12/outbox.cif.g09.slc.cpg/sg57_3_cif.got.tgz:4628.got - 2010.04.16 15:48:40.
