data_PCOD8230118
_publ_section_title
;
Structure prediction by ZEFSAII (Michael W. Deem and Ramdas Pophale) SiO2 
 PCOD8230118
Probable space group: P B C M
;
_chemical_formula_sum "Si O2"
_cell_formula_units_Z 56
_cell_length_a 20.912882
_cell_length_b 18.277964
_cell_length_c 9.026708
_cell_angle_alpha 90.000000
_cell_angle_beta 90.000000
_cell_angle_gamma 90.000000
_cell_volume 3450.413136
_symmetry_space_group_name_H-M "P B C M"
_symmetry_group_IT_number 57
_symmetry_cell_setting 'orthorhombic'
loop_
_space_group_symop_operation_xyz
x,y,z
-x,-y,1/2+z
x,1/2-y,-z
-x,1/2+y,1/2-z
-x,-y,-z
x,y,1/2-z
-x,1/2+y,z
x,1/2-y,1/2+z
loop_
_atom_site_type_symbol
_atom_site_label
_atom_site_fract_x
_atom_site_fract_y
_atom_site_fract_z
Si Si1 0.560764 0.966512 0.578535
Si Si2 0.493232 0.825054 0.579823
Si Si3 0.059302 0.038459 0.924201
Si Si4 0.983667 0.673069 0.072982
Si Si5 0.751839 0.326493 0.574524
Si Si6 0.628679 0.083460 0.423999
Si Si7 0.117692 0.607390 0.077636
O O1 0.559771 0.987570 0.750000
O O2 0.554795 0.878653 0.557341
O O3 0.500000 0.000000 0.500000
O O4 0.622955 0.003732 0.503159
O O5 0.508766 0.750000 0.500000
O O6 0.482521 0.806125 0.750000
O O7 0.428007 0.862766 0.519578
O O8 0.046995 0.051238 0.750000
O O9 0.117398 0.980764 0.949759
O O10 0.069086 0.115813 0.007941
O O11 0.000000 0.000000 0.000000
O O12 0.978201 0.676435 0.250000
O O13 0.053942 0.647360 0.015976
O O14 0.967208 0.750000 0.000000
O O15 0.735783 0.250000 0.500000
O O16 0.754752 0.315589 0.750000
O O17 0.696488 0.382999 0.530332
O O18 0.818399 0.357917 0.507289
O O19 0.622571 0.070239 0.250000
O O20 0.118967 0.623752 0.250000
#
# Coordination Sequence:
#
# PCOD8230118 Si02
#       7
#     8   8   8   8   8   8   8
#     4   9  17  29  44  62  85 111 143 178 214 255
#     4   9  17  27  40  62  86 109 136 170 209 249
#     4   9  16  28  44  62  85 114 147 183 223 266
#     4  10  18  28  43  65  90 116 146 181 224 269
#     4  10  19  31  45  64  90 119 151 182 210 249
#     4   9  18  30  43  61  87 117 148 176 207 249
#     4   8  16  29  44  62  87 118 149 180 215 257
#
# _framework density 16.229939999999999
#
# number of rings (size 3 to 8) (size 9 to 14) (size 15 to 20)
#    0.000    2.857    0.000    3.857    0.000    3.429 
#    0.000    3.571    0.000    0.000    0.000    1.000 
#    0.000    2.286    0.000    0.000    0.000    0.000 
#
# Total GULP energy -693887.830769 kJ/mol
# GULP energy per Si atom -12390.854121 kJ/mol
# Density = 1.619300 g / cm^3
# Si number density = 16.229940 Si / 1000 Ang^3
#
#
#
# Elastic Constant Matrix: (Units=GPa)
#
#
# Indices 1 2 3 4 5 6 
#
# 1 39.6300 20.2115 16.5407 0.0000 0.0000 0.0000
# 2 20.2115 101.6819 41.0266 0.0000 0.0000 0.0000
# 3 16.5407 41.0266 60.3026 0.0000 0.0000 0.0000
# 4 0.0000 0.0000 0.0000 32.9621 0.0000 0.0000
# 5 0.0000 0.0000 0.0000 0.0000 14.8393 0.0000
# 6 0.0000 0.0000 0.0000 0.0000 0.0000 23.4275
#
#
#
# Elastic Compliance Matrix: (Units=1/GPa)
#
#
# Indices 1 2 3 4 5 6 
#
# 1 0.029407 -0.003571 -0.005637 0.000000 0.000000 0.000000
# 2 -0.003571 0.013989 -0.008538 0.000000 0.000000 0.000000
# 3 -0.005637 -0.008538 0.023938 0.000000 0.000000 0.000000
# 4 0.000000 0.000000 0.000000 0.030338 0.000000 0.000000
# 5 0.000000 0.000000 0.000000 0.000000 0.067389 0.000000
# 6 0.000000 0.000000 0.000000 0.000000 0.000000 0.042685
#
#
# Mechanical properties :
#
#
# Convention : Reuss Voigt Hill
#
# Bulk Modulus (GPa) = 31.40411 39.68581 35.54496
# Shear Modulus (GPa) = 19.69650 22.50150 21.09900
#
# Velocity S-wave (km/s) = 3.48744 3.72750 3.60947
# Velocity P-wave (km/s) = 5.96723 6.55980 6.27052
#
# Compressibility (1/GPa) = 0.03184296
#
# Stress axis : x y z
#
# Youngs Moduli (GPa) = 34.00510 71.48291 41.77455
#
# Poissons Ratio (x) = 0.25527 0.23547
# Poissons Ratio (y) = 0.12143 0.35667
# Poissons Ratio (z) = 0.19168 0.61033
#
# Static dielectric constant tensor:
#      x y z
#    x 2.999290 0.000000 0.000000 
#    y 0.000000 3.398810 0.000000 
#    z 0.000000 0.000000 3.120270 
# 
# 
# High freq. dielectric constant tensor:
#      x y z
#    x 1.580750 0.000000 0.000000 
#    y 0.000000 1.630010 0.000000 
#    z 0.000000 0.000000 1.621810 
# 
# From -- ./inp_files/8273.got.cif
#   From: 2010.03.12/outbox.cif.g09.slc.cpg/sg57_5_cif.got.tgz:8273.got - 2010.04.16 15:48:40.
