data_PCOD8230991
_publ_section_title
;
Structure prediction by ZEFSAII (Michael W. Deem and Ramdas Pophale) SiO2 
 PCOD8230991
Probable space group: P B C M
;
_chemical_formula_sum "Si O2"
_cell_formula_units_Z 48
_cell_length_a 14.702689
_cell_length_b 20.594650
_cell_length_c 8.804561
_cell_angle_alpha 90.000000
_cell_angle_beta 90.000000
_cell_angle_gamma 90.000000
_cell_volume 2665.992315
_symmetry_space_group_name_H-M "P B C M"
_symmetry_group_IT_number 57
_symmetry_cell_setting 'orthorhombic'
loop_
_space_group_symop_operation_xyz
x,y,z
-x,-y,1/2+z
x,1/2-y,-z
-x,1/2+y,1/2-z
-x,-y,-z
x,y,1/2-z
-x,1/2+y,z
x,1/2-y,1/2+z
loop_
_atom_site_type_symbol
_atom_site_label
_atom_site_fract_x
_atom_site_fract_y
_atom_site_fract_z
Si Si1 0.684267 0.154992 0.075199
Si Si2 0.110089 0.816369 0.928373
Si Si3 0.724772 0.471988 0.078335
Si Si4 0.929267 0.048742 0.926730
Si Si5 0.502906 0.186013 0.572129
Si Si6 0.559880 0.944400 0.924354
O O1 0.658395 0.166597 0.250000
O O2 0.782819 0.182919 0.033322
O O3 0.609811 0.188569 0.969098
O O4 0.682610 0.078396 0.040946
O O5 0.091091 0.817266 0.750000
O O6 0.069436 0.750000 0.000000
O O7 0.062535 0.879612 0.000270
O O8 0.714147 0.443912 0.250000
O O9 0.830707 0.483494 0.042512
O O10 0.667129 0.538082 0.061918
O O11 0.950577 0.055991 0.750000
O O12 0.000000 0.000000 0.000000
O O13 0.456361 0.250000 0.500000
O O14 0.489656 0.187116 0.750000
O O15 0.453288 0.123305 0.507205
O O16 0.529595 0.937451 0.750000
O O17 0.500000 0.000000 0.000000
#
# Coordination Sequence:
#
# PCOD8230991 Si02
#       6
#     8   8   8   8   8   8
#     4  10  19  31  50  76 107 141 178 217 263 321
#     4  10  20  33  51  78 109 143 177 217 268 327
#     4   9  19  34  54  78 107 141 178 219 267 318
#     4  10  20  36  57  82 110 142 178 223 272 325
#     4  12  24  36  50  72 105 145 185 229 274 321
#     4  11  21  35  55  80 107 142 183 223 264 315
#
# _framework density 18.004553000000001
#
# number of rings (size 3 to 8) (size 9 to 14) (size 15 to 20)
#    0.000    1.667    1.667    4.000    0.000    4.667 
#    0.000    0.000    0.000    1.000    0.000    4.667 
#    0.000    0.000    0.000    0.000    0.000    0.000 
#
# Total GULP energy -595211.662255 kJ/mol
# GULP energy per Si atom -12400.242964 kJ/mol
# Density = 1.796357 g / cm^3
# Si number density = 18.004553 Si / 1000 Ang^3
#
#
#
# Elastic Constant Matrix: (Units=GPa)
#
#
# Indices 1 2 3 4 5 6 
#
# 1 62.8642 56.3601 36.2306 0.0000 0.0000 0.0000
# 2 56.3601 161.6792 77.2507 0.0000 0.0000 0.0000
# 3 36.2306 77.2507 133.8626 0.0000 0.0000 0.0000
# 4 0.0000 0.0000 0.0000 35.0622 0.0000 0.0000
# 5 0.0000 0.0000 0.0000 0.0000 24.5691 0.0000
# 6 0.0000 0.0000 0.0000 0.0000 0.0000 20.9251
#
#
#
# Elastic Compliance Matrix: (Units=1/GPa)
#
#
# Indices 1 2 3 4 5 6 
#
# 1 0.023627 -0.007153 -0.002267 0.000000 0.000000 0.000000
# 2 -0.007153 0.010705 -0.004242 0.000000 0.000000 0.000000
# 3 -0.002267 -0.004242 0.010532 0.000000 0.000000 0.000000
# 4 0.000000 0.000000 0.000000 0.028521 0.000000 0.000000
# 5 0.000000 0.000000 0.000000 0.000000 0.040701 0.000000
# 6 0.000000 0.000000 0.000000 0.000000 0.000000 0.047789
#
#
# Mechanical properties :
#
#
# Convention : Reuss Voigt Hill
#
# Bulk Modulus (GPa) = 57.01116 77.56542 67.28829
# Shear Modulus (GPa) = 25.63501 28.68226 27.15864
#
# Velocity S-wave (km/s) = 3.77743 3.99564 3.88807
# Velocity P-wave (km/s) = 7.12453 8.02879 7.59013
#
# Compressibility (1/GPa) = 0.01754042
#
# Stress axis : x y z
#
# Youngs Moduli (GPa) = 42.32513 93.41095 94.95008
#
# Poissons Ratio (x) = 0.66817 0.21523
# Poissons Ratio (y) = 0.30275 0.40277
# Poissons Ratio (z) = 0.09594 0.39625
#
# Static dielectric constant tensor:
#      x y z
#    x 3.171960 0.000000 0.000000 
#    y 0.000000 3.402470 0.000000 
#    z 0.000000 0.000000 3.437220 
# 
# 
# High freq. dielectric constant tensor:
#      x y z
#    x 1.662270 0.000000 0.000000 
#    y 0.000000 1.698760 0.000000 
#    z 0.000000 0.000000 1.714680 
# 
# From -- ./inp_files/4850.got.cif
#   From: 2010.03.12/outbox.cif.g09.slc.cpg/sg57_3_cif.got.tgz:4850.got - 2010.04.16 15:48:40.
