data_PCOD8230263
_publ_section_title
;
Structure prediction by ZEFSAII (Michael W. Deem and Ramdas Pophale) SiO2 
 PCOD8230263
Probable space group: P B C M
;
_chemical_formula_sum "Si O2"
_cell_formula_units_Z 48
_cell_length_a 9.226612
_cell_length_b 16.868706
_cell_length_c 16.579456
_cell_angle_alpha 90.000000
_cell_angle_beta 90.000000
_cell_angle_gamma 90.000000
_cell_volume 2580.443198
_symmetry_space_group_name_H-M "P B C M"
_symmetry_group_IT_number 57
_symmetry_cell_setting 'orthorhombic'
loop_
_space_group_symop_operation_xyz
x,y,z
-x,-y,1/2+z
x,1/2-y,-z
-x,1/2+y,1/2-z
-x,-y,-z
x,y,1/2-z
-x,1/2+y,z
x,1/2-y,1/2+z
loop_
_atom_site_type_symbol
_atom_site_label
_atom_site_fract_x
_atom_site_fract_y
_atom_site_fract_z
Si Si1 0.841771 0.375671 0.654944
Si Si2 0.165127 0.448881 0.345422
Si Si3 0.350036 0.765878 0.407445
Si Si4 0.925939 0.776021 0.590800
Si Si5 0.103739 0.640741 0.658438
Si Si6 0.335543 0.202836 0.844583
O O1 0.869659 0.375311 0.750000
O O2 0.789641 0.463149 0.626024
O O3 0.718603 0.312225 0.632826
O O4 0.994746 0.359488 0.608558
O O5 0.169165 0.442117 0.250000
O O6 0.277101 0.382312 0.379004
O O7 0.997447 0.431764 0.372953
O O8 0.381194 0.750000 0.500000
O O9 0.243709 0.842140 0.397512
O O10 0.497202 0.787383 0.363296
O O11 0.961343 0.750000 0.500000
O O12 0.754124 0.773495 0.610107
O O13 0.999318 0.716974 0.655329
O O14 0.157767 0.627891 0.750000
O O15 0.311258 0.210919 0.750000
#
# Coordination Sequence:
#
# PCOD8230263 Si02
#       6
#     8   8   8   8   8   8
#     4  10  18  33  54  77 100 129 167 212 250 288
#     4   8  17  32  53  75  97 126 170 212 246 290
#     4  11  21  33  50  76 104 133 168 208 249 297
#     4  10  18  30  49  75 101 127 161 203 247 295
#     4   9  16  31  51  71  94 130 168 198 237 297
#     4  10  19  35  53  70  95 135 170 199 245 307
#
# _framework density 18.601457
#
# number of rings (size 3 to 8) (size 9 to 14) (size 15 to 20)
#    0.000    2.333    0.000    7.500    0.000    0.000 
#    0.000   10.000    0.000    4.000    0.000    0.000 
#    0.000    0.000    0.000    0.000    0.000    0.000 
#
# Total GULP energy -594760.313408 kJ/mol
# GULP energy per Si atom -12390.839863 kJ/mol
# Density = 1.855912 g / cm^3
# Si number density = 18.601457 Si / 1000 Ang^3
#
#
#
# Elastic Constant Matrix: (Units=GPa)
#
#
# Indices 1 2 3 4 5 6 
#
# 1 122.5061 57.1957 12.0441 0.0000 0.0000 0.0000
# 2 57.1957 102.5172 24.0823 0.0000 0.0000 0.0000
# 3 12.0441 24.0823 64.3790 0.0000 0.0000 0.0000
# 4 0.0000 0.0000 0.0000 11.5639 0.0000 0.0000
# 5 0.0000 0.0000 0.0000 0.0000 24.8745 0.0000
# 6 0.0000 0.0000 0.0000 0.0000 0.0000 21.7086
#
#
#
# Elastic Compliance Matrix: (Units=1/GPa)
#
#
# Indices 1 2 3 4 5 6 
#
# 1 0.011042 -0.006222 0.000262 0.000000 0.000000 0.000000
# 2 -0.006222 0.014200 -0.004148 0.000000 0.000000 0.000000
# 3 0.000262 -0.004148 0.017036 0.000000 0.000000 0.000000
# 4 0.000000 0.000000 0.000000 0.086476 0.000000 0.000000
# 5 0.000000 0.000000 0.000000 0.000000 0.040202 0.000000
# 6 0.000000 0.000000 0.000000 0.000000 0.000000 0.046065
#
#
# Mechanical properties :
#
#
# Convention : Reuss Voigt Hill
#
# Bulk Modulus (GPa) = 45.32765 52.89405 49.11085
# Shear Modulus (GPa) = 20.61089 24.70142 22.65616
#
# Velocity S-wave (km/s) = 3.33231 3.64803 3.49374
# Velocity P-wave (km/s) = 6.26310 6.80010 6.53712
#
# Compressibility (1/GPa) = 0.02206159
#
# Stress axis : x y z
#
# Youngs Moduli (GPa) = 90.56286 70.42174 58.70052
#
# Poissons Ratio (x) = 0.43816 -0.01536
# Poissons Ratio (y) = 0.56348 0.24348
# Poissons Ratio (z) = -0.02370 0.29210
#
# Static dielectric constant tensor:
#      x y z
#    x 3.525190 0.000000 0.000000 
#    y 0.000000 3.640570 0.000000 
#    z 0.000000 0.000000 3.300840 
# 
# 
# High freq. dielectric constant tensor:
#      x y z
#    x 1.715630 0.000000 0.000000 
#    y 0.000000 1.697720 0.000000 
#    z 0.000000 0.000000 1.717270 
# 
# From -- ./inp_files/16352.got.cif
#   From: 2010.03.12/outbox.cif.g09.slc.cpg/sg57_9_cif.got.tgz:16352.got - 2010.04.16 15:48:40.
