data_PCOD8230717
_publ_section_title
;
Structure prediction by ZEFSAII (Michael W. Deem and Ramdas Pophale) SiO2 
 PCOD8230717
Probable space group: P B C M
;
_chemical_formula_sum "Si O2"
_cell_formula_units_Z 48
_cell_length_a 11.791291
_cell_length_b 25.636808
_cell_length_c 9.190323
_cell_angle_alpha 90.000000
_cell_angle_beta 90.000000
_cell_angle_gamma 90.000000
_cell_volume 2778.152513
_symmetry_space_group_name_H-M "P B C M"
_symmetry_group_IT_number 57
_symmetry_cell_setting 'orthorhombic'
loop_
_space_group_symop_operation_xyz
x,y,z
-x,-y,1/2+z
x,1/2-y,-z
-x,1/2+y,1/2-z
-x,-y,-z
x,y,1/2-z
-x,1/2+y,z
x,1/2-y,1/2+z
loop_
_atom_site_type_symbol
_atom_site_label
_atom_site_fract_x
_atom_site_fract_y
_atom_site_fract_z
Si Si1 0.296573 0.423414 0.418055
Si Si2 0.176176 0.896055 0.083812
Si Si3 0.341521 0.538601 0.414052
Si Si4 0.513880 0.872699 0.920745
Si Si5 0.665022 0.195850 0.923651
Si Si6 0.045946 0.449436 0.081232
O O1 0.297805 0.405485 0.250000
O O2 0.365015 0.477626 0.438987
O O3 0.359385 0.379539 0.514931
O O4 0.168060 0.430253 0.476461
O O5 0.209355 0.902864 0.250000
O O6 0.228628 0.841059 0.031028
O O7 0.040987 0.900766 0.058244
O O8 0.233147 0.945151 0.006651
O O9 0.304615 0.549626 0.250000
O O10 0.451160 0.572669 0.453401
O O11 0.519145 0.858740 0.750000
O O12 0.450944 0.826837 0.008333
O O13 0.651575 0.202281 0.750000
O O14 0.692839 0.250000 0.000000
O O15 0.056732 0.464835 0.250000
O O16 0.000000 0.500000 0.000000
#
# Coordination Sequence:
#
# PCOD8230717 Si02
#       6
#     8   8   8   8   8   8
#     4  10  19  30  45  68 102 140 173 204 246 293
#     4   9  18  31  49  74 101 130 167 208 252 298
#     4   9  17  29  45  68  99 134 169 206 245 291
#     4  10  20  32  48  72 100 130 168 209 251 300
#     4  10  20  36  57  78  99 124 159 208 261 309
#     4  10  19  31  48  71 102 140 176 208 245 295
#
# _framework density 17.277670000000001
#
# number of rings (size 3 to 8) (size 9 to 14) (size 15 to 20)
#    0.000    2.333    1.667    1.500    0.000    2.667 
#    0.000    0.000    0.000    1.000    0.000    2.333 
#    0.000    0.000    0.000    0.000    0.000    0.000 
#
# Total GULP energy -594998.976239 kJ/mol
# GULP energy per Si atom -12395.812005 kJ/mol
# Density = 1.723835 g / cm^3
# Si number density = 17.277670 Si / 1000 Ang^3
#
#
#
# Elastic Constant Matrix: (Units=GPa)
#
#
# Indices 1 2 3 4 5 6 
#
# 1 98.3879 37.0321 34.8968 0.0000 0.0000 0.0000
# 2 37.0321 67.8334 33.1823 0.0000 0.0000 0.0000
# 3 34.8968 33.1823 62.3845 0.0000 0.0000 0.0000
# 4 0.0000 0.0000 0.0000 26.6563 0.0000 0.0000
# 5 0.0000 0.0000 0.0000 0.0000 23.3962 0.0000
# 6 0.0000 0.0000 0.0000 0.0000 0.0000 15.7483
#
#
#
# Elastic Compliance Matrix: (Units=1/GPa)
#
#
# Indices 1 2 3 4 5 6 
#
# 1 0.013876 -0.005107 -0.005045 0.000000 0.000000 0.000000
# 2 -0.005107 0.021806 -0.008742 0.000000 0.000000 0.000000
# 3 -0.005045 -0.008742 0.023502 0.000000 0.000000 0.000000
# 4 0.000000 0.000000 0.000000 0.037515 0.000000 0.000000
# 5 0.000000 0.000000 0.000000 0.000000 0.042742 0.000000
# 6 0.000000 0.000000 0.000000 0.000000 0.000000 0.063499
#
#
# Mechanical properties :
#
#
# Convention : Reuss Voigt Hill
#
# Bulk Modulus (GPa) = 46.73991 48.75868 47.74930
# Shear Modulus (GPa) = 20.17271 21.39314 20.78292
#
# Velocity S-wave (km/s) = 3.42066 3.52262 3.47202
# Velocity P-wave (km/s) = 6.53546 6.69530 6.61586
#
# Compressibility (1/GPa) = 0.02139499
#
# Stress axis : x y z
#
# Youngs Moduli (GPa) = 72.06896 45.85806 42.54993
#
# Poissons Ratio (x) = 0.23420 0.21468
# Poissons Ratio (y) = 0.36806 0.37197
# Poissons Ratio (z) = 0.36361 0.40089
#
# Static dielectric constant tensor:
#      x y z
#    x 3.330160 0.000000 0.000000 
#    y 0.000000 3.050600 0.000000 
#    z 0.000000 0.000000 3.301560 
# 
# 
# High freq. dielectric constant tensor:
#      x y z
#    x 1.665840 0.000000 0.000000 
#    y 0.000000 1.634190 0.000000 
#    z 0.000000 0.000000 1.672300 
# 
# From -- ./inp_files/3262.got.cif
#   From: 2010.03.12/outbox.cif.g09.slc.cpg/sg57_2_cif.got.tgz:3262.got - 2010.04.16 15:48:40.
