data_PCOD8230445
_publ_section_title
;
Structure prediction by ZEFSAII (Michael W. Deem and Ramdas Pophale) SiO2 
 PCOD8230445
Probable space group: P B C M
;
_chemical_formula_sum "Si O2"
_cell_formula_units_Z 64
_cell_length_a 15.820740
_cell_length_b 9.090047
_cell_length_c 22.297633
_cell_angle_alpha 90.000000
_cell_angle_beta 90.000000
_cell_angle_gamma 90.000000
_cell_volume 3206.650924
_symmetry_space_group_name_H-M "P B C M"
_symmetry_group_IT_number 57
_symmetry_cell_setting 'orthorhombic'
loop_
_space_group_symop_operation_xyz
x,y,z
-x,-y,1/2+z
x,1/2-y,-z
-x,1/2+y,1/2-z
-x,-y,-z
x,y,1/2-z
-x,1/2+y,z
x,1/2-y,1/2+z
loop_
_atom_site_type_symbol
_atom_site_label
_atom_site_fract_x
_atom_site_fract_y
_atom_site_fract_z
Si Si1 0.902159 0.916619 0.178386
Si Si2 0.570717 0.899575 0.315451
Si Si3 0.768945 0.091578 0.818270
Si Si4 0.632875 0.858145 0.550887
Si Si5 0.938555 0.258921 0.681000
Si Si6 0.318062 0.672332 0.556490
Si Si7 0.263145 0.257710 0.653867
Si Si8 0.534898 0.322657 0.884775
O O1 0.900591 0.917777 0.250000
O O2 0.813581 0.855995 0.154686
O O3 0.976796 0.812180 0.152653
O O4 0.915185 0.082341 0.152329
O O5 0.543562 0.952585 0.250000
O O6 0.657151 0.806979 0.310260
O O7 0.491299 0.805978 0.339142
O O8 0.586624 0.045356 0.354218
O O9 0.739214 0.143019 0.750000
O O10 0.865261 0.139296 0.827740
O O11 0.720601 0.165174 0.875470
O O12 0.763182 0.915258 0.818862
O O13 0.600896 0.750000 0.500000
O O14 0.708215 0.775308 0.585373
O O15 0.551642 0.892907 0.591073
O O16 0.668424 0.011932 0.528345
O O17 0.957503 0.289053 0.750000
O O18 0.267785 0.750000 0.500000
O O19 0.406490 0.758006 0.562955
#
# Coordination Sequence:
#
# PCOD8230445 Si02
#       8
#     8   8   8   8   8   8   8   8
#     4  10  18  32  54  86 121 157 196 241 292 360
#     4  11  23  38  57  85 122 162 199 248 310 368
#     4  10  21  40  60  86 123 160 198 247 306 364
#     4  10  23  42  61  81 112 155 204 256 306 358
#     4   9  19  32  55  86 121 161 198 238 297 356
#     4  11  25  39  61  89 116 157 203 256 305 359
#     4  10  22  37  58  87 117 157 201 249 307 361
#     4  11  23  40  57  84 114 155 206 252 302 362
#
# _framework density 19.958517000000001
#
# number of rings (size 3 to 8) (size 9 to 14) (size 15 to 20)
#    0.000    1.750    1.250    2.625    5.250    4.000 
#    0.000    0.000    0.000    0.750    0.000    5.250 
#    0.000    0.000    0.000    0.000    0.000    0.000 
#
# Total GULP energy -793030.883912 kJ/mol
# GULP energy per Si atom -12391.107561 kJ/mol
# Density = 1.991309 g / cm^3
# Si number density = 19.958517 Si / 1000 Ang^3
#
#
#
# Elastic Constant Matrix: (Units=GPa)
#
#
# Indices 1 2 3 4 5 6 
#
# 1 82.4286 36.2158 21.1304 0.0000 0.0000 0.0000
# 2 36.2158 111.2868 40.4586 0.0000 0.0000 0.0000
# 3 21.1304 40.4586 93.1830 0.0000 0.0000 0.0000
# 4 0.0000 0.0000 0.0000 28.3872 0.0000 0.0000
# 5 0.0000 0.0000 0.0000 0.0000 12.6756 0.0000
# 6 0.0000 0.0000 0.0000 0.0000 0.0000 36.6206
#
#
#
# Elastic Compliance Matrix: (Units=1/GPa)
#
#
# Indices 1 2 3 4 5 6 
#
# 1 0.014320 -0.004132 -0.001453 0.000000 0.000000 0.000000
# 2 -0.004132 0.011862 -0.004213 0.000000 0.000000 0.000000
# 3 -0.001453 -0.004213 0.012891 0.000000 0.000000 0.000000
# 4 0.000000 0.000000 0.000000 0.035227 0.000000 0.000000
# 5 0.000000 0.000000 0.000000 0.000000 0.078892 0.000000
# 6 0.000000 0.000000 0.000000 0.000000 0.000000 0.027307
#
#
# Mechanical properties :
#
#
# Convention : Reuss Voigt Hill
#
# Bulk Modulus (GPa) = 51.34650 53.61201 52.47925
# Shear Modulus (GPa) = 24.20294 28.14293 26.17294
#
# Velocity S-wave (km/s) = 3.48611 3.75917 3.62521
# Velocity P-wave (km/s) = 6.47969 6.76475 6.62375
#
# Compressibility (1/GPa) = 0.01947552
#
# Stress axis : x y z
#
# Youngs Moduli (GPa) = 69.83477 84.30175 77.57637
#
# Poissons Ratio (x) = 0.34830 0.11274
# Poissons Ratio (y) = 0.28853 0.32686
# Poissons Ratio (z) = 0.10149 0.35520
#
# Static dielectric constant tensor:
#      x y z
#    x 3.497050 0.000000 0.000000 
#    y 0.000000 3.800810 0.000000 
#    z 0.000000 0.000000 3.478520 
# 
# 
# High freq. dielectric constant tensor:
#      x y z
#    x 1.763990 0.000000 0.000000 
#    y 0.000000 1.797470 0.000000 
#    z 0.000000 0.000000 1.753580 
# 
# From -- ./inp_files/27474.got.cif
#   From: 2010.03.12/outbox.cif.g09.slc.cpg/sg57_14_cif.got.tgz:27474.got - 2010.04.16 15:48:40.
