data_PCOD8230750
_publ_section_title
;
Structure prediction by ZEFSAII (Michael W. Deem and Ramdas Pophale) SiO2 
 PCOD8230750
Probable space group: P B C M
;
_chemical_formula_sum "Si O2"
_cell_formula_units_Z 48
_cell_length_a 16.228924
_cell_length_b 18.699933
_cell_length_c 8.609847
_cell_angle_alpha 90.000000
_cell_angle_beta 90.000000
_cell_angle_gamma 90.000000
_cell_volume 2612.914572
_symmetry_space_group_name_H-M "P B C M"
_symmetry_group_IT_number 57
_symmetry_cell_setting 'orthorhombic'
loop_
_space_group_symop_operation_xyz
x,y,z
-x,-y,1/2+z
x,1/2-y,-z
-x,1/2+y,1/2-z
-x,-y,-z
x,y,1/2-z
-x,1/2+y,z
x,1/2-y,1/2+z
loop_
_atom_site_type_symbol
_atom_site_label
_atom_site_fract_x
_atom_site_fract_y
_atom_site_fract_z
Si Si1 0.756875 0.459082 0.929702
Si Si2 0.917740 0.534457 0.935463
Si Si3 0.475114 0.174878 0.433510
Si Si4 0.661806 0.174980 0.434489
Si Si5 0.323255 0.394198 0.069979
Si Si6 0.162703 0.172492 0.433814
O O1 0.769274 0.443315 0.750000
O O2 0.845024 0.482483 0.998880
O O3 0.720408 0.386863 0.006267
O O4 0.692064 0.522247 0.957055
O O5 0.918777 0.538407 0.750000
O O6 0.901858 0.614377 0.998558
O O7 0.000000 0.500000 0.000000
O O8 0.444107 0.250000 0.500000
O O9 0.467818 0.174787 0.250000
O O10 0.568288 0.159590 0.489716
O O11 0.414841 0.115998 0.504964
O O12 0.694224 0.250000 0.500000
O O13 0.665187 0.177024 0.250000
O O14 0.316810 0.373102 0.250000
O O15 0.256278 0.346395 0.980280
O O16 0.138307 0.250000 0.500000
O O17 0.154558 0.173595 0.250000
#
# Coordination Sequence:
#
# PCOD8230750 Si02
#       6
#     8   8   8   8   8   8
#     4   8  17  34  54  73  98 132 167 207 257 308
#     4  10  20  37  59  82 108 139 173 211 260 315
#     4  10  19  30  46  69  99 134 172 212 252 297
#     4   9  18  34  52  71  97 132 172 212 254 297
#     4  10  19  32  50  73 102 136 172 210 256 309
#     4  11  21  35  55  80 109 139 173 214 260 311
#
# _framework density 18.370291999999999
#
# number of rings (size 3 to 8) (size 9 to 14) (size 15 to 20)
#    0.000    2.333    0.000    4.500    0.000    1.333 
#    0.000    5.833    0.000    2.000    0.000    0.000 
#    0.000    0.000    0.000    0.000    0.000    0.000 
#
# Total GULP energy -595119.391039 kJ/mol
# GULP energy per Si atom -12398.320647 kJ/mol
# Density = 1.832848 g / cm^3
# Si number density = 18.370292 Si / 1000 Ang^3
#
#
#
# Elastic Constant Matrix: (Units=GPa)
#
#
# Indices 1 2 3 4 5 6 
#
# 1 101.6694 75.6757 32.9238 0.0000 0.0000 0.0000
# 2 75.6757 131.1445 41.6135 0.0000 0.0000 0.0000
# 3 32.9238 41.6135 83.2780 0.0000 0.0000 0.0000
# 4 0.0000 0.0000 0.0000 28.0212 0.0000 0.0000
# 5 0.0000 0.0000 0.0000 0.0000 22.7588 0.0000
# 6 0.0000 0.0000 0.0000 0.0000 0.0000 30.7097
#
#
#
# Elastic Compliance Matrix: (Units=1/GPa)
#
#
# Indices 1 2 3 4 5 6 
#
# 1 0.017585 -0.009437 -0.002236 0.000000 0.000000 0.000000
# 2 -0.009437 0.014127 -0.003328 0.000000 0.000000 0.000000
# 3 -0.002236 -0.003328 0.014555 0.000000 0.000000 0.000000
# 4 0.000000 0.000000 0.000000 0.035687 0.000000 0.000000
# 5 0.000000 0.000000 0.000000 0.000000 0.043939 0.000000
# 6 0.000000 0.000000 0.000000 0.000000 0.000000 0.032563
#
#
# Mechanical properties :
#
#
# Convention : Reuss Voigt Hill
#
# Bulk Modulus (GPa) = 61.48860 68.50197 64.99529
# Shear Modulus (GPa) = 25.78908 27.35651 26.57280
#
# Velocity S-wave (km/s) = 3.75086 3.86316 3.80743
# Velocity P-wave (km/s) = 7.23208 7.56764 7.40176
#
# Compressibility (1/GPa) = 0.01626318
#
# Stress axis : x y z
#
# Youngs Moduli (GPa) = 56.86821 70.78646 68.70450
#
# Poissons Ratio (x) = 0.66804 0.15364
# Poissons Ratio (y) = 0.53669 0.22866
# Poissons Ratio (z) = 0.12717 0.23558
#
# Static dielectric constant tensor:
#      x y z
#    x 3.672410 0.000000 0.000000 
#    y 0.000000 3.540480 0.000000 
#    z 0.000000 0.000000 3.294370 
# 
# 
# High freq. dielectric constant tensor:
#      x y z
#    x 1.702220 0.000000 0.000000 
#    y 0.000000 1.714550 0.000000 
#    z 0.000000 0.000000 1.707810 
# 
# From -- ./inp_files/4690.got.cif
#   From: 2010.03.12/outbox.cif.g09.slc.cpg/sg57_3_cif.got.tgz:4690.got - 2010.04.16 15:48:40.
