data_PCOD8230770
_publ_section_title
;
Structure prediction by ZEFSAII (Michael W. Deem and Ramdas Pophale) SiO2 
 PCOD8230770
Probable space group: P B C M
;
_chemical_formula_sum "Si O2"
_cell_formula_units_Z 64
_cell_length_a 30.240351
_cell_length_b 13.767789
_cell_length_c 8.834952
_cell_angle_alpha 90.000000
_cell_angle_beta 90.000000
_cell_angle_gamma 90.000000
_cell_volume 3678.368405
_symmetry_space_group_name_H-M "P B C M"
_symmetry_group_IT_number 57
_symmetry_cell_setting 'orthorhombic'
loop_
_space_group_symop_operation_xyz
x,y,z
-x,-y,1/2+z
x,1/2-y,-z
-x,1/2+y,1/2-z
-x,-y,-z
x,y,1/2-z
-x,1/2+y,z
x,1/2-y,1/2+z
loop_
_atom_site_type_symbol
_atom_site_label
_atom_site_fract_x
_atom_site_fract_y
_atom_site_fract_z
Si Si1 0.899001 0.648022 0.421511
Si Si2 0.354047 0.150277 0.927470
Si Si3 0.434294 0.022819 0.572418
Si Si4 0.119212 0.854108 0.069147
Si Si5 0.952494 0.017029 0.428938
Si Si6 0.518589 0.146131 0.572905
Si Si7 0.815766 0.523888 0.418484
Si Si8 0.253966 0.351563 0.427543
O O1 0.902704 0.750000 0.500000
O O2 0.918669 0.648767 0.250000
O O3 0.925224 0.578071 0.532275
O O4 0.848438 0.615439 0.415100
O O5 0.356967 0.165628 0.750000
O O6 0.386614 0.063934 0.978636
O O7 0.304156 0.125333 0.978884
O O8 0.370716 0.250000 0.000000
O O9 0.436473 0.001464 0.750000
O O10 0.471551 0.100801 0.524773
O O11 0.441794 0.922464 0.484964
O O12 0.114991 0.850033 0.250000
O O13 0.158518 0.928199 0.020245
O O14 0.131258 0.750000 0.000000
O O15 0.072212 0.889864 0.002177
O O16 0.956105 0.032850 0.250000
O O17 0.000000 0.000000 0.500000
O O18 0.524171 0.250000 0.500000
O O19 0.522871 0.158087 0.750000
O O20 0.797832 0.502639 0.250000
O O21 0.774829 0.555171 0.522829
O O22 0.237783 0.250000 0.500000
O O23 0.249534 0.338862 0.250000
#
# Coordination Sequence:
#
# PCOD8230770 Si02
#       8
#     8   8   8   8   8   8   8   8
#     4  10  20  34  51  74 101 130 163 198 238 285
#     4   9  18  31  47  70  99 131 163 199 242 291
#     4   9  18  32  48  67  95 128 163 203 246 293
#     4  10  21  38  58  80 103 131 168 209 251 295
#     4  11  22  37  55  76 103 134 167 204 244 288
#     4  10  19  30  47  70  94 124 162 204 249 295
#     4   9  19  34  52  74 102 130 160 200 242 286
#     4  10  19  30  48  74 103 133 165 198 241 295
#
# _framework density 17.399018000000002
#
# number of rings (size 3 to 8) (size 9 to 14) (size 15 to 20)
#    0.000    2.250    0.000    4.125    0.000    6.000 
#    0.000    2.500    0.000    0.750    0.000    1.750 
#    0.000    0.000    0.000    0.000    0.000    0.000 
#
# Total GULP energy -793543.661030 kJ/mol
# GULP energy per Si atom -12399.119704 kJ/mol
# Density = 1.735942 g / cm^3
# Si number density = 17.399018 Si / 1000 Ang^3
#
#
#
# Elastic Constant Matrix: (Units=GPa)
#
#
# Indices 1 2 3 4 5 6 
#
# 1 94.5956 53.3387 40.0173 0.0000 0.0000 0.0000
# 2 53.3387 119.6627 46.0792 0.0000 0.0000 0.0000
# 3 40.0173 46.0792 82.1721 0.0000 0.0000 0.0000
# 4 0.0000 0.0000 0.0000 32.1919 0.0000 0.0000
# 5 0.0000 0.0000 0.0000 0.0000 25.4305 0.0000
# 6 0.0000 0.0000 0.0000 0.0000 0.0000 23.7306
#
#
#
# Elastic Compliance Matrix: (Units=1/GPa)
#
#
# Indices 1 2 3 4 5 6 
#
# 1 0.015401 -0.005072 -0.004656 0.000000 0.000000 0.000000
# 2 -0.005072 0.012329 -0.004443 0.000000 0.000000 0.000000
# 3 -0.004656 -0.004443 0.016929 0.000000 0.000000 0.000000
# 4 0.000000 0.000000 0.000000 0.031064 0.000000 0.000000
# 5 0.000000 0.000000 0.000000 0.000000 0.039323 0.000000
# 6 0.000000 0.000000 0.000000 0.000000 0.000000 0.042140
#
#
# Mechanical properties :
#
#
# Convention : Reuss Voigt Hill
#
# Bulk Modulus (GPa) = 61.29133 63.92233 62.60683
# Shear Modulus (GPa) = 26.18272 26.73695 26.45984
#
# Velocity S-wave (km/s) = 3.88343 3.92432 3.90393
# Velocity P-wave (km/s) = 7.44389 7.57314 7.50879
#
# Compressibility (1/GPa) = 0.01631552
#
# Stress axis : x y z
#
# Youngs Moduli (GPa) = 64.93175 81.11181 59.07114
#
# Poissons Ratio (x) = 0.41139 0.27503
# Poissons Ratio (y) = 0.32933 0.26248
# Poissons Ratio (z) = 0.30232 0.36042
#
# Static dielectric constant tensor:
#      x y z
#    x 3.388700 0.000000 0.000000 
#    y 0.000000 3.168330 0.000000 
#    z 0.000000 0.000000 3.292000 
# 
# 
# High freq. dielectric constant tensor:
#      x y z
#    x 1.661750 0.000000 0.000000 
#    y 0.000000 1.663940 0.000000 
#    z 0.000000 0.000000 1.682130 
# 
# From -- ./inp_files/10304.got.cif
#   From: 2010.03.12/outbox.cif.g09.slc.cpg/sg57_6_cif.got.tgz:10304.got - 2010.04.16 15:48:40.
