data_PCOD8230827
_publ_section_title
;
Structure prediction by ZEFSAII (Michael W. Deem and Ramdas Pophale) SiO2 
 PCOD8230827
Probable space group: P B C M
;
_chemical_formula_sum "Si O2"
_cell_formula_units_Z 64
_cell_length_a 17.583794
_cell_length_b 22.583583
_cell_length_c 8.950078
_cell_angle_alpha 90.000000
_cell_angle_beta 90.000000
_cell_angle_gamma 90.000000
_cell_volume 3554.121362
_symmetry_space_group_name_H-M "P B C M"
_symmetry_group_IT_number 57
_symmetry_cell_setting 'orthorhombic'
loop_
_space_group_symop_operation_xyz
x,y,z
-x,-y,1/2+z
x,1/2-y,-z
-x,1/2+y,1/2-z
-x,-y,-z
x,y,1/2-z
-x,1/2+y,z
x,1/2-y,1/2+z
loop_
_atom_site_type_symbol
_atom_site_label
_atom_site_fract_x
_atom_site_fract_y
_atom_site_fract_z
Si Si1 0.098422 0.644788 0.427631
Si Si2 0.932528 0.688575 0.426528
Si Si3 0.924909 0.476708 0.078104
Si Si4 0.325322 0.045142 0.925112
Si Si5 0.348438 0.581562 0.574458
Si Si6 0.754221 0.309325 0.428162
Si Si7 0.511126 0.561021 0.577804
Si Si8 0.181221 0.087941 0.419926
O O1 0.109191 0.644970 0.250000
O O2 0.107766 0.578799 0.489242
O O3 0.161123 0.685208 0.506352
O O4 0.016788 0.669929 0.476995
O O5 0.908578 0.750000 0.500000
O O6 0.928814 0.694632 0.250000
O O7 0.873758 0.638940 0.484378
O O8 0.942894 0.460389 0.250000
O O9 0.860126 0.525453 0.068349
O O10 0.000000 0.500000 0.000000
O O11 0.314742 0.036047 0.750000
O O12 0.403315 0.082559 0.963589
O O13 0.257990 0.086129 0.985163
O O14 0.325022 0.979784 0.996985
O O15 0.336068 0.571899 0.750000
O O16 0.295903 0.634979 0.517072
O O17 0.436863 0.600832 0.537119
O O18 0.718116 0.250000 0.500000
O O19 0.756571 0.304144 0.250000
O O20 0.500000 0.500000 0.500000
O O21 0.508720 0.546416 0.750000
O O22 0.203101 0.102284 0.250000
#
# Coordination Sequence:
#
# PCOD8230827 Si02
#       8
#     8   8   8   8   8   8   8   8
#     4  11  22  38  56  77 106 137 174 219 265 313
#     4  10  22  39  55  72  95 130 174 216 256 302
#     4  11  21  35  54  77 106 138 173 214 264 318
#     4  10  19  30  51  84 110 131 169 215 260 308
#     4   9  18  34  54  74 104 143 172 202 259 319
#     4  11  23  37  53  76 103 140 183 221 264 313
#     4   8  15  29  49  75 105 133 162 200 245 303
#     4  10  21  37  52  72 106 140 169 207 260 313
#
# _framework density 18.007263999999999
#
# number of rings (size 3 to 8) (size 9 to 14) (size 15 to 20)
#    0.000    2.000    1.250    2.625    0.000    8.000 
#    0.000    0.000    0.000    0.750    0.000    3.500 
#    0.000    0.000    0.000    0.000    0.000    0.000 
#
# Total GULP energy -793279.694898 kJ/mol
# GULP energy per Si atom -12394.995233 kJ/mol
# Density = 1.796628 g / cm^3
# Si number density = 18.007264 Si / 1000 Ang^3
#
#
#
# Elastic Constant Matrix: (Units=GPa)
#
#
# Indices 1 2 3 4 5 6 
#
# 1 142.6795 46.3320 42.7873 0.0000 0.0000 0.0000
# 2 46.3320 92.6435 28.1750 0.0000 0.0000 0.0000
# 3 42.7873 28.1750 54.4439 0.0000 0.0000 0.0000
# 4 0.0000 0.0000 0.0000 29.0814 0.0000 0.0000
# 5 0.0000 0.0000 0.0000 0.0000 27.6260 0.0000
# 6 0.0000 0.0000 0.0000 0.0000 0.0000 16.5370
#
#
#
# Elastic Compliance Matrix: (Units=1/GPa)
#
#
# Indices 1 2 3 4 5 6 
#
# 1 0.009847 -0.003051 -0.006159 0.000000 0.000000 0.000000
# 2 -0.003051 0.013756 -0.004721 0.000000 0.000000 0.000000
# 3 -0.006159 -0.004721 0.025651 0.000000 0.000000 0.000000
# 4 0.000000 0.000000 0.000000 0.034386 0.000000 0.000000
# 5 0.000000 0.000000 0.000000 0.000000 0.036198 0.000000
# 6 0.000000 0.000000 0.000000 0.000000 0.000000 0.060471
#
#
# Mechanical properties :
#
#
# Convention : Reuss Voigt Hill
#
# Bulk Modulus (GPa) = 46.74899 58.26172 52.50535
# Shear Modulus (GPa) = 23.22330 26.14705 24.68517
#
# Velocity S-wave (km/s) = 3.59508 3.81468 3.70651
# Velocity P-wave (km/s) = 6.57650 7.19911 6.89484
#
# Compressibility (1/GPa) = 0.02139084
#
# Stress axis : x y z
#
# Youngs Moduli (GPa) = 101.55765 72.69728 38.98454
#
# Poissons Ratio (x) = 0.22181 0.24012
# Poissons Ratio (y) = 0.30987 0.18404
# Poissons Ratio (z) = 0.62554 0.34318
#
# Static dielectric constant tensor:
#      x y z
#    x 4.193000 0.000000 0.000000 
#    y 0.000000 3.169240 0.000000 
#    z 0.000000 0.000000 3.331050 
# 
# 
# High freq. dielectric constant tensor:
#      x y z
#    x 1.708970 0.000000 0.000000 
#    y 0.000000 1.672190 0.000000 
#    z 0.000000 0.000000 1.702510 
# 
# From -- ./inp_files/7256.got.cif
#   From: 2010.03.12/outbox.cif.g09.slc.cpg/sg57_4_cif.got.tgz:7256.got - 2010.04.16 15:48:40.
