data_PCOD8230233
_publ_section_title
;
Structure prediction by ZEFSAII (Michael W. Deem and Ramdas Pophale) SiO2 
 PCOD8230233
Probable space group: P B C M
;
_chemical_formula_sum "Si O2"
_cell_formula_units_Z 64
_cell_length_a 19.725955
_cell_length_b 18.813096
_cell_length_c 9.164667
_cell_angle_alpha 90.000000
_cell_angle_beta 90.000000
_cell_angle_gamma 90.000000
_cell_volume 3401.065525
_symmetry_space_group_name_H-M "P B C M"
_symmetry_group_IT_number 57
_symmetry_cell_setting 'orthorhombic'
loop_
_space_group_symop_operation_xyz
x,y,z
-x,-y,1/2+z
x,1/2-y,-z
-x,1/2+y,1/2-z
-x,-y,-z
x,y,1/2-z
-x,1/2+y,z
x,1/2-y,1/2+z
loop_
_atom_site_type_symbol
_atom_site_label
_atom_site_fract_x
_atom_site_fract_y
_atom_site_fract_z
Si Si1 0.414929 0.575500 0.917801
Si Si2 0.465501 0.324346 0.081169
Si Si3 0.363294 0.444202 0.418572
Si Si4 0.701619 0.316136 0.418402
Si Si5 0.917132 0.568443 0.414535
Si Si6 0.174526 0.625313 0.082566
Si Si7 0.954866 0.096291 0.915009
Si Si8 0.211624 0.461505 0.416822
O O1 0.430893 0.557963 0.750000
O O2 0.473791 0.626448 0.981166
O O3 0.343079 0.613884 0.937662
O O4 0.411450 0.501361 0.002596
O O5 0.479572 0.307808 0.250000
O O6 0.394902 0.366170 0.058132
O O7 0.461607 0.250000 0.000000
O O8 0.361994 0.466546 0.250000
O O9 0.286449 0.443592 0.479427
O O10 0.665180 0.250000 0.500000
O O11 0.712234 0.297119 0.250000
O O12 0.773713 0.325979 0.494895
O O13 0.915757 0.598598 0.250000
O O14 0.937214 0.486417 0.413507
O O15 0.843324 0.580246 0.486056
O O16 0.972651 0.610703 0.509504
O O17 0.170598 0.649976 0.250000
O O18 0.199219 0.544830 0.070371
O O19 0.101510 0.637135 0.008990
O O20 0.956847 0.125958 0.750000
O O21 0.204018 0.435771 0.250000
#
# Coordination Sequence:
#
# PCOD8230233 Si02
#       8
#     8   8   8   8   8   8   8   8
#     4  10  21  36  55  80 107 137 176 222 269 320
#     4  10  22  39  57  80 109 141 178 220 267 320
#     4  10  20  35  56  81 108 140 178 220 268 323
#     4  11  22  34  49  71 101 137 179 222 268 322
#     4   9  16  25  40  65  96 130 167 207 253 306
#     4  10  18  30  47  67  96 133 173 214 263 314
#     4   9  16  26  41  63  94 131 168 208 255 306
#     4   9  17  29  46  70 100 133 167 209 262 315
#
# _framework density 18.817630999999999
#
# number of rings (size 3 to 8) (size 9 to 14) (size 15 to 20)
#    0.000    2.250    1.250    2.250    0.000    5.500 
#    0.000    0.000    0.000    0.000    0.000    0.875 
#    0.000    2.000    0.000    0.000    0.000    0.000 
#
# Total GULP energy -793647.195778 kJ/mol
# GULP energy per Si atom -12400.737434 kJ/mol
# Density = 1.877480 g / cm^3
# Si number density = 18.817631 Si / 1000 Ang^3
#
#
#
# Elastic Constant Matrix: (Units=GPa)
#
#
# Indices 1 2 3 4 5 6 
#
# 1 122.9996 32.2624 51.3443 0.0000 0.0000 0.0000
# 2 32.2624 56.4126 32.9681 0.0000 0.0000 0.0000
# 3 51.3443 32.9681 112.0792 0.0000 0.0000 0.0000
# 4 0.0000 0.0000 0.0000 24.6310 0.0000 0.0000
# 5 0.0000 0.0000 0.0000 0.0000 29.8560 0.0000
# 6 0.0000 0.0000 0.0000 0.0000 0.0000 14.8038
#
#
#
# Elastic Compliance Matrix: (Units=1/GPa)
#
#
# Indices 1 2 3 4 5 6 
#
# 1 0.010732 -0.003942 -0.003757 0.000000 0.000000 0.000000
# 2 -0.003942 0.022854 -0.004917 0.000000 0.000000 0.000000
# 3 -0.003757 -0.004917 0.012090 0.000000 0.000000 0.000000
# 4 0.000000 0.000000 0.000000 0.040599 0.000000 0.000000
# 5 0.000000 0.000000 0.000000 0.000000 0.033494 0.000000
# 6 0.000000 0.000000 0.000000 0.000000 0.000000 0.067550
#
#
# Mechanical properties :
#
#
# Convention : Reuss Voigt Hill
#
# Bulk Modulus (GPa) = 48.91247 58.29343 53.60295
# Shear Modulus (GPa) = 22.79285 25.51926 24.15606
#
# Velocity S-wave (km/s) = 3.48408 3.68657 3.58675
# Velocity P-wave (km/s) = 6.49880 7.01188 6.76021
#
# Compressibility (1/GPa) = 0.02044469
#
# Stress axis : x y z
#
# Youngs Moduli (GPa) = 93.17540 43.75509 82.71574
#
# Poissons Ratio (x) = 0.17249 0.31076
# Poissons Ratio (y) = 0.36732 0.40669
# Poissons Ratio (z) = 0.35006 0.21513
#
# Static dielectric constant tensor:
#      x y z
#    x 3.613190 0.000000 0.000000 
#    y 0.000000 3.024830 0.000000 
#    z 0.000000 0.000000 3.523590 
# 
# 
# High freq. dielectric constant tensor:
#      x y z
#    x 1.740920 0.000000 0.000000 
#    y 0.000000 1.683680 0.000000 
#    z 0.000000 0.000000 1.735340 
# 
# From -- ./inp_files/8766.got.cif
#   From: 2010.03.12/outbox.cif.g09.slc.cpg/sg57_5_cif.got.tgz:8766.got - 2010.04.16 15:48:40.
