data_PCOD8230276
_publ_section_title
;
Structure prediction by ZEFSAII (Michael W. Deem and Ramdas Pophale) SiO2 
 PCOD8230276
Probable space group: P B C M
;
_chemical_formula_sum "Si O2"
_cell_formula_units_Z 40
_cell_length_a 11.406221
_cell_length_b 21.083441
_cell_length_c 8.999058
_cell_angle_alpha 90.000000
_cell_angle_beta 90.000000
_cell_angle_gamma 90.000000
_cell_volume 2164.114953
_symmetry_space_group_name_H-M "P B C M"
_symmetry_group_IT_number 57
_symmetry_cell_setting 'orthorhombic'
loop_
_space_group_symop_operation_xyz
x,y,z
-x,-y,1/2+z
x,1/2-y,-z
-x,1/2+y,1/2-z
-x,-y,-z
x,y,1/2-z
-x,1/2+y,z
x,1/2-y,1/2+z
loop_
_atom_site_type_symbol
_atom_site_label
_atom_site_fract_x
_atom_site_fract_y
_atom_site_fract_z
Si Si1 0.578514 0.054343 0.926817
Si Si2 0.614643 0.183836 0.072814
Si Si3 0.182565 0.491331 0.911522
Si Si4 0.883591 0.312013 0.577749
Si Si5 0.025170 0.087079 0.911870
O O1 0.556880 0.058622 0.750000
O O2 0.712377 0.036090 0.967502
O O3 0.548985 0.122836 0.001007
O O4 0.500000 0.000000 0.000000
O O5 0.593909 0.185696 0.250000
O O6 0.750431 0.174616 0.028119
O O7 0.568529 0.250000 0.000000
O O8 0.217461 0.462385 0.750000
O O9 0.062943 0.529284 0.891453
O O10 0.153201 0.435814 0.029544
O O11 0.933267 0.250000 0.500000
O O12 0.889813 0.300476 0.750000
O O13 0.970268 0.367496 0.533739
O O14 0.043485 0.119582 0.750000
#
# Coordination Sequence:
#
# PCOD8230276 Si02
#       5
#     8   8   8   8   8
#     4  11  22  37  56  80 111 144 184 230 273 323
#     4  10  20  34  54  79 108 142 179 223 274 325
#     4   9  19  33  49  72 103 137 171 210 258 308
#     4  10  19  30  48  74 106 139 174 214 262 317
#     4  10  18  30  50  74 103 135 170 210 256 311
#
# _framework density 18.483307
#
# number of rings (size 3 to 8) (size 9 to 14) (size 15 to 20)
#    0.000    2.000    2.000    2.400    0.000    4.000 
#    0.000    0.000    0.000    1.200    0.000    0.000 
#    0.000    0.000    0.000    0.000    0.000    0.000 
#
# Total GULP energy -495752.371772 kJ/mol
# GULP energy per Si atom -12393.809294 kJ/mol
# Density = 1.844124 g / cm^3
# Si number density = 18.483307 Si / 1000 Ang^3
#
#
#
# Elastic Constant Matrix: (Units=GPa)
#
#
# Indices 1 2 3 4 5 6 
#
# 1 36.6165 28.4938 27.7963 0.0000 0.0000 0.0000
# 2 28.4938 118.4050 55.7123 0.0000 0.0000 0.0000
# 3 27.7963 55.7123 94.6027 0.0000 0.0000 0.0000
# 4 0.0000 0.0000 0.0000 39.1447 0.0000 0.0000
# 5 0.0000 0.0000 0.0000 0.0000 19.1787 0.0000
# 6 0.0000 0.0000 0.0000 0.0000 0.0000 22.0548
#
#
#
# Elastic Compliance Matrix: (Units=1/GPa)
#
#
# Indices 1 2 3 4 5 6 
#
# 1 0.037408 -0.005299 -0.007871 0.000000 0.000000 0.000000
# 2 -0.005299 0.012433 -0.005765 0.000000 0.000000 0.000000
# 3 -0.007871 -0.005765 0.016278 0.000000 0.000000 0.000000
# 4 0.000000 0.000000 0.000000 0.025546 0.000000 0.000000
# 5 0.000000 0.000000 0.000000 0.000000 0.052141 0.000000
# 6 0.000000 0.000000 0.000000 0.000000 0.000000 0.045342
#
#
# Mechanical properties :
#
#
# Convention : Reuss Voigt Hill
#
# Bulk Modulus (GPa) = 35.39783 52.62545 44.01164
# Shear Modulus (GPa) = 21.14739 25.25042 23.19890
#
# Velocity S-wave (km/s) = 3.38618 3.70012 3.54662
# Velocity P-wave (km/s) = 5.87206 6.84019 6.37453
#
# Compressibility (1/GPa) = 0.02825032
#
# Stress axis : x y z
#
# Youngs Moduli (GPa) = 26.73199 80.42841 61.43132
#
# Poissons Ratio (x) = 0.42617 0.48352
# Poissons Ratio (y) = 0.14165 0.35417
# Poissons Ratio (z) = 0.21040 0.46369
#
# Static dielectric constant tensor:
#      x y z
#    x 3.105180 0.000000 0.000000 
#    y 0.000000 3.645170 0.000000 
#    z 0.000000 0.000000 4.013570 
# 
# 
# High freq. dielectric constant tensor:
#      x y z
#    x 1.672220 0.000000 0.000000 
#    y 0.000000 1.707650 0.000000 
#    z 0.000000 0.000000 1.736680 
# 
# From -- ./inp_files/2873.got.cif
#   From: 2010.03.12/outbox.cif.g09.slc.cpg/sg57_2_cif.got.tgz:2873.got - 2010.04.16 15:48:40.
