data_PCOD8230169
_publ_section_title
;
Structure prediction by ZEFSAII (Michael W. Deem and Ramdas Pophale) SiO2 
 PCOD8230169
Probable space group: P B C M
;
_chemical_formula_sum "Si O2"
_cell_formula_units_Z 48
_cell_length_a 15.143443
_cell_length_b 21.321049
_cell_length_c 8.437963
_cell_angle_alpha 90.000000
_cell_angle_beta 90.000000
_cell_angle_gamma 90.000000
_cell_volume 2724.399627
_symmetry_space_group_name_H-M "P B C M"
_symmetry_group_IT_number 57
_symmetry_cell_setting 'orthorhombic'
loop_
_space_group_symop_operation_xyz
x,y,z
-x,-y,1/2+z
x,1/2-y,-z
-x,1/2+y,1/2-z
-x,-y,-z
x,y,1/2-z
-x,1/2+y,z
x,1/2-y,1/2+z
loop_
_atom_site_type_symbol
_atom_site_label
_atom_site_fract_x
_atom_site_fract_y
_atom_site_fract_z
Si Si1 0.049422 0.412157 0.064993
Si Si2 0.188999 0.180680 0.064972
Si Si3 0.519982 0.069081 0.438112
Si Si4 0.657547 0.900823 0.435117
Si Si5 0.875222 0.045463 0.065754
Si Si6 0.306903 0.536854 0.934489
O O1 0.029694 0.414262 0.250000
O O2 0.100528 0.474927 0.010706
O O3 0.107335 0.352244 0.022339
O O4 0.955602 0.407977 0.975473
O O5 0.169241 0.180946 0.250000
O O6 0.197619 0.250000 0.000000
O O7 0.280284 0.145503 0.032058
O O8 0.518192 0.072703 0.250000
O O9 0.443341 0.113395 0.509983
O O10 0.617640 0.085726 0.504648
O O11 0.500000 0.000000 0.500000
O O12 0.668722 0.887136 0.250000
O O13 0.685416 0.972135 0.469057
O O14 0.853331 0.048931 0.250000
O O15 0.788507 0.067029 0.969251
O O16 0.320021 0.522920 0.750000
#
# Coordination Sequence:
#
# PCOD8230169 Si02
#       6
#     8   8   8   8   8   8
#     4  10  20  34  51  73 102 134 171 213 259 309
#     4  12  24  38  55  75 101 136 176 216 259 306
#     4  10  18  29  45  68  98 132 166 202 246 297
#     4  11  20  33  49  70 100 133 169 210 253 303
#     4  10  19  31  50  74 104 137 170 209 259 313
#     4  11  19  29  47  73 103 136 169 205 252 306
#
# _framework density 17.618561
#
# number of rings (size 3 to 8) (size 9 to 14) (size 15 to 20)
#    0.000    1.333    1.667    9.000    0.000    1.333 
#    0.000    0.000    0.000    0.000    0.000    1.167 
#    0.000    0.000    0.000    0.000    0.000    0.000 
#
# Total GULP energy -595268.137569 kJ/mol
# GULP energy per Si atom -12401.419533 kJ/mol
# Density = 1.757846 g / cm^3
# Si number density = 17.618561 Si / 1000 Ang^3
#
#
#
# Elastic Constant Matrix: (Units=GPa)
#
#
# Indices 1 2 3 4 5 6 
#
# 1 140.4973 26.0785 14.1057 0.0000 0.0000 0.0000
# 2 26.0785 44.3022 -4.6052 0.0000 0.0000 0.0000
# 3 14.1057 -4.6052 78.4904 0.0000 0.0000 0.0000
# 4 0.0000 0.0000 0.0000 20.1732 0.0000 0.0000
# 5 0.0000 0.0000 0.0000 0.0000 36.3074 0.0000
# 6 0.0000 0.0000 0.0000 0.0000 0.0000 26.5179
#
#
#
# Elastic Compliance Matrix: (Units=1/GPa)
#
#
# Indices 1 2 3 4 5 6 
#
# 1 0.008229 -0.005028 -0.001774 0.000000 0.000000 0.000000
# 2 -0.005028 0.025783 0.002416 0.000000 0.000000 0.000000
# 3 -0.001774 0.002416 0.013201 0.000000 0.000000 0.000000
# 4 0.000000 0.000000 0.000000 0.049571 0.000000 0.000000
# 5 0.000000 0.000000 0.000000 0.000000 0.027543 0.000000
# 6 0.000000 0.000000 0.000000 0.000000 0.000000 0.037710
#
#
# Mechanical properties :
#
#
# Convention : Reuss Voigt Hill
#
# Bulk Modulus (GPa) = 26.01339 37.16086 31.58712
# Shear Modulus (GPa) = 27.22975 31.78043 29.50509
#
# Velocity S-wave (km/s) = 3.93557 4.25173 4.09670
# Velocity P-wave (km/s) = 5.95386 6.72611 6.35173
#
# Compressibility (1/GPa) = 0.03844174
#
# Stress axis : x y z
#
# Youngs Moduli (GPa) = 121.52112 38.78459 75.75192
#
# Poissons Ratio (x) = 0.19502 0.13438
# Poissons Ratio (y) = 0.61106 -0.18305
# Poissons Ratio (z) = 0.21556 -0.09372
#
# Static dielectric constant tensor:
#      x y z
#    x 4.010230 0.000000 0.000000 
#    y 0.000000 2.806940 0.000000 
#    z 0.000000 0.000000 3.366500 
# 
# 
# High freq. dielectric constant tensor:
#      x y z
#    x 1.705230 0.000000 0.000000 
#    y 0.000000 1.606480 0.000000 
#    z 0.000000 0.000000 1.703960 
# 
# From -- ./inp_files/4845.got.cif
#   From: 2010.03.12/outbox.cif.g09.slc.cpg/sg57_3_cif.got.tgz:4845.got - 2010.04.16 15:48:40.
