data_PCOD8230910
_publ_section_title
;
Structure prediction by ZEFSAII (Michael W. Deem and Ramdas Pophale) SiO2 
 PCOD8230910
Probable space group: P B C M
;
_chemical_formula_sum "Si O2"
_cell_formula_units_Z 64
_cell_length_a 15.865719
_cell_length_b 24.412607
_cell_length_c 8.928913
_cell_angle_alpha 90.000000
_cell_angle_beta 90.000000
_cell_angle_gamma 90.000000
_cell_volume 3458.378394
_symmetry_space_group_name_H-M "P B C M"
_symmetry_group_IT_number 57
_symmetry_cell_setting 'orthorhombic'
loop_
_space_group_symop_operation_xyz
x,y,z
-x,-y,1/2+z
x,1/2-y,-z
-x,1/2+y,1/2-z
-x,-y,-z
x,y,1/2-z
-x,1/2+y,z
x,1/2-y,1/2+z
loop_
_atom_site_type_symbol
_atom_site_label
_atom_site_fract_x
_atom_site_fract_y
_atom_site_fract_z
Si Si1 0.457199 0.418726 0.073593
Si Si2 0.366309 0.192484 0.573012
Si Si3 0.956165 0.450704 0.420051
Si Si4 0.846430 0.194678 0.424828
Si Si5 0.977868 0.848832 0.579438
Si Si6 0.618244 0.466059 0.926032
Si Si7 0.223319 0.913497 0.080511
Si Si8 0.824293 0.694616 0.574986
O O1 0.473459 0.417121 0.250000
O O2 0.419424 0.360304 0.018341
O O3 0.395621 0.469678 0.032721
O O4 0.545180 0.427513 0.991228
O O5 0.397500 0.250000 0.500000
O O6 0.373317 0.199939 0.750000
O O7 0.270138 0.179480 0.522975
O O8 0.990241 0.442022 0.250000
O O9 0.855151 0.455542 0.416902
O O10 0.000000 0.500000 0.500000
O O11 0.975547 0.403174 0.534416
O O12 0.811008 0.250000 0.500000
O O13 0.822909 0.193141 0.250000
O O14 0.800024 0.143893 0.503484
O O15 0.948544 0.196086 0.446214
O O16 0.946996 0.849847 0.750000
O O17 0.894508 0.848010 0.476877
O O18 0.619689 0.457661 0.750000
O O19 0.705450 0.446081 0.992773
O O20 0.252832 0.900725 0.250000
O O21 0.855532 0.750000 0.500000
O O22 0.827757 0.701988 0.750000
#
# Coordination Sequence:
#
# PCOD8230910 Si02
#       8
#     8   8   8   8   8   8   8   8
#     4   9  19  37  58  80 108 140 174 215 266 322
#     4   9  19  35  54  78 109 144 178 216 266 320
#     4  10  21  36  53  74 103 139 177 217 263 314
#     4  10  20  34  53  76 104 139 179 223 270 320
#     4  10  20  33  50  73 101 136 178 221 264 311
#     4  10  20  35  58  85 109 136 175 221 267 318
#     4  10  21  37  56  79 108 141 177 220 269 320
#     4  10  19  31  48  72 102 136 174 214 257 306
#
# _framework density 18.505783999999998
#
# number of rings (size 3 to 8) (size 9 to 14) (size 15 to 20)
#    0.000    2.250    0.000    2.625    0.000    6.500 
#    0.000    1.875    0.000    1.500    0.000    0.000 
#    0.000    0.000    0.000    0.000    0.000    0.000 
#
# Total GULP energy -793214.874411 kJ/mol
# GULP energy per Si atom -12393.982413 kJ/mol
# Density = 1.846366 g / cm^3
# Si number density = 18.505784 Si / 1000 Ang^3
#
#
#
# Elastic Constant Matrix: (Units=GPa)
#
#
# Indices 1 2 3 4 5 6 
#
# 1 90.5516 57.8917 32.8979 0.0000 0.0000 0.0000
# 2 57.8917 101.9871 39.3640 0.0000 0.0000 0.0000
# 3 32.8979 39.3640 47.3756 0.0000 0.0000 0.0000
# 4 0.0000 0.0000 0.0000 33.5378 0.0000 0.0000
# 5 0.0000 0.0000 0.0000 0.0000 33.3157 0.0000
# 6 0.0000 0.0000 0.0000 0.0000 0.0000 20.4641
#
#
#
# Elastic Compliance Matrix: (Units=1/GPa)
#
#
# Indices 1 2 3 4 5 6 
#
# 1 0.018440 -0.008133 -0.006047 0.000000 0.000000 0.000000
# 2 -0.008133 0.018022 -0.009326 0.000000 0.000000 0.000000
# 3 -0.006047 -0.009326 0.033056 0.000000 0.000000 0.000000
# 4 0.000000 0.000000 0.000000 0.029817 0.000000 0.000000
# 5 0.000000 0.000000 0.000000 0.000000 0.030016 0.000000
# 6 0.000000 0.000000 0.000000 0.000000 0.000000 0.048866
#
#
# Mechanical properties :
#
#
# Convention : Reuss Voigt Hill
#
# Bulk Modulus (GPa) = 44.43512 55.58018 50.00765
# Shear Modulus (GPa) = 21.48398 24.78089 23.13243
#
# Velocity S-wave (km/s) = 3.41094 3.66333 3.53938
# Velocity P-wave (km/s) = 6.29097 6.92766 6.61698
#
# Compressibility (1/GPa) = 0.02250472
#
# Stress axis : x y z
#
# Youngs Moduli (GPa) = 54.22935 55.48897 30.25168
#
# Poissons Ratio (x) = 0.45131 0.18293
# Poissons Ratio (y) = 0.44107 0.28213
# Poissons Ratio (z) = 0.32793 0.51750
#
# Static dielectric constant tensor:
#      x y z
#    x 3.275060 0.000000 0.000000 
#    y 0.000000 2.845180 0.000000 
#    z 0.000000 0.000000 3.471420 
# 
# 
# High freq. dielectric constant tensor:
#      x y z
#    x 1.708510 0.000000 0.000000 
#    y 0.000000 1.713530 0.000000 
#    z 0.000000 0.000000 1.729940 
# 
# From -- ./inp_files/5625.got.cif
#   From: 2010.03.12/outbox.cif.g09.slc.cpg/sg57_3_cif.got.tgz:5625.got - 2010.04.16 15:48:40.
