data_PCOD8230171
_publ_section_title
;
Structure prediction by ZEFSAII (Michael W. Deem and Ramdas Pophale) SiO2 
 PCOD8230171
Probable space group: P B C M
;
_chemical_formula_sum "Si O2"
_cell_formula_units_Z 56
_cell_length_a 20.228126
_cell_length_b 18.297553
_cell_length_c 8.896940
_cell_angle_alpha 90.000000
_cell_angle_beta 90.000000
_cell_angle_gamma 90.000000
_cell_volume 3292.981764
_symmetry_space_group_name_H-M "P B C M"
_symmetry_group_IT_number 57
_symmetry_cell_setting 'orthorhombic'
loop_
_space_group_symop_operation_xyz
x,y,z
-x,-y,1/2+z
x,1/2-y,-z
-x,1/2+y,1/2-z
-x,-y,-z
x,y,1/2-z
-x,1/2+y,z
x,1/2-y,1/2+z
loop_
_atom_site_type_symbol
_atom_site_label
_atom_site_fract_x
_atom_site_fract_y
_atom_site_fract_z
Si Si1 0.559322 0.461621 0.578252
Si Si2 0.027929 0.672777 0.574301
Si Si3 0.063095 0.534398 0.423918
Si Si4 0.244851 0.326647 0.572890
Si Si5 0.639076 0.592309 0.572534
Si Si6 0.118424 0.115591 0.578507
Si Si7 0.484804 0.173802 0.073305
O O1 0.500000 0.500000 0.500000
O O2 0.545618 0.476669 0.750000
O O3 0.626757 0.505211 0.535803
O O4 0.551654 0.375144 0.544013
O O5 0.044140 0.750000 0.500000
O O6 0.041588 0.677951 0.750000
O O7 0.078151 0.611829 0.504820
O O8 0.952990 0.648921 0.538214
O O9 0.048185 0.549431 0.250000
O O10 0.120344 0.472929 0.442168
O O11 0.000000 0.500000 0.500000
O O12 0.265356 0.250000 0.500000
O O13 0.252903 0.320675 0.750000
O O14 0.292592 0.388787 0.507839
O O15 0.169818 0.347276 0.533541
O O16 0.645033 0.607529 0.750000
O O17 0.579847 0.640948 0.506145
O O18 0.137165 0.135672 0.750000
O O19 0.469622 0.181900 0.250000
O O20 0.503036 0.250000 0.000000
#
# Coordination Sequence:
#
# PCOD8230171 Si02
#       7
#     8   8   8   8   8   8   8
#     4   8  16  29  46  65  87 116 149 185 225 268
#     4  10  19  30  47  71  98 125 155 191 233 276
#     4   9  17  30  48  68  92 121 154 190 232 278
#     4  12  24  35  48  67  92 124 158 192 226 266
#     4  10  19  33  49  65  89 122 156 190 227 268
#     4   9  19  34  49  67  92 124 158 192 228 271
#     4  10  18  29  45  69  96 120 149 184 225 271
#
# _framework density 17.005865
#
# number of rings (size 3 to 8) (size 9 to 14) (size 15 to 20)
#    0.000    2.286    0.000    4.714    0.000    5.714 
#    0.000    0.000    0.000    0.000    0.000    1.000 
#    0.000    2.286    0.000    0.000    0.000    0.000 
#
# Total GULP energy -693861.713077 kJ/mol
# GULP energy per Si atom -12390.387734 kJ/mol
# Density = 1.696716 g / cm^3
# Si number density = 17.005865 Si / 1000 Ang^3
#
#
#
# Elastic Constant Matrix: (Units=GPa)
#
#
# Indices 1 2 3 4 5 6 
#
# 1 29.0082 8.7444 16.9295 0.0000 0.0000 0.0000
# 2 8.7444 90.6183 33.9252 0.0000 0.0000 0.0000
# 3 16.9295 33.9252 97.2924 0.0000 0.0000 0.0000
# 4 0.0000 0.0000 0.0000 30.4408 0.0000 0.0000
# 5 0.0000 0.0000 0.0000 0.0000 22.9316 0.0000
# 6 0.0000 0.0000 0.0000 0.0000 0.0000 23.9392
#
#
#
# Elastic Compliance Matrix: (Units=1/GPa)
#
#
# Indices 1 2 3 4 5 6 
#
# 1 0.038521 -0.001389 -0.006219 0.000000 0.000000 0.000000
# 2 -0.001389 0.012742 -0.004201 0.000000 0.000000 0.000000
# 3 -0.006219 -0.004201 0.012825 0.000000 0.000000 0.000000
# 4 0.000000 0.000000 0.000000 0.032851 0.000000 0.000000
# 5 0.000000 0.000000 0.000000 0.000000 0.043608 0.000000
# 6 0.000000 0.000000 0.000000 0.000000 0.000000 0.041773
#
#
# Mechanical properties :
#
#
# Convention : Reuss Voigt Hill
#
# Bulk Modulus (GPa) = 24.70936 37.34634 31.02785
# Shear Modulus (GPa) = 22.78652 25.95030 24.36841
#
# Velocity S-wave (km/s) = 3.66446 3.91059 3.78953
# Velocity P-wave (km/s) = 5.69788 6.51144 6.11820
#
# Compressibility (1/GPa) = 0.04047049
#
# Stress axis : x y z
#
# Youngs Moduli (GPa) = 25.95989 78.47906 77.97039
#
# Poissons Ratio (x) = 0.10901 0.48486
# Poissons Ratio (y) = 0.03606 0.32759
# Poissons Ratio (z) = 0.16143 0.32972
#
# Static dielectric constant tensor:
#      x y z
#    x 2.999100 0.000000 0.000000 
#    y 0.000000 2.481300 0.000000 
#    z 0.000000 0.000000 3.370290 
# 
# 
# High freq. dielectric constant tensor:
#      x y z
#    x 1.604570 0.000000 0.000000 
#    y 0.000000 1.666450 0.000000 
#    z 0.000000 0.000000 1.673810 
# 
# From -- ./inp_files/8299.got.cif
#   From: 2010.03.12/outbox.cif.g09.slc.cpg/sg57_5_cif.got.tgz:8299.got - 2010.04.16 15:48:40.
