data_PCOD8230912
_publ_section_title
;
Structure prediction by ZEFSAII (Michael W. Deem and Ramdas Pophale) SiO2 
 PCOD8230912
Probable space group: P B C M
;
_chemical_formula_sum "Si O2"
_cell_formula_units_Z 40
_cell_length_a 10.182718
_cell_length_b 28.164596
_cell_length_c 8.861482
_cell_angle_alpha 90.000000
_cell_angle_beta 90.000000
_cell_angle_gamma 90.000000
_cell_volume 2541.403374
_symmetry_space_group_name_H-M "P B C M"
_symmetry_group_IT_number 57
_symmetry_cell_setting 'orthorhombic'
loop_
_space_group_symop_operation_xyz
x,y,z
-x,-y,1/2+z
x,1/2-y,-z
-x,1/2+y,1/2-z
-x,-y,-z
x,y,1/2-z
-x,1/2+y,z
x,1/2-y,1/2+z
loop_
_atom_site_type_symbol
_atom_site_label
_atom_site_fract_x
_atom_site_fract_y
_atom_site_fract_z
Si Si1 0.893903 0.140417 0.078923
Si Si2 0.849578 0.867389 0.428011
Si Si3 0.029150 0.049161 0.078644
Si Si4 0.344731 0.798635 0.572761
Si Si5 0.642073 0.799781 0.928928
O O1 0.918172 0.158297 0.250000
O O2 0.754148 0.159576 0.018907
O O3 0.897663 0.082519 0.074127
O O4 0.015111 0.159746 0.976388
O O5 0.832490 0.867209 0.250000
O O6 0.855915 0.921830 0.490498
O O7 0.726501 0.842312 0.504379
O O8 0.074613 0.039749 0.250000
O O9 0.000000 0.000000 0.000000
O O10 0.294563 0.750000 0.500000
O O11 0.341143 0.791791 0.750000
O O12 0.492311 0.810904 0.521020
O O13 0.659167 0.797176 0.750000
O O14 0.688479 0.750000 0.000000
#
# Coordination Sequence:
#
# PCOD8230912 Si02
#       5
#     8   8   8   8   8
#     4   8  17  32  48  69  96 125 156 196 240 281
#     4  10  19  31  48  72  97 126 161 196 235 279
#     4   9  17  31  51  72  97 122 155 197 243 288
#     4   9  18  32  49  69  95 128 160 192 235 281
#     4  10  19  32  49  69  96 129 162 195 233 280
#
# _framework density 15.739336
#
# number of rings (size 3 to 8) (size 9 to 14) (size 15 to 20)
#    1.200    1.600    0.000    2.400    0.000    2.400 
#    0.000    2.000    0.000    1.200    0.000    0.000 
#    0.000    0.000    0.000    0.000    0.000    0.000 
#
# Total GULP energy -495562.474818 kJ/mol
# GULP energy per Si atom -12389.061870 kJ/mol
# Density = 1.570351 g / cm^3
# Si number density = 15.739336 Si / 1000 Ang^3
#
#
#
# Elastic Constant Matrix: (Units=GPa)
#
#
# Indices 1 2 3 4 5 6 
#
# 1 80.0982 53.7606 33.3299 0.0000 0.0000 0.0000
# 2 53.7606 96.7424 37.4338 0.0000 0.0000 0.0000
# 3 33.3299 37.4338 84.7982 0.0000 0.0000 0.0000
# 4 0.0000 0.0000 0.0000 29.8024 0.0000 0.0000
# 5 0.0000 0.0000 0.0000 0.0000 15.9630 0.0000
# 6 0.0000 0.0000 0.0000 0.0000 0.0000 12.4809
#
#
#
# Elastic Compliance Matrix: (Units=1/GPa)
#
#
# Indices 1 2 3 4 5 6 
#
# 1 0.020837 -0.010143 -0.003713 0.000000 0.000000 0.000000
# 2 -0.010143 0.017403 -0.003696 0.000000 0.000000 0.000000
# 3 -0.003713 -0.003696 0.014883 0.000000 0.000000 0.000000
# 4 0.000000 0.000000 0.000000 0.033554 0.000000 0.000000
# 5 0.000000 0.000000 0.000000 0.000000 0.062645 0.000000
# 6 0.000000 0.000000 0.000000 0.000000 0.000000 0.080123
#
#
# Mechanical properties :
#
#
# Convention : Reuss Voigt Hill
#
# Bulk Modulus (GPa) = 55.48998 56.74306 56.11652
# Shear Modulus (GPa) = 18.48048 20.79023 19.63535
#
# Velocity S-wave (km/s) = 3.43032 3.63837 3.53588
# Velocity P-wave (km/s) = 7.14294 7.33351 7.23885
#
# Compressibility (1/GPa) = 0.01802127
#
# Stress axis : x y z
#
# Youngs Moduli (GPa) = 47.99091 57.46018 67.18860
#
# Poissons Ratio (x) = 0.58281 0.24944
# Poissons Ratio (y) = 0.48677 0.24833
# Poissons Ratio (z) = 0.17817 0.21237
#
# Static dielectric constant tensor:
#      x y z
#    x 3.005570 0.000000 0.000000 
#    y 0.000000 2.872320 0.000000 
#    z 0.000000 0.000000 3.066150 
# 
# 
# High freq. dielectric constant tensor:
#      x y z
#    x 1.586270 0.000000 0.000000 
#    y 0.000000 1.586340 0.000000 
#    z 0.000000 0.000000 1.615730 
# 
# From -- ./inp_files/1809.got.cif
#   From: 2010.03.12/outbox.cif.g09.slc.cpg/sg57_1_cif.got.tgz:1809.got - 2010.04.16 15:48:40.
