data_PCOD8230597
_publ_section_title
;
Structure prediction by ZEFSAII (Michael W. Deem and Ramdas Pophale) SiO2 
 PCOD8230597
Probable space group: P B C M
;
_chemical_formula_sum "Si O2"
_cell_formula_units_Z 40
_cell_length_a 13.004868
_cell_length_b 10.047469
_cell_length_c 16.725820
_cell_angle_alpha 90.000000
_cell_angle_beta 90.000000
_cell_angle_gamma 90.000000
_cell_volume 2185.496131
_symmetry_space_group_name_H-M "P B C M"
_symmetry_group_IT_number 57
_symmetry_cell_setting 'orthorhombic'
loop_
_space_group_symop_operation_xyz
x,y,z
-x,-y,1/2+z
x,1/2-y,-z
-x,1/2+y,1/2-z
-x,-y,-z
x,y,1/2-z
-x,1/2+y,z
x,1/2-y,1/2+z
loop_
_atom_site_type_symbol
_atom_site_label
_atom_site_fract_x
_atom_site_fract_y
_atom_site_fract_z
Si Si1 0.122922 0.381934 0.448516
Si Si2 0.694589 0.533994 0.843578
Si Si3 0.507304 0.626022 0.556917
Si Si4 0.699504 0.263052 0.405014
Si Si5 0.897026 0.128205 0.941847
O O1 0.140201 0.250000 0.500000
O O2 0.205007 0.394088 0.378068
O O3 0.141818 0.501182 0.509872
O O4 0.010786 0.395853 0.404954
O O5 0.694717 0.557026 0.750000
O O6 0.596267 0.608298 0.879075
O O7 0.689496 0.377288 0.861718
O O8 0.531475 0.750000 0.500000
O O9 0.500000 0.500000 0.500000
O O10 0.402633 0.648614 0.608716
O O11 0.712197 0.250000 0.500000
O O12 0.806366 0.336060 0.377288
O O13 0.917619 0.250000 0.000000
#
# Coordination Sequence:
#
# PCOD8230597 Si02
#       5
#     8   8   8   8   8
#     4  10  19  33  61  94 113 152 200 246 279 344
#     4  12  24  38  58  91 126 154 187 250 310 343
#     4  11  20  38  65  89 114 155 205 242 279 354
#     4  10  18  37  63  84 115 153 203 232 283 356
#     4   9  16  33  64  89 111 145 209 239 274 343
#
# _framework density 18.302482000000001
#
# number of rings (size 3 to 8) (size 9 to 14) (size 15 to 20)
#    0.000    1.600    8.000    0.600    0.000    0.800 
#    0.000    1.000    0.000    1.200    0.000    0.000 
#    0.000    0.000    0.000    0.000    0.000    0.000 
#
# Total GULP energy -495665.416363 kJ/mol
# GULP energy per Si atom -12391.635409 kJ/mol
# Density = 1.826082 g / cm^3
# Si number density = 18.302482 Si / 1000 Ang^3
#
#
#
# Elastic Constant Matrix: (Units=GPa)
#
#
# Indices 1 2 3 4 5 6 
#
# 1 199.3799 45.4417 60.6905 0.0000 0.0000 0.0000
# 2 45.4417 119.0182 39.2528 0.0000 0.0000 0.0000
# 3 60.6905 39.2528 90.1197 0.0000 0.0000 0.0000
# 4 0.0000 0.0000 0.0000 19.4691 0.0000 0.0000
# 5 0.0000 0.0000 0.0000 0.0000 1.3526 0.0000
# 6 0.0000 0.0000 0.0000 0.0000 0.0000 20.0534
#
#
#
# Elastic Compliance Matrix: (Units=1/GPa)
#
#
# Indices 1 2 3 4 5 6 
#
# 1 0.006453 -0.001203 -0.003822 0.000000 0.000000 0.000000
# 2 -0.001203 0.010036 -0.003561 0.000000 0.000000 0.000000
# 3 -0.003822 -0.003561 0.015221 0.000000 0.000000 0.000000
# 4 0.000000 0.000000 0.000000 0.051364 0.000000 0.000000
# 5 0.000000 0.000000 0.000000 0.000000 0.739333 0.000000
# 6 0.000000 0.000000 0.000000 0.000000 0.000000 0.049867
#
#
# Mechanical properties :
#
#
# Convention : Reuss Voigt Hill
#
# Bulk Modulus (GPa) = 68.78423 77.69864 73.24143
# Shear Modulus (GPa) = 5.59102 25.71719 15.65411
#
# Velocity S-wave (km/s) = 1.74969 3.75256 2.92772
# Velocity P-wave (km/s) = 6.46107 7.83073 7.17864
#
# Compressibility (1/GPa) = 0.01453822
#
# Stress axis : x y z
#
# Youngs Moduli (GPa) = 154.96366 99.64193 65.69879
#
# Poissons Ratio (x) = 0.11991 0.25108
# Poissons Ratio (y) = 0.18649 0.23394
# Poissons Ratio (z) = 0.59222 0.35481
#
# Static dielectric constant tensor:
#      x y z
#    x 4.479670 0.000000 0.000000 
#    y 0.000000 3.306490 0.000000 
#    z 0.000000 0.000000 2.860900 
# 
# 
# High freq. dielectric constant tensor:
#      x y z
#    x 1.745200 0.000000 0.000000 
#    y 0.000000 1.721820 0.000000 
#    z 0.000000 0.000000 1.644590 
# 
# From -- ./inp_files/18226.got.cif
#   From: 2010.03.12/outbox.cif.g09.slc.cpg/sg57_10_cif.got.tgz:18226.got - 2010.04.16 15:48:40.
