data_PCOD8230636
_publ_section_title
;
Structure prediction by ZEFSAII (Michael W. Deem and Ramdas Pophale) SiO2 
 PCOD8230636
Probable space group: P B C M
;
_chemical_formula_sum "Si O2"
_cell_formula_units_Z 64
_cell_length_a 18.157803
_cell_length_b 24.400717
_cell_length_c 8.983113
_cell_angle_alpha 90.000000
_cell_angle_beta 90.000000
_cell_angle_gamma 90.000000
_cell_volume 3980.088699
_symmetry_space_group_name_H-M "P B C M"
_symmetry_group_IT_number 57
_symmetry_cell_setting 'orthorhombic'
loop_
_space_group_symop_operation_xyz
x,y,z
-x,-y,1/2+z
x,1/2-y,-z
-x,1/2+y,1/2-z
-x,-y,-z
x,y,1/2-z
-x,1/2+y,z
x,1/2-y,1/2+z
loop_
_atom_site_type_symbol
_atom_site_label
_atom_site_fract_x
_atom_site_fract_y
_atom_site_fract_z
Si Si1 0.480136 0.084569 0.422067
Si Si2 0.043665 0.422440 0.418070
Si Si3 0.904467 0.047240 0.081783
Si Si4 0.546771 0.694461 0.922920
Si Si5 0.386024 0.503352 0.077980
Si Si6 0.183333 0.107881 0.419003
Si Si7 0.764436 0.016203 0.919548
Si Si8 0.719627 0.804790 0.421928
O O1 0.459790 0.093395 0.250000
O O2 0.492600 0.142812 0.500659
O O3 0.412777 0.051886 0.497055
O O4 0.555227 0.051442 0.442727
O O5 0.036849 0.400405 0.250000
O O6 0.068734 0.485034 0.418811
O O7 0.103338 0.386129 0.505764
O O8 0.964993 0.415646 0.498403
O O9 0.895123 0.068667 0.250000
O O10 0.826938 0.053348 0.996811
O O11 0.525728 0.696309 0.750000
O O12 0.633354 0.688116 0.949080
O O13 0.517698 0.750000 0.000000
O O14 0.373140 0.488612 0.250000
O O15 0.311221 0.525237 0.006607
O O16 0.177237 0.128559 0.250000
O O17 0.242057 0.143056 0.507583
O O18 0.211687 0.046394 0.427072
O O19 0.754603 0.035797 0.750000
O O20 0.749266 0.750000 0.500000
O O21 0.740101 0.801177 0.250000
#
# Coordination Sequence:
#
# PCOD8230636 Si02
#       8
#     8   8   8   8   8   8   8   8
#     4  10  20  33  48  66  90 119 152 189 228 273
#     4   9  16  26  40  58  81 110 143 175 208 247
#     4   9  16  26  40  58  83 112 141 175 211 248
#     4  10  20  33  50  69  90 117 150 188 229 272
#     4  10  20  32  46  65  90 121 154 188 228 273
#     4  10  19  29  42  61  85 114 147 181 217 258
#     4  10  19  29  43  63  87 116 149 183 219 262
#     4  10  20  32  45  62  84 111 143 180 220 259
#
# _framework density 16.080044000000001
#
# number of rings (size 3 to 8) (size 9 to 14) (size 15 to 20)
#    0.000    2.250    0.000    3.750    0.000    9.500 
#    0.000    0.000    0.000    0.000    0.000    0.000 
#    0.000    1.000    0.000    7.000    0.000    5.875 
#
# Total GULP energy -793773.824474 kJ/mol
# GULP energy per Si atom -12402.716007 kJ/mol
# Density = 1.604344 g / cm^3
# Si number density = 16.080044 Si / 1000 Ang^3
#
#
#
# Elastic Constant Matrix: (Units=GPa)
#
#
# Indices 1 2 3 4 5 6 
#
# 1 71.9250 7.3874 49.8986 0.0000 0.0000 0.0000
# 2 7.3874 51.1405 34.8839 0.0000 0.0000 0.0000
# 3 49.8986 34.8839 139.8795 0.0000 0.0000 0.0000
# 4 0.0000 0.0000 0.0000 25.3416 0.0000 0.0000
# 5 0.0000 0.0000 0.0000 0.0000 30.3390 0.0000
# 6 0.0000 0.0000 0.0000 0.0000 0.0000 13.5143
#
#
#
# Elastic Compliance Matrix: (Units=1/GPa)
#
#
# Indices 1 2 3 4 5 6 
#
# 1 0.018684 0.002226 -0.007220 0.000000 0.000000 0.000000
# 2 0.002226 0.023827 -0.006736 0.000000 0.000000 0.000000
# 3 -0.007220 -0.006736 0.011405 0.000000 0.000000 0.000000
# 4 0.000000 0.000000 0.000000 0.039461 0.000000 0.000000
# 5 0.000000 0.000000 0.000000 0.000000 0.032961 0.000000
# 6 0.000000 0.000000 0.000000 0.000000 0.000000 0.073996
#
#
# Mechanical properties :
#
#
# Convention : Reuss Voigt Hill
#
# Bulk Modulus (GPa) = 32.83538 49.69830 41.26684
# Shear Modulus (GPa) = 21.37252 25.22400 23.29826
#
# Velocity S-wave (km/s) = 3.64968 3.96492 3.81056
# Velocity P-wave (km/s) = 6.18260 7.20657 6.71413
#
# Compressibility (1/GPa) = 0.03045496
#
# Stress axis : x y z
#
# Youngs Moduli (GPa) = 53.52248 41.96860 87.68437
#
# Poissons Ratio (x) = -0.09342 0.63309
# Poissons Ratio (y) = -0.11914 0.59067
# Poissons Ratio (z) = 0.38644 0.28271
#
# Static dielectric constant tensor:
#      x y z
#    x 3.012440 0.000000 0.000000 
#    y 0.000000 2.742160 0.000000 
#    z 0.000000 0.000000 3.341300 
# 
# 
# High freq. dielectric constant tensor:
#      x y z
#    x 1.608990 0.000000 0.000000 
#    y 0.000000 1.571520 0.000000 
#    z 0.000000 0.000000 1.643600 
# 
# From -- ./inp_files/7398.got.cif
#   From: 2010.03.12/outbox.cif.g09.slc.cpg/sg57_4_cif.got.tgz:7398.got - 2010.04.16 15:48:40.
