data_PCOD8230036
_publ_section_title
;
Structure prediction by ZEFSAII (Michael W. Deem and Ramdas Pophale) SiO2 
 PCOD8230036
Probable space group: P B C M
;
_chemical_formula_sum "Si O2"
_cell_formula_units_Z 64
_cell_length_a 15.461946
_cell_length_b 24.007653
_cell_length_c 8.853418
_cell_angle_alpha 90.000000
_cell_angle_beta 90.000000
_cell_angle_gamma 90.000000
_cell_volume 3286.433332
_symmetry_space_group_name_H-M "P B C M"
_symmetry_group_IT_number 57
_symmetry_cell_setting 'orthorhombic'
loop_
_space_group_symop_operation_xyz
x,y,z
-x,-y,1/2+z
x,1/2-y,-z
-x,1/2+y,1/2-z
-x,-y,-z
x,y,1/2-z
-x,1/2+y,z
x,1/2-y,1/2+z
loop_
_atom_site_type_symbol
_atom_site_label
_atom_site_fract_x
_atom_site_fract_y
_atom_site_fract_z
Si Si1 0.588667 0.882843 0.428725
Si Si2 0.850302 0.004062 0.429382
Si Si3 0.093687 0.384743 0.425908
Si Si4 0.248161 0.310130 0.070995
Si Si5 0.411869 0.881744 0.571071
Si Si6 0.899535 0.117007 0.573721
Si Si7 0.347567 0.999462 0.571133
Si Si8 0.247859 0.810396 0.928737
O O1 0.579195 0.883146 0.250000
O O2 0.666700 0.843420 0.480371
O O3 0.500615 0.859126 0.500397
O O4 0.606311 0.945143 0.492628
O O5 0.859661 0.013706 0.250000
O O6 0.895789 0.053837 0.517788
O O7 0.751106 0.002141 0.481638
O O8 0.894536 0.947325 0.488996
O O9 0.114473 0.389371 0.250000
O O10 0.163992 0.342237 0.495333
O O11 0.997447 0.362009 0.457290
O O12 0.243545 0.304515 0.250000
O O13 0.251789 0.250000 0.000000
O O14 0.418888 0.880786 0.750000
O O15 0.395333 0.944360 0.509518
O O16 0.333623 0.842537 0.516431
O O17 0.876297 0.120305 0.750000
O O18 0.836273 0.156245 0.480548
O O19 0.350094 0.000825 0.750000
O O20 0.244787 0.805187 0.750000
O O21 0.247813 0.750000 0.000000
#
# Coordination Sequence:
#
# PCOD8230036 Si02
#       8
#     8   8   8   8   8   8   8   8
#     4  10  20  35  59  85 111 147 188 228 278 338
#     4  10  17  34  61  84 114 155 191 227 282 345
#     4   9  19  36  60  85 114 153 192 232 281 341
#     4  10  21  39  59  80 109 149 193 234 279 335
#     4  10  21  37  58  84 114 145 182 229 285 341
#     4  11  22  36  57  90 122 148 187 236 284 339
#     4   9  16  32  58  84 110 146 185 224 277 341
#     4  11  24  43  63  82 110 153 196 239 288 339
#
# _framework density 19.473998999999999
#
# number of rings (size 3 to 8) (size 9 to 14) (size 15 to 20)
#    0.000    2.000    2.500    1.500    0.000    2.500 
#    0.000    6.875    0.000    0.000    0.000    0.000 
#    0.000    0.000    0.000    0.000    0.000    0.000 
#
# Total GULP energy -793647.775078 kJ/mol
# GULP energy per Si atom -12400.746486 kJ/mol
# Density = 1.942968 g / cm^3
# Si number density = 19.473999 Si / 1000 Ang^3
#
#
#
# Elastic Constant Matrix: (Units=GPa)
#
#
# Indices 1 2 3 4 5 6 
#
# 1 150.4212 68.2253 34.3899 0.0000 0.0000 0.0000
# 2 68.2253 152.2000 29.5205 0.0000 0.0000 0.0000
# 3 34.3899 29.5205 32.8102 0.0000 0.0000 0.0000
# 4 0.0000 0.0000 0.0000 31.5129 0.0000 0.0000
# 5 0.0000 0.0000 0.0000 0.0000 22.9752 0.0000
# 6 0.0000 0.0000 0.0000 0.0000 0.0000 11.5665
#
#
#
# Elastic Compliance Matrix: (Units=1/GPa)
#
#
# Indices 1 2 3 4 5 6 
#
# 1 0.009679 -0.002872 -0.007561 0.000000 0.000000 0.000000
# 2 -0.002872 0.008812 -0.004917 0.000000 0.000000 0.000000
# 3 -0.007561 -0.004917 0.042828 0.000000 0.000000 0.000000
# 4 0.000000 0.000000 0.000000 0.031733 0.000000 0.000000
# 5 0.000000 0.000000 0.000000 0.000000 0.043525 0.000000
# 6 0.000000 0.000000 0.000000 0.000000 0.000000 0.086457
#
#
# Mechanical properties :
#
#
# Convention : Reuss Voigt Hill
#
# Bulk Modulus (GPa) = 32.66154 66.63365 49.64759
# Shear Modulus (GPa) = 18.94358 26.76396 22.85377
#
# Velocity S-wave (km/s) = 3.12230 3.71124 3.42943
# Velocity P-wave (km/s) = 5.45954 7.25640 6.42114
#
# Compressibility (1/GPa) = 0.03061705
#
# Stress axis : x y z
#
# Youngs Moduli (GPa) = 103.31158 113.48594 23.34928
#
# Poissons Ratio (x) = 0.32597 0.17655
# Poissons Ratio (y) = 0.29675 0.11482
# Poissons Ratio (z) = 0.78115 0.55806
#
# Static dielectric constant tensor:
#      x y z
#    x 3.741540 0.000000 0.000000 
#    y 0.000000 3.691110 0.000000 
#    z 0.000000 0.000000 3.195180 
# 
# 
# High freq. dielectric constant tensor:
#      x y z
#    x 1.775120 0.000000 0.000000 
#    y 0.000000 1.761000 0.000000 
#    z 0.000000 0.000000 1.726920 
# 
# From -- ./inp_files/5658.got.cif
#   From: 2010.03.12/outbox.cif.g09.slc.cpg/sg57_3_cif.got.tgz:5658.got - 2010.04.16 15:48:40.
