data_PCOD8230844
_publ_section_title
;
Structure prediction by ZEFSAII (Michael W. Deem and Ramdas Pophale) SiO2 
 PCOD8230844
Probable space group: P B C M
;
_chemical_formula_sum "Si O2"
_cell_formula_units_Z 64
_cell_length_a 21.685870
_cell_length_b 19.624013
_cell_length_c 9.022932
_cell_angle_alpha 90.000000
_cell_angle_beta 90.000000
_cell_angle_gamma 90.000000
_cell_volume 3839.833182
_symmetry_space_group_name_H-M "P B C M"
_symmetry_group_IT_number 57
_symmetry_cell_setting 'orthorhombic'
loop_
_space_group_symop_operation_xyz
x,y,z
-x,-y,1/2+z
x,1/2-y,-z
-x,1/2+y,1/2-z
-x,-y,-z
x,y,1/2-z
-x,1/2+y,z
x,1/2-y,1/2+z
loop_
_atom_site_type_symbol
_atom_site_label
_atom_site_fract_x
_atom_site_fract_y
_atom_site_fract_z
Si Si1 0.168459 0.057147 0.579591
Si Si2 0.513138 0.604791 0.584883
Si Si3 0.621286 0.677467 0.427769
Si Si4 0.883609 0.816774 0.576776
Si Si5 0.309040 0.443392 0.422928
Si Si6 0.942989 0.463362 0.576591
Si Si7 0.414778 0.535680 0.413955
Si Si8 0.975301 0.316746 0.577117
O O1 0.157114 0.078149 0.750000
O O2 0.156906 0.120532 0.474690
O O3 0.238536 0.034721 0.552091
O O4 0.122314 0.996487 0.533096
O O5 0.507622 0.636340 0.750000
O O6 0.553230 0.654969 0.482081
O O7 0.444452 0.594153 0.517501
O O8 0.543257 0.531094 0.592173
O O9 0.638289 0.750000 0.500000
O O10 0.622324 0.682284 0.250000
O O11 0.672405 0.622913 0.481840
O O12 0.855857 0.750000 0.500000
O O13 0.877062 0.807717 0.750000
O O14 0.954107 0.827912 0.526550
O O15 0.323230 0.426746 0.250000
O O16 0.348232 0.509928 0.473643
O O17 0.956798 0.467746 0.750000
O O18 0.938656 0.384324 0.526952
O O19 0.000000 0.500000 0.500000
O O20 0.408752 0.567476 0.250000
O O21 0.946504 0.250000 0.500000
O O22 0.970596 0.303674 0.750000
#
# Coordination Sequence:
#
# PCOD8230844 Si02
#       8
#     8   8   8   8   8   8   8   8
#     4  10  20  33  50  70  95 128 166 207 253 301
#     4   9  16  27  45  69  94 119 151 191 231 272
#     4  11  21  33  49  69  96 131 166 199 235 276
#     4  10  19  31  46  65  92 124 160 200 241 293
#     4   9  19  34  48  66  93 126 164 201 237 285
#     4  10  19  32  50  73  98 124 157 203 256 305
#     4   8  14  26  44  65  90 117 149 190 232 273
#     4   9  18  31  47  69  94 120 152 191 239 296
#
# _framework density 16.667390000000001
#
# number of rings (size 3 to 8) (size 9 to 14) (size 15 to 20)
#    0.000    2.500    1.250    2.625    0.000    5.000 
#    0.000    0.000    0.000    0.000    0.000    0.875 
#    0.000    2.000    0.000    0.000    0.000    0.000 
#
# Total GULP energy -793383.714058 kJ/mol
# GULP energy per Si atom -12396.620532 kJ/mol
# Density = 1.662945 g / cm^3
# Si number density = 16.667390 Si / 1000 Ang^3
#
#
#
# Elastic Constant Matrix: (Units=GPa)
#
#
# Indices 1 2 3 4 5 6 
#
# 1 106.5740 54.6693 41.7662 0.0000 0.0000 0.0000
# 2 54.6693 78.1656 32.8120 0.0000 0.0000 0.0000
# 3 41.7662 32.8120 76.0972 0.0000 0.0000 0.0000
# 4 0.0000 0.0000 0.0000 24.8267 0.0000 0.0000
# 5 0.0000 0.0000 0.0000 0.0000 18.8829 0.0000
# 6 0.0000 0.0000 0.0000 0.0000 0.0000 14.7439
#
#
#
# Elastic Compliance Matrix: (Units=1/GPa)
#
#
# Indices 1 2 3 4 5 6 
#
# 1 0.015960 -0.009140 -0.004819 0.000000 0.000000 0.000000
# 2 -0.009140 0.020855 -0.003976 0.000000 0.000000 0.000000
# 3 -0.004819 -0.003976 0.017500 0.000000 0.000000 0.000000
# 4 0.000000 0.000000 0.000000 0.040279 0.000000 0.000000
# 5 0.000000 0.000000 0.000000 0.000000 0.052958 0.000000
# 6 0.000000 0.000000 0.000000 0.000000 0.000000 0.067825
#
#
# Mechanical properties :
#
#
# Convention : Reuss Voigt Hill
#
# Bulk Modulus (GPa) = 54.21175 57.70352 55.95764
# Shear Modulus (GPa) = 19.42543 20.46330 19.94437
#
# Velocity S-wave (km/s) = 3.41761 3.50772 3.46296
# Velocity P-wave (km/s) = 6.94044 7.14851 7.04524
#
# Compressibility (1/GPa) = 0.01844618
#
# Stress axis : x y z
#
# Youngs Moduli (GPa) = 62.65657 47.95097 57.14208
#
# Poissons Ratio (x) = 0.43826 0.27536
# Poissons Ratio (y) = 0.57266 0.22719
# Poissons Ratio (z) = 0.30193 0.19065
#
# Static dielectric constant tensor:
#      x y z
#    x 3.149980 0.000000 0.000000 
#    y 0.000000 3.287570 0.000000 
#    z 0.000000 0.000000 3.253210 
# 
# 
# High freq. dielectric constant tensor:
#      x y z
#    x 1.621350 0.000000 0.000000 
#    y 0.000000 1.620380 0.000000 
#    z 0.000000 0.000000 1.646560 
# 
# From -- ./inp_files/9563.got.cif
#   From: 2010.03.12/outbox.cif.g09.slc.cpg/sg57_5_cif.got.tgz:9563.got - 2010.04.16 15:48:40.
