data_PCOD8230554
_publ_section_title
;
Structure prediction by ZEFSAII (Michael W. Deem and Ramdas Pophale) SiO2 
 PCOD8230554
Probable space group: P B C M
;
_chemical_formula_sum "Si O2"
_cell_formula_units_Z 60
_cell_length_a 18.834538
_cell_length_b 10.886804
_cell_length_c 14.762356
_cell_angle_alpha 90.000000
_cell_angle_beta 90.000000
_cell_angle_gamma 90.000000
_cell_volume 3026.990446
_symmetry_space_group_name_H-M "P B C M"
_symmetry_group_IT_number 57
_symmetry_cell_setting 'orthorhombic'
loop_
_space_group_symop_operation_xyz
x,y,z
-x,-y,1/2+z
x,1/2-y,-z
-x,1/2+y,1/2-z
-x,-y,-z
x,y,1/2-z
-x,1/2+y,z
x,1/2-y,1/2+z
loop_
_atom_site_type_symbol
_atom_site_label
_atom_site_fract_x
_atom_site_fract_y
_atom_site_fract_z
Si Si1 0.890925 0.747421 0.853135
Si Si2 0.772497 0.021972 0.991633
Si Si3 0.263292 0.142949 0.651154
Si Si4 0.686258 0.893011 0.854130
Si Si5 0.439707 0.723351 0.357380
Si Si6 0.923776 0.558435 0.999855
Si Si7 0.540121 0.501445 0.143775
Si Si8 0.679731 0.250000 0.500000
O O1 0.920334 0.753333 0.750000
O O2 0.807176 0.725684 0.853890
O O3 0.912028 0.869788 0.906552
O O4 0.926148 0.636792 0.908260
O O5 0.734708 0.965911 0.080357
O O6 0.734284 0.147031 0.968752
O O7 0.756758 0.931422 0.908305
O O8 0.857386 0.037019 0.006121
O O9 0.272041 0.081498 0.750000
O O10 0.325068 0.245089 0.635059
O O11 0.698795 0.928881 0.750000
O O12 0.617696 0.963494 0.895192
O O13 0.423904 0.715850 0.250000
O O14 0.484620 0.604541 0.392807
O O15 0.366810 0.714539 0.412640
O O16 0.476852 0.857494 0.379823
O O17 0.000000 0.500000 0.000000
O O18 0.542231 0.521818 0.250000
#
# Coordination Sequence:
#
# PCOD8230554 Si02
#       8
#     8   8   8   8   8   8   8   4
#     4   9  18  35  58  83 112 149 194 247 301 350
#     4  11  22  38  56  86 120 153 199 242 292 357
#     4   9  18  34  59  86 111 143 194 253 300 339
#     4  10  18  34  62  90 110 144 194 249 301 349
#     4  10  22  42  60  83 118 159 206 255 304 360
#     4  10  21  36  59  86 120 156 194 247 302 357
#     4   9  19  37  61  83 115 155 197 250 303 354
#     4  12  26  38  58  84 122 170 196 232 300 368
#
# _framework density 19.821667000000001
#
# number of rings (size 3 to 8) (size 9 to 14) (size 15 to 20)
#    0.000    2.133    2.667    0.400    0.000    3.733 
#    2.400    2.667    0.000    1.600    0.000    0.000 
#    0.000    0.000    0.000    0.000    0.000    0.000 
#
# Total GULP energy -743390.669545 kJ/mol
# GULP energy per Si atom -12389.844492 kJ/mol
# Density = 1.977655 g / cm^3
# Si number density = 19.821667 Si / 1000 Ang^3
#
#
#
# Elastic Constant Matrix: (Units=GPa)
#
#
# Indices 1 2 3 4 5 6 
#
# 1 79.1554 38.2873 19.1787 0.0000 0.0000 0.0000
# 2 38.2873 66.5194 10.1004 0.0000 0.0000 0.0000
# 3 19.1787 10.1004 91.9116 0.0000 0.0000 0.0000
# 4 0.0000 0.0000 0.0000 16.6394 0.0000 0.0000
# 5 0.0000 0.0000 0.0000 0.0000 23.3714 0.0000
# 6 0.0000 0.0000 0.0000 0.0000 0.0000 33.5396
#
#
#
# Elastic Compliance Matrix: (Units=1/GPa)
#
#
# Indices 1 2 3 4 5 6 
#
# 1 0.018135 -0.010031 -0.002682 0.000000 0.000000 0.000000
# 2 -0.010031 0.020837 -0.000197 0.000000 0.000000 0.000000
# 3 -0.002682 -0.000197 0.011461 0.000000 0.000000 0.000000
# 4 0.000000 0.000000 0.000000 0.060098 0.000000 0.000000
# 5 0.000000 0.000000 0.000000 0.000000 0.042787 0.000000
# 6 0.000000 0.000000 0.000000 0.000000 0.000000 0.029816
#
#
# Mechanical properties :
#
#
# Convention : Reuss Voigt Hill
#
# Bulk Modulus (GPa) = 40.62720 41.41323 41.02022
# Shear Modulus (GPa) = 23.02469 26.04474 24.53472
#
# Velocity S-wave (km/s) = 3.41191 3.62878 3.52202
# Velocity P-wave (km/s) = 6.00520 6.20449 6.10566
#
# Compressibility (1/GPa) = 0.02461405
#
# Stress axis : x y z
#
# Youngs Moduli (GPa) = 55.14161 47.99220 87.25069
#
# Poissons Ratio (x) = 0.48141 0.23399
# Poissons Ratio (y) = 0.55313 0.01716
# Poissons Ratio (z) = 0.14788 0.00944
#
# Static dielectric constant tensor:
#      x y z
#    x 3.526870 0.000000 0.000000 
#    y 0.000000 3.635050 0.000000 
#    z 0.000000 0.000000 3.932020 
# 
# 
# High freq. dielectric constant tensor:
#      x y z
#    x 1.753410 0.000000 0.000000 
#    y 0.000000 1.765520 0.000000 
#    z 0.000000 0.000000 1.777270 
# 
# From -- ./inp_files/19074.got.cif
#   From: 2010.03.12/outbox.cif.g09.slc.cpg/sg57_10_cif.got.tgz:19074.got - 2010.04.16 15:48:40.
