data_PCOD8230830
_publ_section_title
;
Structure prediction by ZEFSAII (Michael W. Deem and Ramdas Pophale) SiO2 
 PCOD8230830
Probable space group: P B C M
;
_chemical_formula_sum "Si O2"
_cell_formula_units_Z 28
_cell_length_a 15.908300
_cell_length_b 5.170385
_cell_length_c 15.522059
_cell_angle_alpha 90.000000
_cell_angle_beta 90.000000
_cell_angle_gamma 90.000000
_cell_volume 1276.720951
_symmetry_space_group_name_H-M "P B C M"
_symmetry_group_IT_number 57
_symmetry_cell_setting 'orthorhombic'
loop_
_space_group_symop_operation_xyz
x,y,z
-x,-y,1/2+z
x,1/2-y,-z
-x,1/2+y,1/2-z
-x,-y,-z
x,y,1/2-z
-x,1/2+y,z
x,1/2-y,1/2+z
loop_
_atom_site_type_symbol
_atom_site_label
_atom_site_fract_x
_atom_site_fract_y
_atom_site_fract_z
Si Si1 0.534062 0.932522 0.404350
Si Si2 0.942873 0.250000 0.500000
Si Si3 0.186288 0.742694 0.846027
Si Si4 0.274920 0.256747 0.403057
O O1 0.476409 0.711011 0.357472
O O2 0.627311 0.823032 0.403871
O O3 0.500000 0.000000 0.500000
O O4 0.888129 0.273178 0.414097
O O5 0.000000 0.500000 0.500000
O O6 0.149126 0.705702 0.750000
O O7 0.257121 0.523824 0.862566
O O8 0.228191 0.023633 0.849537
O O9 0.239204 0.250000 0.500000
#
# Coordination Sequence:
#
# PCOD8230830 Si02
#       4
#     8   4   8   8
#     4  10  19  30  56 100 124 171 237 282 335 386
#     4  12  26  46  76 106 134 170 218 272 338 418
#     4  12  27  46  70 103 139 179 223 279 341 408
#     4  12  21  40  70  99 132 183 239 278 332 408
#
# _framework density 21.931182
#
# number of rings (size 3 to 8) (size 9 to 14) (size 15 to 20)
#    0.000    0.571    5.714    4.286    4.000    1.143 
#    0.000    0.000    0.000   17.143    0.000    0.000 
#    0.000    0.000    0.000    0.000    0.000    0.000 
#
# Total GULP energy -347010.051514 kJ/mol
# GULP energy per Si atom -12393.216126 kJ/mol
# Density = 2.188127 g / cm^3
# Si number density = 21.931182 Si / 1000 Ang^3
#
#
#
# Elastic Constant Matrix: (Units=GPa)
#
#
# Indices 1 2 3 4 5 6 
#
# 1 134.1790 55.8508 51.6337 0.0000 0.0000 0.0000
# 2 55.8508 191.5953 29.0828 0.0000 0.0000 0.0000
# 3 51.6337 29.0828 143.1527 0.0000 0.0000 0.0000
# 4 0.0000 0.0000 0.0000 19.8142 0.0000 0.0000
# 5 0.0000 0.0000 0.0000 0.0000 -0.4328 0.0000
# 6 0.0000 0.0000 0.0000 0.0000 0.0000 41.7769
#
#
#
# Elastic Compliance Matrix: (Units=1/GPa)
#
#
# Indices 1 2 3 4 5 6 
#
# 1 0.009572 -0.002338 -0.002977 0.000000 0.000000 0.000000
# 2 -0.002338 0.005957 -0.000367 0.000000 0.000000 0.000000
# 3 -0.002977 -0.000367 0.008134 0.000000 0.000000 0.000000
# 4 0.000000 0.000000 0.000000 0.050469 0.000000 0.000000
# 5 0.000000 0.000000 0.000000 0.000000 -2.310732 0.000000
# 6 0.000000 0.000000 0.000000 0.000000 0.000000 0.023937
#
#
# Mechanical properties :
#
#
# Convention : Reuss Voigt Hill
#
# Bulk Modulus (GPa) = 81.31719 82.45130 81.88425
# Shear Modulus (GPa) = -2.27562 34.38897 16.05667
#
# Velocity S-wave (km/s) = -1.01974 3.96414 2.70874
# Velocity P-wave (km/s) = 5.98100 7.65700 6.87030
#
# Compressibility (1/GPa) = 0.01229752
#
# Stress axis : x y z
#
# Youngs Moduli (GPa) = 104.47419 167.88055 122.94116
#
# Poissons Ratio (x) = 0.39255 0.36604
# Poissons Ratio (y) = 0.24429 0.04509
# Poissons Ratio (z) = 0.31106 0.06157
#
# Static dielectric constant tensor:
#      x y z
#    x 4.082670 0.000000 0.000000 
#    y 0.000000 0.087550 0.000000 
#    z 0.000000 0.000000 3.912790 
# 
# 
# High freq. dielectric constant tensor:
#      x y z
#    x 1.851880 0.000000 0.000000 
#    y 0.000000 1.904100 0.000000 
#    z 0.000000 0.000000 1.839950 
# 
# From -- ./inp_files/22216.got.cif
#   From: 2010.03.12/outbox.cif.g09.slc.cpg/sg57_12_cif.got.tgz:22216.got - 2010.04.16 15:48:40.
