data_PCOD8230383
_publ_section_title
;
Structure prediction by ZEFSAII (Michael W. Deem and Ramdas Pophale) SiO2 
 PCOD8230383
Probable space group: P B C M
;
_chemical_formula_sum "Si O2"
_cell_formula_units_Z 64
_cell_length_a 17.494470
_cell_length_b 22.634335
_cell_length_c 8.695060
_cell_angle_alpha 90.000000
_cell_angle_beta 90.000000
_cell_angle_gamma 90.000000
_cell_volume 3443.032423
_symmetry_space_group_name_H-M "P B C M"
_symmetry_group_IT_number 57
_symmetry_cell_setting 'orthorhombic'
loop_
_space_group_symop_operation_xyz
x,y,z
-x,-y,1/2+z
x,1/2-y,-z
-x,1/2+y,1/2-z
-x,-y,-z
x,y,1/2-z
-x,1/2+y,z
x,1/2-y,1/2+z
loop_
_atom_site_type_symbol
_atom_site_label
_atom_site_fract_x
_atom_site_fract_y
_atom_site_fract_z
Si Si1 0.748579 0.310430 0.431051
Si Si2 0.085527 0.653031 0.569097
Si Si3 0.073334 0.310714 0.568907
Si Si4 0.336270 0.452095 0.068218
Si Si5 0.078246 0.519952 0.570308
Si Si6 0.510361 0.935186 0.933397
Si Si7 0.815999 0.915649 0.931851
Si Si8 0.643843 0.081639 0.933282
O O1 0.713773 0.250000 0.500000
O O2 0.740826 0.307571 0.250000
O O3 0.837209 0.314164 0.481978
O O4 0.702748 0.368000 0.489887
O O5 0.070308 0.658218 0.750000
O O6 0.097996 0.585627 0.517204
O O7 0.013795 0.680534 0.482709
O O8 0.105828 0.250000 0.500000
O O9 0.074249 0.306833 0.750000
O O10 0.128376 0.363179 0.511434
O O11 0.345351 0.457249 0.250000
O O12 0.407452 0.414629 0.997718
O O13 0.263326 0.412691 0.022882
O O14 0.330124 0.518133 0.998609
O O15 0.067868 0.514872 0.750000
O O16 0.146038 0.477254 0.516873
O O17 0.000000 0.500000 0.500000
O O18 0.509318 0.934122 0.750000
O O19 0.439038 0.898020 0.000649
O O20 0.500000 0.000000 0.000000
O O21 0.800874 0.912186 0.750000
O O22 0.640937 0.076393 0.750000
#
# Coordination Sequence:
#
# PCOD8230383 Si02
#       8
#     8   8   8   8   8   8   8   8
#     4  10  22  37  54  76 106 146 186 228 272 315
#     4  10  20  35  55  78 106 139 178 224 269 318
#     4  11  23  38  56  75 100 137 181 225 269 317
#     4  11  21  33  54  85 113 140 177 220 269 323
#     4  10  19  33  53  77 107 137 173 218 270 325
#     4  10  18  31  53  81 112 142 172 208 255 312
#     4  10  21  37  54  76 108 143 176 217 272 323
#     4  10  19  35  56  79 112 147 178 216 269 323
#
# _framework density 18.588263999999999
#
# number of rings (size 3 to 8) (size 9 to 14) (size 15 to 20)
#    0.000    1.750    1.250    5.625    0.000    6.000 
#    0.000    1.250    0.000    0.750    0.000    5.250 
#    0.000    0.000    0.000    0.000    0.000    0.000 
#
# Total GULP energy -793520.660890 kJ/mol
# GULP energy per Si atom -12398.760326 kJ/mol
# Density = 1.854596 g / cm^3
# Si number density = 18.588264 Si / 1000 Ang^3
#
#
#
# Elastic Constant Matrix: (Units=GPa)
#
#
# Indices 1 2 3 4 5 6 
#
# 1 127.2867 35.7031 40.1429 0.0000 0.0000 0.0000
# 2 35.7031 90.7175 29.6120 0.0000 0.0000 0.0000
# 3 40.1429 29.6120 76.3149 0.0000 0.0000 0.0000
# 4 0.0000 0.0000 0.0000 25.5357 0.0000 0.0000
# 5 0.0000 0.0000 0.0000 0.0000 33.8422 0.0000
# 6 0.0000 0.0000 0.0000 0.0000 0.0000 19.6554
#
#
#
# Elastic Compliance Matrix: (Units=1/GPa)
#
#
# Indices 1 2 3 4 5 6 
#
# 1 0.009895 -0.002514 -0.004230 0.000000 0.000000 0.000000
# 2 -0.002514 0.013260 -0.003823 0.000000 0.000000 0.000000
# 3 -0.004230 -0.003823 0.016812 0.000000 0.000000 0.000000
# 4 0.000000 0.000000 0.000000 0.039161 0.000000 0.000000
# 5 0.000000 0.000000 0.000000 0.000000 0.029549 0.000000
# 6 0.000000 0.000000 0.000000 0.000000 0.000000 0.050877
#
#
# Mechanical properties :
#
#
# Convention : Reuss Voigt Hill
#
# Bulk Modulus (GPa) = 53.09376 56.13725 54.61550
# Shear Modulus (GPa) = 26.74291 28.39740 27.57015
#
# Velocity S-wave (km/s) = 3.79713 3.91283 3.85541
# Velocity P-wave (km/s) = 6.91732 7.11896 7.01886
#
# Compressibility (1/GPa) = 0.01883461
#
# Stress axis : x y z
#
# Youngs Moduli (GPa) = 101.05789 75.41194 59.48147
#
# Poissons Ratio (x) = 0.18957 0.25159
# Poissons Ratio (y) = 0.25404 0.22740
# Poissons Ratio (z) = 0.42744 0.28831
#
# Static dielectric constant tensor:
#      x y z
#    x 3.918750 0.000000 0.000000 
#    y 0.000000 3.499600 0.000000 
#    z 0.000000 0.000000 3.384230 
# 
# 
# High freq. dielectric constant tensor:
#      x y z
#    x 1.730390 0.000000 0.000000 
#    y 0.000000 1.700010 0.000000 
#    z 0.000000 0.000000 1.722580 
# 
# From -- ./inp_files/7214.got.cif
#   From: 2010.03.12/outbox.cif.g09.slc.cpg/sg57_4_cif.got.tgz:7214.got - 2010.04.16 15:48:40.
