data_PCOD8230480
_publ_section_title
;
Structure prediction by ZEFSAII (Michael W. Deem and Ramdas Pophale) SiO2 
 PCOD8230480
Probable space group: P B C M
;
_chemical_formula_sum "Si O2"
_cell_formula_units_Z 48
_cell_length_a 10.418507
_cell_length_b 28.284493
_cell_length_c 8.697639
_cell_angle_alpha 90.000000
_cell_angle_beta 90.000000
_cell_angle_gamma 90.000000
_cell_volume 2563.039294
_symmetry_space_group_name_H-M "P B C M"
_symmetry_group_IT_number 57
_symmetry_cell_setting 'orthorhombic'
loop_
_space_group_symop_operation_xyz
x,y,z
-x,-y,1/2+z
x,1/2-y,-z
-x,1/2+y,1/2-z
-x,-y,-z
x,y,1/2-z
-x,1/2+y,z
x,1/2-y,1/2+z
loop_
_atom_site_type_symbol
_atom_site_label
_atom_site_fract_x
_atom_site_fract_y
_atom_site_fract_z
Si Si1 0.889793 0.201220 0.068254
Si Si2 0.504411 0.396841 0.432209
Si Si3 0.610417 0.298649 0.067952
Si Si4 0.245995 0.443742 0.432024
Si Si5 0.991364 0.109905 0.568553
Si Si6 0.249257 0.547016 0.568169
O O1 0.879057 0.205256 0.250000
O O2 0.945469 0.250000 0.000000
O O3 0.750486 0.190777 0.998175
O O4 0.985485 0.159584 0.019516
O O5 0.505701 0.400291 0.250000
O O6 0.518593 0.341967 0.481591
O O7 0.371889 0.417434 0.499388
O O8 0.623121 0.427554 0.496982
O O9 0.622637 0.294156 0.250000
O O10 0.552686 0.250000 0.000000
O O11 0.252433 0.446658 0.250000
O O12 0.121865 0.414879 0.486069
O O13 0.237459 0.495929 0.496070
O O14 0.988490 0.119304 0.750000
O O15 0.873301 0.077251 0.516035
O O16 0.254124 0.541925 0.750000
#
# Coordination Sequence:
#
# PCOD8230480 Si02
#       6
#     8   8   8   8   8   8
#     4  11  21  34  56  83 108 135 175 220 264 313
#     4   9  18  34  54  76 108 143 174 215 267 315
#     4  10  18  33  55  79 108 137 172 216 265 313
#     4  10  21  35  53  78 107 143 181 219 264 315
#     4  10  20  36  55  77 109 144 177 216 267 315
#     4  10  19  34  54  75 105 145 181 221 266 308
#
# _framework density 18.727767
#
# number of rings (size 3 to 8) (size 9 to 14) (size 15 to 20)
#    0.000    2.000    1.667    4.000    0.000    1.333 
#    0.000    2.500    0.000    2.000    0.000    0.000 
#    0.000    0.000    0.000    0.000    0.000    0.000 
#
# Total GULP energy -595264.508319 kJ/mol
# GULP energy per Si atom -12401.343923 kJ/mol
# Density = 1.868514 g / cm^3
# Si number density = 18.727767 Si / 1000 Ang^3
#
#
#
# Elastic Constant Matrix: (Units=GPa)
#
#
# Indices 1 2 3 4 5 6 
#
# 1 143.1176 84.6522 28.1243 0.0000 0.0000 0.0000
# 2 84.6522 185.1399 44.6309 0.0000 0.0000 0.0000
# 3 28.1243 44.6309 56.5449 0.0000 0.0000 0.0000
# 4 0.0000 0.0000 0.0000 36.3235 0.0000 0.0000
# 5 0.0000 0.0000 0.0000 0.0000 10.5105 0.0000
# 6 0.0000 0.0000 0.0000 0.0000 0.0000 0.2658
#
#
#
# Elastic Compliance Matrix: (Units=1/GPa)
#
#
# Indices 1 2 3 4 5 6 
#
# 1 0.009698 -0.004040 -0.001635 0.000000 0.000000 0.000000
# 2 -0.004040 0.008354 -0.004584 0.000000 0.000000 0.000000
# 3 -0.001635 -0.004584 0.022116 0.000000 0.000000 0.000000
# 4 0.000000 0.000000 0.000000 0.027530 0.000000 0.000000
# 5 0.000000 0.000000 0.000000 0.000000 0.095143 0.000000
# 6 0.000000 0.000000 0.000000 0.000000 0.000000 3.762568
#
#
# Mechanical properties :
#
#
# Convention : Reuss Voigt Hill
#
# Bulk Modulus (GPa) = 50.89001 77.73523 64.31262
# Shear Modulus (GPa) = 1.26503 24.57961 12.92232
#
# Velocity S-wave (km/s) = 0.82277 3.62673 2.62965
# Velocity P-wave (km/s) = 5.30426 7.68997 6.60571
#
# Compressibility (1/GPa) = 0.01965022
#
# Stress axis : x y z
#
# Youngs Moduli (GPa) = 103.11087 119.70680 45.21547
#
# Poissons Ratio (x) = 0.48365 0.07391
# Poissons Ratio (y) = 0.41660 0.20727
# Poissons Ratio (z) = 0.16856 0.54874
#
# Static dielectric constant tensor:
#      x y z
#    x 3.603200 0.000000 0.000000 
#    y 0.000000 3.692190 0.000000 
#    z 0.000000 0.000000 2.958860 
# 
# 
# High freq. dielectric constant tensor:
#      x y z
#    x 1.714360 0.000000 0.000000 
#    y 0.000000 1.746210 0.000000 
#    z 0.000000 0.000000 1.709460 
# 
# From -- ./inp_files/2068.got.cif
#   From: 2010.03.12/outbox.cif.g09.slc.cpg/sg57_2_cif.got.tgz:2068.got - 2010.04.16 15:48:40.
