data_PCOD8230846
_publ_section_title
;
Structure prediction by ZEFSAII (Michael W. Deem and Ramdas Pophale) SiO2 
 PCOD8230846
Probable space group: P B C M
;
_chemical_formula_sum "Si O2"
_cell_formula_units_Z 56
_cell_length_a 20.748189
_cell_length_b 16.994903
_cell_length_c 9.081303
_cell_angle_alpha 90.000000
_cell_angle_beta 90.000000
_cell_angle_gamma 90.000000
_cell_volume 3202.189667
_symmetry_space_group_name_H-M "P B C M"
_symmetry_group_IT_number 57
_symmetry_cell_setting 'orthorhombic'
loop_
_space_group_symop_operation_xyz
x,y,z
-x,-y,1/2+z
x,1/2-y,-z
-x,1/2+y,1/2-z
-x,-y,-z
x,y,1/2-z
-x,1/2+y,z
x,1/2-y,1/2+z
loop_
_atom_site_type_symbol
_atom_site_label
_atom_site_fract_x
_atom_site_fract_y
_atom_site_fract_z
Si Si1 0.912704 0.442105 0.415158
Si Si2 0.795652 0.992691 0.077521
Si Si3 0.852288 0.673970 0.923100
Si Si4 0.348673 0.528557 0.422226
Si Si5 0.535783 0.932343 0.418424
Si Si6 0.576311 0.168926 0.923381
Si Si7 0.027633 0.385860 0.915654
O O1 0.903595 0.409118 0.250000
O O2 0.843163 0.448857 0.491736
O O3 0.947203 0.525668 0.410604
O O4 0.957304 0.382495 0.508386
O O5 0.806364 0.006599 0.250000
O O6 0.809537 0.901944 0.036926
O O7 0.723771 0.012776 0.025619
O O8 0.856832 0.687560 0.750000
O O9 0.819512 0.750000 0.000000
O O10 0.924151 0.666191 0.987712
O O11 0.351552 0.550993 0.250000
O O12 0.387954 0.445539 0.450716
O O13 0.377662 0.600298 0.515168
O O14 0.520919 0.947849 0.250000
O O15 0.499931 0.850272 0.460605
O O16 0.500000 0.000000 0.500000
O O17 0.588417 0.177282 0.750000
O O18 0.595216 0.250000 0.000000
O O19 0.022784 0.351780 0.750000
#
# Coordination Sequence:
#
# PCOD8230846 Si02
#       7
#     8   8   8   8   8   8   8
#     4   9  16  26  43  67  92 116 147 189 232 275
#     4   9  18  31  48  69  95 129 165 199 239 289
#     4  10  19  31  46  66  93 125 162 202 245 292
#     4   9  17  32  52  72  96 128 164 201 240 283
#     4   8  15  28  47  69  93 121 155 194 234 276
#     4  10  19  31  49  74 100 126 158 198 243 289
#     4   9  16  27  44  65  88 115 149 190 234 277
#
# _framework density 17.488033000000001
#
# number of rings (size 3 to 8) (size 9 to 14) (size 15 to 20)
#    0.000    2.857    0.000    1.714    0.000    5.143 
#    0.000    0.714    0.000    0.857    0.000    2.000 
#    0.000    0.000    0.000    0.000    0.000    0.000 
#
# Total GULP energy -693864.118321 kJ/mol
# GULP energy per Si atom -12390.430684 kJ/mol
# Density = 1.744823 g / cm^3
# Si number density = 17.488033 Si / 1000 Ang^3
#
#
#
# Elastic Constant Matrix: (Units=GPa)
#
#
# Indices 1 2 3 4 5 6 
#
# 1 134.5227 41.9711 50.3123 0.0000 0.0000 0.0000
# 2 41.9711 69.1172 36.5354 0.0000 0.0000 0.0000
# 3 50.3123 36.5354 86.4811 0.0000 0.0000 0.0000
# 4 0.0000 0.0000 0.0000 23.3382 0.0000 0.0000
# 5 0.0000 0.0000 0.0000 0.0000 24.0414 0.0000
# 6 0.0000 0.0000 0.0000 0.0000 0.0000 15.7452
#
#
#
# Elastic Compliance Matrix: (Units=1/GPa)
#
#
# Indices 1 2 3 4 5 6 
#
# 1 0.010282 -0.003968 -0.004305 0.000000 0.000000 0.000000
# 2 -0.003968 0.020159 -0.006208 0.000000 0.000000 0.000000
# 3 -0.004305 -0.006208 0.016691 0.000000 0.000000 0.000000
# 4 0.000000 0.000000 0.000000 0.042848 0.000000 0.000000
# 5 0.000000 0.000000 0.000000 0.000000 0.041595 0.000000
# 6 0.000000 0.000000 0.000000 0.000000 0.000000 0.063512
#
#
# Mechanical properties :
#
#
# Convention : Reuss Voigt Hill
#
# Bulk Modulus (GPa) = 55.03897 60.86207 57.95052
# Shear Modulus (GPa) = 21.72910 23.37843 22.55376
#
# Velocity S-wave (km/s) = 3.52875 3.66023 3.59509
# Velocity P-wave (km/s) = 6.93855 7.26228 7.10226
#
# Compressibility (1/GPa) = 0.01816894
#
# Stress axis : x y z
#
# Youngs Moduli (GPa) = 97.25822 49.60491 59.91310
#
# Poissons Ratio (x) = 0.19682 0.25795
# Poissons Ratio (y) = 0.38590 0.37196
# Poissons Ratio (z) = 0.41874 0.30796
#
# Static dielectric constant tensor:
#      x y z
#    x 3.477960 0.000000 0.000000 
#    y 0.000000 3.078180 0.000000 
#    z 0.000000 0.000000 3.361690 
# 
# 
# High freq. dielectric constant tensor:
#      x y z
#    x 1.666070 0.000000 0.000000 
#    y 0.000000 1.643310 0.000000 
#    z 0.000000 0.000000 1.687540 
# 
# From -- ./inp_files/8353.got.cif
#   From: 2010.03.12/outbox.cif.g09.slc.cpg/sg57_5_cif.got.tgz:8353.got - 2010.04.16 15:48:40.
