data_PCOD8230083
_publ_section_title
;
Structure prediction by ZEFSAII (Michael W. Deem and Ramdas Pophale) SiO2 
 PCOD8230083
Probable space group: P B C M
;
_chemical_formula_sum "Si O2"
_cell_formula_units_Z 56
_cell_length_a 17.567483
_cell_length_b 21.315426
_cell_length_c 8.856711
_cell_angle_alpha 90.000000
_cell_angle_beta 90.000000
_cell_angle_gamma 90.000000
_cell_volume 3316.469688
_symmetry_space_group_name_H-M "P B C M"
_symmetry_group_IT_number 57
_symmetry_cell_setting 'orthorhombic'
loop_
_space_group_symop_operation_xyz
x,y,z
-x,-y,1/2+z
x,1/2-y,-z
-x,1/2+y,1/2-z
-x,-y,-z
x,y,1/2-z
-x,1/2+y,z
x,1/2-y,1/2+z
loop_
_atom_site_type_symbol
_atom_site_label
_atom_site_fract_x
_atom_site_fract_y
_atom_site_fract_z
Si Si1 0.211783 0.103065 0.076801
Si Si2 0.391483 0.965655 0.924559
Si Si3 0.911162 0.064230 0.079717
Si Si4 0.239804 0.543913 0.577040
Si Si5 0.550351 0.910080 0.924158
Si Si6 0.342667 0.317666 0.428204
Si Si7 0.939304 0.583431 0.920405
O O1 0.216306 0.125000 0.250000
O O2 0.230984 0.030307 0.059455
O O3 0.270946 0.141167 0.977069
O O4 0.127325 0.117075 0.014781
O O5 0.382423 0.984753 0.750000
O O6 0.459662 0.915886 0.946527
O O7 0.314650 0.933846 0.986324
O O8 0.407540 0.027777 0.019626
O O9 0.905017 0.089549 0.250000
O O10 0.926993 0.990634 0.078447
O O11 0.832843 0.079235 0.993132
O O12 0.979970 0.100166 0.996501
O O13 0.247557 0.564442 0.750000
O O14 0.572991 0.901325 0.750000
O O15 0.579183 0.850036 0.016405
O O16 0.335519 0.250000 0.500000
O O17 0.344420 0.311399 0.250000
O O18 0.938847 0.609395 0.750000
#
# Coordination Sequence:
#
# PCOD8230083 Si02
#       7
#     8   8   8   8   8   8   8
#     4  10  19  31  46  65  90 121 158 196 236 280
#     4  10  19  30  48  70  95 125 158 196 239 290
#     4   9  16  25  38  58  87 120 155 189 226 270
#     4  10  18  27  43  65  94 125 157 195 234 282
#     4  10  20  34  49  69  94 122 158 198 241 290
#     4  12  24  37  53  70  93 124 161 203 246 290
#     4   9  16  26  40  59  85 118 155 189 226 271
#
# _framework density 16.885424
#
# number of rings (size 3 to 8) (size 9 to 14) (size 15 to 20)
#    0.000    2.000    1.429    3.857    0.000    6.286 
#    0.000    0.000    0.000    0.000    0.000    0.000 
#    0.000    1.143    0.000    8.000    0.000    6.714 
#
# Total GULP energy -694491.715915 kJ/mol
# GULP energy per Si atom -12401.637784 kJ/mol
# Density = 1.684699 g / cm^3
# Si number density = 16.885424 Si / 1000 Ang^3
#
#
#
# Elastic Constant Matrix: (Units=GPa)
#
#
# Indices 1 2 3 4 5 6 
#
# 1 138.2994 10.9223 62.6163 0.0000 0.0000 0.0000
# 2 10.9223 19.1992 19.7019 0.0000 0.0000 0.0000
# 3 62.6163 19.7019 144.1361 0.0000 0.0000 0.0000
# 4 0.0000 0.0000 0.0000 18.4157 0.0000 0.0000
# 5 0.0000 0.0000 0.0000 0.0000 35.3197 0.0000
# 6 0.0000 0.0000 0.0000 0.0000 0.0000 6.4057
#
#
#
# Elastic Compliance Matrix: (Units=1/GPa)
#
#
# Indices 1 2 3 4 5 6 
#
# 1 0.009029 -0.001293 -0.003746 0.000000 0.000000 0.000000
# 2 -0.001293 0.060769 -0.007745 0.000000 0.000000 0.000000
# 3 -0.003746 -0.007745 0.009624 0.000000 0.000000 0.000000
# 4 0.000000 0.000000 0.000000 0.054302 0.000000 0.000000
# 5 0.000000 0.000000 0.000000 0.000000 0.028313 0.000000
# 6 0.000000 0.000000 0.000000 0.000000 0.000000 0.156112
#
#
# Mechanical properties :
#
#
# Convention : Reuss Voigt Hill
#
# Bulk Modulus (GPa) = 18.56852 54.23510 36.40181
# Shear Modulus (GPa) = 13.82495 25.92115 19.87305
#
# Velocity S-wave (km/s) = 2.86449 3.92231 3.43437
# Velocity P-wave (km/s) = 4.68626 7.25961 6.10995
#
# Compressibility (1/GPa) = 0.05385460
#
# Stress axis : x y z
#
# Youngs Moduli (GPa) = 110.75890 16.45589 103.91015
#
# Poissons Ratio (x) = 0.02127 0.38920
# Poissons Ratio (y) = 0.14318 0.80477
# Poissons Ratio (z) = 0.41485 0.12745
#
# Static dielectric constant tensor:
#      x y z
#    x 3.463060 0.000000 0.000000 
#    y 0.000000 2.627280 0.000000 
#    z 0.000000 0.000000 3.391890 
# 
# 
# High freq. dielectric constant tensor:
#      x y z
#    x 1.669180 0.000000 0.000000 
#    y 0.000000 1.570350 0.000000 
#    z 0.000000 0.000000 1.675170 
# 
# From -- ./inp_files/6977.got.cif
#   From: 2010.03.12/outbox.cif.g09.slc.cpg/sg57_4_cif.got.tgz:6977.got - 2010.04.16 15:48:40.
