data_PCOD8230409
_publ_section_title
;
Structure prediction by ZEFSAII (Michael W. Deem and Ramdas Pophale) SiO2 
 PCOD8230409
Probable space group: P B C M
;
_chemical_formula_sum "Si O2"
_cell_formula_units_Z 32
_cell_length_a 15.371961
_cell_length_b 5.133327
_cell_length_c 25.011452
_cell_angle_alpha 90.000000
_cell_angle_beta 90.000000
_cell_angle_gamma 90.000000
_cell_volume 1973.636230
_symmetry_space_group_name_H-M "P B C M"
_symmetry_group_IT_number 57
_symmetry_cell_setting 'orthorhombic'
loop_
_space_group_symop_operation_xyz
x,y,z
-x,-y,1/2+z
x,1/2-y,-z
-x,1/2+y,1/2-z
-x,-y,-z
x,y,1/2-z
-x,1/2+y,z
x,1/2-y,1/2+z
loop_
_atom_site_type_symbol
_atom_site_label
_atom_site_fract_x
_atom_site_fract_y
_atom_site_fract_z
Si Si1 0.944111 0.760953 0.438138
Si Si2 0.943099 0.714480 0.250000
Si Si3 0.722811 0.261101 0.190450
Si Si4 0.442833 0.702203 0.250000
Si Si5 0.187109 0.239583 0.846954
O O1 0.917372 0.750000 0.500000
O O2 0.855570 0.733146 0.405073
O O3 0.010445 0.531750 0.423006
O O4 0.887620 0.756329 0.302959
O O5 0.978988 0.421476 0.250000
O O6 0.766517 0.256801 0.250000
O O7 0.618061 0.236242 0.197262
O O8 0.744189 0.529567 0.161162
O O9 0.759600 0.027517 0.155116
O O10 0.480750 0.412077 0.250000
#
# Coordination Sequence:
#
# PCOD8230409 Si02
#       5
#     8   4   8   4   8
#     4  10  21  36  51  68  92 131 178 219 250 275
#     4  12  20  26  40  62  88 122 158 186 230 284
#     4  10  20  32  48  71  99 131 148 193 238 292
#     4  10  18  32  50  72 104 134 154 182 228 300
#     4  12  19  34  46  67 100 127 161 200 250 280
#
# _framework density 16.213726999999999
#
# number of rings (size 3 to 8) (size 9 to 14) (size 15 to 20)
#    0.750    0.500    2.500    6.000    0.000    0.000 
#    0.000    0.000    0.000    0.000    0.000    0.000 
#    0.000   20.000    0.000    0.000    0.000    0.000 
#
# Total GULP energy -396858.027159 kJ/mol
# GULP energy per Si atom -12401.813349 kJ/mol
# Density = 1.617682 g / cm^3
# Si number density = 16.213727 Si / 1000 Ang^3
#
#
#
# Elastic Constant Matrix: (Units=GPa)
#
#
# Indices 1 2 3 4 5 6 
#
# 1 65.2181 7.0446 27.0328 0.0000 0.0000 0.0000
# 2 7.0446 74.2223 15.8876 0.0000 0.0000 0.0000
# 3 27.0328 15.8876 58.4021 0.0000 0.0000 0.0000
# 4 0.0000 0.0000 0.0000 13.7060 0.0000 0.0000
# 5 0.0000 0.0000 0.0000 0.0000 16.3820 0.0000
# 6 0.0000 0.0000 0.0000 0.0000 0.0000 35.5770
#
#
#
# Elastic Compliance Matrix: (Units=1/GPa)
#
#
# Indices 1 2 3 4 5 6 
#
# 1 0.018974 0.000084 -0.008805 0.000000 0.000000 0.000000
# 2 0.000084 0.014306 -0.003931 0.000000 0.000000 0.000000
# 3 -0.008805 -0.003931 0.022268 0.000000 0.000000 0.000000
# 4 0.000000 0.000000 0.000000 0.072961 0.000000 0.000000
# 5 0.000000 0.000000 0.000000 0.000000 0.061043 0.000000
# 6 0.000000 0.000000 0.000000 0.000000 0.000000 0.028108
#
#
# Mechanical properties :
#
#
# Convention : Reuss Voigt Hill
#
# Bulk Modulus (GPa) = 33.06463 33.08583 33.07523
# Shear Modulus (GPa) = 19.75931 22.99149 21.37540
#
# Velocity S-wave (km/s) = 3.49474 3.76975 3.63485
# Velocity P-wave (km/s) = 6.05983 6.27682 6.16928
#
# Compressibility (1/GPa) = 0.03024380
#
# Stress axis : x y z
#
# Youngs Moduli (GPa) = 52.70396 69.89842 44.90800
#
# Poissons Ratio (x) = -0.00587 0.39543
# Poissons Ratio (y) = -0.00443 0.17652
# Poissons Ratio (z) = 0.46408 0.27476
#
# Static dielectric constant tensor:
#      x y z
#    x 2.892020 0.000000 0.000000 
#    y 0.000000 3.240400 0.000000 
#    z 0.000000 0.000000 2.974910 
# 
# 
# High freq. dielectric constant tensor:
#      x y z
#    x 1.605770 0.000000 0.000000 
#    y 0.000000 1.649790 0.000000 
#    z 0.000000 0.000000 1.593840 
# 
# From -- ./inp_files/27327.got.cif
#   From: 2010.03.12/outbox.cif.g09.slc.cpg/sg57_14_cif.got.tgz:27327.got - 2010.04.16 15:48:40.
