data_PCOD8230545
_publ_section_title
;
Structure prediction by ZEFSAII (Michael W. Deem and Ramdas Pophale) SiO2 
 PCOD8230545
Probable space group: P B C M
;
_chemical_formula_sum "Si O2"
_cell_formula_units_Z 64
_cell_length_a 16.114135
_cell_length_b 10.933255
_cell_length_c 18.244636
_cell_angle_alpha 90.000000
_cell_angle_beta 90.000000
_cell_angle_gamma 90.000000
_cell_volume 3214.339005
_symmetry_space_group_name_H-M "P B C M"
_symmetry_group_IT_number 57
_symmetry_cell_setting 'orthorhombic'
loop_
_space_group_symop_operation_xyz
x,y,z
-x,-y,1/2+z
x,1/2-y,-z
-x,1/2+y,1/2-z
-x,-y,-z
x,y,1/2-z
-x,1/2+y,z
x,1/2-y,1/2+z
loop_
_atom_site_type_symbol
_atom_site_label
_atom_site_fract_x
_atom_site_fract_y
_atom_site_fract_z
Si Si1 0.369000 0.652381 0.667894
Si Si2 0.660110 0.937909 0.085928
Si Si3 0.043859 0.167478 0.836932
Si Si4 0.775285 0.751519 0.164085
Si Si5 0.254573 0.865554 0.832527
Si Si6 0.517754 0.771106 0.418273
Si Si7 0.933604 0.392916 0.662778
Si Si8 0.334685 0.083820 0.418373
O O1 0.387844 0.603399 0.750000
O O2 0.281855 0.724312 0.668920
O O3 0.445175 0.738495 0.641550
O O4 0.362801 0.547786 0.608013
O O5 0.712840 0.857854 0.142364
O O6 0.562154 0.905017 0.088763
O O7 0.677879 0.074504 0.112850
O O8 0.690845 0.917120 0.003156
O O9 0.037545 0.166317 0.750000
O O10 0.134092 0.210107 0.863235
O O11 0.981319 0.272193 0.868748
O O12 0.028967 0.025616 0.864372
O O13 0.773381 0.728235 0.250000
O O14 0.747335 0.625816 0.125288
O O15 0.259771 0.920734 0.750000
O O16 0.161696 0.881150 0.863585
O O17 0.481426 0.750000 0.500000
O O18 0.589262 0.673653 0.401559
O O19 0.937836 0.389110 0.750000
#
# Coordination Sequence:
#
# PCOD8230545 Si02
#       8
#     8   8   8   8   8   8   8   8
#     4  11  25  38  55  85 116 150 190 242 298 343
#     4  10  20  37  61  84 108 153 198 232 284 349
#     4   9  17  29  53  84 114 151 191 240 299 354
#     4  10  18  34  59  86 113 144 190 242 290 342
#     4  10  21  36  56  85 117 149 192 244 294 346
#     4   9  22  39  58  80 109 148 194 239 288 348
#     4   9  17  32  52  83 119 149 191 243 298 358
#     4  10  23  39  56  84 115 150 194 237 288 352
#
# _framework density 19.910781
#
# number of rings (size 3 to 8) (size 9 to 14) (size 15 to 20)
#    0.000    2.250    1.250    1.875    3.500    5.000 
#    0.000    3.750    0.000    0.750    3.250    0.000 
#    0.000    0.000    0.000    0.000    0.000    0.000 
#
# Total GULP energy -793164.352875 kJ/mol
# GULP energy per Si atom -12393.193014 kJ/mol
# Density = 1.986546 g / cm^3
# Si number density = 19.910781 Si / 1000 Ang^3
#
#
#
# Elastic Constant Matrix: (Units=GPa)
#
#
# Indices 1 2 3 4 5 6 
#
# 1 73.9508 38.9284 18.4861 0.0000 0.0000 0.0000
# 2 38.9284 96.9944 17.7096 0.0000 0.0000 0.0000
# 3 18.4861 17.7096 41.7641 0.0000 0.0000 0.0000
# 4 0.0000 0.0000 0.0000 19.2682 0.0000 0.0000
# 5 0.0000 0.0000 0.0000 0.0000 6.8094 0.0000
# 6 0.0000 0.0000 0.0000 0.0000 0.0000 25.2923
#
#
#
# Elastic Compliance Matrix: (Units=1/GPa)
#
#
# Indices 1 2 3 4 5 6 
#
# 1 0.018193 -0.006321 -0.005372 0.000000 0.000000 0.000000
# 2 -0.006321 0.013371 -0.002872 0.000000 0.000000 0.000000
# 3 -0.005372 -0.002872 0.027540 0.000000 0.000000 0.000000
# 4 0.000000 0.000000 0.000000 0.051899 0.000000 0.000000
# 5 0.000000 0.000000 0.000000 0.000000 0.146855 0.000000
# 6 0.000000 0.000000 0.000000 0.000000 0.000000 0.039538
#
#
# Mechanical properties :
#
#
# Convention : Reuss Voigt Hill
#
# Bulk Modulus (GPa) = 33.36314 40.32863 36.84588
# Shear Modulus (GPa) = 14.85806 19.44633 17.15219
#
# Velocity S-wave (km/s) = 2.73469 3.12857 2.93824
# Velocity P-wave (km/s) = 5.17340 5.77488 5.48239
#
# Compressibility (1/GPa) = 0.02997320
#
# Stress axis : x y z
#
# Youngs Moduli (GPa) = 54.96690 74.78835 36.31088
#
# Poissons Ratio (x) = 0.47271 0.19508
# Poissons Ratio (y) = 0.34743 0.10429
# Poissons Ratio (z) = 0.29531 0.21480
#
# Static dielectric constant tensor:
#      x y z
#    x 3.635990 0.000000 0.000000 
#    y 0.000000 3.829840 0.000000 
#    z 0.000000 0.000000 3.397150 
# 
# 
# High freq. dielectric constant tensor:
#      x y z
#    x 1.768120 0.000000 0.000000 
#    y 0.000000 1.781860 0.000000 
#    z 0.000000 0.000000 1.748500 
# 
# From -- ./inp_files/22685.got.cif
#   From: 2010.03.12/outbox.cif.g09.slc.cpg/sg57_12_cif.got.tgz:22685.got - 2010.04.16 15:48:40.
