data_PCOD8230318
_publ_section_title
;
Structure prediction by ZEFSAII (Michael W. Deem and Ramdas Pophale) SiO2 
 PCOD8230318
Probable space group: P B C M
;
_chemical_formula_sum "Si O2"
_cell_formula_units_Z 56
_cell_length_a 8.467292
_cell_length_b 17.804013
_cell_length_c 19.881305
_cell_angle_alpha 90.000000
_cell_angle_beta 90.000000
_cell_angle_gamma 90.000000
_cell_volume 2997.142055
_symmetry_space_group_name_H-M "P B C M"
_symmetry_group_IT_number 57
_symmetry_cell_setting 'orthorhombic'
loop_
_space_group_symop_operation_xyz
x,y,z
-x,-y,1/2+z
x,1/2-y,-z
-x,1/2+y,1/2-z
-x,-y,-z
x,y,1/2-z
-x,1/2+y,z
x,1/2-y,1/2+z
loop_
_atom_site_type_symbol
_atom_site_label
_atom_site_fract_x
_atom_site_fract_y
_atom_site_fract_z
Si Si1 0.587504 0.899889 0.324934
Si Si2 0.260200 0.663906 0.675612
Si Si3 0.333312 0.570045 0.485105
Si Si4 0.900382 0.320418 0.041135
Si Si5 0.578523 0.522509 0.108209
Si Si6 0.122064 0.497716 0.824782
Si Si7 0.859305 0.557084 0.585801
O O1 0.653988 0.889747 0.250000
O O2 0.448982 0.838288 0.338108
O O3 0.521450 0.985624 0.331057
O O4 0.735125 0.889949 0.374908
O O5 0.226703 0.700548 0.750000
O O6 0.165602 0.705057 0.615041
O O7 0.200432 0.578958 0.677970
O O8 0.239649 0.647134 0.494371
O O9 0.404529 0.548211 0.557103
O O10 0.472683 0.585377 0.430065
O O11 0.224785 0.498770 0.465633
O O12 0.030407 0.385509 0.045603
O O13 0.970456 0.250000 0.000000
O O14 0.747967 0.553768 0.134912
O O15 0.092768 0.465024 0.750000
O O16 0.957010 0.502947 0.863657
#
# Coordination Sequence:
#
# PCOD8230318 Si02
#       7
#     8   8   8   8   8   8   8
#     4   9  15  27  49  77 102 122 163 214 250 289
#     4   8  15  30  50  70  94 125 166 213 251 286
#     4  10  18  31  49  73 101 131 163 202 258 305
#     4  11  21  34  50  75 102 134 173 212 250 309
#     4   9  16  27  49  72  99 123 155 203 258 293
#     4   9  15  26  45  74  99 124 165 209 248 290
#     4  10  19  29  48  75 107 133 162 204 262 305
#
# _framework density 18.684464999999999
#
# number of rings (size 3 to 8) (size 9 to 14) (size 15 to 20)
#    0.000    2.571    4.286    2.143    0.000    0.571 
#    0.000    0.714    0.000    5.143    0.000    2.000 
#    0.000    0.000    0.000    0.000    0.000    0.000 
#
# Total GULP energy -693775.632944 kJ/mol
# GULP energy per Si atom -12388.850588 kJ/mol
# Density = 1.864194 g / cm^3
# Si number density = 18.684465 Si / 1000 Ang^3
#
#
#
# Elastic Constant Matrix: (Units=GPa)
#
#
# Indices 1 2 3 4 5 6 
#
# 1 78.1007 7.7873 27.6993 0.0000 0.0000 0.0000
# 2 7.7873 26.4699 23.8912 0.0000 0.0000 0.0000
# 3 27.6993 23.8912 97.4793 0.0000 0.0000 0.0000
# 4 0.0000 0.0000 0.0000 17.6547 0.0000 0.0000
# 5 0.0000 0.0000 0.0000 0.0000 23.6829 0.0000
# 6 0.0000 0.0000 0.0000 0.0000 0.0000 9.8531
#
#
#
# Elastic Compliance Matrix: (Units=1/GPa)
#
#
# Indices 1 2 3 4 5 6 
#
# 1 0.014249 -0.000690 -0.003880 0.000000 0.000000 0.000000
# 2 -0.000690 0.048543 -0.011701 0.000000 0.000000 0.000000
# 3 -0.003880 -0.011701 0.014229 0.000000 0.000000 0.000000
# 4 0.000000 0.000000 0.000000 0.056642 0.000000 0.000000
# 5 0.000000 0.000000 0.000000 0.000000 0.042225 0.000000
# 6 0.000000 0.000000 0.000000 0.000000 0.000000 0.101490
#
#
# Mechanical properties :
#
#
# Convention : Reuss Voigt Hill
#
# Bulk Modulus (GPa) = 22.48276 35.64505 29.06390
# Shear Modulus (GPa) = 15.39661 19.74962 17.57312
#
# Velocity S-wave (km/s) = 2.87371 3.25469 3.07012
# Velocity P-wave (km/s) = 4.80312 5.76566 5.30626
#
# Compressibility (1/GPa) = 0.04447853
#
# Stress axis : x y z
#
# Youngs Moduli (GPa) = 70.18137 20.60015 70.27937
#
# Poissons Ratio (x) = 0.01422 0.27266
# Poissons Ratio (y) = 0.04844 0.82237
# Poissons Ratio (z) = 0.27228 0.24105
#
# Static dielectric constant tensor:
#      x y z
#    x 3.728780 0.000000 0.000000 
#    y 0.000000 2.615330 0.000000 
#    z 0.000000 0.000000 3.878810 
# 
# 
# High freq. dielectric constant tensor:
#      x y z
#    x 1.739030 0.000000 0.000000 
#    y 0.000000 1.625760 0.000000 
#    z 0.000000 0.000000 1.744180 
# 
# From -- ./inp_files/24666.got.cif
#   From: 2010.03.12/outbox.cif.g09.slc.cpg/sg57_13_cif.got.tgz:24666.got - 2010.04.16 15:48:40.
