data_PCOD8230856
_publ_section_title
;
Structure prediction by ZEFSAII (Michael W. Deem and Ramdas Pophale) SiO2 
 PCOD8230856
Probable space group: P B C M
;
_chemical_formula_sum "Si O2"
_cell_formula_units_Z 64
_cell_length_a 12.106819
_cell_length_b 31.418800
_cell_length_c 9.230080
_cell_angle_alpha 90.000000
_cell_angle_beta 90.000000
_cell_angle_gamma 90.000000
_cell_volume 3510.953750
_symmetry_space_group_name_H-M "P B C M"
_symmetry_group_IT_number 57
_symmetry_cell_setting 'orthorhombic'
loop_
_space_group_symop_operation_xyz
x,y,z
-x,-y,1/2+z
x,1/2-y,-z
-x,1/2+y,1/2-z
-x,-y,-z
x,y,1/2-z
-x,1/2+y,z
x,1/2-y,1/2+z
loop_
_atom_site_type_symbol
_atom_site_label
_atom_site_fract_x
_atom_site_fract_y
_atom_site_fract_z
Si Si1 0.892052 0.995505 0.409755
Si Si2 0.505621 0.954009 0.421955
Si Si3 0.086505 0.367368 0.919098
Si Si4 0.743617 0.919925 0.420276
Si Si5 0.292898 0.708294 0.918031
Si Si6 0.036823 0.707414 0.921534
Si Si7 0.665791 0.116424 0.580342
Si Si8 0.134929 0.589703 0.408454
O O1 0.927900 0.980771 0.250000
O O2 0.806351 0.962118 0.474513
O O3 0.830757 0.040542 0.407203
O O4 0.000000 0.000000 0.500000
O O5 0.495471 0.962296 0.250000
O O6 0.616941 0.928461 0.459764
O O7 0.413406 0.920669 0.482990
O O8 0.500000 0.000000 0.500000
O O9 0.104027 0.356257 0.750000
O O10 0.995797 0.404957 0.941208
O O11 0.204084 0.381146 0.988099
O O12 0.040300 0.327929 0.007928
O O13 0.757869 0.910524 0.250000
O O14 0.304028 0.718896 0.750000
O O15 0.165268 0.699034 0.958470
O O16 0.365214 0.665820 0.958526
O O17 0.338938 0.750000 0.000000
O O18 0.015870 0.709835 0.750000
O O19 0.997529 0.750000 0.000000
O O20 0.666346 0.110704 0.750000
O O21 0.791213 0.112017 0.528086
O O22 0.160571 0.609864 0.250000
#
# Coordination Sequence:
#
# PCOD8230856 Si02
#       8
#     8   8   8   8   8   8   8   8
#     4  10  19  31  46  68  99 133 170 212 260 310
#     4  10  22  40  60  80 107 145 191 236 281 333
#     4  11  21  33  52  79 110 142 180 223 270 324
#     4  10  21  36  54  75 104 143 183 224 273 327
#     4   9  18  31  50  78 110 140 174 215 267 325
#     4  10  19  33  53  79 114 149 180 216 268 329
#     4  10  20  35  55  79 106 141 181 223 271 328
#     4  10  20  32  48  75 108 139 174 218 267 320
#
# _framework density 18.228666
#
# number of rings (size 3 to 8) (size 9 to 14) (size 15 to 20)
#    0.000    2.000    2.500    1.500    0.000    4.000 
#    0.000    0.000    0.000    0.750    0.000    1.750 
#    0.000    0.000    0.000    0.000    0.000    0.000 
#
# Total GULP energy -793107.769272 kJ/mol
# GULP energy per Si atom -12392.308895 kJ/mol
# Density = 1.818718 g / cm^3
# Si number density = 18.228666 Si / 1000 Ang^3
#
#
#
# Elastic Constant Matrix: (Units=GPa)
#
#
# Indices 1 2 3 4 5 6 
#
# 1 72.7976 36.9399 31.8772 0.0000 0.0000 0.0000
# 2 36.9399 121.6383 50.2195 0.0000 0.0000 0.0000
# 3 31.8772 50.2195 59.4009 0.0000 0.0000 0.0000
# 4 0.0000 0.0000 0.0000 33.1218 0.0000 0.0000
# 5 0.0000 0.0000 0.0000 0.0000 21.8049 0.0000
# 6 0.0000 0.0000 0.0000 0.0000 0.0000 28.7336
#
#
#
# Elastic Compliance Matrix: (Units=1/GPa)
#
#
# Indices 1 2 3 4 5 6 
#
# 1 0.018372 -0.002318 -0.007900 0.000000 0.000000 0.000000
# 2 -0.002318 0.012922 -0.009681 0.000000 0.000000 0.000000
# 3 -0.007900 -0.009681 0.029258 0.000000 0.000000 0.000000
# 4 0.000000 0.000000 0.000000 0.030192 0.000000 0.000000
# 5 0.000000 0.000000 0.000000 0.000000 0.045861 0.000000
# 6 0.000000 0.000000 0.000000 0.000000 0.000000 0.034802
#
#
# Mechanical properties :
#
#
# Convention : Reuss Voigt Hill
#
# Bulk Modulus (GPa) = 48.17906 54.65667 51.41786
# Shear Modulus (GPa) = 22.92291 25.71873 24.32082
#
# Velocity S-wave (km/s) = 3.55000 3.76026 3.65664
# Velocity P-wave (km/s) = 6.57960 6.99298 6.78944
#
# Compressibility (1/GPa) = 0.02075590
#
# Stress axis : x y z
#
# Youngs Moduli (GPa) = 54.43048 77.38897 34.17825
#
# Poissons Ratio (x) = 0.17938 0.27000
# Poissons Ratio (y) = 0.12616 0.33087
# Poissons Ratio (z) = 0.42998 0.74917
#
# Static dielectric constant tensor:
#      x y z
#    x 3.243150 0.000000 0.000000 
#    y 0.000000 3.670820 0.000000 
#    z 0.000000 0.000000 3.351040 
# 
# 
# High freq. dielectric constant tensor:
#      x y z
#    x 1.674370 0.000000 0.000000 
#    y 0.000000 1.713180 0.000000 
#    z 0.000000 0.000000 1.705610 
# 
# From -- ./inp_files/3781.got.cif
#   From: 2010.03.12/outbox.cif.g09.slc.cpg/sg57_2_cif.got.tgz:3781.got - 2010.04.16 15:48:40.
