data_PCOD8230012
_publ_section_title
;
Structure prediction by ZEFSAII (Michael W. Deem and Ramdas Pophale) SiO2 
 PCOD8230012
Probable space group: P B C M
;
_chemical_formula_sum "Si O2"
_cell_formula_units_Z 64
_cell_length_a 10.054039
_cell_length_b 20.663774
_cell_length_c 17.902365
_cell_angle_alpha 90.000000
_cell_angle_beta 90.000000
_cell_angle_gamma 90.000000
_cell_volume 3719.294914
_symmetry_space_group_name_H-M "P B C M"
_symmetry_group_IT_number 57
_symmetry_cell_setting 'orthorhombic'
loop_
_space_group_symop_operation_xyz
x,y,z
-x,-y,1/2+z
x,1/2-y,-z
-x,1/2+y,1/2-z
-x,-y,-z
x,y,1/2-z
-x,1/2+y,z
x,1/2-y,1/2+z
loop_
_atom_site_type_symbol
_atom_site_label
_atom_site_fract_x
_atom_site_fract_y
_atom_site_fract_z
Si Si1 0.341610 0.000954 0.581230
Si Si2 0.499685 0.680109 0.520648
Si Si3 0.065517 0.553925 0.054027
Si Si4 0.399375 0.066115 0.431132
Si Si5 0.773945 0.105125 0.833029
Si Si6 0.806840 0.176824 0.521737
Si Si7 0.528712 0.613026 0.834376
Si Si8 0.843285 0.962012 0.663676
O O1 0.353590 0.012841 0.492070
O O2 0.362886 0.062906 0.634193
O O3 0.195393 0.973895 0.595474
O O4 0.455995 0.949849 0.603090
O O5 0.549284 0.750000 0.500000
O O6 0.595100 0.633711 0.474065
O O7 0.346295 0.667485 0.497056
O O8 0.524881 0.673988 0.609718
O O9 0.962305 0.571592 0.118889
O O10 0.100263 0.622275 0.015185
O O11 0.000000 0.500000 0.000000
O O12 0.294649 0.068718 0.364376
O O13 0.806239 0.131189 0.750000
O O14 0.813930 0.163211 0.888987
O O15 0.619338 0.082788 0.837903
O O16 0.853132 0.039321 0.850773
O O17 0.854477 0.250000 0.500000
O O18 0.566829 0.634214 0.750000
O O19 0.857605 0.944629 0.750000
#
# Coordination Sequence:
#
# PCOD8230012 Si02
#       8
#     8   8   8   8   8   8   8   8
#     4  10  18  29  54  81 105 134 177 224 282 325
#     4   9  18  32  54  81 110 142 189 231 273 334
#     4  12  21  35  55  83 115 147 184 232 281 330
#     4  10  17  32  53  79 104 136 177 226 278 331
#     4   9  16  30  52  80 107 139 181 228 280 334
#     4  10  19  34  55  83 110 149 192 230 275 336
#     4   9  17  29  51  79 109 137 174 230 282 324
#     4  11  22  35  54  80 112 147 185 229 283 337
#
# _framework density 17.207564000000001
#
# number of rings (size 3 to 8) (size 9 to 14) (size 15 to 20)
#    0.000    2.000    5.000    0.000    0.000    0.500 
#    0.000    1.875    0.000    1.500    0.000    0.000 
#    0.000    0.000    0.000    0.000    0.000    0.000 
#
# Total GULP energy -793271.585954 kJ/mol
# GULP energy per Si atom -12394.868531 kJ/mol
# Density = 1.716840 g / cm^3
# Si number density = 17.207564 Si / 1000 Ang^3
#
#
#
# Elastic Constant Matrix: (Units=GPa)
#
#
# Indices 1 2 3 4 5 6 
#
# 1 94.8067 37.3632 47.1901 0.0000 0.0000 0.0000
# 2 37.3632 92.8303 53.0876 0.0000 0.0000 0.0000
# 3 47.1901 53.0876 121.8264 0.0000 0.0000 0.0000
# 4 0.0000 0.0000 0.0000 20.7885 0.0000 0.0000
# 5 0.0000 0.0000 0.0000 0.0000 25.3170 0.0000
# 6 0.0000 0.0000 0.0000 0.0000 0.0000 19.1090
#
#
#
# Elastic Compliance Matrix: (Units=1/GPa)
#
#
# Indices 1 2 3 4 5 6 
#
# 1 0.013797 -0.003326 -0.003895 0.000000 0.000000 0.000000
# 2 -0.003326 0.015149 -0.005313 0.000000 0.000000 0.000000
# 3 -0.003895 -0.005313 0.012033 0.000000 0.000000 0.000000
# 4 0.000000 0.000000 0.000000 0.048103 0.000000 0.000000
# 5 0.000000 0.000000 0.000000 0.000000 0.039499 0.000000
# 6 0.000000 0.000000 0.000000 0.000000 0.000000 0.052331
#
#
# Mechanical properties :
#
#
# Convention : Reuss Voigt Hill
#
# Bulk Modulus (GPa) = 62.85037 64.97170 63.91103
# Shear Modulus (GPa) = 23.66466 24.49775 24.08120
#
# Velocity S-wave (km/s) = 3.71246 3.77724 3.74499
# Velocity P-wave (km/s) = 7.41489 7.54075 7.47809
#
# Compressibility (1/GPa) = 0.01591081
#
# Stress axis : x y z
#
# Youngs Moduli (GPa) = 72.47810 66.00882 83.10729
#
# Poissons Ratio (x) = 0.21952 0.32372
# Poissons Ratio (y) = 0.24104 0.44158
# Poissons Ratio (z) = 0.28232 0.35073
#
# Static dielectric constant tensor:
#      x y z
#    x 3.134870 0.000000 0.000000 
#    y 0.000000 2.999690 0.000000 
#    z 0.000000 0.000000 3.236340 
# 
# 
# High freq. dielectric constant tensor:
#      x y z
#    x 1.650880 0.000000 0.000000 
#    y 0.000000 1.636160 0.000000 
#    z 0.000000 0.000000 1.661580 
# 
# From -- ./inp_files/21400.got.cif
#   From: 2010.03.12/outbox.cif.g09.slc.cpg/sg57_11_cif.got.tgz:21400.got - 2010.04.16 15:48:40.
