data_PCOD8230511
_publ_section_title
;
Structure prediction by ZEFSAII (Michael W. Deem and Ramdas Pophale) SiO2 
 PCOD8230511
Probable space group: P B C M
;
_chemical_formula_sum "Si O2"
_cell_formula_units_Z 40
_cell_length_a 8.765472
_cell_length_b 32.800028
_cell_length_c 7.644263
_cell_angle_alpha 90.000000
_cell_angle_beta 90.000000
_cell_angle_gamma 90.000000
_cell_volume 2197.784680
_symmetry_space_group_name_H-M "P B C M"
_symmetry_group_IT_number 57
_symmetry_cell_setting 'orthorhombic'
loop_
_space_group_symop_operation_xyz
x,y,z
-x,-y,1/2+z
x,1/2-y,-z
-x,1/2+y,1/2-z
-x,-y,-z
x,y,1/2-z
-x,1/2+y,z
x,1/2-y,1/2+z
loop_
_atom_site_type_symbol
_atom_site_label
_atom_site_fract_x
_atom_site_fract_y
_atom_site_fract_z
Si Si1 0.183752 0.941392 0.750000
Si Si2 0.322674 0.793959 0.444778
Si Si3 0.322191 0.647044 0.250000
Si Si4 0.823721 0.941760 0.750000
Si Si5 0.329683 0.508465 0.558298
Si Si6 0.684485 0.646824 0.250000
Si Si7 0.315031 0.205993 0.944898
O O1 0.236454 0.895249 0.750000
O O2 0.245544 0.962821 0.577103
O O3 0.003866 0.943800 0.750000
O O4 0.255250 0.750000 0.500000
O O5 0.264964 0.805215 0.250000
O O6 0.266700 0.828370 0.578969
O O7 0.503843 0.791363 0.450452
O O8 0.503324 0.639900 0.250000
O O9 0.768670 0.895795 0.750000
O O10 0.758898 0.965048 0.922991
O O11 0.500000 0.500000 0.500000
O O12 0.331600 0.530223 0.750000
O O13 0.740440 0.671451 0.420918
O O14 0.257351 0.194741 0.750000
O O15 0.247641 0.250000 0.000000
#
# Coordination Sequence:
#
# PCOD8230511 Si02
#       7
#     4   8   4   4   8   4   8
#     4  12  22  42  60  87 124 153 196 237 294 363
#     4   9  15  26  46  76 109 142 186 238 294 335
#     4  10  20  30  54  79 112 149 186 245 288 335
#     4  10  24  40  60  87 120 159 190 241 294 355
#     4  10  21  40  67  91 114 148 194 240 297 347
#     4  10  18  34  48  79 116 139 194 239 284 341
#     4   9  15  25  46  76 106 143 182 238 293 332
#
# _framework density 18.200144000000002
#
# number of rings (size 3 to 8) (size 9 to 14) (size 15 to 20)
#    0.600    1.600    3.000    1.800    0.000    0.800 
#    1.800    2.000    0.000    1.200    0.000    0.000 
#    0.000    0.000    0.000    0.000    0.000    0.000 
#
# Total GULP energy -495801.233524 kJ/mol
# GULP energy per Si atom -12395.030838 kJ/mol
# Density = 1.815872 g / cm^3
# Si number density = 18.200144 Si / 1000 Ang^3
#
#
#
# Elastic Constant Matrix: (Units=GPa)
#
#
# Indices 1 2 3 4 5 6 
#
# 1 89.7085 59.4936 46.0004 0.0000 0.0000 0.0000
# 2 59.4936 162.4384 91.4255 0.0000 0.0000 0.0000
# 3 46.0004 91.4255 187.8937 0.0000 0.0000 0.0000
# 4 0.0000 0.0000 0.0000 35.6309 0.0000 0.0000
# 5 0.0000 0.0000 0.0000 0.0000 14.9437 0.0000
# 6 0.0000 0.0000 0.0000 0.0000 0.0000 -9.7644
#
#
#
# Elastic Compliance Matrix: (Units=1/GPa)
#
#
# Indices 1 2 3 4 5 6 
#
# 1 0.014977 -0.004712 -0.001374 0.000000 0.000000 0.000000
# 2 -0.004712 0.009961 -0.003693 0.000000 0.000000 0.000000
# 3 -0.001374 -0.003693 0.007455 0.000000 0.000000 0.000000
# 4 0.000000 0.000000 0.000000 0.028066 0.000000 0.000000
# 5 0.000000 0.000000 0.000000 0.000000 0.066918 0.000000
# 6 0.000000 0.000000 0.000000 0.000000 0.000000 -0.102413
#
#
# Mechanical properties :
#
#
# Convention : Reuss Voigt Hill
#
# Bulk Modulus (GPa) = 77.91242 92.65330 85.28286
# Shear Modulus (GPa) = 102.46236 24.37013 63.41625
#
# Velocity S-wave (km/s) = 7.51131 3.66322 5.90927
# Velocity P-wave (km/s) = 10.86867 8.30125 9.67054
#
# Compressibility (1/GPa) = 0.01283492
#
# Stress axis : x y z
#
# Youngs Moduli (GPa) = 66.77066 100.39654 134.13031
#
# Poissons Ratio (x) = 0.47307 0.18427
# Poissons Ratio (y) = 0.31462 0.49534
# Poissons Ratio (z) = 0.09173 0.37076
#
# Static dielectric constant tensor:
#      x y z
#    x 2.968430 0.000000 0.000000 
#    y 0.000000 3.335860 0.000000 
#    z 0.000000 0.000000 3.685960 
# 
# 
# High freq. dielectric constant tensor:
#      x y z
#    x 1.664930 0.000000 0.000000 
#    y 0.000000 1.702550 0.000000 
#    z 0.000000 0.000000 1.719160 
# 
# From -- ./inp_files/1773.got.cif
#   From: 2010.03.12/outbox.cif.g09.slc.cpg/sg57_1_cif.got.tgz:1773.got - 2010.04.16 15:48:40.
