data_PCOD8230850
_publ_section_title
;
Structure prediction by ZEFSAII (Michael W. Deem and Ramdas Pophale) SiO2 
 PCOD8230850
Probable space group: P B C M
;
_chemical_formula_sum "Si O2"
_cell_formula_units_Z 64
_cell_length_a 22.920424
_cell_length_b 17.750273
_cell_length_c 9.001005
_cell_angle_alpha 90.000000
_cell_angle_beta 90.000000
_cell_angle_gamma 90.000000
_cell_volume 3662.002927
_symmetry_space_group_name_H-M "P B C M"
_symmetry_group_IT_number 57
_symmetry_cell_setting 'orthorhombic'
loop_
_space_group_symop_operation_xyz
x,y,z
-x,-y,1/2+z
x,1/2-y,-z
-x,1/2+y,1/2-z
-x,-y,-z
x,y,1/2-z
-x,1/2+y,z
x,1/2-y,1/2+z
loop_
_atom_site_type_symbol
_atom_site_label
_atom_site_fract_x
_atom_site_fract_y
_atom_site_fract_z
Si Si1 0.244500 0.533314 0.074253
Si Si2 0.810293 0.327157 0.423528
Si Si3 0.468687 0.065881 0.419236
Si Si4 0.050296 0.326753 0.422453
Si Si5 0.432582 0.668927 0.073317
Si Si6 0.364179 0.970528 0.424671
Si Si7 0.067582 0.898815 0.078508
Si Si8 0.875817 0.533071 0.579179
O O1 0.254261 0.537499 0.250000
O O2 0.191524 0.476918 0.029834
O O3 0.229707 0.614559 0.010037
O O4 0.302688 0.505690 0.994130
O O5 0.793637 0.250000 0.500000
O O6 0.794099 0.327037 0.250000
O O7 0.878536 0.342940 0.448964
O O8 0.484056 0.053103 0.250000
O O9 0.499176 0.145771 0.464208
O O10 0.500000 0.000000 0.500000
O O11 0.400290 0.049501 0.449371
O O12 0.067503 0.250000 0.500000
O O13 0.040830 0.310610 0.250000
O O14 0.104693 0.381895 0.452448
O O15 0.990401 0.360955 0.490305
O O16 0.421253 0.675049 0.250000
O O17 0.419489 0.750000 0.000000
O O18 0.390751 0.603545 0.006051
O O19 0.359003 0.951445 0.250000
O O20 0.057171 0.916051 0.250000
O O21 0.079583 0.978818 0.004711
O O22 0.882127 0.510743 0.750000
#
# Coordination Sequence:
#
# PCOD8230850 Si02
#       8
#     8   8   8   8   8   8   8   8
#     4  10  20  34  50  69  93 126 164 203 242 281
#     4  10  19  31  46  67  95 127 159 195 237 287
#     4   8  16  30  49  71  97 126 157 191 229 270
#     4  10  20  33  49  73  99 124 155 197 246 298
#     4  10  19  32  50  76 107 135 159 190 233 281
#     4  10  19  33  52  74  97 126 164 203 237 278
#     4   9  18  31  49  72  97 123 157 196 240 294
#     4   9  19  34  51  70  96 127 162 201 243 289
#
# _framework density 17.476776000000001
#
# number of rings (size 3 to 8) (size 9 to 14) (size 15 to 20)
#    0.000    2.500    0.000    2.250    0.000    3.500 
#    0.000    2.500    0.000    0.750    0.000    5.250 
#    0.000    0.000    0.000    0.000    0.000    0.000 
#
# Total GULP energy -793055.934662 kJ/mol
# GULP energy per Si atom -12391.498979 kJ/mol
# Density = 1.743700 g / cm^3
# Si number density = 17.476776 Si / 1000 Ang^3
#
#
#
# Elastic Constant Matrix: (Units=GPa)
#
#
# Indices 1 2 3 4 5 6 
#
# 1 104.0747 41.1444 37.6521 0.0000 0.0000 0.0000
# 2 41.1444 73.5946 32.6504 0.0000 0.0000 0.0000
# 3 37.6521 32.6504 62.5223 0.0000 0.0000 0.0000
# 4 0.0000 0.0000 0.0000 25.1081 0.0000 0.0000
# 5 0.0000 0.0000 0.0000 0.0000 25.5908 0.0000
# 6 0.0000 0.0000 0.0000 0.0000 0.0000 16.3834
#
#
#
# Elastic Compliance Matrix: (Units=1/GPa)
#
#
# Indices 1 2 3 4 5 6 
#
# 1 0.013654 -0.005187 -0.005514 0.000000 0.000000 0.000000
# 2 -0.005187 0.019656 -0.007141 0.000000 0.000000 0.000000
# 3 -0.005514 -0.007141 0.023044 0.000000 0.000000 0.000000
# 4 0.000000 0.000000 0.000000 0.039828 0.000000 0.000000
# 5 0.000000 0.000000 0.000000 0.000000 0.039077 0.000000
# 6 0.000000 0.000000 0.000000 0.000000 0.000000 0.061037
#
#
# Mechanical properties :
#
#
# Convention : Reuss Voigt Hill
#
# Bulk Modulus (GPa) = 48.37928 51.45394 49.91661
# Shear Modulus (GPa) = 20.93192 21.99944 21.46568
#
# Velocity S-wave (km/s) = 3.46453 3.55178 3.50843
# Velocity P-wave (km/s) = 6.61409 6.80628 6.71087
#
# Compressibility (1/GPa) = 0.02067001
#
# Stress axis : x y z
#
# Youngs Moduli (GPa) = 73.23873 50.87478 43.39538
#
# Poissons Ratio (x) = 0.26390 0.23927
# Poissons Ratio (y) = 0.37991 0.30988
# Poissons Ratio (z) = 0.40382 0.36329
#
# Static dielectric constant tensor:
#      x y z
#    x 4.089920 0.000000 0.000000 
#    y 0.000000 3.393160 0.000000 
#    z 0.000000 0.000000 3.318530 
# 
# 
# High freq. dielectric constant tensor:
#      x y z
#    x 1.673880 0.000000 0.000000 
#    y 0.000000 1.654380 0.000000 
#    z 0.000000 0.000000 1.684110 
# 
# From -- ./inp_files/8452.got.cif
#   From: 2010.03.12/outbox.cif.g09.slc.cpg/sg57_5_cif.got.tgz:8452.got - 2010.04.16 15:48:40.
