data_PCOD8230816
_publ_section_title
;
Structure prediction by ZEFSAII (Michael W. Deem and Ramdas Pophale) SiO2 
 PCOD8230816
Probable space group: P B C M
;
_chemical_formula_sum "Si O2"
_cell_formula_units_Z 48
_cell_length_a 12.353717
_cell_length_b 22.906575
_cell_length_c 9.606090
_cell_angle_alpha 90.000000
_cell_angle_beta 90.000000
_cell_angle_gamma 90.000000
_cell_volume 2718.344268
_symmetry_space_group_name_H-M "P B C M"
_symmetry_group_IT_number 57
_symmetry_cell_setting 'orthorhombic'
loop_
_space_group_symop_operation_xyz
x,y,z
-x,-y,1/2+z
x,1/2-y,-z
-x,1/2+y,1/2-z
-x,-y,-z
x,y,1/2-z
-x,1/2+y,z
x,1/2-y,1/2+z
loop_
_atom_site_type_symbol
_atom_site_label
_atom_site_fract_x
_atom_site_fract_y
_atom_site_fract_z
Si Si1 0.409573 0.065969 0.095272
Si Si2 0.202677 0.609711 0.096266
Si Si3 0.183905 0.108680 0.094312
Si Si4 0.901612 0.986927 0.402844
Si Si5 0.005725 0.692810 0.410332
Si Si6 0.612918 0.068078 0.911581
O O1 0.462886 0.066129 0.250000
O O2 0.314407 0.115099 0.090942
O O3 0.360926 0.000771 0.067819
O O4 0.497258 0.082608 0.980160
O O5 0.240402 0.632103 0.250000
O O6 0.172298 0.542819 0.111321
O O7 0.098548 0.646625 0.044416
O O8 0.299383 0.610982 0.984122
O O9 0.148865 0.086092 0.250000
O O10 0.114888 0.166943 0.062728
O O11 0.165195 0.064300 0.970907
O O12 0.941843 0.967087 0.250000
O O13 0.000000 0.000000 0.500000
O O14 0.021485 0.750000 0.500000
O O15 0.019589 0.709991 0.250000
O O16 0.608938 0.085364 0.750000
#
# Coordination Sequence:
#
# PCOD8230816 Si02
#       6
#     8   8   8   8   8   8
#     4   9  18  31  49  74 109 145 172 206 256 312
#     4  10  20  34  52  74 107 142 171 211 261 314
#     4  10  19  35  54  76 107 140 174 213 260 314
#     4  11  20  30  48  76 108 139 170 209 259 318
#     4  10  22  39  56  76 103 136 176 222 267 313
#     4  10  19  30  49  77 109 141 176 213 249 306
#
# _framework density 17.657807999999999
#
# number of rings (size 3 to 8) (size 9 to 14) (size 15 to 20)
#    0.000    2.000    3.333    1.000    0.000    3.333 
#    0.000    0.000    0.000    1.000    0.000    2.333 
#    0.000    0.000    0.000    0.000    0.000    0.000 
#
# Total GULP energy -594808.193082 kJ/mol
# GULP energy per Si atom -12391.837356 kJ/mol
# Density = 1.761762 g / cm^3
# Si number density = 17.657808 Si / 1000 Ang^3
#
#
#
# Elastic Constant Matrix: (Units=GPa)
#
#
# Indices 1 2 3 4 5 6 
#
# 1 98.5149 25.5617 60.0719 0.0000 0.0000 0.0000
# 2 25.5617 59.2271 39.7430 0.0000 0.0000 0.0000
# 3 60.0719 39.7430 127.2626 0.0000 0.0000 0.0000
# 4 0.0000 0.0000 0.0000 20.9713 0.0000 0.0000
# 5 0.0000 0.0000 0.0000 0.0000 28.8586 0.0000
# 6 0.0000 0.0000 0.0000 0.0000 0.0000 12.4777
#
#
#
# Elastic Compliance Matrix: (Units=1/GPa)
#
#
# Indices 1 2 3 4 5 6 
#
# 1 0.014457 -0.002100 -0.006168 0.000000 0.000000 0.000000
# 2 -0.002100 0.021666 -0.005774 0.000000 0.000000 0.000000
# 3 -0.006168 -0.005774 0.012573 0.000000 0.000000 0.000000
# 4 0.000000 0.000000 0.000000 0.047684 0.000000 0.000000
# 5 0.000000 0.000000 0.000000 0.000000 0.034652 0.000000
# 6 0.000000 0.000000 0.000000 0.000000 0.000000 0.080143
#
#
# Mechanical properties :
#
#
# Convention : Reuss Voigt Hill
#
# Bulk Modulus (GPa) = 48.52263 59.52864 54.02564
# Shear Modulus (GPa) = 20.31447 23.10339 21.70893
#
# Velocity S-wave (km/s) = 3.39551 3.62110 3.51012
# Velocity P-wave (km/s) = 6.55071 7.16022 6.86223
#
# Compressibility (1/GPa) = 0.02060894
#
# Stress axis : x y z
#
# Youngs Moduli (GPa) = 69.17091 46.15626 79.53768
#
# Poissons Ratio (x) = 0.09695 0.49060
# Poissons Ratio (y) = 0.14529 0.45929
# Poissons Ratio (z) = 0.42666 0.26653
#
# Static dielectric constant tensor:
#      x y z
#    x 3.298340 0.000000 0.000000 
#    y 0.000000 2.900090 0.000000 
#    z 0.000000 0.000000 3.450550 
# 
# 
# High freq. dielectric constant tensor:
#      x y z
#    x 1.683110 0.000000 0.000000 
#    y 0.000000 1.626720 0.000000 
#    z 0.000000 0.000000 1.699070 
# 
# From -- ./inp_files/3095.got.cif
#   From: 2010.03.12/outbox.cif.g09.slc.cpg/sg57_2_cif.got.tgz:3095.got - 2010.04.16 15:48:40.
