data_PCOD8230368
_publ_section_title
;
Structure prediction by ZEFSAII (Michael W. Deem and Ramdas Pophale) SiO2 
 PCOD8230368
Probable space group: P B C M
;
_chemical_formula_sum "Si O2"
_cell_formula_units_Z 64
_cell_length_a 15.002219
_cell_length_b 24.285310
_cell_length_c 9.037503
_cell_angle_alpha 90.000000
_cell_angle_beta 90.000000
_cell_angle_gamma 90.000000
_cell_volume 3292.665453
_symmetry_space_group_name_H-M "P B C M"
_symmetry_group_IT_number 57
_symmetry_cell_setting 'orthorhombic'
loop_
_space_group_symop_operation_xyz
x,y,z
-x,-y,1/2+z
x,1/2-y,-z
-x,1/2+y,1/2-z
-x,-y,-z
x,y,1/2-z
-x,1/2+y,z
x,1/2-y,1/2+z
loop_
_atom_site_type_symbol
_atom_site_label
_atom_site_fract_x
_atom_site_fract_y
_atom_site_fract_z
Si Si1 0.881300 0.405277 0.925470
Si Si2 0.213636 0.307163 0.420694
Si Si3 0.046517 0.122339 0.578121
Si Si4 0.541899 0.191596 0.424692
Si Si5 0.874028 0.517232 0.419964
Si Si6 0.635176 0.871841 0.576113
Si Si7 0.665084 0.991939 0.916181
Si Si8 0.678784 0.100722 0.424027
O O1 0.891960 0.402013 0.750000
O O2 0.780831 0.390448 0.976223
O O3 0.908383 0.465800 0.983470
O O4 0.949924 0.363171 0.005890
O O5 0.230967 0.250000 0.500000
O O6 0.237899 0.299704 0.250000
O O7 0.111253 0.325455 0.442445
O O8 0.278229 0.353087 0.487401
O O9 0.036275 0.106966 0.750000
O O10 0.085892 0.071823 0.487797
O O11 0.554391 0.250000 0.500000
O O12 0.546729 0.199533 0.250000
O O13 0.448363 0.165015 0.472771
O O14 0.621082 0.152004 0.482094
O O15 0.905126 0.510400 0.250000
O O16 0.768562 0.521782 0.431742
O O17 0.655579 0.866441 0.750000
O O18 0.613915 0.935835 0.536616
O O19 0.640019 0.008782 0.750000
O O20 0.637722 0.043512 0.016876
O O21 0.672580 0.096175 0.250000
#
# Coordination Sequence:
#
# PCOD8230368 Si02
#       8
#     8   8   8   8   8   8   8   8
#     4  10  20  34  54  78 109 147 185 227 276 328
#     4  11  24  39  57  80 111 149 189 234 282 337
#     4  11  22  35  52  78 109 143 186 230 274 327
#     4  10  22  40  61  84 111 145 188 235 281 331
#     4  10  18  31  52  79 113 149 183 222 269 325
#     4  10  20  37  60  86 117 147 182 227 278 338
#     4   9  18  32  54  85 117 150 183 222 276 335
#     4   9  20  38  57  81 114 149 186 232 282 332
#
# _framework density 19.437139999999999
#
# number of rings (size 3 to 8) (size 9 to 14) (size 15 to 20)
#    0.000    2.000    1.250    2.250    0.000    5.500 
#    0.000    0.625    0.000    3.000    0.000    0.000 
#    0.000    0.000    0.000    0.000    0.000    0.000 
#
# Total GULP energy -793644.340636 kJ/mol
# GULP energy per Si atom -12400.692822 kJ/mol
# Density = 1.939290 g / cm^3
# Si number density = 19.437140 Si / 1000 Ang^3
#
#
#
# Elastic Constant Matrix: (Units=GPa)
#
#
# Indices 1 2 3 4 5 6 
#
# 1 68.6540 57.4874 42.6381 0.0000 0.0000 0.0000
# 2 57.4874 119.6989 42.2766 0.0000 0.0000 0.0000
# 3 42.6381 42.2766 72.4404 0.0000 0.0000 0.0000
# 4 0.0000 0.0000 0.0000 26.6833 0.0000 0.0000
# 5 0.0000 0.0000 0.0000 0.0000 24.5844 0.0000
# 6 0.0000 0.0000 0.0000 0.0000 0.0000 29.8940
#
#
#
# Elastic Compliance Matrix: (Units=1/GPa)
#
#
# Indices 1 2 3 4 5 6 
#
# 1 0.030892 -0.010599 -0.011997 0.000000 0.000000 0.000000
# 2 -0.010599 0.014160 -0.002025 0.000000 0.000000 0.000000
# 3 -0.011997 -0.002025 0.022048 0.000000 0.000000 0.000000
# 4 0.000000 0.000000 0.000000 0.037477 0.000000 0.000000
# 5 0.000000 0.000000 0.000000 0.000000 0.040676 0.000000
# 6 0.000000 0.000000 0.000000 0.000000 0.000000 0.033452
#
#
# Mechanical properties :
#
#
# Convention : Reuss Voigt Hill
#
# Bulk Modulus (GPa) = 56.00122 60.62193 58.31157
# Shear Modulus (GPa) = 21.37673 24.12508 22.75090
#
# Velocity S-wave (km/s) = 3.31990 3.52687 3.42495
# Velocity P-wave (km/s) = 6.60073 6.91675 6.76059
#
# Compressibility (1/GPa) = 0.01785676
#
# Stress axis : x y z
#
# Youngs Moduli (GPa) = 32.37108 70.62157 45.35583
#
# Poissons Ratio (x) = 0.74852 0.54414
# Poissons Ratio (y) = 0.34310 0.09186
# Poissons Ratio (z) = 0.38836 0.14303
#
# Static dielectric constant tensor:
#      x y z
#    x 3.886080 0.000000 0.000000 
#    y 0.000000 3.493470 0.000000 
#    z 0.000000 0.000000 3.576780 
# 
# 
# High freq. dielectric constant tensor:
#      x y z
#    x 1.761720 0.000000 0.000000 
#    y 0.000000 1.743140 0.000000 
#    z 0.000000 0.000000 1.757590 
# 
# From -- ./inp_files/5584.got.cif
#   From: 2010.03.12/outbox.cif.g09.slc.cpg/sg57_3_cif.got.tgz:5584.got - 2010.04.16 15:48:40.
