data_PCOD8230584
_publ_section_title
;
Structure prediction by ZEFSAII (Michael W. Deem and Ramdas Pophale) SiO2 
 PCOD8230584
Probable space group: P B C M
;
_chemical_formula_sum "Si O2"
_cell_formula_units_Z 56
_cell_length_a 9.232256
_cell_length_b 19.816780
_cell_length_c 16.089138
_cell_angle_alpha 90.000000
_cell_angle_beta 90.000000
_cell_angle_gamma 90.000000
_cell_volume 2943.565494
_symmetry_space_group_name_H-M "P B C M"
_symmetry_group_IT_number 57
_symmetry_cell_setting 'orthorhombic'
loop_
_space_group_symop_operation_xyz
x,y,z
-x,-y,1/2+z
x,1/2-y,-z
-x,1/2+y,1/2-z
-x,-y,-z
x,y,1/2-z
-x,1/2+y,z
x,1/2-y,1/2+z
loop_
_atom_site_type_symbol
_atom_site_label
_atom_site_fract_x
_atom_site_fract_y
_atom_site_fract_z
Si Si1 0.836553 0.127389 0.929971
Si Si2 0.216807 0.762784 0.652630
Si Si3 0.050668 0.309239 0.555318
Si Si4 0.771952 0.480991 0.555181
Si Si5 0.723889 0.583141 0.079458
Si Si6 0.583996 0.110535 0.152828
Si Si7 0.947213 0.009043 0.657313
O O1 0.747980 0.193174 0.897664
O O2 0.912238 0.088625 0.852764
O O3 0.740591 0.073991 0.982071
O O4 0.960289 0.144737 0.994278
O O5 0.227970 0.748671 0.750000
O O6 0.328112 0.821816 0.625234
O O7 0.052779 0.784107 0.630347
O O8 0.117264 0.250000 0.500000
O O9 0.185348 0.348886 0.591541
O O10 0.726338 0.553053 0.515172
O O11 0.673966 0.457697 0.632652
O O12 0.937188 0.484153 0.588531
O O13 0.563464 0.604842 0.102642
O O14 0.796289 0.530019 0.142746
O O15 0.551841 0.112552 0.250000
O O16 0.006173 0.995829 0.750000
#
# Coordination Sequence:
#
# PCOD8230584 Si02
#       7
#     8   8   8   8   8   8   8
#     4  10  18  36  58  85 113 145 193 234 278 343
#     4  10  21  36  58  83 114 150 189 239 285 335
#     4  10  19  36  59  83 110 143 189 235 280 335
#     4  11  20  37  59  84 114 151 193 235 284 346
#     4  11  21  38  55  84 116 149 192 234 286 342
#     4  11  23  37  55  83 115 153 193 232 284 341
#     4  11  20  33  61  91 118 148 187 244 293 337
#
# _framework density 19.024546999999998
#
# number of rings (size 3 to 8) (size 9 to 14) (size 15 to 20)
#    0.000    1.429    4.286    2.571    0.000    2.286 
#    2.571    0.000    0.000    0.000    0.000    0.000 
#    0.000    0.000    0.000    0.000    0.000    0.000 
#
# Total GULP energy -693985.691441 kJ/mol
# GULP energy per Si atom -12392.601633 kJ/mol
# Density = 1.898125 g / cm^3
# Si number density = 19.024547 Si / 1000 Ang^3
#
#
#
# Elastic Constant Matrix: (Units=GPa)
#
#
# Indices 1 2 3 4 5 6 
#
# 1 78.3365 25.8542 18.5889 0.0000 0.0000 0.0000
# 2 25.8542 61.0312 26.6936 0.0000 0.0000 0.0000
# 3 18.5889 26.6936 78.4110 0.0000 0.0000 0.0000
# 4 0.0000 0.0000 0.0000 28.6810 0.0000 0.0000
# 5 0.0000 0.0000 0.0000 0.0000 21.9079 0.0000
# 6 0.0000 0.0000 0.0000 0.0000 0.0000 11.8035
#
#
#
# Elastic Compliance Matrix: (Units=1/GPa)
#
#
# Indices 1 2 3 4 5 6 
#
# 1 0.015017 -0.005645 -0.001638 0.000000 0.000000 0.000000
# 2 -0.005645 0.021374 -0.005938 0.000000 0.000000 0.000000
# 3 -0.001638 -0.005938 0.015163 0.000000 0.000000 0.000000
# 4 0.000000 0.000000 0.000000 0.034866 0.000000 0.000000
# 5 0.000000 0.000000 0.000000 0.000000 0.045646 0.000000
# 6 0.000000 0.000000 0.000000 0.000000 0.000000 0.084720
#
#
# Mechanical properties :
#
#
# Convention : Reuss Voigt Hill
#
# Bulk Modulus (GPa) = 39.82283 40.00577 39.91430
# Shear Modulus (GPa) = 19.87284 22.25462 21.06373
#
# Velocity S-wave (km/s) = 3.23552 3.42392 3.33105
# Velocity P-wave (km/s) = 5.91066 6.05848 5.98502
#
# Compressibility (1/GPa) = 0.02511123
#
# Stress axis : x y z
#
# Youngs Moduli (GPa) = 66.58981 46.78672 65.94912
#
# Poissons Ratio (x) = 0.26411 0.10805
# Poissons Ratio (y) = 0.37590 0.39160
# Poissons Ratio (z) = 0.10910 0.27782
#
# Static dielectric constant tensor:
#      x y z
#    x 3.195000 0.000000 0.000000 
#    y 0.000000 4.081380 0.000000 
#    z 0.000000 0.000000 3.556260 
# 
# 
# High freq. dielectric constant tensor:
#      x y z
#    x 1.710150 0.000000 0.000000 
#    y 0.000000 1.748710 0.000000 
#    z 0.000000 0.000000 1.740510 
# 
# From -- ./inp_files/16722.got.cif
#   From: 2010.03.12/outbox.cif.g09.slc.cpg/sg57_9_cif.got.tgz:16722.got - 2010.04.16 15:48:40.
