data_PCOD8230703
_publ_section_title
;
Structure prediction by ZEFSAII (Michael W. Deem and Ramdas Pophale) SiO2 
 PCOD8230703
Probable space group: P B C M
;
_chemical_formula_sum "Si O2"
_cell_formula_units_Z 64
_cell_length_a 18.392818
_cell_length_b 24.507488
_cell_length_c 9.150348
_cell_angle_alpha 90.000000
_cell_angle_beta 90.000000
_cell_angle_gamma 90.000000
_cell_volume 4124.627028
_symmetry_space_group_name_H-M "P B C M"
_symmetry_group_IT_number 57
_symmetry_cell_setting 'orthorhombic'
loop_
_space_group_symop_operation_xyz
x,y,z
-x,-y,1/2+z
x,1/2-y,-z
-x,1/2+y,1/2-z
-x,-y,-z
x,y,1/2-z
-x,1/2+y,z
x,1/2-y,1/2+z
loop_
_atom_site_type_symbol
_atom_site_label
_atom_site_fract_x
_atom_site_fract_y
_atom_site_fract_z
Si Si1 0.271588 0.015488 0.583507
Si Si2 0.108793 0.002051 0.580640
Si Si3 0.405348 0.046784 0.085327
Si Si4 0.216779 0.803340 0.579748
Si Si5 0.673230 0.106163 0.416717
Si Si6 0.539430 0.076637 0.585456
Si Si7 0.950828 0.305845 0.576742
Si Si8 0.018488 0.585697 0.579493
O O1 0.279876 0.035274 0.750000
O O2 0.188570 0.021608 0.529439
O O3 0.325377 0.052304 0.485957
O O4 0.293524 0.953148 0.566111
O O5 0.110311 0.983442 0.750000
O O6 0.056055 0.053005 0.555230
O O7 0.084540 0.949659 0.487015
O O8 0.400647 0.068679 0.250000
O O9 0.433166 0.985148 0.080244
O O10 0.462851 0.083678 0.997431
O O11 0.246127 0.750000 0.500000
O O12 0.225645 0.793521 0.750000
O O13 0.265327 0.853257 0.523478
O O14 0.133556 0.815315 0.539329
O O15 0.652601 0.118687 0.250000
O O16 0.600020 0.114322 0.509643
O O17 0.527978 0.096885 0.750000
O O18 0.978250 0.250000 0.500000
O O19 0.966199 0.302896 0.750000
O O20 0.992029 0.357236 0.505235
O O21 0.034285 0.596414 0.750000
#
# Coordination Sequence:
#
# PCOD8230703 Si02
#       8
#     8   8   8   8   8   8   8   8
#     4   9  16  27  42  58  79 109 142 173 207 248
#     4   9  18  31  45  62  87 119 150 180 217 261
#     4   9  16  25  37  55  79 104 131 165 200 234
#     4   9  18  30  43  59  80 107 138 173 212 250
#     4   9  16  26  40  57  78 106 138 170 205 243
#     4   9  16  25  37  54  76 104 135 163 194 232
#     4  10  19  32  48  65  86 113 146 183 223 263
#     4  10  19  30  45  65  88 115 148 183 219 261
#
# _framework density 15.516555
#
# number of rings (size 3 to 8) (size 9 to 14) (size 15 to 20)
#    0.000    2.750    0.000    2.250    0.000    7.000 
#    0.000    2.500    0.000    0.000    0.000    0.000 
#    0.000    1.000    0.000    7.250    0.000    3.875 
#
# Total GULP energy -793549.700484 kJ/mol
# GULP energy per Si atom -12399.214070 kJ/mol
# Density = 1.548124 g / cm^3
# Si number density = 15.516555 Si / 1000 Ang^3
#
#
#
# Elastic Constant Matrix: (Units=GPa)
#
#
# Indices 1 2 3 4 5 6 
#
# 1 90.2753 14.9883 43.2759 0.0000 0.0000 0.0000
# 2 14.9883 51.0821 31.4602 0.0000 0.0000 0.0000
# 3 43.2759 31.4602 90.3742 0.0000 0.0000 0.0000
# 4 0.0000 0.0000 0.0000 23.0311 0.0000 0.0000
# 5 0.0000 0.0000 0.0000 0.0000 25.8131 0.0000
# 6 0.0000 0.0000 0.0000 0.0000 0.0000 19.0087
#
#
#
# Elastic Compliance Matrix: (Units=1/GPa)
#
#
# Indices 1 2 3 4 5 6 
#
# 1 0.014378 0.000027 -0.006894 0.000000 0.000000 0.000000
# 2 0.000027 0.024919 -0.008688 0.000000 0.000000 0.000000
# 3 -0.006894 -0.008688 0.017391 0.000000 0.000000 0.000000
# 4 0.000000 0.000000 0.000000 0.043420 0.000000 0.000000
# 5 0.000000 0.000000 0.000000 0.000000 0.038740 0.000000
# 6 0.000000 0.000000 0.000000 0.000000 0.000000 0.052607
#
#
# Mechanical properties :
#
#
# Convention : Reuss Voigt Hill
#
# Bulk Modulus (GPa) = 39.09595 45.68673 42.39134
# Shear Modulus (GPa) = 21.63667 23.03773 22.33720
#
# Velocity S-wave (km/s) = 3.73825 3.85739 3.79829
# Velocity P-wave (km/s) = 6.62448 7.02474 6.82754
#
# Compressibility (1/GPa) = 0.02557809
#
# Stress axis : x y z
#
# Youngs Moduli (GPa) = 69.55243 40.13038 57.50204
#
# Poissons Ratio (x) = -0.00110 0.39644
# Poissons Ratio (y) = -0.00190 0.49955
# Poissons Ratio (z) = 0.47952 0.34864
#
# Static dielectric constant tensor:
#      x y z
#    x 3.042040 0.000000 0.000000 
#    y 0.000000 2.682850 0.000000 
#    z 0.000000 0.000000 3.093170 
# 
# 
# High freq. dielectric constant tensor:
#      x y z
#    x 1.588700 0.000000 0.000000 
#    y 0.000000 1.550210 0.000000 
#    z 0.000000 0.000000 1.605510 
# 
# From -- ./inp_files/7393.got.cif
#   From: 2010.03.12/outbox.cif.g09.slc.cpg/sg57_4_cif.got.tgz:7393.got - 2010.04.16 15:48:40.
