data_PCOD8230911
_publ_section_title
;
Structure prediction by ZEFSAII (Michael W. Deem and Ramdas Pophale) SiO2 
 PCOD8230911
Probable space group: P B C M
;
_chemical_formula_sum "Si O2"
_cell_formula_units_Z 64
_cell_length_a 30.046006
_cell_length_b 13.592285
_cell_length_c 8.974268
_cell_angle_alpha 90.000000
_cell_angle_beta 90.000000
_cell_angle_gamma 90.000000
_cell_volume 3665.036099
_symmetry_space_group_name_H-M "P B C M"
_symmetry_group_IT_number 57
_symmetry_cell_setting 'orthorhombic'
loop_
_space_group_symop_operation_xyz
x,y,z
-x,-y,1/2+z
x,1/2-y,-z
-x,1/2+y,1/2-z
-x,-y,-z
x,y,1/2-z
-x,1/2+y,z
x,1/2-y,1/2+z
loop_
_atom_site_type_symbol
_atom_site_label
_atom_site_fract_x
_atom_site_fract_y
_atom_site_fract_z
Si Si1 0.256653 0.648584 0.424175
Si Si2 0.814983 0.501494 0.916211
Si Si3 0.568966 0.477952 0.076660
Si Si4 0.892641 0.345624 0.583693
Si Si5 0.952653 0.009948 0.574748
Si Si6 0.518595 0.645692 0.923347
Si Si7 0.359425 0.851527 0.924842
Si Si8 0.123324 0.144756 0.424968
O O1 0.240964 0.750000 0.500000
O O2 0.247483 0.662238 0.250000
O O3 0.228698 0.553835 0.482796
O O4 0.307987 0.626866 0.459726
O O5 0.805303 0.542788 0.750000
O O6 0.852666 0.420468 0.908836
O O7 0.831366 0.591631 0.018698
O O8 0.578519 0.495338 0.250000
O O9 0.529825 0.400037 0.050213
O O10 0.556422 0.580781 0.001232
O O11 0.613290 0.440191 0.996719
O O12 0.874728 0.250000 0.500000
O O13 0.909450 0.320203 0.750000
O O14 0.933120 0.389047 0.488574
O O15 0.958522 0.019252 0.750000
O O16 0.920269 0.918970 0.532748
O O17 0.000000 0.000000 0.500000
O O18 0.529990 0.655176 0.750000
O O19 0.518954 0.750000 0.000000
O O20 0.369342 0.844247 0.750000
O O21 0.374763 0.750000 0.000000
O O22 0.117729 0.250000 0.500000
O O23 0.127908 0.159043 0.250000
#
# Coordination Sequence:
#
# PCOD8230911 Si02
#       8
#     8   8   8   8   8   8   8   8
#     4   9  18  31  49  75 105 136 166 200 244 294
#     4   9  18  33  52  74 101 130 161 199 241 286
#     4  10  20  33  50  72  99 132 169 208 251 299
#     4  10  19  31  49  72  98 128 159 193 235 281
#     4  10  21  36  52  72  99 129 163 200 239 286
#     4  10  20  33  50  72  98 129 167 210 254 300
#     4  10  19  31  48  72 103 136 169 204 246 296
#     4  10  21  36  55  77  99 128 165 205 248 291
#
# _framework density 17.462309999999999
#
# number of rings (size 3 to 8) (size 9 to 14) (size 15 to 20)
#    0.000    2.250    0.000    3.000    0.000    6.000 
#    0.000    1.250    0.000    0.750    0.000    3.500 
#    0.000    0.000    0.000    0.000    0.000    0.000 
#
# Total GULP energy -793651.891154 kJ/mol
# GULP energy per Si atom -12400.810799 kJ/mol
# Density = 1.742257 g / cm^3
# Si number density = 17.462310 Si / 1000 Ang^3
#
#
#
# Elastic Constant Matrix: (Units=GPa)
#
#
# Indices 1 2 3 4 5 6 
#
# 1 65.3428 24.9477 40.8560 0.0000 0.0000 0.0000
# 2 24.9477 92.9450 59.3827 0.0000 0.0000 0.0000
# 3 40.8560 59.3827 109.9079 0.0000 0.0000 0.0000
# 4 0.0000 0.0000 0.0000 35.9716 0.0000 0.0000
# 5 0.0000 0.0000 0.0000 0.0000 25.9198 0.0000
# 6 0.0000 0.0000 0.0000 0.0000 0.0000 20.4497
#
#
#
# Elastic Compliance Matrix: (Units=1/GPa)
#
#
# Indices 1 2 3 4 5 6 
#
# 1 0.019992 -0.000944 -0.006922 0.000000 0.000000 0.000000
# 2 -0.000944 0.016476 -0.008551 0.000000 0.000000 0.000000
# 3 -0.006922 -0.008551 0.016291 0.000000 0.000000 0.000000
# 4 0.000000 0.000000 0.000000 0.027800 0.000000 0.000000
# 5 0.000000 0.000000 0.000000 0.000000 0.038581 0.000000
# 6 0.000000 0.000000 0.000000 0.000000 0.000000 0.048900
#
#
# Mechanical properties :
#
#
# Convention : Reuss Voigt Hill
#
# Bulk Modulus (GPa) = 50.18465 57.61874 53.90169
# Shear Modulus (GPa) = 24.09469 26.00217 25.04843
#
# Velocity S-wave (km/s) = 3.71861 3.86300 3.79149
# Velocity P-wave (km/s) = 6.87304 7.27769 7.07825
#
# Compressibility (1/GPa) = 0.01992641
#
# Stress axis : x y z
#
# Youngs Moduli (GPa) = 50.01968 60.69616 61.38185
#
# Poissons Ratio (x) = 0.05729 0.42487
# Poissons Ratio (y) = 0.04721 0.52486
# Poissons Ratio (z) = 0.34622 0.51900
#
# Static dielectric constant tensor:
#      x y z
#    x 3.283140 0.000000 0.000000 
#    y 0.000000 3.284410 0.000000 
#    z 0.000000 0.000000 4.106040 
# 
# 
# High freq. dielectric constant tensor:
#      x y z
#    x 1.664840 0.000000 0.000000 
#    y 0.000000 1.665500 0.000000 
#    z 0.000000 0.000000 1.689130 
# 
# From -- ./inp_files/10272.got.cif
#   From: 2010.03.12/outbox.cif.g09.slc.cpg/sg57_6_cif.got.tgz:10272.got - 2010.04.16 15:48:40.
