data_PCOD8230195
_publ_section_title
;
Structure prediction by ZEFSAII (Michael W. Deem and Ramdas Pophale) SiO2 
 PCOD8230195
Probable space group: P B C M
;
_chemical_formula_sum "Si O2"
_cell_formula_units_Z 64
_cell_length_a 19.763026
_cell_length_b 19.723590
_cell_length_c 8.841654
_cell_angle_alpha 90.000000
_cell_angle_beta 90.000000
_cell_angle_gamma 90.000000
_cell_volume 3446.457472
_symmetry_space_group_name_H-M "P B C M"
_symmetry_group_IT_number 57
_symmetry_cell_setting 'orthorhombic'
loop_
_space_group_symop_operation_xyz
x,y,z
-x,-y,1/2+z
x,1/2-y,-z
-x,1/2+y,1/2-z
-x,-y,-z
x,y,1/2-z
-x,1/2+y,z
x,1/2-y,1/2+z
loop_
_atom_site_type_symbol
_atom_site_label
_atom_site_fract_x
_atom_site_fract_y
_atom_site_fract_z
Si Si1 0.855284 0.585480 0.423868
Si Si2 0.961725 0.820793 0.429258
Si Si3 0.618687 0.612778 0.926990
Si Si4 0.659744 0.027251 0.926467
Si Si5 0.190529 0.564019 0.573917
Si Si6 0.519544 0.431161 0.075667
Si Si7 0.894063 0.320478 0.929380
Si Si8 0.264593 0.316501 0.923973
O O1 0.876572 0.597556 0.250000
O O2 0.911412 0.618014 0.531793
O O3 0.848053 0.506254 0.460695
O O4 0.782915 0.619344 0.457241
O O5 0.935062 0.750000 0.500000
O O6 0.967680 0.812650 0.250000
O O7 0.034095 0.839921 0.498285
O O8 0.631295 0.620979 0.750000
O O9 0.538419 0.623493 0.972035
O O10 0.645459 0.539229 0.976632
O O11 0.660766 0.670589 0.010832
O O12 0.662214 0.005723 0.750000
O O13 0.730839 0.059918 0.973487
O O14 0.599386 0.083344 0.957563
O O15 0.182749 0.583244 0.750000
O O16 0.159075 0.621383 0.468886
O O17 0.508860 0.444768 0.250000
O O18 0.500000 0.500000 0.000000
O O19 0.901570 0.313073 0.750000
O O20 0.867741 0.250000 0.000000
O O21 0.271702 0.300600 0.750000
O O22 0.232198 0.250000 0.000000
#
# Coordination Sequence:
#
# PCOD8230195 Si02
#       8
#     8   8   8   8   8   8   8   8
#     4  10  21  37  56  81 112 145 183 225 271 323
#     4  11  22  38  60  83 110 146 185 227 270 320
#     4  10  18  29  47  74 106 139 179 228 269 318
#     4   9  16  31  52  76 107 143 177 218 271 321
#     4  10  20  36  58  84 114 146 179 224 275 325
#     4   8  15  26  45  72 101 134 174 216 263 313
#     4  11  23  41  63  85 109 140 178 222 271 331
#     4  11  22  36  52  74 105 149 191 230 276 328
#
# _framework density 18.569793000000001
#
# number of rings (size 3 to 8) (size 9 to 14) (size 15 to 20)
#    0.000    2.000    1.250    4.125    0.000    4.000 
#    0.000    0.000    0.000    0.750    0.000    0.000 
#    0.000    0.000    0.000    0.000    0.000    0.000 
#
# Total GULP energy -793238.842015 kJ/mol
# GULP energy per Si atom -12394.356906 kJ/mol
# Density = 1.852753 g / cm^3
# Si number density = 18.569793 Si / 1000 Ang^3
#
#
#
# Elastic Constant Matrix: (Units=GPa)
#
#
# Indices 1 2 3 4 5 6 
#
# 1 109.5860 47.3049 47.7462 0.0000 0.0000 0.0000
# 2 47.3049 80.0665 40.7078 0.0000 0.0000 0.0000
# 3 47.7462 40.7078 99.8149 0.0000 0.0000 0.0000
# 4 0.0000 0.0000 0.0000 28.7120 0.0000 0.0000
# 5 0.0000 0.0000 0.0000 0.0000 25.1071 0.0000
# 6 0.0000 0.0000 0.0000 0.0000 0.0000 20.4681
#
#
#
# Elastic Compliance Matrix: (Units=1/GPa)
#
#
# Indices 1 2 3 4 5 6 
#
# 1 0.013415 -0.005883 -0.004018 0.000000 0.000000 0.000000
# 2 -0.005883 0.018337 -0.004664 0.000000 0.000000 0.000000
# 3 -0.004018 -0.004664 0.013843 0.000000 0.000000 0.000000
# 4 0.000000 0.000000 0.000000 0.034829 0.000000 0.000000
# 5 0.000000 0.000000 0.000000 0.000000 0.039829 0.000000
# 6 0.000000 0.000000 0.000000 0.000000 0.000000 0.048856
#
#
# Mechanical properties :
#
#
# Convention : Reuss Voigt Hill
#
# Bulk Modulus (GPa) = 60.73691 62.33170 61.53430
# Shear Modulus (GPa) = 24.54249 25.10469 24.82359
#
# Velocity S-wave (km/s) = 3.63937 3.68082 3.66016
# Velocity P-wave (km/s) = 7.10200 7.19052 7.14640
#
# Compressibility (1/GPa) = 0.01646445
#
# Stress axis : x y z
#
# Youngs Moduli (GPa) = 74.54076 54.53461 72.24054
#
# Poissons Ratio (x) = 0.32085 0.29025
# Poissons Ratio (y) = 0.43855 0.33694
# Poissons Ratio (z) = 0.29949 0.25436
#
# Static dielectric constant tensor:
#      x y z
#    x 3.855580 0.000000 0.000000 
#    y 0.000000 3.183530 0.000000 
#    z 0.000000 0.000000 3.400770 
# 
# 
# High freq. dielectric constant tensor:
#      x y z
#    x 1.733020 0.000000 0.000000 
#    y 0.000000 1.688670 0.000000 
#    z 0.000000 0.000000 1.725540 
# 
# From -- ./inp_files/8443.got.cif
#   From: 2010.03.12/outbox.cif.g09.slc.cpg/sg57_5_cif.got.tgz:8443.got - 2010.04.16 15:48:40.
