data_PCOD8230030
_publ_section_title
;
Structure prediction by ZEFSAII (Michael W. Deem and Ramdas Pophale) SiO2 
 PCOD8230030
Probable space group: P B C M
;
_chemical_formula_sum "Si O2"
_cell_formula_units_Z 56
_cell_length_a 13.803306
_cell_length_b 14.356140
_cell_length_c 14.602473
_cell_angle_alpha 90.000000
_cell_angle_beta 90.000000
_cell_angle_gamma 90.000000
_cell_volume 2893.658079
_symmetry_space_group_name_H-M "P B C M"
_symmetry_group_IT_number 57
_symmetry_cell_setting 'orthorhombic'
loop_
_space_group_symop_operation_xyz
x,y,z
-x,-y,1/2+z
x,1/2-y,-z
-x,1/2+y,1/2-z
-x,-y,-z
x,y,1/2-z
-x,1/2+y,z
x,1/2-y,1/2+z
loop_
_atom_site_type_symbol
_atom_site_label
_atom_site_fract_x
_atom_site_fract_y
_atom_site_fract_z
Si Si1 0.712502 0.997638 0.906625
Si Si2 0.585443 0.357143 0.484624
Si Si3 0.073978 0.496479 0.856506
Si Si4 0.974402 0.644527 0.982887
Si Si5 0.577835 0.681717 0.648728
Si Si6 0.240881 0.344872 0.050172
Si Si7 0.530062 0.892079 0.650048
O O1 0.620789 0.961550 0.849748
O O2 0.683621 0.099726 0.943720
O O3 0.809722 0.000488 0.846372
O O4 0.731926 0.934061 0.992775
O O5 0.610569 0.250000 0.500000
O O6 0.493554 0.373466 0.418260
O O7 0.555068 0.412328 0.577257
O O8 0.034572 0.491469 0.750000
O O9 0.042947 0.589373 0.912144
O O10 0.037755 0.407903 0.918032
O O11 0.872933 0.652514 0.927933
O O12 0.014137 0.750000 0.000000
O O13 0.542906 0.656956 0.750000
O O14 0.690305 0.651038 0.639112
O O15 0.571845 0.790703 0.626987
O O16 0.268847 0.250000 0.000000
O O17 0.481331 0.896384 0.750000
#
# Coordination Sequence:
#
# PCOD8230030 Si02
#       7
#     8   8   8   8   8   8   8
#     4  11  20  34  56  77 107 148 184 226 276 324
#     4  10  21  37  51  74 112 151 185 230 270 322
#     4  10  22  39  59  89 119 145 191 244 282 343
#     4   9  21  39  62  85 115 152 188 232 295 349
#     4  10  19  31  50  78 112 143 181 226 272 325
#     4  10  17  34  55  79 109 140 180 227 280 332
#     4  10  19  32  52  77 106 142 182 228 272 320
#
# _framework density 19.352665999999999
#
# number of rings (size 3 to 8) (size 9 to 14) (size 15 to 20)
#    0.000    2.000    2.857    1.286    0.000    2.857 
#    0.000    0.000    0.000    3.429    0.000    0.000 
#    0.000    0.000    0.000    0.000    0.000    0.000 
#
# Total GULP energy -693949.908404 kJ/mol
# GULP energy per Si atom -12391.962650 kJ/mol
# Density = 1.930862 g / cm^3
# Si number density = 19.352666 Si / 1000 Ang^3
#
#
#
# Elastic Constant Matrix: (Units=GPa)
#
#
# Indices 1 2 3 4 5 6 
#
# 1 45.1422 29.4156 26.0516 0.0000 0.0000 0.0000
# 2 29.4156 96.7401 36.5176 0.0000 0.0000 0.0000
# 3 26.0516 36.5176 103.7021 0.0000 0.0000 0.0000
# 4 0.0000 0.0000 0.0000 16.8165 0.0000 0.0000
# 5 0.0000 0.0000 0.0000 0.0000 19.0208 0.0000
# 6 0.0000 0.0000 0.0000 0.0000 0.0000 30.0144
#
#
#
# Elastic Compliance Matrix: (Units=1/GPa)
#
#
# Indices 1 2 3 4 5 6 
#
# 1 0.029662 -0.007158 -0.004931 0.000000 0.000000 0.000000
# 2 -0.007158 0.013649 -0.003008 0.000000 0.000000 0.000000
# 3 -0.004931 -0.003008 0.011941 0.000000 0.000000 0.000000
# 4 0.000000 0.000000 0.000000 0.059466 0.000000 0.000000
# 5 0.000000 0.000000 0.000000 0.000000 0.052574 0.000000
# 6 0.000000 0.000000 0.000000 0.000000 0.000000 0.033317
#
#
# Mechanical properties :
#
#
# Convention : Reuss Voigt Hill
#
# Bulk Modulus (GPa) = 39.90744 47.72822 43.81783
# Shear Modulus (GPa) = 20.90683 23.41029 22.15856
#
# Velocity S-wave (km/s) = 3.29037 3.48180 3.38744
# Velocity P-wave (km/s) = 5.92463 6.39373 6.16365
#
# Compressibility (1/GPa) = 0.02505798
#
# Stress axis : x y z
#
# Youngs Moduli (GPa) = 33.71290 73.26526 83.74474
#
# Poissons Ratio (x) = 0.52443 0.41295
# Poissons Ratio (y) = 0.24132 0.25192
# Poissons Ratio (z) = 0.16624 0.22039
#
# Static dielectric constant tensor:
#      x y z
#    x 3.536010 0.000000 0.000000 
#    y 0.000000 3.555820 0.000000 
#    z 0.000000 0.000000 3.450180 
# 
# 
# High freq. dielectric constant tensor:
#      x y z
#    x 1.733050 0.000000 0.000000 
#    y 0.000000 1.756620 0.000000 
#    z 0.000000 0.000000 1.745170 
# 
# From -- ./inp_files/18614.got.cif
#   From: 2010.03.12/outbox.cif.g09.slc.cpg/sg57_10_cif.got.tgz:18614.got - 2010.04.16 15:48:40.
