data_PCOD8230129
_publ_section_title
;
Structure prediction by ZEFSAII (Michael W. Deem and Ramdas Pophale) SiO2 
 PCOD8230129
Probable space group: P B C M
;
_chemical_formula_sum "Si O2"
_cell_formula_units_Z 56
_cell_length_a 11.157688
_cell_length_b 29.352107
_cell_length_c 10.413054
_cell_angle_alpha 90.000000
_cell_angle_beta 90.000000
_cell_angle_gamma 90.000000
_cell_volume 3410.292388
_symmetry_space_group_name_H-M "P B C M"
_symmetry_group_IT_number 57
_symmetry_cell_setting 'orthorhombic'
loop_
_space_group_symop_operation_xyz
x,y,z
-x,-y,1/2+z
x,1/2-y,-z
-x,1/2+y,1/2-z
-x,-y,-z
x,y,1/2-z
-x,1/2+y,z
x,1/2-y,1/2+z
loop_
_atom_site_type_symbol
_atom_site_label
_atom_site_fract_x
_atom_site_fract_y
_atom_site_fract_z
Si Si1 0.846237 0.470054 0.395791
Si Si2 0.230170 0.123903 0.105533
Si Si3 0.802000 0.728704 0.114811
Si Si4 0.450269 0.279165 0.389356
Si Si5 0.567544 0.030629 0.603629
Si Si6 0.414203 0.116956 0.895118
Si Si7 0.985331 0.937213 0.894297
O O1 0.868905 0.452388 0.250000
O O2 0.707067 0.470722 0.429463
O O3 0.895303 0.520788 0.413475
O O4 0.910904 0.437075 0.498629
O O5 0.272987 0.110073 0.250000
O O6 0.238481 0.177755 0.086224
O O7 0.093400 0.108128 0.085010
O O8 0.314357 0.101025 0.998149
O O9 0.872320 0.731267 0.250000
O O10 0.686453 0.761753 0.119392
O O11 0.883802 0.750000 0.000000
O O12 0.518567 0.250000 0.500000
O O13 0.511816 0.271309 0.250000
O O14 0.458672 0.332215 0.426436
O O15 0.544040 0.012987 0.750000
O O16 0.525499 0.082860 0.590903
O O17 0.500000 0.000000 0.500000
O O18 0.360440 0.114864 0.750000
O O19 0.041174 0.938149 0.750000
#
# Coordination Sequence:
#
# PCOD8230129 Si02
#       7
#     8   8   8   8   8   8   8
#     4   9  18  34  50  65  90 121 156 194 234 276
#     4  10  18  28  44  69  98 125 155 190 233 282
#     4   9  15  24  39  60  92 125 148 181 229 277
#     4   9  15  25  40  61  91 123 152 185 226 276
#     4  10  21  35  50  70  97 129 160 196 239 286
#     4  10  19  29  44  68  98 128 157 190 232 282
#     4   9  18  31  49  69  88 117 155 196 235 274
#
# _framework density 16.42088
#
# number of rings (size 3 to 8) (size 9 to 14) (size 15 to 20)
#    0.000    2.571    2.857    0.857    0.000    2.857 
#    0.000    2.857    0.000    0.000    0.000    1.000 
#    0.000    6.857    0.000    0.000    0.000    0.000 
#
# Total GULP energy -693813.026137 kJ/mol
# GULP energy per Si atom -12389.518324 kJ/mol
# Density = 1.638351 g / cm^3
# Si number density = 16.420880 Si / 1000 Ang^3
#
#
#
# Elastic Constant Matrix: (Units=GPa)
#
#
# Indices 1 2 3 4 5 6 
#
# 1 73.7759 30.1015 60.0605 0.0000 0.0000 0.0000
# 2 30.1015 71.4889 39.2967 0.0000 0.0000 0.0000
# 3 60.0605 39.2967 146.7420 0.0000 0.0000 0.0000
# 4 0.0000 0.0000 0.0000 24.1072 0.0000 0.0000
# 5 0.0000 0.0000 0.0000 0.0000 23.2030 0.0000
# 6 0.0000 0.0000 0.0000 0.0000 0.0000 12.0061
#
#
#
# Elastic Compliance Matrix: (Units=1/GPa)
#
#
# Indices 1 2 3 4 5 6 
#
# 1 0.021753 -0.005002 -0.007564 0.000000 0.000000 0.000000
# 2 -0.005002 0.017553 -0.002653 0.000000 0.000000 0.000000
# 3 -0.007564 -0.002653 0.010621 0.000000 0.000000 0.000000
# 4 0.000000 0.000000 0.000000 0.041481 0.000000 0.000000
# 5 0.000000 0.000000 0.000000 0.000000 0.043098 0.000000
# 6 0.000000 0.000000 0.000000 0.000000 0.000000 0.083291
#
#
# Mechanical properties :
#
#
# Convention : Reuss Voigt Hill
#
# Bulk Modulus (GPa) = 51.31113 61.21379 56.26246
# Shear Modulus (GPa) = 19.62849 22.69979 21.16414
#
# Velocity S-wave (km/s) = 3.46112 3.72206 3.59396
# Velocity P-wave (km/s) = 6.87661 7.47199 7.18047
#
# Compressibility (1/GPa) = 0.01948895
#
# Stress axis : x y z
#
# Youngs Moduli (GPa) = 45.97045 56.97113 94.15197
#
# Poissons Ratio (x) = 0.28495 0.71216
# Poissons Ratio (y) = 0.22993 0.24982
# Poissons Ratio (z) = 0.34772 0.15117
#
# Static dielectric constant tensor:
#      x y z
#    x 2.665200 0.000000 0.000000 
#    y 0.000000 3.102020 0.000000 
#    z 0.000000 0.000000 4.258370 
# 
# 
# High freq. dielectric constant tensor:
#      x y z
#    x 1.567940 0.000000 0.000000 
#    y 0.000000 1.631140 0.000000 
#    z 0.000000 0.000000 1.662950 
# 
# From -- ./inp_files/13297.got.cif
#   From: 2010.03.12/outbox.cif.g09.slc.cpg/sg57_7_cif.got.tgz:13297.got - 2010.04.16 15:48:40.
