data_PCOD8230404
_publ_section_title
;
Structure prediction by ZEFSAII (Michael W. Deem and Ramdas Pophale) SiO2 
 PCOD8230404
Probable space group: P B C M
;
_chemical_formula_sum "Si O2"
_cell_formula_units_Z 64
_cell_length_a 15.864928
_cell_length_b 28.684507
_cell_length_c 8.733298
_cell_angle_alpha 90.000000
_cell_angle_beta 90.000000
_cell_angle_gamma 90.000000
_cell_volume 3974.328628
_symmetry_space_group_name_H-M "P B C M"
_symmetry_group_IT_number 57
_symmetry_cell_setting 'orthorhombic'
loop_
_space_group_symop_operation_xyz
x,y,z
-x,-y,1/2+z
x,1/2-y,-z
-x,1/2+y,1/2-z
-x,-y,-z
x,y,1/2-z
-x,1/2+y,z
x,1/2-y,1/2+z
loop_
_atom_site_type_symbol
_atom_site_label
_atom_site_fract_x
_atom_site_fract_y
_atom_site_fract_z
Si Si1 0.660179 0.106462 0.568827
Si Si2 0.588523 0.202310 0.931268
Si Si3 0.660716 0.889063 0.068831
Si Si4 0.182052 0.050805 0.930375
Si Si5 0.999824 0.050034 0.571054
Si Si6 0.499350 0.050853 0.568817
Si Si7 0.818423 0.051278 0.931534
Si Si8 0.405550 0.298485 0.931634
O O1 0.659830 0.101839 0.750000
O O2 0.652121 0.160771 0.522681
O O3 0.580489 0.078097 0.503210
O O4 0.746577 0.085307 0.499716
O O5 0.577311 0.206895 0.750000
O O6 0.626308 0.250000 0.000000
O O7 0.497823 0.190997 0.001887
O O8 0.658759 0.880304 0.250000
O O9 0.746996 0.913405 0.013214
O O10 0.583923 0.921810 0.015507
O O11 0.656584 0.839706 0.983001
O O12 0.190121 0.042726 0.750000
O O13 0.089727 0.073610 0.974257
O O14 0.195328 0.000754 0.007308
O O15 0.996965 0.043288 0.750000
O O16 0.910477 0.073343 0.519680
O O17 0.000000 0.000000 0.500000
O O18 0.501996 0.046947 0.750000
O O19 0.500000 0.000000 0.500000
O O20 0.809950 0.048758 0.750000
O O21 0.409918 0.294848 0.750000
O O22 0.370500 0.250000 0.000000
#
# Coordination Sequence:
#
# PCOD8230404 Si02
#       8
#     8   8   8   8   8   8   8   8
#     4   9  17  29  44  61  86 117 146 178 218 257
#     4  10  18  32  49  65  87 113 145 183 224 263
#     4  10  19  32  46  62  89 122 151 183 222 261
#     4   9  17  28  43  64  91 120 148 184 224 258
#     4   8  14  25  41  62  86 113 148 184 220 258
#     4  10  19  30  41  57  85 119 150 179 211 251
#     4   9  16  27  44  64  88 119 152 184 216 260
#     4  11  21  33  50  69  88 112 146 186 226 267
#
# _framework density 16.103349000000001
#
# number of rings (size 3 to 8) (size 9 to 14) (size 15 to 20)
#    0.000    2.500    1.250    3.000    0.000    1.000 
#    0.000    1.250    0.000    0.000    0.000    0.875 
#    0.000    2.000    0.000    0.000    0.000    0.500 
#
# Total GULP energy -793008.218689 kJ/mol
# GULP energy per Si atom -12390.753417 kJ/mol
# Density = 1.606670 g / cm^3
# Si number density = 16.103349 Si / 1000 Ang^3
#
#
#
# Elastic Constant Matrix: (Units=GPa)
#
#
# Indices 1 2 3 4 5 6 
#
# 1 157.5114 77.7152 27.6550 0.0000 0.0000 0.0000
# 2 77.7152 121.9317 30.3151 0.0000 0.0000 0.0000
# 3 27.6550 30.3151 40.5641 0.0000 0.0000 0.0000
# 4 0.0000 0.0000 0.0000 24.6817 0.0000 0.0000
# 5 0.0000 0.0000 0.0000 0.0000 11.4854 0.0000
# 6 0.0000 0.0000 0.0000 0.0000 0.0000 14.7975
#
#
#
# Elastic Compliance Matrix: (Units=1/GPa)
#
#
# Indices 1 2 3 4 5 6 
#
# 1 0.009445 -0.005427 -0.002383 0.000000 0.000000 0.000000
# 2 -0.005427 0.013192 -0.006158 0.000000 0.000000 0.000000
# 3 -0.002383 -0.006158 0.030880 0.000000 0.000000 0.000000
# 4 0.000000 0.000000 0.000000 0.040516 0.000000 0.000000
# 5 0.000000 0.000000 0.000000 0.000000 0.087067 0.000000
# 6 0.000000 0.000000 0.000000 0.000000 0.000000 0.067579
#
#
# Mechanical properties :
#
#
# Convention : Reuss Voigt Hill
#
# Bulk Modulus (GPa) = 39.09572 65.70863 52.40217
# Shear Modulus (GPa) = 17.53510 22.48105 20.00808
#
# Velocity S-wave (km/s) = 3.30344 3.74043 3.52871
# Velocity P-wave (km/s) = 6.23547 7.71669 7.01528
#
# Compressibility (1/GPa) = 0.02557825
#
# Stress axis : x y z
#
# Youngs Moduli (GPa) = 105.87585 75.80513 32.38391
#
# Poissons Ratio (x) = 0.41143 0.07717
# Poissons Ratio (y) = 0.57464 0.19944
# Poissons Ratio (z) = 0.25231 0.46684
#
# Static dielectric constant tensor:
#      x y z
#    x 3.657370 0.000000 0.000000 
#    y 0.000000 3.038260 0.000000 
#    z 0.000000 0.000000 2.889880 
# 
# 
# High freq. dielectric constant tensor:
#      x y z
#    x 1.617670 0.000000 0.000000 
#    y 0.000000 1.598670 0.000000 
#    z 0.000000 0.000000 1.610410 
# 
# From -- ./inp_files/6077.got.cif
#   From: 2010.03.12/outbox.cif.g09.slc.cpg/sg57_4_cif.got.tgz:6077.got - 2010.04.16 15:48:40.
