data_PCOD8230957
_publ_section_title
;
Structure prediction by ZEFSAII (Michael W. Deem and Ramdas Pophale) SiO2 
 PCOD8230957
Probable space group: P B C M
;
_chemical_formula_sum "Si O2"
_cell_formula_units_Z 64
_cell_length_a 25.341853
_cell_length_b 14.206520
_cell_length_c 9.272457
_cell_angle_alpha 90.000000
_cell_angle_beta 90.000000
_cell_angle_gamma 90.000000
_cell_volume 3338.265718
_symmetry_space_group_name_H-M "P B C M"
_symmetry_group_IT_number 57
_symmetry_cell_setting 'orthorhombic'
loop_
_space_group_symop_operation_xyz
x,y,z
-x,-y,1/2+z
x,1/2-y,-z
-x,1/2+y,1/2-z
-x,-y,-z
x,y,1/2-z
-x,1/2+y,z
x,1/2-y,1/2+z
loop_
_atom_site_type_symbol
_atom_site_label
_atom_site_fract_x
_atom_site_fract_y
_atom_site_fract_z
Si Si1 0.360219 0.654985 0.415776
Si Si2 0.524449 0.344018 0.914948
Si Si3 0.120144 0.476054 0.418298
Si Si4 0.217652 0.152267 0.918084
Si Si5 0.677704 0.541252 0.582486
Si Si6 0.972267 0.840680 0.415902
Si Si7 0.906426 0.344515 0.420180
Si Si8 0.589209 0.650723 0.419453
O O1 0.345629 0.750000 0.500000
O O2 0.358119 0.684699 0.250000
O O3 0.418677 0.611264 0.456460
O O4 0.318900 0.571237 0.448434
O O5 0.525931 0.314709 0.750000
O O6 0.469031 0.399042 0.945195
O O7 0.518122 0.250000 0.000000
O O8 0.124883 0.503147 0.250000
O O9 0.165184 0.402853 0.464594
O O10 0.063606 0.430006 0.454727
O O11 0.126808 0.569377 0.514145
O O12 0.216974 0.175800 0.750000
O O13 0.266854 0.086811 0.960190
O O14 0.221673 0.250000 0.000000
O O15 0.663471 0.559430 0.750000
O O16 0.632594 0.581870 0.481818
O O17 0.951123 0.750000 0.500000
O O18 0.966720 0.813759 0.250000
O O19 0.032351 0.864086 0.457041
O O20 0.887412 0.250000 0.500000
O O21 0.895968 0.335498 0.250000
O O22 0.594071 0.750000 0.500000
O O23 0.599834 0.666945 0.250000
#
# Coordination Sequence:
#
# PCOD8230957 Si02
#       8
#     8   8   8   8   8   8   8   8
#     4   9  18  34  54  74 100 132 167 209 256 305
#     4   8  15  28  46  70  99 130 163 202 250 303
#     4  10  20  35  54  77 106 140 178 220 264 308
#     4  10  22  39  58  79 105 136 171 213 258 303
#     4  10  21  36  53  75 103 136 172 212 259 305
#     4   9  18  31  50  78 110 142 176 216 262 311
#     4  10  20  34  53  79 110 143 177 214 258 309
#     4  10  19  31  49  74 103 134 169 208 253 308
#
# _framework density 19.171633
#
# number of rings (size 3 to 8) (size 9 to 14) (size 15 to 20)
#    0.000    2.500    0.000    1.875    0.000    4.500 
#    0.000    0.625    0.000    1.500    0.000    0.000 
#    0.000    0.000    0.000    0.000    0.000    0.000 
#
# Total GULP energy -793149.750120 kJ/mol
# GULP energy per Si atom -12392.964846 kJ/mol
# Density = 1.912800 g / cm^3
# Si number density = 19.171633 Si / 1000 Ang^3
#
#
#
# Elastic Constant Matrix: (Units=GPa)
#
#
# Indices 1 2 3 4 5 6 
#
# 1 75.9917 53.7635 34.5662 0.0000 0.0000 0.0000
# 2 53.7635 124.4336 57.1221 0.0000 0.0000 0.0000
# 3 34.5662 57.1221 66.4583 0.0000 0.0000 0.0000
# 4 0.0000 0.0000 0.0000 35.5844 0.0000 0.0000
# 5 0.0000 0.0000 0.0000 0.0000 20.3413 0.0000
# 6 0.0000 0.0000 0.0000 0.0000 0.0000 28.7300
#
#
#
# Elastic Compliance Matrix: (Units=1/GPa)
#
#
# Indices 1 2 3 4 5 6 
#
# 1 0.019867 -0.006343 -0.004881 0.000000 0.000000 0.000000
# 2 -0.006343 0.015299 -0.009851 0.000000 0.000000 0.000000
# 3 -0.004881 -0.009851 0.026053 0.000000 0.000000 0.000000
# 4 0.000000 0.000000 0.000000 0.028102 0.000000 0.000000
# 5 0.000000 0.000000 0.000000 0.000000 0.049161 0.000000
# 6 0.000000 0.000000 0.000000 0.000000 0.000000 0.034807
#
#
# Mechanical properties :
#
#
# Convention : Reuss Voigt Hill
#
# Bulk Modulus (GPa) = 52.44143 61.97636 57.20890
# Shear Modulus (GPa) = 22.54324 25.02658 23.78491
#
# Velocity S-wave (km/s) = 3.43281 3.61695 3.52608
# Velocity P-wave (km/s) = 6.56698 7.05977 6.81783
#
# Compressibility (1/GPa) = 0.01906889
#
# Stress axis : x y z
#
# Youngs Moduli (GPa) = 50.33351 65.36331 38.38384
#
# Poissons Ratio (x) = 0.41462 0.18736
# Poissons Ratio (y) = 0.31928 0.37810
# Poissons Ratio (z) = 0.24569 0.64387
#
# Static dielectric constant tensor:
#      x y z
#    x 3.731760 0.000000 0.000000 
#    y 0.000000 3.301910 0.000000 
#    z 0.000000 0.000000 3.467680 
# 
# 
# High freq. dielectric constant tensor:
#      x y z
#    x 1.738690 0.000000 0.000000 
#    y 0.000000 1.736520 0.000000 
#    z 0.000000 0.000000 1.744860 
# 
# From -- ./inp_files/9428.got.cif
#   From: 2010.03.12/outbox.cif.g09.slc.cpg/sg57_5_cif.got.tgz:9428.got - 2010.04.16 15:48:40.
