data_PCOD8230528
_publ_section_title
;
Structure prediction by ZEFSAII (Michael W. Deem and Ramdas Pophale) SiO2 
 PCOD8230528
Probable space group: P B C M
;
_chemical_formula_sum "Si O2"
_cell_formula_units_Z 64
_cell_length_a 13.006932
_cell_length_b 11.377306
_cell_length_c 23.869420
_cell_angle_alpha 90.000000
_cell_angle_beta 90.000000
_cell_angle_gamma 90.000000
_cell_volume 3532.288561
_symmetry_space_group_name_H-M "P B C M"
_symmetry_group_IT_number 57
_symmetry_cell_setting 'orthorhombic'
loop_
_space_group_symop_operation_xyz
x,y,z
-x,-y,1/2+z
x,1/2-y,-z
-x,1/2+y,1/2-z
-x,-y,-z
x,y,1/2-z
-x,1/2+y,z
x,1/2-y,1/2+z
loop_
_atom_site_type_symbol
_atom_site_label
_atom_site_fract_x
_atom_site_fract_y
_atom_site_fract_z
Si Si1 0.808533 0.316907 0.442231
Si Si2 0.419320 0.181812 0.056387
Si Si3 0.730815 0.007645 0.313978
Si Si4 0.235408 0.174735 0.906197
Si Si5 0.304407 0.999592 0.500875
Si Si6 0.036981 0.946746 0.686927
Si Si7 0.366831 0.666107 0.401218
Si Si8 0.988166 0.798779 0.371492
O O1 0.816728 0.250000 0.500000
O O2 0.782238 0.450621 0.458430
O O3 0.715059 0.271920 0.402497
O O4 0.916439 0.302364 0.412668
O O5 0.314246 0.218696 0.087451
O O6 0.513428 0.202777 0.099364
O O7 0.444966 0.250000 0.000000
O O8 0.397948 0.048291 0.037130
O O9 0.695619 0.984856 0.250000
O O10 0.840899 0.070789 0.316483
O O11 0.649376 0.090966 0.345052
O O12 0.736783 0.885485 0.347075
O O13 0.247547 0.093990 0.960625
O O14 0.117180 0.214106 0.906060
O O15 0.353837 0.902544 0.540612
O O16 0.996593 0.955471 0.750000
O O17 0.990824 0.824387 0.662997
O O18 0.007359 0.074388 0.660348
#
# Coordination Sequence:
#
# PCOD8230528 Si02
#       8
#     8   8   8   8   8   8   8   8
#     4  10  21  33  52  81 117 150 181 230 288 341
#     4  10  19  33  54  80 110 148 185 230 276 336
#     4   9  18  36  58  76 103 143 188 235 284 339
#     4   9  21  35  52  80 111 146 191 223 281 346
#     4   9  19  33  52  79 112 148 186 225 281 339
#     4  10  21  39  62  85 110 149 195 243 287 335
#     4  10  18  34  54  82 105 141 193 233 278 340
#     4  11  22  37  59  87 119 149 193 234 289 348
#
# _framework density 18.118565
#
# number of rings (size 3 to 8) (size 9 to 14) (size 15 to 20)
#    0.000    2.250    1.250    1.875    3.500    4.500 
#    0.000    0.625    0.000    0.000    0.000    0.000 
#    0.000    0.000    0.000    0.000    0.000    0.000 
#
# Total GULP energy -792867.563240 kJ/mol
# GULP energy per Si atom -12388.555676 kJ/mol
# Density = 1.807733 g / cm^3
# Si number density = 18.118565 Si / 1000 Ang^3
#
#
#
# Elastic Constant Matrix: (Units=GPa)
#
#
# Indices 1 2 3 4 5 6 
#
# 1 124.6869 31.6839 39.8102 0.0000 0.0000 0.0000
# 2 31.6839 86.4379 24.2113 0.0000 0.0000 0.0000
# 3 39.8102 24.2113 76.1492 0.0000 0.0000 0.0000
# 4 0.0000 0.0000 0.0000 13.7904 0.0000 0.0000
# 5 0.0000 0.0000 0.0000 0.0000 17.9071 0.0000
# 6 0.0000 0.0000 0.0000 0.0000 0.0000 19.0649
#
#
#
# Elastic Compliance Matrix: (Units=1/GPa)
#
#
# Indices 1 2 3 4 5 6 
#
# 1 0.010073 -0.002434 -0.004492 0.000000 0.000000 0.000000
# 2 -0.002434 0.013288 -0.002952 0.000000 0.000000 0.000000
# 3 -0.004492 -0.002952 0.016419 0.000000 0.000000 0.000000
# 4 0.000000 0.000000 0.000000 0.072514 0.000000 0.000000
# 5 0.000000 0.000000 0.000000 0.000000 0.055844 0.000000
# 6 0.000000 0.000000 0.000000 0.000000 0.000000 0.052452
#
#
# Mechanical properties :
#
#
# Convention : Reuss Voigt Hill
#
# Bulk Modulus (GPa) = 49.94209 53.18717 51.56463
# Shear Modulus (GPa) = 20.24108 22.92371 21.58240
#
# Velocity S-wave (km/s) = 3.34600 3.56083 3.45509
# Velocity P-wave (km/s) = 6.52315 6.80623 6.66620
#
# Compressibility (1/GPa) = 0.02002319
#
# Stress axis : x y z
#
# Youngs Moduli (GPa) = 99.27699 75.25500 60.90406
#
# Poissons Ratio (x) = 0.18317 0.27359
# Poissons Ratio (y) = 0.24164 0.17982
# Poissons Ratio (z) = 0.44596 0.22219
#
# Static dielectric constant tensor:
#      x y z
#    x 3.360560 0.000000 0.000000 
#    y 0.000000 3.701870 0.000000 
#    z 0.000000 0.000000 3.367560 
# 
# 
# High freq. dielectric constant tensor:
#      x y z
#    x 1.701290 0.000000 0.000000 
#    y 0.000000 1.703320 0.000000 
#    z 0.000000 0.000000 1.684800 
# 
# From -- ./inp_files/27306.got.cif
#   From: 2010.03.12/outbox.cif.g09.slc.cpg/sg57_14_cif.got.tgz:27306.got - 2010.04.16 15:48:40.
