data_PCOD8230808
_publ_section_title
;
Structure prediction by ZEFSAII (Michael W. Deem and Ramdas Pophale) SiO2 
 PCOD8230808
Probable space group: P B C M
;
_chemical_formula_sum "Si O2"
_cell_formula_units_Z 48
_cell_length_a 27.581568
_cell_length_b 5.076301
_cell_length_c 18.168846
_cell_angle_alpha 90.000000
_cell_angle_beta 90.000000
_cell_angle_gamma 90.000000
_cell_volume 2543.862666
_symmetry_space_group_name_H-M "P B C M"
_symmetry_group_IT_number 57
_symmetry_cell_setting 'orthorhombic'
loop_
_space_group_symop_operation_xyz
x,y,z
-x,-y,1/2+z
x,1/2-y,-z
-x,1/2+y,1/2-z
-x,-y,-z
x,y,1/2-z
-x,1/2+y,z
x,1/2-y,1/2+z
loop_
_atom_site_type_symbol
_atom_site_label
_atom_site_fract_x
_atom_site_fract_y
_atom_site_fract_z
Si Si1 0.369415 0.721976 0.587466
Si Si2 0.315325 0.217098 0.587437
Si Si3 0.031099 0.520796 0.164898
Si Si4 0.468875 0.694366 0.664991
Si Si5 0.886198 0.007142 0.450300
Si Si6 0.220611 0.999434 0.951605
O O1 0.370299 0.750000 0.500000
O O2 0.330634 0.503596 0.617924
O O3 0.422176 0.643325 0.615361
O O4 0.353730 0.005735 0.619124
O O5 0.317006 0.250000 0.500000
O O6 0.261711 0.098197 0.607046
O O7 0.045932 0.500415 0.250000
O O8 0.079691 0.473097 0.119584
O O9 0.991236 0.302467 0.144644
O O10 0.453278 0.675319 0.750000
O O11 0.508818 0.476501 0.645392
O O12 0.889032 0.750000 0.500000
O O13 0.831954 0.070644 0.417423
O O14 0.903729 0.250000 0.500000
O O15 0.208559 0.250000 0.000000
O O16 0.240539 0.750000 0.000000
#
# Coordination Sequence:
#
# PCOD8230808 Si02
#       6
#     8   8   8   8   8   8
#     4  10  19  30  49  74  95 119 155 195 232 270
#     4   9  16  28  46  71  99 124 151 188 234 283
#     4  10  21  36  52  71 100 138 172 205 255 311
#     4  10  21  36  51  67  92 127 159 189 234 287
#     4  10  20  32  51  78 102 129 169 214 252 289
#     4   9  16  28  46  71 101 128 156 193 239 289
#
# _framework density 18.868943000000002
#
# number of rings (size 3 to 8) (size 9 to 14) (size 15 to 20)
#    0.000    2.333    0.000    4.500    0.000    2.667 
#    0.000    0.000    0.000    2.000    0.000    0.000 
#    0.000    5.333    0.000    0.000    0.000    0.000 
#
# Total GULP energy -594765.717257 kJ/mol
# GULP energy per Si atom -12390.952443 kJ/mol
# Density = 1.882600 g / cm^3
# Si number density = 18.868943 Si / 1000 Ang^3
#
#
#
# Elastic Constant Matrix: (Units=GPa)
#
#
# Indices 1 2 3 4 5 6 
#
# 1 123.1866 27.5930 45.0225 0.0000 0.0000 0.0000
# 2 27.5930 112.9113 27.6144 0.0000 0.0000 0.0000
# 3 45.0225 27.6144 34.8052 0.0000 0.0000 0.0000
# 4 0.0000 0.0000 0.0000 14.6961 0.0000 0.0000
# 5 0.0000 0.0000 0.0000 0.0000 4.3982 0.0000
# 6 0.0000 0.0000 0.0000 0.0000 0.0000 33.9009
#
#
#
# Elastic Compliance Matrix: (Units=1/GPa)
#
#
# Indices 1 2 3 4 5 6 
#
# 1 0.015571 0.001391 -0.021246 0.000000 0.000000 0.000000
# 2 0.001391 0.011113 -0.010616 0.000000 0.000000 0.000000
# 3 -0.021246 -0.010616 0.064636 0.000000 0.000000 0.000000
# 4 0.000000 0.000000 0.000000 0.068045 0.000000 0.000000
# 5 0.000000 0.000000 0.000000 0.000000 0.227365 0.000000
# 6 0.000000 0.000000 0.000000 0.000000 0.000000 0.029498
#
#
# Mechanical properties :
#
#
# Convention : Reuss Voigt Hill
#
# Bulk Modulus (GPa) = 32.91759 52.37365 42.64562
# Shear Modulus (GPa) = 10.26069 21.97725 16.11897
#
# Velocity S-wave (km/s) = 2.33445 3.41652 2.92594
# Velocity P-wave (km/s) = 4.97489 6.58637 5.83651
#
# Compressibility (1/GPa) = 0.03037890
#
# Stress axis : x y z
#
# Youngs Moduli (GPa) = 64.22147 89.98492 15.47115
#
# Poissons Ratio (x) = -0.12514 0.32869
# Poissons Ratio (y) = -0.08931 0.16424
# Poissons Ratio (z) = 1.36442 0.95528
#
# Static dielectric constant tensor:
#      x y z
#    x 3.686200 0.000000 0.000000 
#    y 0.000000 3.761840 0.000000 
#    z 0.000000 0.000000 2.925700 
# 
# 
# High freq. dielectric constant tensor:
#      x y z
#    x 1.745400 0.000000 0.000000 
#    y 0.000000 1.762650 0.000000 
#    z 0.000000 0.000000 1.665680 
# 
# From -- ./inp_files/19570.got.cif
#   From: 2010.03.12/outbox.cif.g09.slc.cpg/sg57_10_cif.got.tgz:19570.got - 2010.04.16 15:48:40.
