data_PCOD8230449
_publ_section_title
;
Structure prediction by ZEFSAII (Michael W. Deem and Ramdas Pophale) SiO2 
 PCOD8230449
Probable space group: P B C M
;
_chemical_formula_sum "Si O2"
_cell_formula_units_Z 48
_cell_length_a 29.056513
_cell_length_b 9.176960
_cell_length_c 8.930693
_cell_angle_alpha 90.000000
_cell_angle_beta 90.000000
_cell_angle_gamma 90.000000
_cell_volume 2381.373375
_symmetry_space_group_name_H-M "P B C M"
_symmetry_group_IT_number 57
_symmetry_cell_setting 'orthorhombic'
loop_
_space_group_symop_operation_xyz
x,y,z
-x,-y,1/2+z
x,1/2-y,-z
-x,1/2+y,1/2-z
-x,-y,-z
x,y,1/2-z
-x,1/2+y,z
x,1/2-y,1/2+z
loop_
_atom_site_type_symbol
_atom_site_label
_atom_site_fract_x
_atom_site_fract_y
_atom_site_fract_z
Si Si1 0.725496 0.908715 0.430314
Si Si2 0.191342 0.604122 0.087028
Si Si3 0.941829 0.508966 0.250000
Si Si4 0.892619 0.587373 0.527473
Si Si5 0.968468 0.835015 0.250000
Si Si6 0.633561 0.910586 0.568818
Si Si7 0.458552 0.410352 0.068537
O O1 0.734029 0.750000 0.500000
O O2 0.721119 0.897008 0.250000
O O3 0.680121 0.984277 0.504778
O O4 0.767616 0.009746 0.485158
O O5 0.207789 0.653952 0.250000
O O6 0.179578 0.750000 0.000000
O O7 0.146452 0.503521 0.109385
O O8 0.905725 0.495116 0.383184
O O9 0.969195 0.660855 0.250000
O O10 0.978370 0.379300 0.250000
O O11 0.872751 0.750000 0.500000
O O12 0.941427 0.601242 0.609592
O O13 0.634907 0.750000 0.500000
O O14 0.631683 0.910883 0.750000
O O15 0.588244 0.985619 0.496249
O O16 0.459040 0.408307 0.250000
O O17 0.462484 0.250000 0.000000
O O18 0.500000 0.500000 0.000000
#
# Coordination Sequence:
#
# PCOD8230449 Si02
#       7
#     8   8   4   8   4   8   8
#     4  10  20  37  60  87 113 146 189 236 288 345
#     4  11  25  41  59  84 116 149 187 235 286 343
#     4  10  22  34  60  88 112 154 180 234 273 340
#     4  10  21  40  60  85 114 151 192 233 277 332
#     4  10  20  38  58  84 120 144 192 226 283 324
#     4  10  18  32  55  85 115 151 196 243 292 347
#     4  11  21  36  57  85 120 160 203 252 301 355
#
# _framework density 20.156437
#
# number of rings (size 3 to 8) (size 9 to 14) (size 15 to 20)
#    0.000    1.667    0.833    6.500    1.167    2.667 
#    0.000    0.833    0.000    2.000    0.000    0.000 
#    0.000    0.000    0.000    0.000    0.000    0.000 
#
# Total GULP energy -594791.966767 kJ/mol
# GULP energy per Si atom -12391.499308 kJ/mol
# Density = 2.011056 g / cm^3
# Si number density = 20.156437 Si / 1000 Ang^3
#
#
#
# Elastic Constant Matrix: (Units=GPa)
#
#
# Indices 1 2 3 4 5 6 
#
# 1 116.3034 38.4542 28.8738 0.0000 0.0000 0.0000
# 2 38.4542 64.5104 22.7795 0.0000 0.0000 0.0000
# 3 28.8738 22.7795 141.1405 0.0000 0.0000 0.0000
# 4 0.0000 0.0000 0.0000 23.0322 0.0000 0.0000
# 5 0.0000 0.0000 0.0000 0.0000 -9.6360 0.0000
# 6 0.0000 0.0000 0.0000 0.0000 0.0000 32.3216
#
#
#
# Elastic Compliance Matrix: (Units=1/GPa)
#
#
# Indices 1 2 3 4 5 6 
#
# 1 0.010914 -0.006063 -0.001254 0.000000 0.000000 0.000000
# 2 -0.006063 0.019806 -0.001956 0.000000 0.000000 0.000000
# 3 -0.001254 -0.001956 0.007657 0.000000 0.000000 0.000000
# 4 0.000000 0.000000 0.000000 0.043418 0.000000 0.000000
# 5 0.000000 0.000000 0.000000 0.000000 -0.103777 0.000000
# 6 0.000000 0.000000 0.000000 0.000000 0.000000 0.030939
#
#
# Mechanical properties :
#
#
# Convention : Reuss Voigt Hill
#
# Bulk Modulus (GPa) = 50.42644 55.79660 53.11152
# Shear Modulus (GPa) = 146.56489 24.60000 85.58245
#
# Velocity S-wave (km/s) = 8.53648 3.49729 6.52313
# Velocity P-wave (km/s) = 11.05594 6.63701 9.11822
#
# Compressibility (1/GPa) = 0.01983087
#
# Stress axis : x y z
#
# Youngs Moduli (GPa) = 91.62345 50.48905 130.59152
#
# Poissons Ratio (x) = 0.30612 0.16379
# Poissons Ratio (y) = 0.55551 0.25548
# Poissons Ratio (z) = 0.11492 0.09877
#
# Static dielectric constant tensor:
#      x y z
#    x 4.224280 0.000000 0.000000 
#    y 0.000000 3.353960 0.000000 
#    z 0.000000 0.000000 4.682110 
# 
# 
# High freq. dielectric constant tensor:
#      x y z
#    x 1.803210 0.000000 0.000000 
#    y 0.000000 1.751790 0.000000 
#    z 0.000000 0.000000 1.805180 
# 
# From -- ./inp_files/10142.got.cif
#   From: 2010.03.12/outbox.cif.g09.slc.cpg/sg57_6_cif.got.tgz:10142.got - 2010.04.16 15:48:40.
