data_PCOD8230677
_publ_section_title
;
Structure prediction by ZEFSAII (Michael W. Deem and Ramdas Pophale) SiO2 
 PCOD8230677
Probable space group: P B C M
;
_chemical_formula_sum "Si O2"
_cell_formula_units_Z 64
_cell_length_a 6.592627
_cell_length_b 21.006888
_cell_length_c 22.623223
_cell_angle_alpha 90.000000
_cell_angle_beta 90.000000
_cell_angle_gamma 90.000000
_cell_volume 3133.103207
_symmetry_space_group_name_H-M "P B C M"
_symmetry_group_IT_number 57
_symmetry_cell_setting 'orthorhombic'
loop_
_space_group_symop_operation_xyz
x,y,z
-x,-y,1/2+z
x,1/2-y,-z
-x,1/2+y,1/2-z
-x,-y,-z
x,y,1/2-z
-x,1/2+y,z
x,1/2-y,1/2+z
loop_
_atom_site_type_symbol
_atom_site_label
_atom_site_fract_x
_atom_site_fract_y
_atom_site_fract_z
Si Si1 0.926027 0.915502 0.538424
Si Si2 0.418238 0.019213 0.114177
Si Si3 0.809154 0.529495 0.577486
Si Si4 0.407518 0.225164 0.313874
Si Si5 0.016958 0.312030 0.623212
Si Si6 0.223350 0.703086 0.818477
Si Si7 0.707838 0.109528 0.314335
Si Si8 0.902871 0.060096 0.818763
O O1 0.884691 0.916023 0.468091
O O2 0.978708 0.842204 0.556988
O O3 0.722832 0.940127 0.571164
O O4 0.114512 0.961276 0.553162
O O5 0.562292 0.969439 0.078671
O O6 0.285046 0.984526 0.163660
O O7 0.591202 0.061911 0.143799
O O8 0.899883 0.543007 0.642646
O O9 0.296443 0.231615 0.250000
O O10 0.247859 0.205270 0.362497
O O11 0.532103 0.290157 0.328433
O O12 0.584643 0.174163 0.309826
O O13 0.888201 0.248316 0.633428
O O14 0.932153 0.371583 0.662049
O O15 0.168056 0.721016 0.750000
O O16 0.159029 0.632038 0.832667
O O17 0.735996 0.077980 0.250000
O O18 0.954811 0.049431 0.750000
#
# Coordination Sequence:
#
# PCOD8230677 Si02
#       8
#     8   8   8   8   8   8   8   8
#     4  10  21  37  59  87 117 150 197 238 289 354
#     4  11  20  37  56  86 117 157 193 238 294 353
#     4  10  22  40  60  83 115 158 193 237 290 350
#     4   9  17  30  50  77 112 147 181 230 288 340
#     4  11  18  33  56  84 112 148 192 239 292 344
#     4   9  20  37  55  81 114 153 199 241 291 353
#     4  10  19  29  47  83 120 144 180 232 292 347
#     4  10  23  41  59  83 116 155 202 243 289 358
#
# _framework density 20.427032000000001
#
# number of rings (size 3 to 8) (size 9 to 14) (size 15 to 20)
#    0.000    2.000    2.500    2.625    0.000    2.000 
#    0.000    3.125    0.000    0.000    0.000    0.000 
#    0.000    0.000    0.000    0.000    0.000    0.000 
#
# Total GULP energy -793084.190386 kJ/mol
# GULP energy per Si atom -12391.940475 kJ/mol
# Density = 2.038054 g / cm^3
# Si number density = 20.427032 Si / 1000 Ang^3
#
#
#
# Elastic Constant Matrix: (Units=GPa)
#
#
# Indices 1 2 3 4 5 6 
#
# 1 86.7130 12.2279 19.4262 0.0000 0.0000 0.0000
# 2 12.2279 54.0094 12.9495 0.0000 0.0000 0.0000
# 3 19.4262 12.9495 85.7126 0.0000 0.0000 0.0000
# 4 0.0000 0.0000 0.0000 22.1066 0.0000 0.0000
# 5 0.0000 0.0000 0.0000 0.0000 19.3961 0.0000
# 6 0.0000 0.0000 0.0000 0.0000 0.0000 16.3910
#
#
#
# Elastic Compliance Matrix: (Units=1/GPa)
#
#
# Indices 1 2 3 4 5 6 
#
# 1 0.012399 -0.002214 -0.002476 0.000000 0.000000 0.000000
# 2 -0.002214 0.019606 -0.002460 0.000000 0.000000 0.000000
# 3 -0.002476 -0.002460 0.012600 0.000000 0.000000 0.000000
# 4 0.000000 0.000000 0.000000 0.045235 0.000000 0.000000
# 5 0.000000 0.000000 0.000000 0.000000 0.051557 0.000000
# 6 0.000000 0.000000 0.000000 0.000000 0.000000 0.061009
#
#
# Mechanical properties :
#
#
# Convention : Reuss Voigt Hill
#
# Bulk Modulus (GPa) = 32.99715 35.07135 34.03425
# Shear Modulus (GPa) = 22.04510 23.70083 22.87296
#
# Velocity S-wave (km/s) = 3.28870 3.40997 3.34988
# Velocity P-wave (km/s) = 5.53258 5.71928 5.62671
#
# Compressibility (1/GPa) = 0.03030565
#
# Stress axis : x y z
#
# Youngs Moduli (GPa) = 80.65107 51.00375 79.36671
#
# Poissons Ratio (x) = 0.11290 0.19649
# Poissons Ratio (y) = 0.17853 0.19528
# Poissons Ratio (z) = 0.19967 0.12549
#
# Static dielectric constant tensor:
#      x y z
#    x 3.727300 0.000000 0.000000 
#    y 0.000000 3.614120 0.000000 
#    z 0.000000 0.000000 3.723820 
# 
# 
# High freq. dielectric constant tensor:
#      x y z
#    x 1.805560 0.000000 0.000000 
#    y 0.000000 1.780600 0.000000 
#    z 0.000000 0.000000 1.780440 
# 
# From -- ./inp_files/26384.got.cif
#   From: 2010.03.12/outbox.cif.g09.slc.cpg/sg57_14_cif.got.tgz:26384.got - 2010.04.16 15:48:40.
