data_PCOD8230490
_publ_section_title
;
Structure prediction by ZEFSAII (Michael W. Deem and Ramdas Pophale) SiO2 
 PCOD8230490
Probable space group: P B C M
;
_chemical_formula_sum "Si O2"
_cell_formula_units_Z 64
_cell_length_a 15.445162
_cell_length_b 24.834616
_cell_length_c 8.636712
_cell_angle_alpha 90.000000
_cell_angle_beta 90.000000
_cell_angle_gamma 90.000000
_cell_volume 3312.823932
_symmetry_space_group_name_H-M "P B C M"
_symmetry_group_IT_number 57
_symmetry_cell_setting 'orthorhombic'
loop_
_space_group_symop_operation_xyz
x,y,z
-x,-y,1/2+z
x,1/2-y,-z
-x,1/2+y,1/2-z
-x,-y,-z
x,y,1/2-z
-x,1/2+y,z
x,1/2-y,1/2+z
loop_
_atom_site_type_symbol
_atom_site_label
_atom_site_fract_x
_atom_site_fract_y
_atom_site_fract_z
Si Si1 0.675638 0.407384 0.079636
Si Si2 0.613875 0.306419 0.568650
Si Si3 0.807998 0.479773 0.567906
Si Si4 0.421930 0.343234 0.930563
Si Si5 0.483554 0.055786 0.579927
Si Si6 0.026906 0.942614 0.434220
Si Si7 0.140674 0.094097 0.066188
Si Si8 0.752151 0.806780 0.432709
O O1 0.719751 0.407014 0.250000
O O2 0.574611 0.415876 0.097935
O O3 0.682710 0.349331 0.998641
O O4 0.714948 0.454926 0.973865
O O5 0.642979 0.250000 0.500000
O O6 0.625499 0.306802 0.750000
O O7 0.513855 0.317444 0.524500
O O8 0.820578 0.485945 0.750000
O O9 0.875923 0.435390 0.499169
O O10 0.816284 0.538775 0.493491
O O11 0.400040 0.338018 0.750000
O O12 0.421099 0.406552 0.976679
O O13 0.349322 0.312383 0.028317
O O14 0.441088 0.047709 0.750000
O O15 0.500000 0.000000 0.500000
O O16 0.025719 0.941300 0.250000
O O17 0.957589 0.899672 0.500355
O O18 0.000000 0.000000 0.500000
O O19 0.138437 0.092598 0.250000
O O20 0.195326 0.144830 0.010377
O O21 0.786324 0.750000 0.500000
O O22 0.766438 0.808022 0.250000
#
# Coordination Sequence:
#
# PCOD8230490 Si02
#       8
#     8   8   8   8   8   8   8   8
#     4  10  21  36  53  78 109 145 184 228 278 329
#     4  10  20  35  56  79 105 141 184 231 279 330
#     4  11  21  35  57  86 118 150 186 230 280 337
#     4  10  21  37  56  79 107 143 189 236 284 333
#     4  10  21  35  52  74 108 148 188 231 282 339
#     4  10  18  33  56  84 114 144 179 219 266 322
#     4  11  22  38  59  84 114 149 187 229 281 336
#     4  12  25  41  59  83 113 149 193 240 287 337
#
# _framework density 19.318866
#
# number of rings (size 3 to 8) (size 9 to 14) (size 15 to 20)
#    0.000    1.500    0.000    7.875    1.750    4.000 
#    0.000    0.000    0.000    0.750    0.000    5.250 
#    0.000    0.000    0.000    0.000    0.000    0.000 
#
# Total GULP energy -793510.423071 kJ/mol
# GULP energy per Si atom -12398.600360 kJ/mol
# Density = 1.927490 g / cm^3
# Si number density = 19.318866 Si / 1000 Ang^3
#
#
#
# Elastic Constant Matrix: (Units=GPa)
#
#
# Indices 1 2 3 4 5 6 
#
# 1 48.7367 27.2212 35.9889 0.0000 0.0000 0.0000
# 2 27.2212 123.0701 48.9261 0.0000 0.0000 0.0000
# 3 35.9889 48.9261 160.9720 0.0000 0.0000 0.0000
# 4 0.0000 0.0000 0.0000 34.1540 0.0000 0.0000
# 5 0.0000 0.0000 0.0000 0.0000 30.8102 0.0000
# 6 0.0000 0.0000 0.0000 0.0000 0.0000 22.5812
#
#
#
# Elastic Compliance Matrix: (Units=1/GPa)
#
#
# Indices 1 2 3 4 5 6 
#
# 1 0.026150 -0.003935 -0.004650 0.000000 0.000000 0.000000
# 2 -0.003935 0.009834 -0.002109 0.000000 0.000000 0.000000
# 3 -0.004650 -0.002109 0.007893 0.000000 0.000000 0.000000
# 4 0.000000 0.000000 0.000000 0.029279 0.000000 0.000000
# 5 0.000000 0.000000 0.000000 0.000000 0.032457 0.000000
# 6 0.000000 0.000000 0.000000 0.000000 0.000000 0.044285
#
#
# Mechanical properties :
#
#
# Convention : Reuss Voigt Hill
#
# Bulk Modulus (GPa) = 44.46823 61.89457 53.18140
# Shear Modulus (GPa) = 27.96665 32.21860 30.09263
#
# Velocity S-wave (km/s) = 3.80891 4.08821 3.95103
# Velocity P-wave (km/s) = 6.51243 7.37513 6.95717
#
# Compressibility (1/GPa) = 0.02248797
#
# Stress axis : x y z
#
# Youngs Moduli (GPa) = 38.24021 101.68380 126.69359
#
# Poissons Ratio (x) = 0.40016 0.58918
# Poissons Ratio (y) = 0.15049 0.26723
# Poissons Ratio (z) = 0.17783 0.21448
#
# Static dielectric constant tensor:
#      x y z
#    x 3.797790 0.000000 0.000000 
#    y 0.000000 3.705380 0.000000 
#    z 0.000000 0.000000 3.890250 
# 
# 
# High freq. dielectric constant tensor:
#      x y z
#    x 1.733800 0.000000 0.000000 
#    y 0.000000 1.739420 0.000000 
#    z 0.000000 0.000000 1.775160 
# 
# From -- ./inp_files/5601.got.cif
#   From: 2010.03.12/outbox.cif.g09.slc.cpg/sg57_3_cif.got.tgz:5601.got - 2010.04.16 15:48:40.
