data_PCOD8230782
_publ_section_title
;
Structure prediction by ZEFSAII (Michael W. Deem and Ramdas Pophale) SiO2 
 PCOD8230782
Probable space group: P B C M
;
_chemical_formula_sum "Si O2"
_cell_formula_units_Z 48
_cell_length_a 13.574091
_cell_length_b 23.595612
_cell_length_c 9.141812
_cell_angle_alpha 90.000000
_cell_angle_beta 90.000000
_cell_angle_gamma 90.000000
_cell_volume 2928.021682
_symmetry_space_group_name_H-M "P B C M"
_symmetry_group_IT_number 57
_symmetry_cell_setting 'orthorhombic'
loop_
_space_group_symop_operation_xyz
x,y,z
-x,-y,1/2+z
x,1/2-y,-z
-x,1/2+y,1/2-z
-x,-y,-z
x,y,1/2-z
-x,1/2+y,z
x,1/2-y,1/2+z
loop_
_atom_site_type_symbol
_atom_site_label
_atom_site_fract_x
_atom_site_fract_y
_atom_site_fract_z
Si Si1 0.135457 0.531653 0.419888
Si Si2 0.034891 0.415567 0.422031
Si Si3 0.644055 0.014369 0.082156
Si Si4 0.152212 0.193286 0.920931
Si Si5 0.546155 0.585378 0.419220
Si Si6 0.620204 0.807474 0.078017
O O1 0.115420 0.541420 0.250000
O O2 0.102677 0.468653 0.467943
O O3 0.249840 0.539676 0.460132
O O4 0.072813 0.578746 0.506154
O O5 0.020836 0.412342 0.250000
O O6 0.087657 0.358943 0.480768
O O7 0.643664 0.992480 0.250000
O O8 0.565296 0.064044 0.058721
O O9 0.622036 0.961288 0.978792
O O10 0.136924 0.202459 0.750000
O O11 0.265733 0.180023 0.957324
O O12 0.115585 0.250000 0.000000
O O13 0.570712 0.596862 0.250000
O O14 0.555078 0.642458 0.511437
O O15 0.600157 0.802536 0.250000
O O16 0.585871 0.750000 0.000000
#
# Coordination Sequence:
#
# PCOD8230782 Si02
#       6
#     8   8   8   8   8   8
#     4   9  17  30  47  66  90 121 152 183 224 270
#     4   9  17  29  45  67  93 118 147 184 225 267
#     4   9  18  32  48  67  94 125 154 187 228 273
#     4   9  18  31  47  67  92 121 150 183 224 270
#     4  10  19  30  47  71  95 121 155 191 228 271
#     4  10  19  32  49  69  95 124 153 187 229 274
#
# _framework density 16.393322000000001
#
# number of rings (size 3 to 8) (size 9 to 14) (size 15 to 20)
#    0.000    2.667    0.000    2.000    0.000    5.333 
#    0.000    3.333    0.000    1.000    0.000    2.333 
#    0.000    0.000    0.000    0.000    0.000    0.000 
#
# Total GULP energy -595303.838441 kJ/mol
# GULP energy per Si atom -12402.163301 kJ/mol
# Density = 1.635601 g / cm^3
# Si number density = 16.393322 Si / 1000 Ang^3
#
#
#
# Elastic Constant Matrix: (Units=GPa)
#
#
# Indices 1 2 3 4 5 6 
#
# 1 92.1109 49.2459 38.2382 0.0000 0.0000 0.0000
# 2 49.2459 114.0994 52.0792 0.0000 0.0000 0.0000
# 3 38.2382 52.0792 68.0567 0.0000 0.0000 0.0000
# 4 0.0000 0.0000 0.0000 32.6489 0.0000 0.0000
# 5 0.0000 0.0000 0.0000 0.0000 25.9256 0.0000
# 6 0.0000 0.0000 0.0000 0.0000 0.0000 25.4304
#
#
#
# Elastic Compliance Matrix: (Units=1/GPa)
#
#
# Indices 1 2 3 4 5 6 
#
# 1 0.015326 -0.004125 -0.005454 0.000000 0.000000 0.000000
# 2 -0.004125 0.014579 -0.008838 0.000000 0.000000 0.000000
# 3 -0.005454 -0.008838 0.024522 0.000000 0.000000 0.000000
# 4 0.000000 0.000000 0.000000 0.030629 0.000000 0.000000
# 5 0.000000 0.000000 0.000000 0.000000 0.038572 0.000000
# 6 0.000000 0.000000 0.000000 0.000000 0.000000 0.039323
#
#
# Mechanical properties :
#
#
# Convention : Reuss Voigt Hill
#
# Bulk Modulus (GPa) = 56.84836 61.48818 59.16827
# Shear Modulus (GPa) = 24.31305 25.78122 25.04714
#
# Velocity S-wave (km/s) = 3.85529 3.96999 3.91306
# Velocity P-wave (km/s) = 7.38720 7.65532 7.52245
#
# Compressibility (1/GPa) = 0.01759066
#
# Stress axis : x y z
#
# Youngs Moduli (GPa) = 65.24720 68.59165 40.78022
#
# Poissons Ratio (x) = 0.28297 0.22243
# Poissons Ratio (y) = 0.26917 0.36044
# Poissons Ratio (z) = 0.35588 0.60625
#
# Static dielectric constant tensor:
#      x y z
#    x 3.070350 0.000000 0.000000 
#    y 0.000000 3.059850 0.000000 
#    z 0.000000 0.000000 3.119560 
# 
# 
# High freq. dielectric constant tensor:
#      x y z
#    x 1.619490 0.000000 0.000000 
#    y 0.000000 1.620500 0.000000 
#    z 0.000000 0.000000 1.635320 
# 
# From -- ./inp_files/4887.got.cif
#   From: 2010.03.12/outbox.cif.g09.slc.cpg/sg57_3_cif.got.tgz:4887.got - 2010.04.16 15:48:40.
