data_PCOD8230230
_publ_section_title
;
Structure prediction by ZEFSAII (Michael W. Deem and Ramdas Pophale) SiO2 
 PCOD8230230
Probable space group: P B C M
;
_chemical_formula_sum "Si O2"
_cell_formula_units_Z 64
_cell_length_a 20.136872
_cell_length_b 22.362460
_cell_length_c 9.163309
_cell_angle_alpha 90.000000
_cell_angle_beta 90.000000
_cell_angle_gamma 90.000000
_cell_volume 4126.329627
_symmetry_space_group_name_H-M "P B C M"
_symmetry_group_IT_number 57
_symmetry_cell_setting 'orthorhombic'
loop_
_space_group_symop_operation_xyz
x,y,z
-x,-y,1/2+z
x,1/2-y,-z
-x,1/2+y,1/2-z
-x,-y,-z
x,y,1/2-z
-x,1/2+y,z
x,1/2-y,1/2+z
loop_
_atom_site_type_symbol
_atom_site_label
_atom_site_fract_x
_atom_site_fract_y
_atom_site_fract_z
Si Si1 0.753900 0.605705 0.578281
Si Si2 0.775143 0.018873 0.923280
Si Si3 0.127444 0.188319 0.579897
Si Si4 0.390148 0.092454 0.588598
Si Si5 0.349126 0.954409 0.912050
Si Si6 0.508517 0.437799 0.919914
Si Si7 0.973307 0.585772 0.917866
Si Si8 0.905364 0.460480 0.919098
O O1 0.762139 0.589044 0.750000
O O2 0.772932 0.547970 0.485008
O O3 0.802269 0.659498 0.532670
O O4 0.678063 0.626650 0.543743
O O5 0.779530 0.017601 0.750000
O O6 0.709519 0.056206 0.971766
O O7 0.838831 0.052430 0.989687
O O8 0.115760 0.250000 0.500000
O O9 0.127331 0.201392 0.750000
O O10 0.067814 0.144102 0.536683
O O11 0.412624 0.111924 0.750000
O O12 0.452218 0.107602 0.482037
O O13 0.371926 0.022884 0.584365
O O14 0.322601 0.938465 0.750000
O O15 0.415537 0.914972 0.947884
O O16 0.495278 0.447498 0.750000
O O17 0.500000 0.500000 0.000000
O O18 0.996543 0.587855 0.750000
O O19 0.925994 0.529060 0.943955
O O20 0.037559 0.583221 0.020590
O O21 0.893040 0.445950 0.750000
#
# Coordination Sequence:
#
# PCOD8230230 Si02
#       8
#     8   8   8   8   8   8   8   8
#     4   9  17  31  43  55  79 110 140 173 216 257
#     4  11  19  25  39  62  83 106 140 179 211 249
#     4  10  20  34  49  64  86 113 142 179 219 260
#     4   8  14  23  37  51  68  98 134 169 204 241
#     4   8  15  25  34  47  73 108 137 163 203 248
#     4   9  15  22  32  47  70  99 132 167 201 236
#     4   9  18  32  47  64  84 108 139 177 216 255
#     4  10  18  30  47  63  85 112 138 173 218 264
#
# _framework density 15.510152
#
# number of rings (size 3 to 8) (size 9 to 14) (size 15 to 20)
#    0.000    2.750    1.250    3.375    0.000    6.500 
#    0.000    0.000    0.000    0.000    0.000    0.000 
#    0.000    0.000    0.000    1.125    0.000   16.875 
#
# Total GULP energy -793146.590776 kJ/mol
# GULP energy per Si atom -12392.915481 kJ/mol
# Density = 1.547485 g / cm^3
# Si number density = 15.510152 Si / 1000 Ang^3
#
#
#
# Elastic Constant Matrix: (Units=GPa)
#
#
# Indices 1 2 3 4 5 6 
#
# 1 137.1217 38.9416 74.5290 0.0000 0.0000 0.0000
# 2 38.9416 42.7605 24.8049 0.0000 0.0000 0.0000
# 3 74.5290 24.8049 99.6350 0.0000 0.0000 0.0000
# 4 0.0000 0.0000 0.0000 15.0513 0.0000 0.0000
# 5 0.0000 0.0000 0.0000 0.0000 31.6845 0.0000
# 6 0.0000 0.0000 0.0000 0.0000 0.0000 11.7436
#
#
#
# Elastic Compliance Matrix: (Units=1/GPa)
#
#
# Indices 1 2 3 4 5 6 
#
# 1 0.014283 -0.007959 -0.008703 0.000000 0.000000 0.000000
# 2 -0.007959 0.031769 -0.001955 0.000000 0.000000 0.000000
# 3 -0.008703 -0.001955 0.017033 0.000000 0.000000 0.000000
# 4 0.000000 0.000000 0.000000 0.066439 0.000000 0.000000
# 5 0.000000 0.000000 0.000000 0.000000 0.031561 0.000000
# 6 0.000000 0.000000 0.000000 0.000000 0.000000 0.085152
#
#
# Mechanical properties :
#
#
# Convention : Reuss Voigt Hill
#
# Bulk Modulus (GPa) = 38.68376 61.78535 50.23455
# Shear Modulus (GPa) = 17.11803 21.11202 19.11502
#
# Velocity S-wave (km/s) = 3.32575 3.69341 3.51439
# Velocity P-wave (km/s) = 6.30417 7.62301 6.99474
#
# Compressibility (1/GPa) = 0.02585064
#
# Stress axis : x y z
#
# Youngs Moduli (GPa) = 70.01186 31.47736 58.70886
#
# Poissons Ratio (x) = 0.25054 0.51092
# Poissons Ratio (y) = 0.55725 0.11480
# Poissons Ratio (z) = 0.60929 0.06155
#
# Static dielectric constant tensor:
#      x y z
#    x 3.637670 0.000000 0.000000 
#    y 0.000000 2.392910 0.000000 
#    z 0.000000 0.000000 3.109550 
# 
# 
# High freq. dielectric constant tensor:
#      x y z
#    x 1.616520 0.000000 0.000000 
#    y 0.000000 1.509750 0.000000 
#    z 0.000000 0.000000 1.600550 
# 
# From -- ./inp_files/8818.got.cif
#   From: 2010.03.12/outbox.cif.g09.slc.cpg/sg57_5_cif.got.tgz:8818.got - 2010.04.16 15:48:40.
