data_PCOD8230736
_publ_section_title
;
Structure prediction by ZEFSAII (Michael W. Deem and Ramdas Pophale) SiO2 
 PCOD8230736
Probable space group: P B C M
;
_chemical_formula_sum "Si O2"
_cell_formula_units_Z 48
_cell_length_a 23.707933
_cell_length_b 13.580446
_cell_length_c 8.955226
_cell_angle_alpha 90.000000
_cell_angle_beta 90.000000
_cell_angle_gamma 90.000000
_cell_volume 2883.263105
_symmetry_space_group_name_H-M "P B C M"
_symmetry_group_IT_number 57
_symmetry_cell_setting 'orthorhombic'
loop_
_space_group_symop_operation_xyz
x,y,z
-x,-y,1/2+z
x,1/2-y,-z
-x,1/2+y,1/2-z
-x,-y,-z
x,y,1/2-z
-x,1/2+y,z
x,1/2-y,1/2+z
loop_
_atom_site_type_symbol
_atom_site_label
_atom_site_fract_x
_atom_site_fract_y
_atom_site_fract_z
Si Si1 0.980825 0.849659 0.075547
Si Si2 0.480108 0.349560 0.924630
Si Si3 0.309484 0.649940 0.576936
Si Si4 0.817252 0.354003 0.072918
Si Si5 0.579753 0.453922 0.076496
Si Si6 0.916644 0.453544 0.575594
O O1 0.991844 0.832925 0.250000
O O2 0.934297 0.933692 0.047360
O O3 0.957797 0.750000 0.000000
O O4 0.039373 0.878995 0.998940
O O5 0.484510 0.332176 0.750000
O O6 0.434976 0.434089 0.966974
O O7 0.458125 0.250000 0.000000
O O8 0.541821 0.378202 0.983735
O O9 0.328977 0.750000 0.500000
O O10 0.309254 0.674020 0.750000
O O11 0.246800 0.617084 0.527428
O O12 0.354550 0.564668 0.537251
O O13 0.825967 0.348240 0.250000
O O14 0.833956 0.250000 0.000000
O O15 0.856387 0.438538 0.002772
O O16 0.566880 0.434508 0.250000
O O17 0.913087 0.428855 0.750000
#
# Coordination Sequence:
#
# PCOD8230736 Si02
#       6
#     8   8   8   8   8   8
#     4  10  20  33  50  71  95 123 154 189 228 271
#     4  10  19  30  46  68  94 122 152 188 229 274
#     4   9  18  31  47  68  92 120 152 187 228 271
#     4  10  19  31  48  69  94 123 154 189 229 272
#     4   9  18  32  48  67  92 121 154 190 228 271
#     4  10  20  33  49  70  96 124 154 188 227 271
#
# _framework density 16.647805000000002
#
# number of rings (size 3 to 8) (size 9 to 14) (size 15 to 20)
#    0.000    2.333    0.000    3.000    0.000    5.333 
#    0.000    0.000    0.000    1.000    0.000    4.667 
#    0.000    0.000    0.000    0.000    0.000    0.000 
#
# Total GULP energy -595270.041642 kJ/mol
# GULP energy per Si atom -12401.459201 kJ/mol
# Density = 1.660991 g / cm^3
# Si number density = 16.647805 Si / 1000 Ang^3
#
#
#
# Elastic Constant Matrix: (Units=GPa)
#
#
# Indices 1 2 3 4 5 6 
#
# 1 115.3458 61.4824 48.6407 0.0000 0.0000 0.0000
# 2 61.4824 109.7330 52.8613 0.0000 0.0000 0.0000
# 3 48.6407 52.8613 84.6871 0.0000 0.0000 0.0000
# 4 0.0000 0.0000 0.0000 30.5141 0.0000 0.0000
# 5 0.0000 0.0000 0.0000 0.0000 23.2735 0.0000
# 6 0.0000 0.0000 0.0000 0.0000 0.0000 23.1550
#
#
#
# Elastic Compliance Matrix: (Units=1/GPa)
#
#
# Indices 1 2 3 4 5 6 
#
# 1 0.013371 -0.005423 -0.004295 0.000000 0.000000 0.000000
# 2 -0.005423 0.015231 -0.006392 0.000000 0.000000 0.000000
# 3 -0.004295 -0.006392 0.018265 0.000000 0.000000 0.000000
# 4 0.000000 0.000000 0.000000 0.032772 0.000000 0.000000
# 5 0.000000 0.000000 0.000000 0.000000 0.042967 0.000000
# 6 0.000000 0.000000 0.000000 0.000000 0.000000 0.043187
#
#
# Mechanical properties :
#
#
# Convention : Reuss Voigt Hill
#
# Bulk Modulus (GPa) = 68.27407 70.63718 69.45562
# Shear Modulus (GPa) = 24.64318 25.17395 24.90857
#
# Velocity S-wave (km/s) = 3.85160 3.89285 3.87228
# Velocity P-wave (km/s) = 7.80254 7.92011 7.86155
#
# Compressibility (1/GPa) = 0.01464685
#
# Stress axis : x y z
#
# Youngs Moduli (GPa) = 74.78739 65.65679 54.74918
#
# Poissons Ratio (x) = 0.35604 0.23515
# Poissons Ratio (y) = 0.40555 0.34998
# Poissons Ratio (z) = 0.32121 0.41970
#
# Static dielectric constant tensor:
#      x y z
#    x 3.196800 0.000000 0.000000 
#    y 0.000000 3.123460 0.000000 
#    z 0.000000 0.000000 3.235080 
# 
# 
# High freq. dielectric constant tensor:
#      x y z
#    x 1.631150 0.000000 0.000000 
#    y 0.000000 1.629370 0.000000 
#    z 0.000000 0.000000 1.655870 
# 
# From -- ./inp_files/9114.got.cif
#   From: 2010.03.12/outbox.cif.g09.slc.cpg/sg57_5_cif.got.tgz:9114.got - 2010.04.16 15:48:40.
