data_PCOD8230606
_publ_section_title
;
Structure prediction by ZEFSAII (Michael W. Deem and Ramdas Pophale) SiO2 
 PCOD8230606
Probable space group: P B C M
;
_chemical_formula_sum "Si O2"
_cell_formula_units_Z 36
_cell_length_a 7.180148
_cell_length_b 15.165403
_cell_length_c 14.463663
_cell_angle_alpha 90.000000
_cell_angle_beta 90.000000
_cell_angle_gamma 90.000000
_cell_volume 1574.945921
_symmetry_space_group_name_H-M "P B C M"
_symmetry_group_IT_number 57
_symmetry_cell_setting 'orthorhombic'
loop_
_space_group_symop_operation_xyz
x,y,z
-x,-y,1/2+z
x,1/2-y,-z
-x,1/2+y,1/2-z
-x,-y,-z
x,y,1/2-z
-x,1/2+y,z
x,1/2-y,1/2+z
loop_
_atom_site_type_symbol
_atom_site_label
_atom_site_fract_x
_atom_site_fract_y
_atom_site_fract_z
Si Si1 0.232830 0.780381 0.250000
Si Si2 0.906538 0.898436 0.250000
Si Si3 0.276131 0.333775 0.945951
Si Si4 0.811704 0.988548 0.443719
Si Si5 0.841209 0.319857 0.568943
Si Si6 0.643901 0.766591 0.750000
O O1 0.162780 0.720848 0.168113
O O2 0.455441 0.791487 0.250000
O O3 0.129350 0.875925 0.250000
O O4 0.852648 0.952079 0.341031
O O5 0.810496 0.802686 0.250000
O O6 0.345192 0.330534 0.839795
O O7 0.054628 0.334008 0.958034
O O8 0.361926 0.250000 0.000000
O O9 0.331585 0.424752 0.999731
O O10 0.726863 0.087626 0.434308
O O11 0.000000 0.000000 0.500000
O O12 0.744303 0.250000 0.500000
#
# Coordination Sequence:
#
# PCOD8230606 Si02
#       6
#     4   4   8   8   8   4
#     4  12  23  39  65  97 129 170 223 263 333 394
#     4  12  21  44  69  93 138 169 216 276 329 400
#     4  10  18  38  63  93 128 169 220 262 329 393
#     4  10  21  36  73 100 123 182 222 263 338 392
#     4  10  20  40  67  94 128 172 221 271 324 387
#     4  12  24  37  68  94 129 183 209 269 336 390
#
# _framework density 22.857928000000001
#
# number of rings (size 3 to 8) (size 9 to 14) (size 15 to 20)
#    0.000    1.333    4.444    3.333    0.000    3.556 
#    0.000    2.222   24.444    0.000    0.000    0.000 
#    0.000    0.000    0.000    0.000    0.000    0.000 
#
# Total GULP energy -446134.560337 kJ/mol
# GULP energy per Si atom -12392.626676 kJ/mol
# Density = 2.280590 g / cm^3
# Si number density = 22.857928 Si / 1000 Ang^3
#
#
#
# Elastic Constant Matrix: (Units=GPa)
#
#
# Indices 1 2 3 4 5 6 
#
# 1 43.4405 16.4651 -2.3387 0.0000 0.0000 0.0000
# 2 16.4651 187.6584 106.3358 0.0000 0.0000 0.0000
# 3 -2.3387 106.3358 208.8728 0.0000 0.0000 0.0000
# 4 0.0000 0.0000 0.0000 -90.2516 0.0000 0.0000
# 5 0.0000 0.0000 0.0000 0.0000 -126.4941 0.0000
# 6 0.0000 0.0000 0.0000 0.0000 0.0000 0.1163
#
#
#
# Elastic Compliance Matrix: (Units=1/GPa)
#
#
# Indices 1 2 3 4 5 6 
#
# 1 0.024343 -0.003219 0.001911 0.000000 0.000000 0.000000
# 2 -0.003219 0.007915 -0.004065 0.000000 0.000000 0.000000
# 3 0.001911 -0.004065 0.006879 0.000000 0.000000 0.000000
# 4 0.000000 0.000000 0.000000 -0.011080 0.000000 0.000000
# 5 0.000000 0.000000 0.000000 0.000000 -0.007906 0.000000
# 6 0.000000 0.000000 0.000000 0.000000 0.000000 8.595061
#
#
# Mechanical properties :
#
#
# Convention : Reuss Voigt Hill
#
# Bulk Modulus (GPa) = 35.22318 75.65512 55.43915
# Shear Modulus (GPa) = 0.57901 -22.02522 -10.72311
#
# Velocity S-wave (km/s) = 0.50384 -3.10751 -2.16827
# Velocity P-wave (km/s) = 3.97260 4.50492 4.24711
#
# Compressibility (1/GPa) = 0.02839039
#
# Stress axis : x y z
#
# Youngs Moduli (GPa) = 41.07976 126.34333 145.37601
#
# Poissons Ratio (x) = 0.40668 -0.27785
# Poissons Ratio (y) = 0.13223 0.59102
# Poissons Ratio (z) = -0.07851 0.51365
#
# Static dielectric constant tensor:
#      x y z
#    x 3.824550 0.000000 0.000000 
#    y 0.000000 5.125720 0.000000 
#    z 0.000000 0.000000 4.547700 
# 
# 
# High freq. dielectric constant tensor:
#      x y z
#    x 1.870930 0.000000 0.000000 
#    y 0.000000 1.909050 0.000000 
#    z 0.000000 0.000000 1.920760 
# 
# From -- ./inp_files/15835.got.cif
#   From: 2010.03.12/outbox.cif.g09.slc.cpg/sg57_8_cif.got.tgz:15835.got - 2010.04.16 15:48:40.
