data_PCOD8230604
_publ_section_title
;
Structure prediction by ZEFSAII (Michael W. Deem and Ramdas Pophale) SiO2 
 PCOD8230604
Probable space group: P B C M
;
_chemical_formula_sum "Si O2"
_cell_formula_units_Z 64
_cell_length_a 15.966099
_cell_length_b 9.745187
_cell_length_c 20.958343
_cell_angle_alpha 90.000000
_cell_angle_beta 90.000000
_cell_angle_gamma 90.000000
_cell_volume 3260.963507
_symmetry_space_group_name_H-M "P B C M"
_symmetry_group_IT_number 57
_symmetry_cell_setting 'orthorhombic'
loop_
_space_group_symop_operation_xyz
x,y,z
-x,-y,1/2+z
x,1/2-y,-z
-x,1/2+y,1/2-z
-x,-y,-z
x,y,1/2-z
-x,1/2+y,z
x,1/2-y,1/2+z
loop_
_atom_site_type_symbol
_atom_site_label
_atom_site_fract_x
_atom_site_fract_y
_atom_site_fract_z
Si Si1 0.581742 0.590110 0.007051
Si Si2 0.055194 0.388785 0.877181
Si Si3 0.781086 0.752625 0.821080
Si Si4 0.307054 0.478870 0.619132
Si Si5 0.829171 0.904833 0.517652
Si Si6 0.735686 0.249569 0.176642
Si Si7 0.270758 0.488530 0.089947
Si Si8 0.070455 0.813523 0.177165
O O1 0.650522 0.540986 0.955785
O O2 0.560199 0.750000 0.000000
O O3 0.500000 0.500000 0.000000
O O4 0.611824 0.564375 0.079373
O O5 0.128750 0.298122 0.846582
O O6 0.076219 0.406468 0.953472
O O7 0.042879 0.534950 0.843863
O O8 0.970775 0.301660 0.868063
O O9 0.793407 0.698573 0.750000
O O10 0.713330 0.875720 0.822732
O O11 0.740513 0.632359 0.860904
O O12 0.226397 0.470564 0.573333
O O13 0.321667 0.627879 0.649813
O O14 0.799234 0.750000 0.500000
O O15 0.813951 0.996540 0.454234
O O16 0.712557 0.213527 0.250000
O O17 0.830735 0.298437 0.171163
O O18 0.715768 0.124964 0.129903
O O19 0.041015 0.790824 0.250000
#
# Coordination Sequence:
#
# PCOD8230604 Si02
#       8
#     8   8   8   8   8   8   8   8
#     4  11  24  42  70 101 128 163 203 252 305 381
#     4  11  23  38  59  85 118 163 214 270 320 366
#     4  11  19  36  66  89 115 167 217 256 311 367
#     4  10  19  39  65  90 124 159 206 257 299 363
#     4  10  18  38  62  82 116 156 208 257 304 366
#     4  11  24  40  62  96 128 162 214 268 313 368
#     4  11  22  40  65  92 128 160 207 258 306 377
#     4  11  23  40  57  85 123 163 216 265 316 377
#
# _framework density 19.626100999999998
#
# number of rings (size 3 to 8) (size 9 to 14) (size 15 to 20)
#    0.000    1.250    6.250    2.625    3.500    1.500 
#    0.000    2.500    0.000    4.500    0.000    0.000 
#    0.000    0.000    0.000    0.000    0.000    0.000 
#
# Total GULP energy -793297.131004 kJ/mol
# GULP energy per Si atom -12395.267672 kJ/mol
# Density = 1.958143 g / cm^3
# Si number density = 19.626101 Si / 1000 Ang^3
#
#
#
# Elastic Constant Matrix: (Units=GPa)
#
#
# Indices 1 2 3 4 5 6 
#
# 1 48.7276 26.5693 16.5241 0.0000 0.0000 0.0000
# 2 26.5693 120.8992 40.9706 0.0000 0.0000 0.0000
# 3 16.5241 40.9706 89.8165 0.0000 0.0000 0.0000
# 4 0.0000 0.0000 0.0000 1327.7993 0.0000 0.0000
# 5 0.0000 0.0000 0.0000 0.0000 18.6872 0.0000
# 6 0.0000 0.0000 0.0000 0.0000 0.0000 22.6249
#
#
#
# Elastic Compliance Matrix: (Units=1/GPa)
#
#
# Indices 1 2 3 4 5 6 
#
# 1 0.023728 -0.004418 -0.002350 0.000000 0.000000 0.000000
# 2 -0.004418 0.010606 -0.004025 0.000000 0.000000 0.000000
# 3 -0.002350 -0.004025 0.013402 0.000000 0.000000 0.000000
# 4 0.000000 0.000000 0.000000 0.000753 0.000000 0.000000
# 5 0.000000 0.000000 0.000000 0.000000 0.053513 0.000000
# 6 0.000000 0.000000 0.000000 0.000000 0.000000 0.044199
#
#
# Mechanical properties :
#
#
# Convention : Reuss Voigt Hill
#
# Bulk Modulus (GPa) = 38.24118 47.50793 42.87456
# Shear Modulus (GPa) = 28.32767 285.51421 156.92094
#
# Velocity S-wave (km/s) = 3.80329 12.07446 8.95147
# Velocity P-wave (km/s) = 6.23007 14.78679 11.34599
#
# Compressibility (1/GPa) = 0.02614982
#
# Stress axis : x y z
#
# Youngs Moduli (GPa) = 42.14381 94.28216 74.61364
#
# Poissons Ratio (x) = 0.41656 0.17534
# Poissons Ratio (y) = 0.18620 0.30035
# Poissons Ratio (z) = 0.09904 0.37952
#
# Static dielectric constant tensor:
#      x y z
#    x 3.384090 0.000000 0.000000 
#    y 0.000000 5.016590 0.000000 
#    z 0.000000 0.000000 3.915690 
# 
# 
# High freq. dielectric constant tensor:
#      x y z
#    x 1.726680 0.000000 0.000000 
#    y 0.000000 1.772590 0.000000 
#    z 0.000000 0.000000 1.775860 
# 
# From -- ./inp_files/25618.got.cif
#   From: 2010.03.12/outbox.cif.g09.slc.cpg/sg57_13_cif.got.tgz:25618.got - 2010.04.16 15:48:40.
