data_PCOD8230310
_publ_section_title
;
Structure prediction by ZEFSAII (Michael W. Deem and Ramdas Pophale) SiO2 
 PCOD8230310
Probable space group: P B C M
;
_chemical_formula_sum "Si O2"
_cell_formula_units_Z 64
_cell_length_a 15.076455
_cell_length_b 29.603957
_cell_length_c 8.921300
_cell_angle_alpha 90.000000
_cell_angle_beta 90.000000
_cell_angle_gamma 90.000000
_cell_volume 3981.778931
_symmetry_space_group_name_H-M "P B C M"
_symmetry_group_IT_number 57
_symmetry_cell_setting 'orthorhombic'
loop_
_space_group_symop_operation_xyz
x,y,z
-x,-y,1/2+z
x,1/2-y,-z
-x,1/2+y,1/2-z
-x,-y,-z
x,y,1/2-z
-x,1/2+y,z
x,1/2-y,1/2+z
loop_
_atom_site_type_symbol
_atom_site_label
_atom_site_fract_x
_atom_site_fract_y
_atom_site_fract_z
Si Si1 0.680053 0.462303 0.928104
Si Si2 0.879049 0.034032 0.074054
Si Si3 0.363544 0.444830 0.927437
Si Si4 0.955449 0.561626 0.576877
Si Si5 0.485415 0.204492 0.428062
Si Si6 0.535790 0.392558 0.926955
Si Si7 0.785394 0.611941 0.577904
Si Si8 0.704436 0.706179 0.924847
O O1 0.678351 0.468711 0.750000
O O2 0.780498 0.455581 0.987588
O O3 0.624206 0.418448 0.980545
O O4 0.634627 0.505926 0.999765
O O5 0.879736 0.039545 0.250000
O O6 0.905767 0.983790 0.022033
O O7 0.951371 0.069031 0.008222
O O8 0.366721 0.450243 0.750000
O O9 0.448207 0.417295 0.991482
O O10 0.275106 0.418269 0.971754
O O11 0.979288 0.558073 0.750000
O O12 0.888783 0.602789 0.541436
O O13 0.527810 0.250000 0.500000
O O14 0.482805 0.210068 0.250000
O O15 0.540763 0.159998 0.478239
O O16 0.386774 0.196961 0.489076
O O17 0.527741 0.394187 0.750000
O O18 0.764387 0.598246 0.750000
O O19 0.770326 0.664667 0.549127
O O20 0.684680 0.714503 0.750000
O O21 0.750426 0.750000 0.000000
#
# Coordination Sequence:
#
# PCOD8230310 Si02
#       8
#     8   8   8   8   8   8   8   8
#     4  10  19  34  49  63  91 128 160 190 228 276
#     4   9  17  29  46  66  87 116 152 189 226 265
#     4  11  20  30  44  68  96 124 158 194 223 258
#     4   9  17  30  46  65  89 116 149 187 225 268
#     4  10  18  31  47  67  92 119 153 190 232 270
#     4   9  19  32  47  66  92 125 157 191 229 269
#     4  10  19  32  48  67  91 127 159 182 225 280
#     4  10  19  30  47  68  92 121 153 187 228 273
#
# _framework density 16.073217
#
# number of rings (size 3 to 8) (size 9 to 14) (size 15 to 20)
#    0.000    2.250    2.500    2.250    0.000    1.500 
#    0.000    1.875    0.000    0.000    0.000    0.875 
#    0.000    6.000    0.000    0.000    0.000    0.000 
#
# Total GULP energy -793412.915885 kJ/mol
# GULP energy per Si atom -12397.076811 kJ/mol
# Density = 1.603663 g / cm^3
# Si number density = 16.073217 Si / 1000 Ang^3
#
#
#
# Elastic Constant Matrix: (Units=GPa)
#
#
# Indices 1 2 3 4 5 6 
#
# 1 98.6400 62.8509 25.4473 0.0000 0.0000 0.0000
# 2 62.8509 130.0514 36.1811 0.0000 0.0000 0.0000
# 3 25.4473 36.1811 45.2239 0.0000 0.0000 0.0000
# 4 0.0000 0.0000 0.0000 21.3983 0.0000 0.0000
# 5 0.0000 0.0000 0.0000 0.0000 19.6759 0.0000
# 6 0.0000 0.0000 0.0000 0.0000 0.0000 23.7733
#
#
#
# Elastic Compliance Matrix: (Units=1/GPa)
#
#
# Indices 1 2 3 4 5 6 
#
# 1 0.015046 -0.006323 -0.003407 0.000000 0.000000 0.000000
# 2 -0.006323 0.012548 -0.006481 0.000000 0.000000 0.000000
# 3 -0.003407 -0.006481 0.029215 0.000000 0.000000 0.000000
# 4 0.000000 0.000000 0.000000 0.046733 0.000000 0.000000
# 5 0.000000 0.000000 0.000000 0.000000 0.050823 0.000000
# 6 0.000000 0.000000 0.000000 0.000000 0.000000 0.042064
#
#
# Mechanical properties :
#
#
# Convention : Reuss Voigt Hill
#
# Bulk Modulus (GPa) = 41.00818 58.09711 49.55265
# Shear Modulus (GPa) = 21.09872 22.93190 22.01531
#
# Velocity S-wave (km/s) = 3.62700 3.78129 3.70495
# Velocity P-wave (km/s) = 6.56574 7.43559 7.01416
#
# Compressibility (1/GPa) = 0.02438538
#
# Stress axis : x y z
#
# Youngs Moduli (GPa) = 66.46256 79.69198 34.22949
#
# Poissons Ratio (x) = 0.50393 0.11663
# Poissons Ratio (y) = 0.42028 0.22184
# Poissons Ratio (z) = 0.22646 0.51648
#
# Static dielectric constant tensor:
#      x y z
#    x 3.073430 0.000000 0.000000 
#    y 0.000000 3.325550 0.000000 
#    z 0.000000 0.000000 2.984270 
# 
# 
# High freq. dielectric constant tensor:
#      x y z
#    x 1.598510 0.000000 0.000000 
#    y 0.000000 1.607320 0.000000 
#    z 0.000000 0.000000 1.613430 
# 
# From -- ./inp_files/5975.got.cif
#   From: 2010.03.12/outbox.cif.g09.slc.cpg/sg57_3_cif.got.tgz:5975.got - 2010.04.16 15:48:40.
