data_PCOD8230141
_publ_section_title
;
Structure prediction by ZEFSAII (Michael W. Deem and Ramdas Pophale) SiO2 
 PCOD8230141
Probable space group: P B C M
;
_chemical_formula_sum "Si O2"
_cell_formula_units_Z 48
_cell_length_a 11.717472
_cell_length_b 25.828036
_cell_length_c 9.012417
_cell_angle_alpha 90.000000
_cell_angle_beta 90.000000
_cell_angle_gamma 90.000000
_cell_volume 2727.511470
_symmetry_space_group_name_H-M "P B C M"
_symmetry_group_IT_number 57
_symmetry_cell_setting 'orthorhombic'
loop_
_space_group_symop_operation_xyz
x,y,z
-x,-y,1/2+z
x,1/2-y,-z
-x,1/2+y,1/2-z
-x,-y,-z
x,y,1/2-z
-x,1/2+y,z
x,1/2-y,1/2+z
loop_
_atom_site_type_symbol
_atom_site_label
_atom_site_fract_x
_atom_site_fract_y
_atom_site_fract_z
Si Si1 0.654162 0.894282 0.075692
Si Si2 0.999371 0.870338 0.916721
Si Si3 0.170742 0.462309 0.580822
Si Si4 0.198966 0.562554 0.421949
Si Si5 0.175801 0.195943 0.576168
Si Si6 0.461122 0.946684 0.575429
O O1 0.632397 0.897237 0.250000
O O2 0.720664 0.841991 0.029928
O O3 0.727649 0.943625 0.025978
O O4 0.534220 0.898482 0.989593
O O5 0.985050 0.848663 0.750000
O O6 0.132201 0.883006 0.953462
O O7 0.937469 0.925412 0.934751
O O8 0.945898 0.827487 0.025074
O O9 0.214867 0.463979 0.750000
O O10 0.139042 0.519318 0.524349
O O11 0.182415 0.547161 0.250000
O O12 0.331365 0.568173 0.463723
O O13 0.201632 0.250000 0.500000
O O14 0.169527 0.204218 0.750000
O O15 0.480721 0.951882 0.750000
O O16 0.500000 0.000000 0.500000
#
# Coordination Sequence:
#
# PCOD8230141 Si02
#       6
#     8   8   8   8   8   8
#     4  10  20  34  51  74 104 136 174 217 259 304
#     4   9  19  34  50  73 103 134 170 211 257 309
#     4  10  18  28  47  72 100 136 174 211 251 300
#     4  10  20  32  47  69 104 143 174 208 251 300
#     4  10  21  37  59  82 102 128 164 215 271 317
#     4  11  21  32  49  73 105 145 182 214 252 300
#
# _framework density 17.598459999999999
#
# number of rings (size 3 to 8) (size 9 to 14) (size 15 to 20)
#    0.000    2.000    1.667    2.500    0.000    4.000 
#    0.000    0.000    0.000    1.000    0.000    2.333 
#    0.000    0.000    0.000    0.000    0.000    0.000 
#
# Total GULP energy -595146.743915 kJ/mol
# GULP energy per Si atom -12398.890498 kJ/mol
# Density = 1.755840 g / cm^3
# Si number density = 17.598460 Si / 1000 Ang^3
#
#
#
# Elastic Constant Matrix: (Units=GPa)
#
#
# Indices 1 2 3 4 5 6 
#
# 1 98.8485 39.5541 42.4605 0.0000 0.0000 0.0000
# 2 39.5541 85.5211 45.6382 0.0000 0.0000 0.0000
# 3 42.4605 45.6382 81.8041 0.0000 0.0000 0.0000
# 4 0.0000 0.0000 0.0000 29.8480 0.0000 0.0000
# 5 0.0000 0.0000 0.0000 0.0000 26.9825 0.0000
# 6 0.0000 0.0000 0.0000 0.0000 0.0000 16.5082
#
#
#
# Elastic Compliance Matrix: (Units=1/GPa)
#
#
# Indices 1 2 3 4 5 6 
#
# 1 0.013771 -0.003638 -0.005118 0.000000 0.000000 0.000000
# 2 -0.003638 0.017611 -0.007937 0.000000 0.000000 0.000000
# 3 -0.005118 -0.007937 0.019309 0.000000 0.000000 0.000000
# 4 0.000000 0.000000 0.000000 0.033503 0.000000 0.000000
# 5 0.000000 0.000000 0.000000 0.000000 0.037061 0.000000
# 6 0.000000 0.000000 0.000000 0.000000 0.000000 0.060576
#
#
# Mechanical properties :
#
#
# Convention : Reuss Voigt Hill
#
# Bulk Modulus (GPa) = 57.78724 57.94214 57.86469
# Shear Modulus (GPa) = 22.62600 23.90247 23.26423
#
# Velocity S-wave (km/s) = 3.58953 3.68939 3.63980
# Velocity P-wave (km/s) = 7.07725 7.15156 7.11450
#
# Compressibility (1/GPa) = 0.01730486
#
# Stress axis : x y z
#
# Youngs Moduli (GPa) = 72.61831 56.78258 51.78943
#
# Poissons Ratio (x) = 0.20656 0.26507
# Poissons Ratio (y) = 0.26416 0.41105
# Poissons Ratio (z) = 0.37168 0.45068
#
# Static dielectric constant tensor:
#      x y z
#    x 3.510660 0.000000 0.000000 
#    y 0.000000 3.018680 0.000000 
#    z 0.000000 0.000000 3.343520 
# 
# 
# High freq. dielectric constant tensor:
#      x y z
#    x 1.681120 0.000000 0.000000 
#    y 0.000000 1.645070 0.000000 
#    z 0.000000 0.000000 1.691200 
# 
# From -- ./inp_files/3114.got.cif
#   From: 2010.03.12/outbox.cif.g09.slc.cpg/sg57_2_cif.got.tgz:3114.got - 2010.04.16 15:48:40.
