data_PCOD8230849
_publ_section_title
;
Structure prediction by ZEFSAII (Michael W. Deem and Ramdas Pophale) SiO2 
 PCOD8230849
Probable space group: P B C M
;
_chemical_formula_sum "Si O2"
_cell_formula_units_Z 48
_cell_length_a 28.362258
_cell_length_b 8.680178
_cell_length_c 9.957758
_cell_angle_alpha 90.000000
_cell_angle_beta 90.000000
_cell_angle_gamma 90.000000
_cell_volume 2451.494945
_symmetry_space_group_name_H-M "P B C M"
_symmetry_group_IT_number 57
_symmetry_cell_setting 'orthorhombic'
loop_
_space_group_symop_operation_xyz
x,y,z
-x,-y,1/2+z
x,1/2-y,-z
-x,1/2+y,1/2-z
-x,-y,-z
x,y,1/2-z
-x,1/2+y,z
x,1/2-y,1/2+z
loop_
_atom_site_type_symbol
_atom_site_label
_atom_site_fract_x
_atom_site_fract_y
_atom_site_fract_z
Si Si1 0.964426 0.598848 0.909914
Si Si2 0.280671 0.939310 0.250000
Si Si3 0.773211 0.433143 0.506742
Si Si4 0.286604 0.570979 0.250000
Si Si5 0.612157 0.063049 0.750000
Si Si6 0.608554 0.070310 0.250000
Si Si7 0.126876 0.893408 0.595369
Si Si8 0.551728 0.432702 0.001792
O O1 0.980287 0.626464 0.750000
O O2 0.914810 0.514366 0.905968
O O3 0.958053 0.750000 0.000000
O O4 0.000000 0.500000 0.000000
O O5 0.249713 0.002897 0.126854
O O6 0.284967 0.755591 0.250000
O O7 0.334403 0.004201 0.250000
O O8 0.772572 0.250000 0.500000
O O9 0.739734 0.497313 0.622214
O O10 0.827259 0.481195 0.535115
O O11 0.339012 0.502425 0.250000
O O12 0.613419 0.246602 0.750000
O O13 0.582498 0.002901 0.624109
O O14 0.579997 0.005579 0.125092
O O15 0.113183 0.750000 0.500000
O O16 0.136553 0.837455 0.750000
O O17 0.547704 0.250000 0.000000
O O18 0.500000 0.500000 0.000000
#
# Coordination Sequence:
#
# PCOD8230849 Si02
#       8
#     8   4   8   4   4   4   8   8
#     4  11  24  43  64  91 120 157 200 246 295 345
#     4   9  16  25  41  68  99 133 164 212 258 315
#     4   9  16  26  42  71 105 137 170 207 267 313
#     4   9  14  25  43  64  99 129 164 208 254 313
#     4   9  17  29  44  66  98 125 161 206 259 309
#     4   9  17  27  44  68  92 127 161 200 257 305
#     4  10  21  35  55  84 120 153 188 230 279 336
#     4  10  19  31  46  67  93 124 160 204 253 309
#
# _framework density 19.579888
#
# number of rings (size 3 to 8) (size 9 to 14) (size 15 to 20)
#    0.000    2.333    0.833    2.500    3.500    6.667 
#    0.000    0.000    0.000    0.000    0.000    7.000 
#    0.000    0.000    0.000    0.000    0.000    0.000 
#
# Total GULP energy -594726.126142 kJ/mol
# GULP energy per Si atom -12390.127628 kJ/mol
# Density = 1.953532 g / cm^3
# Si number density = 19.579888 Si / 1000 Ang^3
#
#
#
# Elastic Constant Matrix: (Units=GPa)
#
#
# Indices 1 2 3 4 5 6 
#
# 1 163.7723 24.7396 88.7162 0.0000 0.0000 0.0000
# 2 24.7396 32.5380 30.3110 0.0000 0.0000 0.0000
# 3 88.7162 30.3110 202.6647 0.0000 0.0000 0.0000
# 4 0.0000 0.0000 0.0000 7.1355 0.0000 0.0000
# 5 0.0000 0.0000 0.0000 0.0000 41.6833 0.0000
# 6 0.0000 0.0000 0.0000 0.0000 0.0000 21.7512
#
#
#
# Elastic Compliance Matrix: (Units=1/GPa)
#
#
# Indices 1 2 3 4 5 6 
#
# 1 0.008317 -0.003407 -0.003131 0.000000 0.000000 0.000000
# 2 -0.003407 0.037104 -0.004058 0.000000 0.000000 0.000000
# 3 -0.003131 -0.004058 0.006912 0.000000 0.000000 0.000000
# 4 0.000000 0.000000 0.000000 0.140145 0.000000 0.000000
# 5 0.000000 0.000000 0.000000 0.000000 0.023990 0.000000
# 6 0.000000 0.000000 0.000000 0.000000 0.000000 0.045975
#
#
# Mechanical properties :
#
#
# Convention : Reuss Voigt Hill
#
# Bulk Modulus (GPa) = 32.11232 76.27875 54.19553
# Shear Modulus (GPa) = 17.00595 31.12786 24.06690
#
# Velocity S-wave (km/s) = 2.95030 3.99154 3.50975
# Velocity P-wave (km/s) = 5.29547 7.76437 6.64558
#
# Compressibility (1/GPa) = 0.03114070
#
# Stress axis : x y z
#
# Youngs Moduli (GPa) = 120.23823 26.95139 144.67888
#
# Poissons Ratio (x) = 0.09181 0.45301
# Poissons Ratio (y) = 0.40961 0.58712
# Poissons Ratio (z) = 0.37649 0.10937
#
# Static dielectric constant tensor:
#      x y z
#    x 3.858060 0.000000 0.000000 
#    y 0.000000 2.932950 0.000000 
#    z 0.000000 0.000000 4.152330 
# 
# 
# High freq. dielectric constant tensor:
#      x y z
#    x 1.785380 0.000000 0.000000 
#    y 0.000000 1.693310 0.000000 
#    z 0.000000 0.000000 1.787670 
# 
# From -- ./inp_files/10200.got.cif
#   From: 2010.03.12/outbox.cif.g09.slc.cpg/sg57_6_cif.got.tgz:10200.got - 2010.04.16 15:48:40.
