data_PCOD8230283
_publ_section_title
;
Structure prediction by ZEFSAII (Michael W. Deem and Ramdas Pophale) SiO2 
 PCOD8230283
Probable space group: P B C M
;
_chemical_formula_sum "Si O2"
_cell_formula_units_Z 64
_cell_length_a 19.745804
_cell_length_b 19.885917
_cell_length_c 8.815659
_cell_angle_alpha 90.000000
_cell_angle_beta 90.000000
_cell_angle_gamma 90.000000
_cell_volume 3461.586808
_symmetry_space_group_name_H-M "P B C M"
_symmetry_group_IT_number 57
_symmetry_cell_setting 'orthorhombic'
loop_
_space_group_symop_operation_xyz
x,y,z
-x,-y,1/2+z
x,1/2-y,-z
-x,1/2+y,1/2-z
-x,-y,-z
x,y,1/2-z
-x,1/2+y,z
x,1/2-y,1/2+z
loop_
_atom_site_type_symbol
_atom_site_label
_atom_site_fract_x
_atom_site_fract_y
_atom_site_fract_z
Si Si1 0.979792 0.931923 0.424563
Si Si2 0.390052 0.181045 0.428279
Si Si3 0.160846 0.026674 0.572255
Si Si4 0.235689 0.818617 0.928793
Si Si5 0.545012 0.320038 0.570444
Si Si6 0.345032 0.910021 0.073292
Si Si7 0.881972 0.113150 0.928386
Si Si8 0.700428 0.557634 0.073786
O O1 0.990764 0.945491 0.250000
O O2 0.900086 0.918184 0.458855
O O3 0.037547 0.877234 0.471495
O O4 0.000000 0.000000 0.500000
O O5 0.362374 0.250000 0.500000
O O6 0.384886 0.188569 0.250000
O O7 0.467448 0.167830 0.477608
O O8 0.345133 0.119044 0.486831
O O9 0.164649 0.008008 0.750000
O O10 0.230339 0.060147 0.520231
O O11 0.146069 0.959661 0.477488
O O12 0.242094 0.814813 0.750000
O O13 0.264018 0.750000 0.000000
O O14 0.279471 0.880026 0.991515
O O15 0.158042 0.829601 0.979913
O O16 0.571649 0.250000 0.500000
O O17 0.555624 0.317536 0.750000
O O18 0.586857 0.381846 0.501814
O O19 0.343482 0.891395 0.250000
O O20 0.342461 0.989902 0.046416
O O21 0.867984 0.122451 0.750000
O O22 0.718722 0.565776 0.250000
#
# Coordination Sequence:
#
# PCOD8230283 Si02
#       8
#     8   8   8   8   8   8   8   8
#     4   8  16  28  46  72 102 134 170 213 259 308
#     4   9  20  39  60  82 106 138 177 221 271 328
#     4  10  18  30  50  79 109 139 177 219 264 315
#     4  12  24  37  53  75 106 145 189 229 271 326
#     4  10  20  36  57  79 107 141 182 225 267 317
#     4  11  22  36  54  78 110 144 180 221 270 322
#     4  10  18  32  51  73 104 140 177 222 271 315
#     4  10  21  36  55  79 112 146 177 220 276 325
#
# _framework density 18.488630000000001
#
# number of rings (size 3 to 8) (size 9 to 14) (size 15 to 20)
#    0.000    2.000    1.250    3.000    0.000    3.000 
#    0.000    0.000    0.000    0.750    0.000    1.750 
#    0.000    0.000    0.000    0.000    0.000    0.000 
#
# Total GULP energy -793293.663802 kJ/mol
# GULP energy per Si atom -12395.213497 kJ/mol
# Density = 1.844655 g / cm^3
# Si number density = 18.488630 Si / 1000 Ang^3
#
#
#
# Elastic Constant Matrix: (Units=GPa)
#
#
# Indices 1 2 3 4 5 6 
#
# 1 110.8094 50.3758 34.2810 0.0000 0.0000 0.0000
# 2 50.3758 91.6091 33.7278 0.0000 0.0000 0.0000
# 3 34.2810 33.7278 77.4963 0.0000 0.0000 0.0000
# 4 0.0000 0.0000 0.0000 24.8402 0.0000 0.0000
# 5 0.0000 0.0000 0.0000 0.0000 28.6138 0.0000
# 6 0.0000 0.0000 0.0000 0.0000 0.0000 23.1705
#
#
#
# Elastic Compliance Matrix: (Units=1/GPa)
#
#
# Indices 1 2 3 4 5 6 
#
# 1 0.012610 -0.005812 -0.003049 0.000000 0.000000 0.000000
# 2 -0.005812 0.015677 -0.004252 0.000000 0.000000 0.000000
# 3 -0.003049 -0.004252 0.016103 0.000000 0.000000 0.000000
# 4 0.000000 0.000000 0.000000 0.040257 0.000000 0.000000
# 5 0.000000 0.000000 0.000000 0.000000 0.034948 0.000000
# 6 0.000000 0.000000 0.000000 0.000000 0.000000 0.043158
#
#
# Mechanical properties :
#
#
# Convention : Reuss Voigt Hill
#
# Bulk Modulus (GPa) = 55.05079 57.40933 56.23006
# Shear Modulus (GPa) = 25.63653 26.09357 25.86505
#
# Velocity S-wave (km/s) = 3.72776 3.76084 3.74434
# Velocity P-wave (km/s) = 6.95474 7.06945 7.01233
#
# Compressibility (1/GPa) = 0.01816504
#
# Stress axis : x y z
#
# Youngs Moduli (GPa) = 79.30376 63.78640 62.09990
#
# Poissons Ratio (x) = 0.37070 0.18932
# Poissons Ratio (y) = 0.46089 0.26406
# Poissons Ratio (z) = 0.24177 0.27123
#
# Static dielectric constant tensor:
#      x y z
#    x 3.876790 0.000000 0.000000 
#    y 0.000000 3.194030 0.000000 
#    z 0.000000 0.000000 3.419650 
# 
# 
# High freq. dielectric constant tensor:
#      x y z
#    x 1.729210 0.000000 0.000000 
#    y 0.000000 1.684700 0.000000 
#    z 0.000000 0.000000 1.726040 
# 
# From -- ./inp_files/8428.got.cif
#   From: 2010.03.12/outbox.cif.g09.slc.cpg/sg57_5_cif.got.tgz:8428.got - 2010.04.16 15:48:40.
