data_PCOD8230895
_publ_section_title
;
Structure prediction by ZEFSAII (Michael W. Deem and Ramdas Pophale) SiO2 
 PCOD8230895
Probable space group: P B C M
;
_chemical_formula_sum "Si O2"
_cell_formula_units_Z 64
_cell_length_a 14.926228
_cell_length_b 29.576775
_cell_length_c 9.047899
_cell_angle_alpha 90.000000
_cell_angle_beta 90.000000
_cell_angle_gamma 90.000000
_cell_volume 3994.373141
_symmetry_space_group_name_H-M "P B C M"
_symmetry_group_IT_number 57
_symmetry_cell_setting 'orthorhombic'
loop_
_space_group_symop_operation_xyz
x,y,z
-x,-y,1/2+z
x,1/2-y,-z
-x,1/2+y,1/2-z
-x,-y,-z
x,y,1/2-z
-x,1/2+y,z
x,1/2-y,1/2+z
loop_
_atom_site_type_symbol
_atom_site_label
_atom_site_fract_x
_atom_site_fract_y
_atom_site_fract_z
Si Si1 0.136798 0.940056 0.425549
Si Si2 0.703686 0.388622 0.924210
Si Si3 0.618937 0.535127 0.420678
Si Si4 0.818897 0.960867 0.924321
Si Si5 0.216830 0.793776 0.921546
Si Si6 0.012837 0.794447 0.577585
Si Si7 0.030753 0.393166 0.575641
Si Si8 0.450076 0.934492 0.419929
O O1 0.136647 0.934376 0.250000
O O2 0.228028 0.920119 0.488638
O O3 0.052609 0.914545 0.492291
O O4 0.133749 0.992606 0.475200
O O5 0.711803 0.398207 0.750000
O O6 0.723769 0.336737 0.962961
O O7 0.604178 0.398323 0.982758
O O8 0.609813 0.549888 0.250000
O O9 0.718156 0.544172 0.486993
O O10 0.550898 0.564473 0.518220
O O11 0.598127 0.482429 0.438893
O O12 0.809398 0.962058 0.750000
O O13 0.879145 0.918590 0.976745
O O14 0.217799 0.783774 0.750000
O O15 0.114981 0.802127 0.975750
O O16 0.258849 0.750000 0.000000
O O17 0.970834 0.750000 0.500000
O O18 0.007277 0.785256 0.750000
O O19 0.958954 0.840111 0.534697
O O20 0.013044 0.399074 0.750000
O O21 0.452457 0.919102 0.250000
#
# Coordination Sequence:
#
# PCOD8230895 Si02
#       8
#     8   8   8   8   8   8   8   8
#     4  11  20  31  45  68  98 129 163 196 229 273
#     4  11  20  32  49  70  96 128 161 192 233 286
#     4   9  17  32  48  67  94 124 158 196 235 277
#     4   9  18  32  49  67  94 128 163 200 234 275
#     4   9  18  31  46  67  92 121 156 192 233 281
#     4   9  17  30  46  66  90 119 155 194 235 278
#     4  10  19  33  49  67  93 128 163 195 234 280
#     4  10  19  31  48  71  95 121 156 196 238 279
#
# _framework density 16.022539999999999
#
# number of rings (size 3 to 8) (size 9 to 14) (size 15 to 20)
#    0.000    2.250    2.500    1.500    0.000    2.000 
#    0.000    1.250    0.000    0.000    0.000    0.875 
#    0.000    2.000    0.000    0.000    0.000    0.000 
#
# Total GULP energy -793545.402897 kJ/mol
# GULP energy per Si atom -12399.146920 kJ/mol
# Density = 1.598607 g / cm^3
# Si number density = 16.022540 Si / 1000 Ang^3
#
#
#
# Elastic Constant Matrix: (Units=GPa)
#
#
# Indices 1 2 3 4 5 6 
#
# 1 76.3624 52.1379 26.0197 0.0000 0.0000 0.0000
# 2 52.1379 122.7303 42.9609 0.0000 0.0000 0.0000
# 3 26.0197 42.9609 48.9332 0.0000 0.0000 0.0000
# 4 0.0000 0.0000 0.0000 23.9946 0.0000 0.0000
# 5 0.0000 0.0000 0.0000 0.0000 19.5851 0.0000
# 6 0.0000 0.0000 0.0000 0.0000 0.0000 17.9156
#
#
#
# Elastic Compliance Matrix: (Units=1/GPa)
#
#
# Indices 1 2 3 4 5 6 
#
# 1 0.019072 -0.006572 -0.004372 0.000000 0.000000 0.000000
# 2 -0.006572 0.014028 -0.008821 0.000000 0.000000 0.000000
# 3 -0.004372 -0.008821 0.030505 0.000000 0.000000 0.000000
# 4 0.000000 0.000000 0.000000 0.041676 0.000000 0.000000
# 5 0.000000 0.000000 0.000000 0.000000 0.051059 0.000000
# 6 0.000000 0.000000 0.000000 0.000000 0.000000 0.055817
#
#
# Mechanical properties :
#
#
# Convention : Reuss Voigt Hill
#
# Bulk Modulus (GPa) = 41.53563 54.47363 48.00463
# Shear Modulus (GPa) = 19.25218 20.75957 20.00588
#
# Velocity S-wave (km/s) = 3.47013 3.60342 3.53740
# Velocity P-wave (km/s) = 6.48346 7.16832 6.83447
#
# Compressibility (1/GPa) = 0.02407572
#
# Stress axis : x y z
#
# Youngs Moduli (GPa) = 52.43262 71.28853 32.78165
#
# Poissons Ratio (x) = 0.46850 0.14331
# Poissons Ratio (y) = 0.34458 0.28916
# Poissons Ratio (z) = 0.22921 0.62883
#
# Static dielectric constant tensor:
#      x y z
#    x 3.113430 0.000000 0.000000 
#    y 0.000000 3.103810 0.000000 
#    z 0.000000 0.000000 2.985960 
# 
# 
# High freq. dielectric constant tensor:
#      x y z
#    x 1.597320 0.000000 0.000000 
#    y 0.000000 1.604610 0.000000 
#    z 0.000000 0.000000 1.612410 
# 
# From -- ./inp_files/5957.got.cif
#   From: 2010.03.12/outbox.cif.g09.slc.cpg/sg57_3_cif.got.tgz:5957.got - 2010.04.16 15:48:40.
