data_PCOD8230862
_publ_section_title
;
Structure prediction by ZEFSAII (Michael W. Deem and Ramdas Pophale) SiO2 
 PCOD8230862
Probable space group: P B C M
;
_chemical_formula_sum "Si O2"
_cell_formula_units_Z 56
_cell_length_a 17.547467
_cell_length_b 21.792675
_cell_length_c 8.962441
_cell_angle_alpha 90.000000
_cell_angle_beta 90.000000
_cell_angle_gamma 90.000000
_cell_volume 3427.293412
_symmetry_space_group_name_H-M "P B C M"
_symmetry_group_IT_number 57
_symmetry_cell_setting 'orthorhombic'
loop_
_space_group_symop_operation_xyz
x,y,z
-x,-y,1/2+z
x,1/2-y,-z
-x,1/2+y,1/2-z
-x,-y,-z
x,y,1/2-z
-x,1/2+y,z
x,1/2-y,1/2+z
loop_
_atom_site_type_symbol
_atom_site_label
_atom_site_fract_x
_atom_site_fract_y
_atom_site_fract_z
Si Si1 0.216277 0.094362 0.923420
Si Si2 0.389985 0.964795 0.922936
Si Si3 0.908468 0.060221 0.083672
Si Si4 0.240324 0.533655 0.573774
Si Si5 0.551403 0.913893 0.923636
Si Si6 0.352019 0.315334 0.424773
Si Si7 0.948693 0.582499 0.915412
O O1 0.218746 0.073385 0.750000
O O2 0.272775 0.150004 0.956091
O O3 0.129899 0.116326 0.964333
O O4 0.239805 0.037212 0.024763
O O5 0.371920 0.976138 0.750000
O O6 0.460383 0.918553 0.945263
O O7 0.316350 0.935606 0.003994
O O8 0.407118 0.030557 0.994362
O O9 0.891287 0.083432 0.250000
O O10 0.930208 0.989346 0.080435
O O11 0.833342 0.070815 0.984280
O O12 0.980500 0.099098 0.021928
O O13 0.242740 0.538511 0.750000
O O14 0.573914 0.915628 0.750000
O O15 0.577884 0.850799 0.998702
O O16 0.344400 0.250000 0.500000
O O17 0.368831 0.308656 0.250000
O O18 0.973240 0.602683 0.750000
#
# Coordination Sequence:
#
# PCOD8230862 Si02
#       7
#     8   8   8   8   8   8   8
#     4   9  18  31  45  61  85 119 153 190 233 272
#     4  10  19  31  47  67  94 122 151 191 236 284
#     4   9  16  25  37  56  85 117 147 179 220 261
#     4  11  19  26  42  65  90 120 155 189 223 273
#     4  10  20  33  49  69  90 118 156 193 235 285
#     4  11  22  35  51  68  93 124 158 199 239 279
#     4   8  14  25  39  56  80 111 149 183 216 261
#
# _framework density 16.339424000000001
#
# number of rings (size 3 to 8) (size 9 to 14) (size 15 to 20)
#    0.000    2.286    1.429    3.857    0.000    5.714 
#    0.000    0.000    0.000    0.000    0.000    0.000 
#    0.000    1.143    0.000   10.571    0.000    4.714 
#
# Total GULP energy -694269.050936 kJ/mol
# GULP energy per Si atom -12397.661624 kJ/mol
# Density = 1.630223 g / cm^3
# Si number density = 16.339424 Si / 1000 Ang^3
#
#
#
# Elastic Constant Matrix: (Units=GPa)
#
#
# Indices 1 2 3 4 5 6 
#
# 1 143.8447 33.6963 76.5863 0.0000 0.0000 0.0000
# 2 33.6963 42.1717 27.3272 0.0000 0.0000 0.0000
# 3 76.5863 27.3272 136.0947 0.0000 0.0000 0.0000
# 4 0.0000 0.0000 0.0000 17.1213 0.0000 0.0000
# 5 0.0000 0.0000 0.0000 0.0000 32.3944 0.0000
# 6 0.0000 0.0000 0.0000 0.0000 0.0000 11.1143
#
#
#
# Elastic Compliance Matrix: (Units=1/GPa)
#
#
# Indices 1 2 3 4 5 6 
#
# 1 0.010917 -0.005451 -0.005049 0.000000 0.000000 0.000000
# 2 -0.005451 0.029982 -0.002952 0.000000 0.000000 0.000000
# 3 -0.005049 -0.002952 0.010782 0.000000 0.000000 0.000000
# 4 0.000000 0.000000 0.000000 0.058407 0.000000 0.000000
# 5 0.000000 0.000000 0.000000 0.000000 0.030870 0.000000
# 6 0.000000 0.000000 0.000000 0.000000 0.000000 0.089974
#
#
# Mechanical properties :
#
#
# Convention : Reuss Voigt Hill
#
# Bulk Modulus (GPa) = 40.36306 66.37005 53.36655
# Shear Modulus (GPa) = 18.79030 24.42610 21.60820
#
# Velocity S-wave (km/s) = 3.39484 3.87061 3.64051
# Velocity P-wave (km/s) = 6.33428 7.78995 7.09952
#
# Compressibility (1/GPa) = 0.02477513
#
# Stress axis : x y z
#
# Youngs Moduli (GPa) = 91.59940 33.35383 92.74804
#
# Poissons Ratio (x) = 0.18182 0.46828
# Poissons Ratio (y) = 0.49934 0.27383
# Poissons Ratio (z) = 0.46248 0.09848
#
# Static dielectric constant tensor:
#      x y z
#    x 3.542130 0.000000 0.000000 
#    y 0.000000 2.500340 0.000000 
#    z 0.000000 0.000000 3.247800 
# 
# 
# High freq. dielectric constant tensor:
#      x y z
#    x 1.650420 0.000000 0.000000 
#    y 0.000000 1.547710 0.000000 
#    z 0.000000 0.000000 1.644650 
# 
# From -- ./inp_files/6978.got.cif
#   From: 2010.03.12/outbox.cif.g09.slc.cpg/sg57_4_cif.got.tgz:6978.got - 2010.04.16 15:48:40.
