data_PCOD8230951
_publ_section_title
;
Structure prediction by ZEFSAII (Michael W. Deem and Ramdas Pophale) SiO2 
 PCOD8230951
Probable space group: P B C M
;
_chemical_formula_sum "Si O2"
_cell_formula_units_Z 64
_cell_length_a 20.194412
_cell_length_b 9.295490
_cell_length_c 17.945165
_cell_angle_alpha 90.000000
_cell_angle_beta 90.000000
_cell_angle_gamma 90.000000
_cell_volume 3368.611727
_symmetry_space_group_name_H-M "P B C M"
_symmetry_group_IT_number 57
_symmetry_cell_setting 'orthorhombic'
loop_
_space_group_symop_operation_xyz
x,y,z
-x,-y,1/2+z
x,1/2-y,-z
-x,1/2+y,1/2-z
-x,-y,-z
x,y,1/2-z
-x,1/2+y,z
x,1/2-y,1/2+z
loop_
_atom_site_type_symbol
_atom_site_label
_atom_site_fract_x
_atom_site_fract_y
_atom_site_fract_z
Si Si1 0.204891 0.266746 0.916978
Si Si2 0.809912 0.030078 0.163688
Si Si3 0.560593 0.722196 0.161348
Si Si4 0.041262 0.994245 0.836128
Si Si5 0.308663 0.724215 0.338227
Si Si6 0.311706 0.451737 0.838670
Si Si7 0.946490 0.786652 0.917024
Si Si8 0.433897 0.951979 0.661075
O O1 0.210093 0.111812 0.879863
O O2 0.245898 0.382025 0.870938
O O3 0.130501 0.328696 0.919310
O O4 0.233398 0.250000 0.000000
O O5 0.798131 0.994545 0.250000
O O6 0.886133 0.074755 0.149175
O O7 0.762430 0.159791 0.137079
O O8 0.559263 0.724925 0.250000
O O9 0.624856 0.636768 0.132648
O O10 0.496025 0.639652 0.130791
O O11 0.562102 0.885062 0.129966
O O12 0.020637 0.980256 0.750000
O O13 0.987611 0.921638 0.888607
O O14 0.042102 0.160516 0.857974
O O15 0.314420 0.729816 0.250000
O O16 0.367261 0.623056 0.369709
O O17 0.316472 0.885394 0.369703
O O18 0.306879 0.449523 0.750000
O O19 0.971615 0.750000 0.000000
O O20 0.434294 0.955194 0.750000
#
# Coordination Sequence:
#
# PCOD8230951 Si02
#       8
#     8   8   8   8   8   8   8   8
#     4  10  21  36  53  74 100 134 174 212 253 304
#     4   9  18  34  53  74 102 134 166 205 256 308
#     4   9  16  25  41  68 101 135 169 208 256 304
#     4  10  20  34  54  79 105 134 172 217 263 314
#     4   9  17  29  47  73 103 132 165 208 257 306
#     4  10  19  31  49  74 101 130 168 214 260 305
#     4  10  21  37  55  76 105 139 174 214 263 318
#     4   9  15  24  40  66 101 134 164 204 253 305
#
# _framework density 18.998923999999999
#
# number of rings (size 3 to 8) (size 9 to 14) (size 15 to 20)
#    0.000    2.500    0.000    2.625    0.000    7.500 
#    0.000    1.875    0.000    0.000    0.000    7.875 
#    0.000    0.000    0.000    0.000    0.000    0.000 
#
# Total GULP energy -793632.285721 kJ/mol
# GULP energy per Si atom -12400.504464 kJ/mol
# Density = 1.895568 g / cm^3
# Si number density = 18.998924 Si / 1000 Ang^3
#
#
#
# Elastic Constant Matrix: (Units=GPa)
#
#
# Indices 1 2 3 4 5 6 
#
# 1 90.5674 47.2293 20.5646 0.0000 0.0000 0.0000
# 2 47.2293 115.9117 16.3052 0.0000 0.0000 0.0000
# 3 20.5646 16.3052 42.1981 0.0000 0.0000 0.0000
# 4 0.0000 0.0000 0.0000 13.0542 0.0000 0.0000
# 5 0.0000 0.0000 0.0000 0.0000 3.2816 0.0000
# 6 0.0000 0.0000 0.0000 0.0000 0.0000 33.3340
#
#
#
# Elastic Compliance Matrix: (Units=1/GPa)
#
#
# Indices 1 2 3 4 5 6 
#
# 1 0.015045 -0.005392 -0.005249 0.000000 0.000000 0.000000
# 2 -0.005392 0.011056 -0.001644 0.000000 0.000000 0.000000
# 3 -0.005249 -0.001644 0.026891 0.000000 0.000000 0.000000
# 4 0.000000 0.000000 0.000000 0.076604 0.000000 0.000000
# 5 0.000000 0.000000 0.000000 0.000000 0.304725 0.000000
# 6 0.000000 0.000000 0.000000 0.000000 0.000000 0.029999
#
#
# Mechanical properties :
#
#
# Convention : Reuss Voigt Hill
#
# Bulk Modulus (GPa) = 35.18380 46.31947 40.75164
# Shear Modulus (GPa) = 10.03284 20.90583 15.46934
#
# Velocity S-wave (km/s) = 2.30048 3.32078 2.85655
# Velocity P-wave (km/s) = 5.06116 6.25591 5.68998
#
# Compressibility (1/GPa) = 0.02842217
#
# Stress axis : x y z
#
# Youngs Moduli (GPa) = 66.46704 90.45242 37.18740
#
# Poissons Ratio (x) = 0.48771 0.19518
# Poissons Ratio (y) = 0.35839 0.06114
# Poissons Ratio (z) = 0.34886 0.14872
#
# Static dielectric constant tensor:
#      x y z
#    x 3.650490 0.000000 0.000000 
#    y 0.000000 3.566390 0.000000 
#    z 0.000000 0.000000 3.069640 
# 
# 
# High freq. dielectric constant tensor:
#      x y z
#    x 1.749310 0.000000 0.000000 
#    y 0.000000 1.742300 0.000000 
#    z 0.000000 0.000000 1.695500 
# 
# From -- ./inp_files/23003.got.cif
#   From: 2010.03.12/outbox.cif.g09.slc.cpg/sg57_12_cif.got.tgz:23003.got - 2010.04.16 15:48:40.
