data_PCOD8230685
_publ_section_title
;
Structure prediction by ZEFSAII (Michael W. Deem and Ramdas Pophale) SiO2 
 PCOD8230685
Probable space group: P B C M
;
_chemical_formula_sum "Si O2"
_cell_formula_units_Z 64
_cell_length_a 22.565321
_cell_length_b 19.845270
_cell_length_c 9.018679
_cell_angle_alpha 90.000000
_cell_angle_beta 90.000000
_cell_angle_gamma 90.000000
_cell_volume 4038.698725
_symmetry_space_group_name_H-M "P B C M"
_symmetry_group_IT_number 57
_symmetry_cell_setting 'orthorhombic'
loop_
_space_group_symop_operation_xyz
x,y,z
-x,-y,1/2+z
x,1/2-y,-z
-x,1/2+y,1/2-z
-x,-y,-z
x,y,1/2-z
-x,1/2+y,z
x,1/2-y,1/2+z
loop_
_atom_site_type_symbol
_atom_site_label
_atom_site_fract_x
_atom_site_fract_y
_atom_site_fract_z
Si Si1 0.818807 0.944924 0.577679
Si Si2 0.911782 0.473433 0.583422
Si Si3 0.493370 0.103181 0.084924
Si Si4 0.394413 0.320756 0.426696
Si Si5 0.994846 0.896896 0.417134
Si Si6 0.101656 0.181791 0.076142
Si Si7 0.316935 0.432610 0.924799
Si Si8 0.585092 0.470012 0.413590
O O1 0.825921 0.961420 0.750000
O O2 0.849502 0.005943 0.489817
O O3 0.849058 0.873909 0.538462
O O4 0.750874 0.941107 0.528496
O O5 0.899934 0.448397 0.750000
O O6 0.941785 0.412592 0.492061
O O7 0.955273 0.536659 0.581907
O O8 0.499684 0.133730 0.250000
O O9 0.457188 0.034513 0.089450
O O10 0.459665 0.156376 0.980652
O O11 0.559218 0.087216 0.022369
O O12 0.378132 0.250000 0.500000
O O13 0.394084 0.315323 0.250000
O O14 0.344112 0.372439 0.479425
O O15 0.005561 0.871334 0.250000
O O16 0.962024 0.838892 0.509778
O O17 0.094206 0.192988 0.250000
O O18 0.124145 0.250000 0.000000
O O19 0.324688 0.415810 0.750000
O O20 0.350255 0.503048 0.963942
O O21 0.588450 0.437793 0.250000
#
# Coordination Sequence:
#
# PCOD8230685 Si02
#       8
#     8   8   8   8   8   8   8   8
#     4   9  18  31  45  61  85 117 149 181 214 250
#     4   9  16  26  42  63  84 106 136 175 217 259
#     4   9  16  27  43  62  83 106 136 174 216 259
#     4  11  21  32  45  61  84 114 148 182 217 255
#     4   9  16  27  43  61  81 106 137 174 218 261
#     4  10  19  30  43  60  84 114 148 182 216 253
#     4   9  18  32  46  62  86 116 150 183 214 250
#     4   8  14  25  42  62  83 107 136 173 216 257
#
# _framework density 15.846689
#
# number of rings (size 3 to 8) (size 9 to 14) (size 15 to 20)
#    0.000    2.750    0.000    3.375    0.000    7.500 
#    0.000    1.250    0.000    0.000    0.000    0.000 
#    0.000    1.000    0.000    8.000    0.000    5.500 
#
# Total GULP energy -793443.200208 kJ/mol
# GULP energy per Si atom -12397.550003 kJ/mol
# Density = 1.581062 g / cm^3
# Si number density = 15.846689 Si / 1000 Ang^3
#
#
#
# Elastic Constant Matrix: (Units=GPa)
#
#
# Indices 1 2 3 4 5 6 
#
# 1 113.1302 46.0775 59.5949 0.0000 0.0000 0.0000
# 2 46.0775 20.9606 25.2078 0.0000 0.0000 0.0000
# 3 59.5949 25.2078 108.8710 0.0000 0.0000 0.0000
# 4 0.0000 0.0000 0.0000 23.5826 0.0000 0.0000
# 5 0.0000 0.0000 0.0000 0.0000 23.1995 0.0000
# 6 0.0000 0.0000 0.0000 0.0000 0.0000 13.1460
#
#
#
# Elastic Compliance Matrix: (Units=1/GPa)
#
#
# Indices 1 2 3 4 5 6 
#
# 1 0.086087 -0.183734 -0.004582 0.000000 0.000000 0.000000
# 2 -0.183734 0.458259 -0.005531 0.000000 0.000000 0.000000
# 3 -0.004582 -0.005531 0.012974 0.000000 0.000000 0.000000
# 4 0.000000 0.000000 0.000000 0.042404 0.000000 0.000000
# 5 0.000000 0.000000 0.000000 0.000000 0.043104 0.000000
# 6 0.000000 0.000000 0.000000 0.000000 0.000000 0.076068
#
#
# Mechanical properties :
#
#
# Convention : Reuss Voigt Hill
#
# Bulk Modulus (GPa) = 5.89527 56.08024 30.98775
# Shear Modulus (GPa) = 4.29874 19.45773 11.87824
#
# Velocity S-wave (km/s) = 1.64882 3.50790 2.74080
# Velocity P-wave (km/s) = 2.71165 7.20231 5.44180
#
# Compressibility (1/GPa) = 0.16962765
#
# Stress axis : x y z
#
# Youngs Moduli (GPa) = 11.61616 2.18217 77.07883
#
# Poissons Ratio (x) = 0.40094 0.35315
# Poissons Ratio (y) = 2.13428 0.42630
# Poissons Ratio (z) = 0.05322 0.01207
#
# Static dielectric constant tensor:
#      x y z
#    x 3.033100 0.000000 0.000000 
#    y 0.000000 2.752030 0.000000 
#    z 0.000000 0.000000 3.191930 
# 
# 
# High freq. dielectric constant tensor:
#      x y z
#    x 1.590770 0.000000 0.000000 
#    y 0.000000 1.566280 0.000000 
#    z 0.000000 0.000000 1.622510 
# 
# From -- ./inp_files/8728.got.cif
#   From: 2010.03.12/outbox.cif.g09.slc.cpg/sg57_5_cif.got.tgz:8728.got - 2010.04.16 15:48:40.
