data_PCOD8230043
_publ_section_title
;
Structure prediction by ZEFSAII (Michael W. Deem and Ramdas Pophale) SiO2 
 PCOD8230043
Probable space group: P B C M
;
_chemical_formula_sum "Si O2"
_cell_formula_units_Z 56
_cell_length_a 8.233020
_cell_length_b 22.166298
_cell_length_c 16.563194
_cell_angle_alpha 90.000000
_cell_angle_beta 90.000000
_cell_angle_gamma 90.000000
_cell_volume 3022.709609
_symmetry_space_group_name_H-M "P B C M"
_symmetry_group_IT_number 57
_symmetry_cell_setting 'orthorhombic'
loop_
_space_group_symop_operation_xyz
x,y,z
-x,-y,1/2+z
x,1/2-y,-z
-x,1/2+y,1/2-z
-x,-y,-z
x,y,1/2-z
-x,1/2+y,z
x,1/2-y,1/2+z
loop_
_atom_site_type_symbol
_atom_site_label
_atom_site_fract_x
_atom_site_fract_y
_atom_site_fract_z
Si Si1 0.175684 0.680652 0.159995
Si Si2 0.339224 0.787878 0.081943
Si Si3 0.944393 0.614379 0.454172
Si Si4 0.451810 0.604620 0.094901
Si Si5 0.736000 0.529985 0.343384
Si Si6 0.237865 0.916742 0.450071
Si Si7 0.342760 0.315658 0.488001
O O1 0.101556 0.678398 0.250000
O O2 0.268846 0.744925 0.151567
O O3 0.033800 0.669504 0.093750
O O4 0.305871 0.626823 0.151231
O O5 0.231232 0.848015 0.081873
O O6 0.320721 0.750000 0.000000
O O7 0.529740 0.810510 0.087913
O O8 0.066734 0.573067 0.505094
O O9 0.865748 0.571334 0.387980
O O10 0.810101 0.639088 0.518663
O O11 0.555928 0.556549 0.144606
O O12 0.555900 0.663243 0.067465
O O13 0.384364 0.572961 0.013477
O O14 0.781733 0.528046 0.250000
O O15 0.741175 0.462114 0.376411
O O16 0.265800 0.250000 0.500000
#
# Coordination Sequence:
#
# PCOD8230043 Si02
#       7
#     8   8   8   8   8   8   8
#     4  11  20  33  55  85 115 142 181 233 283 328
#     4  10  17  36  56  81 105 142 183 231 269 323
#     4  10  21  33  55  80 108 149 188 222 272 339
#     4   9  18  35  56  80 103 142 189 226 265 326
#     4  11  22  36  52  80 116 144 181 234 283 322
#     4  10  20  35  59  77 107 146 195 223 269 333
#     4   9  16  30  56  79 103 136 179 225 270 311
#
# _framework density 18.526423999999999
#
# number of rings (size 3 to 8) (size 9 to 14) (size 15 to 20)
#    0.000    2.000    5.714    1.714    2.000    0.571 
#    0.000    0.000    0.000    0.857    0.000    0.000 
#    0.000    0.000    0.000    0.000    0.000    0.000 
#
# Total GULP energy -693911.278948 kJ/mol
# GULP energy per Si atom -12391.272838 kJ/mol
# Density = 1.848426 g / cm^3
# Si number density = 18.526424 Si / 1000 Ang^3
#
#
#
# Elastic Constant Matrix: (Units=GPa)
#
#
# Indices 1 2 3 4 5 6 
#
# 1 84.3346 39.7877 22.0345 0.0000 0.0000 0.0000
# 2 39.7877 102.2999 37.5905 0.0000 0.0000 0.0000
# 3 22.0345 37.5905 52.2149 0.0000 0.0000 0.0000
# 4 0.0000 0.0000 0.0000 23.7756 0.0000 0.0000
# 5 0.0000 0.0000 0.0000 0.0000 15.1367 0.0000
# 6 0.0000 0.0000 0.0000 0.0000 0.0000 19.4090
#
#
#
# Elastic Compliance Matrix: (Units=1/GPa)
#
#
# Indices 1 2 3 4 5 6 
#
# 1 0.014831 -0.004716 -0.002863 0.000000 0.000000 0.000000
# 2 -0.004716 0.014791 -0.008658 0.000000 0.000000 0.000000
# 3 -0.002863 -0.008658 0.026593 0.000000 0.000000 0.000000
# 4 0.000000 0.000000 0.000000 0.042060 0.000000 0.000000
# 5 0.000000 0.000000 0.000000 0.000000 0.066065 0.000000
# 6 0.000000 0.000000 0.000000 0.000000 0.000000 0.051522
#
#
# Mechanical properties :
#
#
# Convention : Reuss Voigt Hill
#
# Bulk Modulus (GPa) = 42.12352 48.63052 45.37702
# Shear Modulus (GPa) = 19.51223 20.96003 20.23613
#
# Velocity S-wave (km/s) = 3.24884 3.36722 3.30856
# Velocity P-wave (km/s) = 6.07122 6.43613 6.25633
#
# Compressibility (1/GPa) = 0.02373970
#
# Stress axis : x y z
#
# Youngs Moduli (GPa) = 67.42835 67.60961 37.60376
#
# Poissons Ratio (x) = 0.31884 0.10767
# Poissons Ratio (y) = 0.31799 0.32558
# Poissons Ratio (z) = 0.19307 0.58537
#
# Static dielectric constant tensor:
#      x y z
#    x 3.635820 0.000000 0.000000 
#    y 0.000000 3.425460 0.000000 
#    z 0.000000 0.000000 3.053090 
# 
# 
# High freq. dielectric constant tensor:
#      x y z
#    x 1.724890 0.000000 0.000000 
#    y 0.000000 1.718080 0.000000 
#    z 0.000000 0.000000 1.674900 
# 
# From -- ./inp_files/21347.got.cif
#   From: 2010.03.12/outbox.cif.g09.slc.cpg/sg57_11_cif.got.tgz:21347.got - 2010.04.16 15:48:40.
