data_PCOD8230837
_publ_section_title
;
Structure prediction by ZEFSAII (Michael W. Deem and Ramdas Pophale) SiO2 
 PCOD8230837
Probable space group: P B C M
;
_chemical_formula_sum "Si O2"
_cell_formula_units_Z 64
_cell_length_a 17.346901
_cell_length_b 23.509367
_cell_length_c 8.652101
_cell_angle_alpha 90.000000
_cell_angle_beta 90.000000
_cell_angle_gamma 90.000000
_cell_volume 3528.453644
_symmetry_space_group_name_H-M "P B C M"
_symmetry_group_IT_number 57
_symmetry_cell_setting 'orthorhombic'
loop_
_space_group_symop_operation_xyz
x,y,z
-x,-y,1/2+z
x,1/2-y,-z
-x,1/2+y,1/2-z
-x,-y,-z
x,y,1/2-z
-x,1/2+y,z
x,1/2-y,1/2+z
loop_
_atom_site_type_symbol
_atom_site_label
_atom_site_fract_x
_atom_site_fract_y
_atom_site_fract_z
Si Si1 0.548146 0.809350 0.566104
Si Si2 0.576143 0.388466 0.066149
Si Si3 0.220020 0.073700 0.570474
Si Si4 0.679093 0.472395 0.569594
Si Si5 0.083502 0.995384 0.929801
Si Si6 0.182133 0.591835 0.926755
Si Si7 0.284672 0.810879 0.071246
Si Si8 0.281735 0.191700 0.934884
O O1 0.513047 0.750000 0.500000
O O2 0.543713 0.808094 0.750000
O O3 0.503391 0.863996 0.499868
O O4 0.635146 0.815662 0.510115
O O5 0.570889 0.394437 0.250000
O O6 0.642991 0.346065 0.004245
O O7 0.595028 0.451180 0.991258
O O8 0.202386 0.076831 0.750000
O O9 0.145195 0.041051 0.497529
O O10 0.229958 0.138051 0.508034
O O11 0.300815 0.039250 0.543292
O O12 0.690223 0.456883 0.750000
O O13 0.738795 0.440378 0.460072
O O14 0.076062 0.004634 0.750000
O O15 0.114154 0.931632 0.964705
O O16 0.000000 0.000000 0.000000
O O17 0.157402 0.582147 0.750000
O O18 0.202426 0.657868 0.960258
O O19 0.300684 0.804131 0.250000
O O20 0.279002 0.750000 0.000000
O O21 0.289219 0.194004 0.750000
O O22 0.243555 0.250000 0.000000
#
# Coordination Sequence:
#
# PCOD8230837 Si02
#       8
#     8   8   8   8   8   8   8   8
#     4  11  21  33  48  69  95 128 169 216 262 306
#     4  10  19  31  45  67  97 131 169 213 258 300
#     4   8  17  33  54  76 102 131 161 196 243 297
#     4   9  16  29  48  71  96 128 165 203 247 298
#     4  10  19  33  54  81 104 127 156 192 238 291
#     4   9  17  30  45  67  98 130 160 197 238 282
#     4   9  18  28  42  64  92 125 164 200 236 279
#     4  10  19  35  55  75  98 128 164 207 251 297
#
# _framework density 18.138256999999999
#
# number of rings (size 3 to 8) (size 9 to 14) (size 15 to 20)
#    0.000    2.500    0.000    5.625    0.000    4.000 
#    0.000    8.125    0.000    0.750    0.000    1.750 
#    0.000    0.000    0.000    0.000    0.000    0.000 
#
# Total GULP energy -792923.220976 kJ/mol
# GULP energy per Si atom -12389.425328 kJ/mol
# Density = 1.809697 g / cm^3
# Si number density = 18.138257 Si / 1000 Ang^3
#
#
#
# Elastic Constant Matrix: (Units=GPa)
#
#
# Indices 1 2 3 4 5 6 
#
# 1 63.4284 38.7873 24.1505 0.0000 0.0000 0.0000
# 2 38.7873 106.9471 34.7771 0.0000 0.0000 0.0000
# 3 24.1505 34.7771 67.1493 0.0000 0.0000 0.0000
# 4 0.0000 0.0000 0.0000 27.2440 0.0000 0.0000
# 5 0.0000 0.0000 0.0000 0.0000 23.5630 0.0000
# 6 0.0000 0.0000 0.0000 0.0000 0.0000 22.0055
#
#
#
# Elastic Compliance Matrix: (Units=1/GPa)
#
#
# Indices 1 2 3 4 5 6 
#
# 1 0.021287 -0.006290 -0.004398 0.000000 0.000000 0.000000
# 2 -0.006290 0.013103 -0.004524 0.000000 0.000000 0.000000
# 3 -0.004398 -0.004524 0.018817 0.000000 0.000000 0.000000
# 4 0.000000 0.000000 0.000000 0.036705 0.000000 0.000000
# 5 0.000000 0.000000 0.000000 0.000000 0.042439 0.000000
# 6 0.000000 0.000000 0.000000 0.000000 0.000000 0.045443
#
#
# Mechanical properties :
#
#
# Convention : Reuss Voigt Hill
#
# Bulk Modulus (GPa) = 43.89345 48.10605 45.99975
# Shear Modulus (GPa) = 23.16824 23.88317 23.52570
#
# Velocity S-wave (km/s) = 3.57783 3.63261 3.60533
# Velocity P-wave (km/s) = 6.42804 6.64635 6.53811
#
# Compressibility (1/GPa) = 0.02278244
#
# Stress axis : x y z
#
# Youngs Moduli (GPa) = 46.97720 76.32001 53.14367
#
# Poissons Ratio (x) = 0.48006 0.23374
# Poissons Ratio (y) = 0.29549 0.24041
# Poissons Ratio (z) = 0.20662 0.34525
#
# Static dielectric constant tensor:
#      x y z
#    x 3.284140 0.000000 0.000000 
#    y 0.000000 3.927880 0.000000 
#    z 0.000000 0.000000 3.516350 
# 
# 
# High freq. dielectric constant tensor:
#      x y z
#    x 1.668780 0.000000 0.000000 
#    y 0.000000 1.699930 0.000000 
#    z 0.000000 0.000000 1.703590 
# 
# From -- ./inp_files/7350.got.cif
#   From: 2010.03.12/outbox.cif.g09.slc.cpg/sg57_4_cif.got.tgz:7350.got - 2010.04.16 15:48:40.
