data_PCOD8230553
_publ_section_title
;
Structure prediction by ZEFSAII (Michael W. Deem and Ramdas Pophale) SiO2 
 PCOD8230553
Probable space group: P B C M
;
_chemical_formula_sum "Si O2"
_cell_formula_units_Z 36
_cell_length_a 8.688215
_cell_length_b 24.277363
_cell_length_c 9.505695
_cell_angle_alpha 90.000000
_cell_angle_beta 90.000000
_cell_angle_gamma 90.000000
_cell_volume 2005.007248
_symmetry_space_group_name_H-M "P B C M"
_symmetry_group_IT_number 57
_symmetry_cell_setting 'orthorhombic'
loop_
_space_group_symop_operation_xyz
x,y,z
-x,-y,1/2+z
x,1/2-y,-z
-x,1/2+y,1/2-z
-x,-y,-z
x,y,1/2-z
-x,1/2+y,z
x,1/2-y,1/2+z
loop_
_atom_site_type_symbol
_atom_site_label
_atom_site_fract_x
_atom_site_fract_y
_atom_site_fract_z
Si Si1 0.735777 0.507138 0.750000
Si Si2 0.762658 0.321801 0.750000
Si Si3 0.000293 0.581067 0.250000
Si Si4 0.500230 0.912263 0.750000
Si Si5 0.136269 0.750000 0.500000
Si Si6 0.161895 0.297113 0.406177
Si Si7 0.248321 0.086426 0.484900
O O1 0.584383 0.470406 0.750000
O O2 0.735391 0.542090 0.892379
O O3 0.883841 0.469022 0.750000
O O4 0.613670 0.360254 0.750000
O O5 0.758985 0.282549 0.887484
O O6 0.917659 0.359074 0.750000
O O7 0.899102 0.573937 0.389391
O O8 0.599493 0.910867 0.608801
O O9 0.024565 0.705060 0.575897
O O10 0.242631 0.250000 0.500000
O O11 0.208385 0.281485 0.250000
O O12 0.229505 0.355556 0.441694
#
# Coordination Sequence:
#
# PCOD8230553 Si02
#       7
#     4   4   4   4   4   8   8
#     4  11  22  39  62  83 116 154 203 241 290 342
#     4  11  20  39  57  84 116 156 184 228 293 355
#     4  10  20  36  62  91 114 144 194 249 298 331
#     4  10  26  40  55  78 122 168 185 232 297 354
#     4  10  18  34  62  84 114 144 186 236 290 340
#     4  10  19  33  60  92 112 143 188 242 293 333
#     4  11  21  39  60  89 116 152 198 244 285 346
#
# _framework density 17.955048000000001
#
# number of rings (size 3 to 8) (size 9 to 14) (size 15 to 20)
#    0.667    0.889    4.444    1.333    3.111    0.000 
#    2.000    1.111    0.000    0.000    0.000    0.000 
#    0.000    0.000    0.000    0.000    0.000    0.000 
#
# Total GULP energy -446270.751352 kJ/mol
# GULP energy per Si atom -12396.409760 kJ/mol
# Density = 1.791418 g / cm^3
# Si number density = 17.955048 Si / 1000 Ang^3
#
#
#
# Elastic Constant Matrix: (Units=GPa)
#
#
# Indices 1 2 3 4 5 6 
#
# 1 87.1633 43.9697 52.1673 0.0000 0.0000 0.0000
# 2 43.9697 120.8817 73.7028 0.0000 0.0000 0.0000
# 3 52.1673 73.7028 170.8231 0.0000 0.0000 0.0000
# 4 0.0000 0.0000 0.0000 41.7549 0.0000 0.0000
# 5 0.0000 0.0000 0.0000 0.0000 19.1532 0.0000
# 6 0.0000 0.0000 0.0000 0.0000 0.0000 16.2310
#
#
#
# Elastic Compliance Matrix: (Units=1/GPa)
#
#
# Indices 1 2 3 4 5 6 
#
# 1 0.015137 -0.003647 -0.003049 0.000000 0.000000 0.000000
# 2 -0.003647 0.012104 -0.004109 0.000000 0.000000 0.000000
# 3 -0.003049 -0.004109 0.008558 0.000000 0.000000 0.000000
# 4 0.000000 0.000000 0.000000 0.023949 0.000000 0.000000
# 5 0.000000 0.000000 0.000000 0.000000 0.052211 0.000000
# 6 0.000000 0.000000 0.000000 0.000000 0.000000 0.061610
#
#
# Mechanical properties :
#
#
# Convention : Reuss Voigt Hill
#
# Bulk Modulus (GPa) = 70.47355 79.83863 75.15609
# Shear Modulus (GPa) = 25.01131 29.36305 27.18718
#
# Velocity S-wave (km/s) = 3.73634 4.04835 3.89547
# Velocity P-wave (km/s) = 7.61241 8.14951 7.88554
#
# Compressibility (1/GPa) = 0.01418972
#
# Stress axis : x y z
#
# Youngs Moduli (GPa) = 66.06149 82.61578 116.85024
#
# Poissons Ratio (x) = 0.30129 0.35631
# Poissons Ratio (y) = 0.24092 0.48011
# Poissons Ratio (z) = 0.20144 0.33945
#
# Static dielectric constant tensor:
#      x y z
#    x 3.153390 0.000000 0.000000 
#    y 0.000000 3.318480 0.000000 
#    z 0.000000 0.000000 3.377200 
# 
# 
# High freq. dielectric constant tensor:
#      x y z
#    x 1.676820 0.000000 0.000000 
#    y 0.000000 1.703250 0.000000 
#    z 0.000000 0.000000 1.712270 
# 
# From -- ./inp_files/1800.got.cif
#   From: 2010.03.12/outbox.cif.g09.slc.cpg/sg57_1_cif.got.tgz:1800.got - 2010.04.16 15:48:40.
