data_PCOD8230823
_publ_section_title
;
Structure prediction by ZEFSAII (Michael W. Deem and Ramdas Pophale) SiO2 
 PCOD8230823
Probable space group: P B C M
;
_chemical_formula_sum "Si O2"
_cell_formula_units_Z 56
_cell_length_a 26.441100
_cell_length_b 5.160636
_cell_length_c 22.142937
_cell_angle_alpha 90.000000
_cell_angle_beta 90.000000
_cell_angle_gamma 90.000000
_cell_volume 3021.467803
_symmetry_space_group_name_H-M "P B C M"
_symmetry_group_IT_number 57
_symmetry_cell_setting 'orthorhombic'
loop_
_space_group_symop_operation_xyz
x,y,z
-x,-y,1/2+z
x,1/2-y,-z
-x,1/2+y,1/2-z
-x,-y,-z
x,y,1/2-z
-x,1/2+y,z
x,1/2-y,1/2+z
loop_
_atom_site_type_symbol
_atom_site_label
_atom_site_fract_x
_atom_site_fract_y
_atom_site_fract_z
Si Si1 0.470478 0.261377 0.177919
Si Si2 0.185915 0.725521 0.128630
Si Si3 0.858652 0.728489 0.070914
Si Si4 0.940553 0.729319 0.750000
Si Si5 0.704287 0.263139 0.821619
Si Si6 0.124438 0.769867 0.250000
Si Si7 0.642693 0.759022 0.821187
Si Si8 0.971320 0.731107 0.380839
O O1 0.469040 0.258257 0.250000
O O2 0.498638 0.515389 0.153431
O O3 0.413663 0.254744 0.151095
O O4 0.177651 0.452482 0.095731
O O5 0.244818 0.766832 0.140536
O O6 0.157712 0.722096 0.191746
O O7 0.165348 0.952470 0.086236
O O8 0.913476 0.757567 0.100572
O O9 0.864827 0.750000 0.000000
O O10 0.920754 0.435494 0.750000
O O11 0.975375 0.774841 0.691738
O O12 0.894608 0.934953 0.750000
O O13 0.715901 0.266781 0.750000
O O14 0.676687 0.522151 0.844458
O O15 0.668379 0.026689 0.840160
O O16 0.637949 0.736584 0.750000
O O17 0.996466 0.470951 0.407234
#
# Coordination Sequence:
#
# PCOD8230823 Si02
#       8
#     8   8   8   4   8   4   8   8
#     4   9  15  23  36  53  84 136 189 227 253 293
#     4  12  22  41  62  86 110 141 186 223 286 329
#     4  12  27  45  63  82 111 148 188 224 258 327
#     4  12  22  39  60  92 122 140 172 215 284 322
#     4  10  19  30  50  76 104 134 168 226 286 327
#     4  12  20  37  64  88 112 144 170 231 272 334
#     4   9  17  27  39  66 101 133 179 228 270 316
#     4  12  24  40  62  88 113 146 176 219 273 322
#
# _framework density 18.534039
#
# number of rings (size 3 to 8) (size 9 to 14) (size 15 to 20)
#    0.000    1.143    3.571    4.286    0.000    4.000 
#    0.000    0.000    0.000    0.000    0.000    0.000 
#    0.000    0.000    0.000    0.000    0.000  180.000 
#
# Total GULP energy -694589.543193 kJ/mol
# GULP energy per Si atom -12403.384700 kJ/mol
# Density = 1.849185 g / cm^3
# Si number density = 18.534039 Si / 1000 Ang^3
#
#
#
# Elastic Constant Matrix: (Units=GPa)
#
#
# Indices 1 2 3 4 5 6 
#
# 1 107.9591 24.6149 11.9829 0.0000 0.0000 0.0000
# 2 24.6149 103.4536 16.7846 0.0000 0.0000 0.0000
# 3 11.9829 16.7846 45.6015 0.0000 0.0000 0.0000
# 4 0.0000 0.0000 0.0000 44.1594 0.0000 0.0000
# 5 0.0000 0.0000 0.0000 0.0000 2.4054 0.0000
# 6 0.0000 0.0000 0.0000 0.0000 0.0000 33.4263
#
#
#
# Elastic Compliance Matrix: (Units=1/GPa)
#
#
# Indices 1 2 3 4 5 6 
#
# 1 0.009939 -0.002064 -0.001852 0.000000 0.000000 0.000000
# 2 -0.002064 0.010709 -0.003399 0.000000 0.000000 0.000000
# 3 -0.001852 -0.003399 0.023667 0.000000 0.000000 0.000000
# 4 0.000000 0.000000 0.000000 0.022645 0.000000 0.000000
# 5 0.000000 0.000000 0.000000 0.000000 0.415737 0.000000
# 6 0.000000 0.000000 0.000000 0.000000 0.000000 0.029917
#
#
# Mechanical properties :
#
#
# Convention : Reuss Voigt Hill
#
# Bulk Modulus (GPa) = 33.68827 40.41988 37.05407
# Shear Modulus (GPa) = 9.30858 29.57366 19.44112
#
# Velocity S-wave (km/s) = 2.24351 3.99888 3.24225
# Velocity P-wave (km/s) = 4.99269 6.57094 5.83542
#
# Compressibility (1/GPa) = 0.02968393
#
# Stress axis : x y z
#
# Youngs Moduli (GPa) = 100.61378 93.38091 42.25313
#
# Poissons Ratio (x) = 0.19277 0.07825
# Poissons Ratio (y) = 0.20770 0.14362
# Poissons Ratio (z) = 0.18633 0.31742
#
# Static dielectric constant tensor:
#      x y z
#    x 3.526030 0.000000 0.000000 
#    y 0.000000 3.758700 0.000000 
#    z 0.000000 0.000000 2.976890 
# 
# 
# High freq. dielectric constant tensor:
#      x y z
#    x 1.728560 0.000000 0.000000 
#    y 0.000000 1.745120 0.000000 
#    z 0.000000 0.000000 1.659230 
# 
# From -- ./inp_files/25855.got.cif
#   From: 2010.03.12/outbox.cif.g09.slc.cpg/sg57_13_cif.got.tgz:25855.got - 2010.04.16 15:48:40.
