data_PCOD8230405
_publ_section_title
;
Structure prediction by ZEFSAII (Michael W. Deem and Ramdas Pophale) SiO2 
 PCOD8230405
Probable space group: P B C M
;
_chemical_formula_sum "Si O2"
_cell_formula_units_Z 64
_cell_length_a 14.870882
_cell_length_b 29.671613
_cell_length_c 9.055270
_cell_angle_alpha 90.000000
_cell_angle_beta 90.000000
_cell_angle_gamma 90.000000
_cell_volume 3995.575005
_symmetry_space_group_name_H-M "P B C M"
_symmetry_group_IT_number 57
_symmetry_cell_setting 'orthorhombic'
loop_
_space_group_symop_operation_xyz
x,y,z
-x,-y,1/2+z
x,1/2-y,-z
-x,1/2+y,1/2-z
-x,-y,-z
x,y,1/2-z
-x,1/2+y,z
x,1/2-y,1/2+z
loop_
_atom_site_type_symbol
_atom_site_label
_atom_site_fract_x
_atom_site_fract_y
_atom_site_fract_z
Si Si1 0.633382 0.029684 0.079085
Si Si2 0.787907 0.706175 0.080202
Si Si3 0.000893 0.203938 0.422221
Si Si4 0.184360 0.541526 0.579771
Si Si5 0.123394 0.055327 0.075687
Si Si6 0.441876 0.444081 0.919992
Si Si7 0.285929 0.115744 0.421808
Si Si8 0.032408 0.611884 0.922731
O O1 0.656183 0.025595 0.250000
O O2 0.547995 0.062936 0.049258
O O3 0.721252 0.049021 0.001294
O O4 0.603313 0.981182 0.022391
O O5 0.764207 0.712509 0.250000
O O6 0.737075 0.663759 0.004765
O O7 0.893193 0.698831 0.054737
O O8 0.750934 0.750000 0.000000
O O9 0.966335 0.250000 0.500000
O O10 0.974366 0.205533 0.250000
O O11 0.956754 0.160133 0.497819
O O12 0.207896 0.534263 0.750000
O O13 0.129711 0.497040 0.525885
O O14 0.125796 0.585853 0.551453
O O15 0.104538 0.060416 0.250000
O O16 0.218019 0.076889 0.024611
O O17 0.045231 0.080851 0.989767
O O18 0.425735 0.458686 0.750000
O O19 0.389066 0.397730 0.955420
O O20 0.267647 0.122566 0.250000
O O21 0.012665 0.619454 0.750000
#
# Coordination Sequence:
#
# PCOD8230405 Si02
#       8
#     8   8   8   8   8   8   8   8
#     4  10  19  29  46  72  94 118 158 202 238 276
#     4   9  17  29  45  66  89 119 153 186 227 275
#     4  10  19  33  51  71  95 125 160 198 241 288
#     4  10  21  35  49  64  94 136 168 199 244 288
#     4  10  18  32  49  65  92 134 170 195 232 284
#     4   9  17  31  49  67  93 125 154 190 237 288
#     4   9  15  28  49  67  89 126 162 184 223 287
#     4  11  22  33  47  71  97 127 165 204 245 287
#
# _framework density 16.017721000000002
#
# number of rings (size 3 to 8) (size 9 to 14) (size 15 to 20)
#    0.000    2.250    2.500    1.500    0.000    2.500 
#    0.000    0.625    0.000    0.000    0.000    0.875 
#    0.000    4.000    0.000    0.000    0.000    0.000 
#
# Total GULP energy -793353.669778 kJ/mol
# GULP energy per Si atom -12396.151090 kJ/mol
# Density = 1.598126 g / cm^3
# Si number density = 16.017721 Si / 1000 Ang^3
#
#
#
# Elastic Constant Matrix: (Units=GPa)
#
#
# Indices 1 2 3 4 5 6 
#
# 1 87.3070 48.2351 45.5075 0.0000 0.0000 0.0000
# 2 48.2351 125.3648 50.9468 0.0000 0.0000 0.0000
# 3 45.5075 50.9468 70.4844 0.0000 0.0000 0.0000
# 4 0.0000 0.0000 0.0000 24.5616 0.0000 0.0000
# 5 0.0000 0.0000 0.0000 0.0000 23.1749 0.0000
# 6 0.0000 0.0000 0.0000 0.0000 0.0000 21.1783
#
#
#
# Elastic Compliance Matrix: (Units=1/GPa)
#
#
# Indices 1 2 3 4 5 6 
#
# 1 0.018094 -0.003135 -0.009416 0.000000 0.000000 0.000000
# 2 -0.003135 0.011838 -0.006532 0.000000 0.000000 0.000000
# 3 -0.009416 -0.006532 0.024988 0.000000 0.000000 0.000000
# 4 0.000000 0.000000 0.000000 0.040714 0.000000 0.000000
# 5 0.000000 0.000000 0.000000 0.000000 0.043150 0.000000
# 6 0.000000 0.000000 0.000000 0.000000 0.000000 0.047218
#
#
# Mechanical properties :
#
#
# Convention : Reuss Voigt Hill
#
# Bulk Modulus (GPa) = 59.69001 63.61503 61.65252
# Shear Modulus (GPa) = 21.76249 23.01407 22.38828
#
# Velocity S-wave (km/s) = 3.68999 3.79461 3.74266
# Velocity P-wave (km/s) = 7.44987 7.68117 7.56640
#
# Compressibility (1/GPa) = 0.01675322
#
# Stress axis : x y z
#
# Youngs Moduli (GPa) = 55.26722 84.47654 40.01873
#
# Poissons Ratio (x) = 0.26485 0.37681
# Poissons Ratio (y) = 0.17328 0.26141
# Poissons Ratio (z) = 0.52039 0.55181
#
# Static dielectric constant tensor:
#      x y z
#    x 2.994650 0.000000 0.000000 
#    y 0.000000 3.132160 0.000000 
#    z 0.000000 0.000000 3.023840 
# 
# 
# High freq. dielectric constant tensor:
#      x y z
#    x 1.596330 0.000000 0.000000 
#    y 0.000000 1.606570 0.000000 
#    z 0.000000 0.000000 1.612470 
# 
# From -- ./inp_files/5964.got.cif
#   From: 2010.03.12/outbox.cif.g09.slc.cpg/sg57_3_cif.got.tgz:5964.got - 2010.04.16 15:48:40.
