data_PCOD8230795
_publ_section_title
;
Structure prediction by ZEFSAII (Michael W. Deem and Ramdas Pophale) SiO2 
 PCOD8230795
Probable space group: P B C M
;
_chemical_formula_sum "Si O2"
_cell_formula_units_Z 64
_cell_length_a 14.956345
_cell_length_b 29.377738
_cell_length_c 8.969963
_cell_angle_alpha 90.000000
_cell_angle_beta 90.000000
_cell_angle_gamma 90.000000
_cell_volume 3941.254499
_symmetry_space_group_name_H-M "P B C M"
_symmetry_group_IT_number 57
_symmetry_cell_setting 'orthorhombic'
loop_
_space_group_symop_operation_xyz
x,y,z
-x,-y,1/2+z
x,1/2-y,-z
-x,1/2+y,1/2-z
-x,-y,-z
x,y,1/2-z
-x,1/2+y,z
x,1/2-y,1/2+z
loop_
_atom_site_type_symbol
_atom_site_label
_atom_site_fract_x
_atom_site_fract_y
_atom_site_fract_z
Si Si1 0.788235 0.878790 0.081477
Si Si2 0.488244 0.294840 0.923375
Si Si3 0.534374 0.395052 0.573185
Si Si4 0.129537 0.528700 0.923976
Si Si5 0.327648 0.959352 0.071688
Si Si6 0.057385 0.058236 0.920658
Si Si7 0.370543 0.446300 0.075185
Si Si8 0.714877 0.705314 0.424182
O O1 0.772566 0.861490 0.250000
O O2 0.890989 0.894292 0.056707
O O3 0.723624 0.921402 0.048405
O O4 0.772606 0.838181 0.968202
O O5 0.489552 0.284757 0.750000
O O6 0.541324 0.341026 0.962149
O O7 0.386615 0.301807 0.980216
O O8 0.531439 0.250000 0.000000
O O9 0.527873 0.403806 0.750000
O O10 0.622369 0.417083 0.503219
O O11 0.447410 0.415300 0.494299
O O12 0.140675 0.523420 0.750000
O O13 0.224987 0.545947 0.984772
O O14 0.047632 0.562966 0.966595
O O15 0.107422 0.479067 0.983020
O O16 0.338398 0.957909 0.250000
O O17 0.370223 0.005889 0.010567
O O18 0.063916 0.041894 0.750000
O O19 0.389594 0.454659 0.250000
O O20 0.756728 0.750000 0.500000
O O21 0.720580 0.711880 0.250000
#
# Coordination Sequence:
#
# PCOD8230795 Si02
#       8
#     8   8   8   8   8   8   8   8
#     4  10  19  30  48  72  98 128 162 195 239 289
#     4   9  19  33  50  70  92 120 154 195 239 283
#     4  11  22  36  50  69  96 130 166 201 242 286
#     4   9  18  31  48  69  95 124 159 201 240 280
#     4  11  22  34  48  69  97 132 169 205 243 283
#     4   9  17  31  49  70  95 124 158 196 239 285
#     4  11  21  33  48  69  97 133 168 201 236 280
#     4  10  19  32  49  70  97 126 159 196 239 287
#
# _framework density 16.238484
#
# number of rings (size 3 to 8) (size 9 to 14) (size 15 to 20)
#    0.000    2.000    2.500    1.875    0.000    3.000 
#    0.000    0.000    0.000    0.000    0.000    0.875 
#    0.000    2.000    0.000    0.000    0.000    0.000 
#
# Total GULP energy -793463.904957 kJ/mol
# GULP energy per Si atom -12397.873515 kJ/mol
# Density = 1.620152 g / cm^3
# Si number density = 16.238484 Si / 1000 Ang^3
#
#
#
# Elastic Constant Matrix: (Units=GPa)
#
#
# Indices 1 2 3 4 5 6 
#
# 1 84.8508 42.2117 31.8016 0.0000 0.0000 0.0000
# 2 42.2117 106.0042 38.4137 0.0000 0.0000 0.0000
# 3 31.8016 38.4137 53.8088 0.0000 0.0000 0.0000
# 4 0.0000 0.0000 0.0000 30.1927 0.0000 0.0000
# 5 0.0000 0.0000 0.0000 0.0000 18.3821 0.0000
# 6 0.0000 0.0000 0.0000 0.0000 0.0000 15.7494
#
#
#
# Elastic Compliance Matrix: (Units=1/GPa)
#
#
# Indices 1 2 3 4 5 6 
#
# 1 0.016337 -0.004056 -0.006760 0.000000 0.000000 0.000000
# 2 -0.004056 0.013733 -0.007407 0.000000 0.000000 0.000000
# 3 -0.006760 -0.007407 0.027867 0.000000 0.000000 0.000000
# 4 0.000000 0.000000 0.000000 0.033121 0.000000 0.000000
# 5 0.000000 0.000000 0.000000 0.000000 0.054401 0.000000
# 6 0.000000 0.000000 0.000000 0.000000 0.000000 0.063494
#
#
# Mechanical properties :
#
#
# Convention : Reuss Voigt Hill
#
# Bulk Modulus (GPa) = 46.52913 52.16866 49.34889
# Shear Modulus (GPa) = 19.79727 21.68063 20.73895
#
# Velocity S-wave (km/s) = 3.49543 3.65792 3.57760
# Velocity P-wave (km/s) = 6.70869 7.07367 6.89360
#
# Compressibility (1/GPa) = 0.02149191
#
# Stress axis : x y z
#
# Youngs Moduli (GPa) = 61.21243 72.81923 35.88488
#
# Poissons Ratio (x) = 0.29534 0.24257
# Poissons Ratio (y) = 0.24826 0.26579
# Poissons Ratio (z) = 0.41378 0.53934
#
# Static dielectric constant tensor:
#      x y z
#    x 3.208000 0.000000 0.000000 
#    y 0.000000 2.991740 0.000000 
#    z 0.000000 0.000000 3.130480 
# 
# 
# High freq. dielectric constant tensor:
#      x y z
#    x 1.608700 0.000000 0.000000 
#    y 0.000000 1.608570 0.000000 
#    z 0.000000 0.000000 1.634740 
# 
# From -- ./inp_files/6019.got.cif
#   From: 2010.03.12/outbox.cif.g09.slc.cpg/sg57_4_cif.got.tgz:6019.got - 2010.04.16 15:48:40.
