data_PCOD8230530
_publ_section_title
;
Structure prediction by ZEFSAII (Michael W. Deem and Ramdas Pophale) SiO2 
 PCOD8230530
Probable space group: P B C M
;
_chemical_formula_sum "Si O2"
_cell_formula_units_Z 40
_cell_length_a 10.155333
_cell_length_b 13.501966
_cell_length_c 16.575979
_cell_angle_alpha 90.000000
_cell_angle_beta 90.000000
_cell_angle_gamma 90.000000
_cell_volume 2272.847864
_symmetry_space_group_name_H-M "P B C M"
_symmetry_group_IT_number 57
_symmetry_cell_setting 'orthorhombic'
loop_
_space_group_symop_operation_xyz
x,y,z
-x,-y,1/2+z
x,1/2-y,-z
-x,1/2+y,1/2-z
-x,-y,-z
x,y,1/2-z
-x,1/2+y,z
x,1/2-y,1/2+z
loop_
_atom_site_type_symbol
_atom_site_label
_atom_site_fract_x
_atom_site_fract_y
_atom_site_fract_z
Si Si1 0.877972 0.391919 0.656277
Si Si2 0.311609 0.489076 0.454015
Si Si3 0.536055 0.349217 0.045109
Si Si4 0.098330 0.489507 0.573614
Si Si5 0.218458 0.676791 0.654224
O O1 0.852395 0.402404 0.750000
O O2 0.789749 0.476376 0.614482
O O3 0.840863 0.282173 0.626553
O O4 0.032497 0.411835 0.635937
O O5 0.400753 0.582726 0.476216
O O6 0.402970 0.400478 0.420784
O O7 0.235874 0.451516 0.535379
O O8 0.634372 0.331594 0.119490
O O9 0.494773 0.250000 0.000000
O O10 0.121708 0.594177 0.617937
O O11 0.000000 0.500000 0.500000
O O12 0.225542 0.665140 0.750000
#
# Coordination Sequence:
#
# PCOD8230530 Si02
#       5
#     8   8   8   8   8
#     4  10  19  34  55  79 110 142 176 219 272 331
#     4   9  19  33  52  81  99 139 180 221 267 310
#     4  10  18  34  55  73 107 136 181 224 262 321
#     4   9  19  34  53  78 106 139 179 223 268 316
#     4  10  20  34  56  79 106 145 180 219 275 329
#
# _framework density 17.599067000000002
#
# number of rings (size 3 to 8) (size 9 to 14) (size 15 to 20)
#    0.000    2.400    2.000    0.600    0.000    0.800 
#    7.200    0.000    0.000    1.200    0.000    0.000 
#    0.000    0.000    0.000    0.000    0.000    0.000 
#
# Total GULP energy -495823.609950 kJ/mol
# GULP energy per Si atom -12395.590249 kJ/mol
# Density = 1.755901 g / cm^3
# Si number density = 17.599067 Si / 1000 Ang^3
#
#
#
# Elastic Constant Matrix: (Units=GPa)
#
#
# Indices 1 2 3 4 5 6 
#
# 1 102.5643 76.0171 37.6358 0.0000 0.0000 0.0000
# 2 76.0171 112.6403 51.6009 0.0000 0.0000 0.0000
# 3 37.6358 51.6009 74.8304 0.0000 0.0000 0.0000
# 4 0.0000 0.0000 0.0000 28.3526 0.0000 0.0000
# 5 0.0000 0.0000 0.0000 0.0000 22.3008 0.0000
# 6 0.0000 0.0000 0.0000 0.0000 0.0000 35.9054
#
#
#
# Elastic Compliance Matrix: (Units=1/GPa)
#
#
# Indices 1 2 3 4 5 6 
#
# 1 0.019566 -0.012712 -0.001075 0.000000 0.000000 0.000000
# 2 -0.012712 0.021236 -0.008250 0.000000 0.000000 0.000000
# 3 -0.001075 -0.008250 0.019593 0.000000 0.000000 0.000000
# 4 0.000000 0.000000 0.000000 0.035270 0.000000 0.000000
# 5 0.000000 0.000000 0.000000 0.000000 0.044842 0.000000
# 6 0.000000 0.000000 0.000000 0.000000 0.000000 0.027851
#
#
# Mechanical properties :
#
#
# Convention : Reuss Voigt Hill
#
# Bulk Modulus (GPa) = 61.27037 68.94916 65.10977
# Shear Modulus (GPa) = 22.94905 25.63049 24.28977
#
# Velocity S-wave (km/s) = 3.61500 3.82036 3.71910
# Velocity P-wave (km/s) = 7.23287 7.66309 7.45109
#
# Compressibility (1/GPa) = 0.01632110
#
# Stress axis : x y z
#
# Youngs Moduli (GPa) = 51.10848 47.08901 51.03760
#
# Poissons Ratio (x) = 0.59860 0.05486
# Poissons Ratio (y) = 0.64970 0.42108
# Poissons Ratio (z) = 0.05493 0.38850
#
# Static dielectric constant tensor:
#      x y z
#    x 3.655850 0.000000 0.000000 
#    y 0.000000 3.439220 0.000000 
#    z 0.000000 0.000000 3.247310 
# 
# 
# High freq. dielectric constant tensor:
#      x y z
#    x 1.683130 0.000000 0.000000 
#    y 0.000000 1.674180 0.000000 
#    z 0.000000 0.000000 1.674160 
# 
# From -- ./inp_files/15936.got.cif
#   From: 2010.03.12/outbox.cif.g09.slc.cpg/sg57_8_cif.got.tgz:15936.got - 2010.04.16 15:48:40.
