data_PCOD8230466
_publ_section_title
;
Structure prediction by ZEFSAII (Michael W. Deem and Ramdas Pophale) SiO2 
 PCOD8230466
Probable space group: P B C M
;
_chemical_formula_sum "Si O2"
_cell_formula_units_Z 48
_cell_length_a 10.007958
_cell_length_b 18.468035
_cell_length_c 13.676228
_cell_angle_alpha 90.000000
_cell_angle_beta 90.000000
_cell_angle_gamma 90.000000
_cell_volume 2527.740550
_symmetry_space_group_name_H-M "P B C M"
_symmetry_group_IT_number 57
_symmetry_cell_setting 'orthorhombic'
loop_
_space_group_symop_operation_xyz
x,y,z
-x,-y,1/2+z
x,1/2-y,-z
-x,1/2+y,1/2-z
-x,-y,-z
x,y,1/2-z
-x,1/2+y,z
x,1/2-y,1/2+z
loop_
_atom_site_type_symbol
_atom_site_label
_atom_site_fract_x
_atom_site_fract_y
_atom_site_fract_z
Si Si1 0.852856 0.201768 0.637712
Si Si2 0.409142 0.830790 0.471264
Si Si3 0.889045 0.831192 0.028168
Si Si4 0.355032 0.099713 0.637245
Si Si5 0.661318 0.433212 0.639302
Si Si6 0.069434 0.862689 0.639810
O O1 0.822560 0.185393 0.750000
O O2 0.739266 0.164463 0.573008
O O3 0.853391 0.287568 0.614859
O O4 0.995774 0.168515 0.610096
O O5 0.450737 0.750000 0.500000
O O6 0.510512 0.858075 0.388810
O O7 0.420130 0.881582 0.566510
O O8 0.763425 0.873899 0.067970
O O9 0.845337 0.750000 0.000000
O O10 0.944009 0.873100 0.932078
O O11 0.318459 0.114933 0.750000
O O12 0.379119 0.015216 0.617717
O O13 0.622440 0.410459 0.750000
O O14 0.821885 0.425907 0.625918
O O15 0.012215 0.860772 0.750000
#
# Coordination Sequence:
#
# PCOD8230466 Si02
#       6
#     8   8   8   8   8   8
#     4  10  18  32  59  86 112 141 191 241 277 322
#     4  12  21  38  60  88 108 146 196 243 278 325
#     4  10  19  37  57  85 112 150 190 233 282 332
#     4  11  25  39  55  81 122 156 182 225 294 351
#     4  10  21  39  59  83 115 154 187 228 286 344
#     4   9  17  33  58  85 109 143 189 234 273 323
#
# _framework density 18.989291999999999
#
# number of rings (size 3 to 8) (size 9 to 14) (size 15 to 20)
#    0.000    1.667    3.333    2.500    0.000    2.000 
#    0.000    0.833    0.000    1.000    0.000    0.000 
#    0.000    0.000    0.000    0.000    0.000    0.000 
#
# Total GULP energy -595387.895234 kJ/mol
# GULP energy per Si atom -12403.914484 kJ/mol
# Density = 1.894607 g / cm^3
# Si number density = 18.989292 Si / 1000 Ang^3
#
#
#
# Elastic Constant Matrix: (Units=GPa)
#
#
# Indices 1 2 3 4 5 6 
#
# 1 71.9063 30.4896 37.0781 0.0000 0.0000 0.0000
# 2 30.4896 80.6573 47.3032 0.0000 0.0000 0.0000
# 3 37.0781 47.3032 111.5008 0.0000 0.0000 0.0000
# 4 0.0000 0.0000 0.0000 29.9729 0.0000 0.0000
# 5 0.0000 0.0000 0.0000 0.0000 34.2779 0.0000
# 6 0.0000 0.0000 0.0000 0.0000 0.0000 9.5868
#
#
#
# Elastic Compliance Matrix: (Units=1/GPa)
#
#
# Indices 1 2 3 4 5 6 
#
# 1 0.017863 -0.004351 -0.004094 0.000000 0.000000 0.000000
# 2 -0.004351 0.017565 -0.006005 0.000000 0.000000 0.000000
# 3 -0.004094 -0.006005 0.012877 0.000000 0.000000 0.000000
# 4 0.000000 0.000000 0.000000 0.033363 0.000000 0.000000
# 5 0.000000 0.000000 0.000000 0.000000 0.029173 0.000000
# 6 0.000000 0.000000 0.000000 0.000000 0.000000 0.104310
#
#
# Mechanical properties :
#
#
# Convention : Reuss Voigt Hill
#
# Bulk Modulus (GPa) = 51.53354 54.86735 53.20045
# Shear Modulus (GPa) = 19.95843 24.71374 22.33609
#
# Velocity S-wave (km/s) = 3.24549 3.61148 3.43337
# Velocity P-wave (km/s) = 6.42194 6.80786 6.61772
#
# Compressibility (1/GPa) = 0.01940484
#
# Stress axis : x y z
#
# Youngs Moduli (GPa) = 55.98102 56.93274 77.65553
#
# Poissons Ratio (x) = 0.24774 0.31793
# Poissons Ratio (y) = 0.24360 0.46629
# Poissons Ratio (z) = 0.22919 0.34186
#
# Static dielectric constant tensor:
#      x y z
#    x 3.192790 0.000000 0.000000 
#    y 0.000000 3.347450 0.000000 
#    z 0.000000 0.000000 3.733150 
# 
# 
# High freq. dielectric constant tensor:
#      x y z
#    x 1.719870 0.000000 0.000000 
#    y 0.000000 1.722260 0.000000 
#    z 0.000000 0.000000 1.757680 
# 
# From -- ./inp_files/16360.got.cif
#   From: 2010.03.12/outbox.cif.g09.slc.cpg/sg57_9_cif.got.tgz:16360.got - 2010.04.16 15:48:40.
