data_PCOD8230403
_publ_section_title
;
Structure prediction by ZEFSAII (Michael W. Deem and Ramdas Pophale) SiO2 
 PCOD8230403
Probable space group: P B C M
;
_chemical_formula_sum "Si O2"
_cell_formula_units_Z 56
_cell_length_a 13.775642
_cell_length_b 28.156833
_cell_length_c 8.585280
_cell_angle_alpha 90.000000
_cell_angle_beta 90.000000
_cell_angle_gamma 90.000000
_cell_volume 3330.045110
_symmetry_space_group_name_H-M "P B C M"
_symmetry_group_IT_number 57
_symmetry_cell_setting 'orthorhombic'
loop_
_space_group_symop_operation_xyz
x,y,z
-x,-y,1/2+z
x,1/2-y,-z
-x,1/2+y,1/2-z
-x,-y,-z
x,y,1/2-z
-x,1/2+y,z
x,1/2-y,1/2+z
loop_
_atom_site_type_symbol
_atom_site_label
_atom_site_fract_x
_atom_site_fract_y
_atom_site_fract_z
Si Si1 0.604874 0.011383 0.563935
Si Si2 0.767299 0.201136 0.564765
Si Si3 0.785748 0.538641 0.932984
Si Si4 0.988997 0.200594 0.565420
Si Si5 0.295991 0.603764 0.575196
Si Si6 0.069244 0.105547 0.066082
Si Si7 0.895726 0.047343 0.573419
O O1 0.607280 0.011575 0.750000
O O2 0.637127 0.063307 0.494783
O O3 0.500000 0.000000 0.500000
O O4 0.680061 0.971916 0.504850
O O5 0.721859 0.250000 0.500000
O O6 0.764110 0.201370 0.750000
O O7 0.703403 0.156541 0.498097
O O8 0.877999 0.195425 0.506406
O O9 0.775124 0.545495 0.750000
O O10 0.825084 0.587298 0.010135
O O11 0.860886 0.496492 0.969710
O O12 0.031967 0.250000 0.500000
O O13 0.995764 0.199722 0.750000
O O14 0.053423 0.158225 0.497954
O O15 0.334738 0.608670 0.750000
O O16 0.183957 0.588555 0.573134
O O17 0.061602 0.106201 0.250000
O O18 0.992979 0.068295 0.997026
O O19 0.914124 0.029569 0.750000
#
# Coordination Sequence:
#
# PCOD8230403 Si02
#       7
#     8   8   8   8   8   8   8
#     4  10  20  36  56  76  99 128 162 205 256 309
#     4   9  16  28  44  66  95 130 166 201 239 283
#     4  11  22  35  50  72  98 128 166 207 249 300
#     4  10  19  32  48  68  97 134 174 212 249 289
#     4   8  15  29  48  68  95 131 164 196 242 295
#     4  12  22  32  47  70  99 135 173 208 247 294
#     4  10  18  32  48  67  98 135 169 204 245 291
#
# _framework density 16.816589
#
# number of rings (size 3 to 8) (size 9 to 14) (size 15 to 20)
#    0.000    2.000    1.429    5.143    0.000    0.571 
#    0.000    1.429    0.000    0.000    0.000    1.000 
#    0.000    2.286    0.000    0.000    0.000    0.000 
#
# Total GULP energy -694174.241074 kJ/mol
# GULP energy per Si atom -12395.968591 kJ/mol
# Density = 1.677831 g / cm^3
# Si number density = 16.816589 Si / 1000 Ang^3
#
#
#
# Elastic Constant Matrix: (Units=GPa)
#
#
# Indices 1 2 3 4 5 6 
#
# 1 88.4588 54.3487 22.7589 0.0000 0.0000 0.0000
# 2 54.3487 97.8000 10.8477 0.0000 0.0000 0.0000
# 3 22.7589 10.8477 56.2364 0.0000 0.0000 0.0000
# 4 0.0000 0.0000 0.0000 28.2327 0.0000 0.0000
# 5 0.0000 0.0000 0.0000 0.0000 22.7652 0.0000
# 6 0.0000 0.0000 0.0000 0.0000 0.0000 16.6692
#
#
#
# Elastic Compliance Matrix: (Units=1/GPa)
#
#
# Indices 1 2 3 4 5 6 
#
# 1 0.018808 -0.009817 -0.005718 0.000000 0.000000 0.000000
# 2 -0.009817 0.015573 0.000969 0.000000 0.000000 0.000000
# 3 -0.005718 0.000969 0.019909 0.000000 0.000000 0.000000
# 4 0.000000 0.000000 0.000000 0.035420 0.000000 0.000000
# 5 0.000000 0.000000 0.000000 0.000000 0.043927 0.000000
# 6 0.000000 0.000000 0.000000 0.000000 0.000000 0.059991
#
#
# Mechanical properties :
#
#
# Convention : Reuss Voigt Hill
#
# Bulk Modulus (GPa) = 39.74905 46.48953 43.11929
# Shear Modulus (GPa) = 21.63140 23.83605 22.73373
#
# Velocity S-wave (km/s) = 3.59041 3.76894 3.68076
# Velocity P-wave (km/s) = 6.39345 6.82971 6.61518
#
# Compressibility (1/GPa) = 0.02515783
#
# Stress axis : x y z
#
# Youngs Moduli (GPa) = 53.17011 64.21319 50.22824
#
# Poissons Ratio (x) = 0.63041 0.28719
# Poissons Ratio (y) = 0.52199 -0.04868
# Poissons Ratio (z) = 0.30401 -0.06223
#
# Static dielectric constant tensor:
#      x y z
#    x 2.891490 0.000000 0.000000 
#    y 0.000000 3.399850 0.000000 
#    z 0.000000 0.000000 3.131220 
# 
# 
# High freq. dielectric constant tensor:
#      x y z
#    x 1.603320 0.000000 0.000000 
#    y 0.000000 1.654330 0.000000 
#    z 0.000000 0.000000 1.649230 
# 
# From -- ./inp_files/5911.got.cif
#   From: 2010.03.12/outbox.cif.g09.slc.cpg/sg57_3_cif.got.tgz:5911.got - 2010.04.16 15:48:40.
