data_PCOD8230120
_publ_section_title
;
Structure prediction by ZEFSAII (Michael W. Deem and Ramdas Pophale) SiO2 
 PCOD8230120
Probable space group: P B C M
;
_chemical_formula_sum "Si O2"
_cell_formula_units_Z 56
_cell_length_a 19.235603
_cell_length_b 18.092869
_cell_length_c 8.968330
_cell_angle_alpha 90.000000
_cell_angle_beta 90.000000
_cell_angle_gamma 90.000000
_cell_volume 3121.223184
_symmetry_space_group_name_H-M "P B C M"
_symmetry_group_IT_number 57
_symmetry_cell_setting 'orthorhombic'
loop_
_space_group_symop_operation_xyz
x,y,z
-x,-y,1/2+z
x,1/2-y,-z
-x,1/2+y,1/2-z
-x,-y,-z
x,y,1/2-z
-x,1/2+y,z
x,1/2-y,1/2+z
loop_
_atom_site_type_symbol
_atom_site_label
_atom_site_fract_x
_atom_site_fract_y
_atom_site_fract_z
Si Si1 0.071049 0.522921 0.575197
Si Si2 0.401148 0.830191 0.074212
Si Si3 0.801458 0.543265 0.921128
Si Si4 0.551393 0.826798 0.421859
Si Si5 0.140583 0.675701 0.926237
Si Si6 0.701992 0.670832 0.573836
Si Si7 0.728985 0.389738 0.578341
O O1 0.063127 0.513828 0.750000
O O2 0.130226 0.466897 0.519989
O O3 0.090538 0.607154 0.531328
O O4 0.000000 0.500000 0.500000
O O5 0.386330 0.822949 0.250000
O O6 0.477894 0.867927 0.044063
O O7 0.394702 0.750000 0.000000
O O8 0.345938 0.884110 0.998166
O O9 0.824649 0.553595 0.750000
O O10 0.760525 0.614435 0.983795
O O11 0.750171 0.474460 0.937338
O O12 0.545333 0.750000 0.500000
O O13 0.555570 0.808107 0.250000
O O14 0.625272 0.863652 0.469388
O O15 0.146557 0.685577 0.750000
O O16 0.108917 0.750000 0.000000
O O17 0.216970 0.662975 0.993329
O O18 0.714677 0.750000 0.500000
O O19 0.708671 0.680292 0.750000
O O20 0.725765 0.364467 0.750000
#
# Coordination Sequence:
#
# PCOD8230120 Si02
#       7
#     8   8   8   8   8   8   8
#     4  10  21  37  58  81 106 134 165 199 240 290
#     4  10  18  28  43  65  94 128 166 208 249 292
#     4   9  19  35  54  74  99 130 163 198 242 296
#     4   8  15  27  44  65  91 124 162 204 250 293
#     4  10  20  34  53  78 104 132 166 204 242 286
#     4   9  17  32  53  75  97 125 164 209 252 295
#     4  10  19  31  47  68  97 133 167 202 244 292
#
# _framework density 17.941685
#
# number of rings (size 3 to 8) (size 9 to 14) (size 15 to 20)
#    0.000    2.571    0.000    2.143    0.000    3.429 
#    0.000    1.429    0.000    0.000    0.000    0.000 
#    0.000    0.000    0.000    0.000    0.000    0.000 
#
# Total GULP energy -693973.067542 kJ/mol
# GULP energy per Si atom -12392.376206 kJ/mol
# Density = 1.790085 g / cm^3
# Si number density = 17.941685 Si / 1000 Ang^3
#
#
#
# Elastic Constant Matrix: (Units=GPa)
#
#
# Indices 1 2 3 4 5 6 
#
# 1 159.7783 69.5381 63.4648 0.0000 0.0000 0.0000
# 2 69.5381 80.1869 41.4836 0.0000 0.0000 0.0000
# 3 63.4648 41.4836 78.1828 0.0000 0.0000 0.0000
# 4 0.0000 0.0000 0.0000 24.9374 0.0000 0.0000
# 5 0.0000 0.0000 0.0000 0.0000 38.4460 0.0000
# 6 0.0000 0.0000 0.0000 0.0000 0.0000 20.5235
#
#
#
# Elastic Compliance Matrix: (Units=1/GPa)
#
#
# Indices 1 2 3 4 5 6 
#
# 1 0.011607 -0.007156 -0.005626 0.000000 0.000000 0.000000
# 2 -0.007156 0.021601 -0.005653 0.000000 0.000000 0.000000
# 3 -0.005626 -0.005653 0.020356 0.000000 0.000000 0.000000
# 4 0.000000 0.000000 0.000000 0.040100 0.000000 0.000000
# 5 0.000000 0.000000 0.000000 0.000000 0.026011 0.000000
# 6 0.000000 0.000000 0.000000 0.000000 0.000000 0.048725
#
#
# Mechanical properties :
#
#
# Convention : Reuss Voigt Hill
#
# Bulk Modulus (GPa) = 59.89208 74.12454 67.00831
# Shear Modulus (GPa) = 23.71546 26.35882 25.03714
#
# Velocity S-wave (km/s) = 3.63961 3.83709 3.73966
# Velocity P-wave (km/s) = 7.14957 7.81248 7.48837
#
# Compressibility (1/GPa) = 0.01669670
#
# Stress axis : x y z
#
# Youngs Moduli (GPa) = 86.15174 46.29507 49.12478
#
# Poissons Ratio (x) = 0.33127 0.27635
# Poissons Ratio (y) = 0.61647 0.27768
# Poissons Ratio (z) = 0.48465 0.26169
#
# Static dielectric constant tensor:
#      x y z
#    x 3.648840 0.000000 0.000000 
#    y 0.000000 3.165030 0.000000 
#    z 0.000000 0.000000 3.288430 
# 
# 
# High freq. dielectric constant tensor:
#      x y z
#    x 1.700790 0.000000 0.000000 
#    y 0.000000 1.666750 0.000000 
#    z 0.000000 0.000000 1.702990 
# 
# From -- ./inp_files/8341.got.cif
#   From: 2010.03.12/outbox.cif.g09.slc.cpg/sg57_5_cif.got.tgz:8341.got - 2010.04.16 15:48:40.
