data_PCOD8230684
_publ_section_title
;
Structure prediction by ZEFSAII (Michael W. Deem and Ramdas Pophale) SiO2 
 PCOD8230684
Probable space group: P B C M
;
_chemical_formula_sum "Si O2"
_cell_formula_units_Z 64
_cell_length_a 22.719126
_cell_length_b 19.920399
_cell_length_c 9.137354
_cell_angle_alpha 90.000000
_cell_angle_beta 90.000000
_cell_angle_gamma 90.000000
_cell_volume 4135.329350
_symmetry_space_group_name_H-M "P B C M"
_symmetry_group_IT_number 57
_symmetry_cell_setting 'orthorhombic'
loop_
_space_group_symop_operation_xyz
x,y,z
-x,-y,1/2+z
x,1/2-y,-z
-x,1/2+y,1/2-z
-x,-y,-z
x,y,1/2-z
-x,1/2+y,z
x,1/2-y,1/2+z
loop_
_atom_site_type_symbol
_atom_site_label
_atom_site_fract_x
_atom_site_fract_y
_atom_site_fract_z
Si Si1 0.687333 0.445432 0.922197
Si Si2 0.178757 0.945342 0.579201
Si Si3 0.004761 0.603052 0.584443
Si Si4 0.086559 0.026450 0.414882
Si Si5 0.100186 0.682160 0.422213
Si Si6 0.386460 0.817250 0.916658
Si Si7 0.406920 0.484297 0.582568
Si Si8 0.484185 0.911802 0.917112
O O1 0.683951 0.453118 0.750000
O O2 0.754304 0.443365 0.976645
O O3 0.654991 0.377528 0.975377
O O4 0.653338 0.510139 0.990000
O O5 0.173656 0.962232 0.750000
O O6 0.149776 0.873389 0.545465
O O7 0.147089 0.005075 0.492070
O O8 0.993196 0.628418 0.750000
O O9 0.042989 0.536134 0.587032
O O10 0.038086 0.660257 0.492544
O O11 0.942782 0.587435 0.505278
O O12 0.099688 0.050881 0.250000
O O13 0.122042 0.750000 0.500000
O O14 0.091290 0.693810 0.250000
O O15 0.370724 0.802652 0.750000
O O16 0.455603 0.837724 0.936908
O O17 0.371131 0.750000 0.000000
O O18 0.388871 0.494138 0.750000
O O19 0.444472 0.414554 0.559199
O O20 0.452720 0.541488 0.535373
O O21 0.469732 0.936319 0.750000
#
# Coordination Sequence:
#
# PCOD8230684 Si02
#       8
#     8   8   8   8   8   8   8   8
#     4   9  18  31  42  55  81 113 140 170 208 243
#     4   9  18  31  44  57  79 114 147 171 202 247
#     4   9  16  27  43  61  81 106 135 168 210 255
#     4   9  16  26  42  63  83 102 130 172 214 248
#     4  10  19  30  43  60  83 112 146 179 209 242
#     4   9  17  28  40  55  78 108 139 170 202 237
#     4   9  15  24  41  61  76  96 130 168 205 247
#     4   8  15  27  40  55  78 103 126 161 210 251
#
# _framework density 15.476397
#
# number of rings (size 3 to 8) (size 9 to 14) (size 15 to 20)
#    0.000    3.000    0.000    2.250    0.000    7.000 
#    0.000    0.000    0.000    0.000    0.000    0.000 
#    0.000    1.000    0.000    5.250    0.000    5.125 
#
# Total GULP energy -793068.975416 kJ/mol
# GULP energy per Si atom -12391.702741 kJ/mol
# Density = 1.544117 g / cm^3
# Si number density = 15.476397 Si / 1000 Ang^3
#
#
#
# Elastic Constant Matrix: (Units=GPa)
#
#
# Indices 1 2 3 4 5 6 
#
# 1 120.9633 44.2963 48.2396 0.0000 0.0000 0.0000
# 2 44.2963 19.3330 19.1020 0.0000 0.0000 0.0000
# 3 48.2396 19.1020 70.0863 0.0000 0.0000 0.0000
# 4 0.0000 0.0000 0.0000 22.1762 0.0000 0.0000
# 5 0.0000 0.0000 0.0000 0.0000 23.8892 0.0000
# 6 0.0000 0.0000 0.0000 0.0000 0.0000 15.2502
#
#
#
# Elastic Compliance Matrix: (Units=1/GPa)
#
#
# Indices 1 2 3 4 5 6 
#
# 1 0.052412 -0.115565 -0.004577 0.000000 0.000000 0.000000
# 2 -0.115565 0.325603 -0.009201 0.000000 0.000000 0.000000
# 3 -0.004577 -0.009201 0.019926 0.000000 0.000000 0.000000
# 4 0.000000 0.000000 0.000000 0.045093 0.000000 0.000000
# 5 0.000000 0.000000 0.000000 0.000000 0.041860 0.000000
# 6 0.000000 0.000000 0.000000 0.000000 0.000000 0.065573
#
#
# Mechanical properties :
#
#
# Convention : Reuss Voigt Hill
#
# Bulk Modulus (GPa) = 7.18111 48.18427 27.68269
# Shear Modulus (GPa) = 5.84405 18.84609 12.34507
#
# Velocity S-wave (km/s) = 1.94533 3.49339 2.82737
# Velocity P-wave (km/s) = 3.11381 6.89009 5.34645
#
# Compressibility (1/GPa) = 0.13925433
#
# Stress axis : x y z
#
# Youngs Moduli (GPa) = 19.07962 3.07123 50.18515
#
# Poissons Ratio (x) = 0.35493 0.22971
# Poissons Ratio (y) = 2.20494 0.46174
# Poissons Ratio (z) = 0.08733 0.02826
#
# Static dielectric constant tensor:
#      x y z
#    x 3.085740 0.000000 0.000000 
#    y 0.000000 2.710870 0.000000 
#    z 0.000000 0.000000 3.071880 
# 
# 
# High freq. dielectric constant tensor:
#      x y z
#    x 1.580930 0.000000 0.000000 
#    y 0.000000 1.545970 0.000000 
#    z 0.000000 0.000000 1.605680 
# 
# From -- ./inp_files/9587.got.cif
#   From: 2010.03.12/outbox.cif.g09.slc.cpg/sg57_5_cif.got.tgz:9587.got - 2010.04.16 15:48:40.
