data_PCOD8230705
_publ_section_title
;
Structure prediction by ZEFSAII (Michael W. Deem and Ramdas Pophale) SiO2 
 PCOD8230705
Probable space group: P B C M
;
_chemical_formula_sum "Si O2"
_cell_formula_units_Z 64
_cell_length_a 21.089153
_cell_length_b 19.187344
_cell_length_c 9.054086
_cell_angle_alpha 90.000000
_cell_angle_beta 90.000000
_cell_angle_gamma 90.000000
_cell_volume 3663.689120
_symmetry_space_group_name_H-M "P B C M"
_symmetry_group_IT_number 57
_symmetry_cell_setting 'orthorhombic'
loop_
_space_group_symop_operation_xyz
x,y,z
-x,-y,1/2+z
x,1/2-y,-z
-x,1/2+y,1/2-z
-x,-y,-z
x,y,1/2-z
-x,1/2+y,z
x,1/2-y,1/2+z
loop_
_atom_site_type_symbol
_atom_site_label
_atom_site_fract_x
_atom_site_fract_y
_atom_site_fract_z
Si Si1 0.695212 0.675181 0.925108
Si Si2 0.188140 0.577991 0.076209
Si Si3 0.814251 0.581496 0.922102
Si Si4 0.062269 0.917761 0.416540
Si Si5 0.437781 0.822363 0.579659
Si Si6 0.426747 0.325356 0.924834
Si Si7 0.060644 0.083793 0.416357
Si Si8 0.300467 0.824289 0.923515
O O1 0.687258 0.683371 0.750000
O O2 0.754233 0.627192 0.967574
O O3 0.705898 0.750000 0.000000
O O4 0.632536 0.636933 0.994431
O O5 0.178276 0.585869 0.250000
O O6 0.200335 0.497950 0.031778
O O7 0.248137 0.621827 0.017650
O O8 0.125501 0.608377 0.998354
O O9 0.829787 0.586680 0.750000
O O10 0.875327 0.611377 0.007306
O O11 0.062921 0.889364 0.250000
O O12 0.000593 0.886493 0.497981
O O13 0.059640 0.000753 0.420657
O O14 0.438392 0.750000 0.500000
O O15 0.438969 0.803327 0.750000
O O16 0.504369 0.863127 0.543255
O O17 0.370319 0.858907 0.540437
O O18 0.413372 0.319647 0.750000
O O19 0.429515 0.250000 0.000000
O O20 0.058505 0.112248 0.250000
O O21 0.292446 0.812274 0.750000
O O22 0.291258 0.750000 0.000000
#
# Coordination Sequence:
#
# PCOD8230705 Si02
#       8
#     8   8   8   8   8   8   8   8
#     4  10  19  30  45  65  89 116 146 181 221 264
#     4   9  17  30  47  66  89 118 150 181 215 258
#     4   9  18  31  46  65  89 117 148 181 217 259
#     4   9  16  26  42  65  91 116 144 181 220 256
#     4   8  14  24  39  61  85 110 142 179 218 256
#     4   9  15  24  40  61  85 111 142 181 219 257
#     4   9  16  26  43  66  89 114 145 181 219 258
#     4   9  17  29  46  67  91 118 147 181 220 261
#
# _framework density 17.468730000000001
#
# number of rings (size 3 to 8) (size 9 to 14) (size 15 to 20)
#    0.000    3.000    0.000    2.250    0.000    5.000 
#    0.000    0.000    0.000    1.500    0.000    5.250 
#    0.000    0.000    0.000    0.000    0.000    4.000 
#
# Total GULP energy -792855.187304 kJ/mol
# GULP energy per Si atom -12388.362302 kJ/mol
# Density = 1.742897 g / cm^3
# Si number density = 17.468730 Si / 1000 Ang^3
#
#
#
# Elastic Constant Matrix: (Units=GPa)
#
#
# Indices 1 2 3 4 5 6 
#
# 1 219.7476 50.2722 75.4458 0.0000 0.0000 0.0000
# 2 50.2722 34.5020 22.6153 0.0000 0.0000 0.0000
# 3 75.4458 22.6153 78.3184 0.0000 0.0000 0.0000
# 4 0.0000 0.0000 0.0000 12.9652 0.0000 0.0000
# 5 0.0000 0.0000 0.0000 0.0000 28.5528 0.0000
# 6 0.0000 0.0000 0.0000 0.0000 0.0000 23.2572
#
#
#
# Elastic Compliance Matrix: (Units=1/GPa)
#
#
# Indices 1 2 3 4 5 6 
#
# 1 0.008470 -0.008626 -0.005669 0.000000 0.000000 0.000000
# 2 -0.008626 0.044536 -0.004550 0.000000 0.000000 0.000000
# 3 -0.005669 -0.004550 0.019543 0.000000 0.000000 0.000000
# 4 0.000000 0.000000 0.000000 0.077130 0.000000 0.000000
# 5 0.000000 0.000000 0.000000 0.000000 0.035023 0.000000
# 6 0.000000 0.000000 0.000000 0.000000 0.000000 0.042997
#
#
# Mechanical properties :
#
#
# Convention : Reuss Voigt Hill
#
# Bulk Modulus (GPa) = 28.68733 69.91497 49.30115
# Shear Modulus (GPa) = 18.04994 25.23736 21.64365
#
# Velocity S-wave (km/s) = 3.21794 3.80507 3.52375
# Velocity P-wave (km/s) = 5.50133 7.70808 6.69624
#
# Compressibility (1/GPa) = 0.03485859
#
# Stress axis : x y z
#
# Youngs Moduli (GPa) = 118.05826 22.45390 51.16881
#
# Poissons Ratio (x) = 0.19369 0.29006
# Poissons Ratio (y) = 1.01841 0.23283
# Poissons Ratio (z) = 0.66924 0.10217
#
# Static dielectric constant tensor:
#      x y z
#    x 4.072060 0.000000 0.000000 
#    y 0.000000 2.660510 0.000000 
#    z 0.000000 0.000000 5.626660 
# 
# 
# High freq. dielectric constant tensor:
#      x y z
#    x 1.706400 0.000000 0.000000 
#    y 0.000000 1.599120 0.000000 
#    z 0.000000 0.000000 1.682570 
# 
# From -- ./inp_files/8731.got.cif
#   From: 2010.03.12/outbox.cif.g09.slc.cpg/sg57_5_cif.got.tgz:8731.got - 2010.04.16 15:48:40.
