data_PCOD8230913
_publ_section_title
;
Structure prediction by ZEFSAII (Michael W. Deem and Ramdas Pophale) SiO2 
 PCOD8230913
Probable space group: P B C M
;
_chemical_formula_sum "Si O2"
_cell_formula_units_Z 64
_cell_length_a 15.667695
_cell_length_b 28.405393
_cell_length_c 8.740570
_cell_angle_alpha 90.000000
_cell_angle_beta 90.000000
_cell_angle_gamma 90.000000
_cell_volume 3889.964753
_symmetry_space_group_name_H-M "P B C M"
_symmetry_group_IT_number 57
_symmetry_cell_setting 'orthorhombic'
loop_
_space_group_symop_operation_xyz
x,y,z
-x,-y,1/2+z
x,1/2-y,-z
-x,1/2+y,1/2-z
-x,-y,-z
x,y,1/2-z
-x,1/2+y,z
x,1/2-y,1/2+z
loop_
_atom_site_type_symbol
_atom_site_label
_atom_site_fract_x
_atom_site_fract_y
_atom_site_fract_z
Si Si1 0.318630 0.949647 0.928913
Si Si2 0.503625 0.549877 0.426452
Si Si3 0.001345 0.551197 0.930651
Si Si4 0.839110 0.609978 0.569564
Si Si5 0.169551 0.605342 0.572663
Si Si6 0.095174 0.299332 0.568801
Si Si7 0.688169 0.552400 0.430227
Si Si8 0.912217 0.202097 0.928597
O O1 0.309738 0.961677 0.750000
O O2 0.412314 0.925667 0.964674
O O3 0.250348 0.910579 0.975103
O O4 0.303867 0.997621 0.022882
O O5 0.500000 0.500000 0.500000
O O6 0.511614 0.539977 0.250000
O O7 0.593731 0.573872 0.474987
O O8 0.998676 0.547174 0.750000
O O9 0.086382 0.577595 0.986005
O O10 0.919320 0.579620 0.990224
O O11 0.000000 0.500000 0.000000
O O12 0.843609 0.618075 0.750000
O O13 0.840034 0.660312 0.486054
O O14 0.753237 0.583250 0.526330
O O15 0.186670 0.594621 0.750000
O O16 0.156043 0.660855 0.544123
O O17 0.127478 0.250000 0.500000
O O18 0.094342 0.296038 0.750000
O O19 0.000778 0.311519 0.508616
O O20 0.708022 0.556631 0.250000
O O21 0.931553 0.209242 0.750000
O O22 0.873997 0.250000 0.000000
#
# Coordination Sequence:
#
# PCOD8230913 Si02
#       8
#     8   8   8   8   8   8   8   8
#     4  10  19  31  48  72  98 129 166 204 242 284
#     4   8  16  30  47  67  95 125 159 202 245 286
#     4  10  21  34  45  61  93 131 164 194 231 275
#     4  11  21  35  50  70  98 130 165 204 242 287
#     4  10  20  34  48  66  96 131 161 197 242 288
#     4  11  21  34  53  74  96 126 162 203 247 290
#     4  10  19  32  49  71  98 131 165 200 245 294
#     4  10  19  34  52  71  95 124 160 203 248 287
#
# _framework density 16.452591999999999
#
# number of rings (size 3 to 8) (size 9 to 14) (size 15 to 20)
#    0.000    2.000    1.250    4.125    0.000    5.500 
#    0.000    0.000    0.000    0.000    0.000    0.875 
#    0.000    2.000    0.000    0.000    0.000    0.000 
#
# Total GULP energy -793262.507329 kJ/mol
# GULP energy per Si atom -12394.726677 kJ/mol
# Density = 1.641515 g / cm^3
# Si number density = 16.452592 Si / 1000 Ang^3
#
#
#
# Elastic Constant Matrix: (Units=GPa)
#
#
# Indices 1 2 3 4 5 6 
#
# 1 122.7873 48.7458 34.3204 0.0000 0.0000 0.0000
# 2 48.7458 93.0315 32.1800 0.0000 0.0000 0.0000
# 3 34.3204 32.1800 66.4387 0.0000 0.0000 0.0000
# 4 0.0000 0.0000 0.0000 27.8121 0.0000 0.0000
# 5 0.0000 0.0000 0.0000 0.0000 22.9784 0.0000
# 6 0.0000 0.0000 0.0000 0.0000 0.0000 8.4454
#
#
#
# Elastic Compliance Matrix: (Units=1/GPa)
#
#
# Indices 1 2 3 4 5 6 
#
# 1 0.010901 -0.004522 -0.003441 0.000000 0.000000 0.000000
# 2 -0.004522 0.014788 -0.004827 0.000000 0.000000 0.000000
# 3 -0.003441 -0.004827 0.019167 0.000000 0.000000 0.000000
# 4 0.000000 0.000000 0.000000 0.035956 0.000000 0.000000
# 5 0.000000 0.000000 0.000000 0.000000 0.043519 0.000000
# 6 0.000000 0.000000 0.000000 0.000000 0.000000 0.118408
#
#
# Mechanical properties :
#
#
# Convention : Reuss Voigt Hill
#
# Bulk Modulus (GPa) = 51.87596 56.97224 54.42410
# Shear Modulus (GPa) = 18.19880 22.98126 20.59003
#
# Velocity S-wave (km/s) = 3.32947 3.74146 3.54146
# Velocity P-wave (km/s) = 6.81025 7.30534 7.06213
#
# Compressibility (1/GPa) = 0.01927675
#
# Stress axis : x y z
#
# Youngs Moduli (GPa) = 91.73459 67.62320 52.17302
#
# Poissons Ratio (x) = 0.30576 0.17953
# Poissons Ratio (y) = 0.41478 0.25183
# Poissons Ratio (z) = 0.31567 0.32641
#
# Static dielectric constant tensor:
#      x y z
#    x 3.626040 0.000000 0.000000 
#    y 0.000000 3.240900 0.000000 
#    z 0.000000 0.000000 3.178160 
# 
# 
# High freq. dielectric constant tensor:
#      x y z
#    x 1.628230 0.000000 0.000000 
#    y 0.000000 1.611120 0.000000 
#    z 0.000000 0.000000 1.645520 
# 
# From -- ./inp_files/6023.got.cif
#   From: 2010.03.12/outbox.cif.g09.slc.cpg/sg57_4_cif.got.tgz:6023.got - 2010.04.16 15:48:40.
