data_PCOD8230071
_publ_section_title
;
Structure prediction by ZEFSAII (Michael W. Deem and Ramdas Pophale) SiO2 
 PCOD8230071
Probable space group: P B C M
;
_chemical_formula_sum "Si O2"
_cell_formula_units_Z 64
_cell_length_a 12.074938
_cell_length_b 31.336966
_cell_length_c 9.338387
_cell_angle_alpha 90.000000
_cell_angle_beta 90.000000
_cell_angle_gamma 90.000000
_cell_volume 3533.570201
_symmetry_space_group_name_H-M "P B C M"
_symmetry_group_IT_number 57
_symmetry_cell_setting 'orthorhombic'
loop_
_space_group_symop_operation_xyz
x,y,z
-x,-y,1/2+z
x,1/2-y,-z
-x,1/2+y,1/2-z
-x,-y,-z
x,y,1/2-z
-x,1/2+y,z
x,1/2-y,1/2+z
loop_
_atom_site_type_symbol
_atom_site_label
_atom_site_fract_x
_atom_site_fract_y
_atom_site_fract_z
Si Si1 0.816017 0.896297 0.418278
Si Si2 0.564320 0.885932 0.411261
Si Si3 0.538523 0.962372 0.904191
Si Si4 0.015861 0.868435 0.583478
Si Si5 0.181962 0.707385 0.084102
Si Si6 0.183467 0.575994 0.916129
Si Si7 0.207815 0.478410 0.593112
Si Si8 0.657359 0.347616 0.088882
O O1 0.841756 0.896782 0.250000
O O2 0.692835 0.877058 0.449514
O O3 0.838819 0.944373 0.478169
O O4 0.898691 0.864581 0.501410
O O5 0.560455 0.904627 0.250000
O O6 0.508435 0.918879 0.518515
O O7 0.477642 0.846567 0.424797
O O8 0.477905 0.963557 0.750000
O O9 0.667580 0.965444 0.881805
O O10 0.500000 0.000000 0.000000
O O11 0.996261 0.878464 0.750000
O O12 0.078753 0.823976 0.561471
O O13 0.084230 0.906935 0.513517
O O14 0.203029 0.717532 0.250000
O O15 0.151711 0.750000 0.000000
O O16 0.293824 0.686547 0.021425
O O17 0.148194 0.577816 0.750000
O O18 0.202666 0.526994 0.964973
O O19 0.293190 0.604842 0.941813
O O20 0.148160 0.474521 0.750000
O O21 0.691255 0.333917 0.250000
#
# Coordination Sequence:
#
# PCOD8230071 Si02
#       8
#     8   8   8   8   8   8   8   8
#     4  10  20  33  50  72  99 136 180 217 251 295
#     4   9  18  32  49  71  99 132 169 206 246 293
#     4  10  18  27  41  62  91 129 172 216 257 296
#     4  10  21  36  53  74 101 131 166 209 254 301
#     4  10  21  37  59  86 109 129 157 196 246 303
#     4   9  17  30  49  71  96 131 173 215 261 306
#     4   9  18  31  45  64  94 133 176 219 260 299
#     4   9  17  32  54  78 106 135 163 202 252 304
#
# _framework density 18.111993999999999
#
# number of rings (size 3 to 8) (size 9 to 14) (size 15 to 20)
#    0.000    2.500    0.000    2.250    0.000    6.000 
#    0.000    2.500    0.000    0.750    0.000    1.750 
#    0.000    0.000    0.000    0.000    0.000    0.000 
#
# Total GULP energy -793105.311533 kJ/mol
# GULP energy per Si atom -12392.270493 kJ/mol
# Density = 1.807077 g / cm^3
# Si number density = 18.111994 Si / 1000 Ang^3
#
#
#
# Elastic Constant Matrix: (Units=GPa)
#
#
# Indices 1 2 3 4 5 6 
#
# 1 86.4447 31.0347 48.5525 0.0000 0.0000 0.0000
# 2 31.0347 76.1139 44.7536 0.0000 0.0000 0.0000
# 3 48.5525 44.7536 120.2271 0.0000 0.0000 0.0000
# 4 0.0000 0.0000 0.0000 26.8811 0.0000 0.0000
# 5 0.0000 0.0000 0.0000 0.0000 26.4963 0.0000
# 6 0.0000 0.0000 0.0000 0.0000 0.0000 13.0703
#
#
#
# Elastic Compliance Matrix: (Units=1/GPa)
#
#
# Indices 1 2 3 4 5 6 
#
# 1 0.015622 -0.003406 -0.005041 0.000000 0.000000 0.000000
# 2 -0.003406 0.017562 -0.005162 0.000000 0.000000 0.000000
# 3 -0.005041 -0.005162 0.012275 0.000000 0.000000 0.000000
# 4 0.000000 0.000000 0.000000 0.037201 0.000000 0.000000
# 5 0.000000 0.000000 0.000000 0.000000 0.037741 0.000000
# 6 0.000000 0.000000 0.000000 0.000000 0.000000 0.076509
#
#
# Mechanical properties :
#
#
# Convention : Reuss Voigt Hill
#
# Bulk Modulus (GPa) = 54.82002 59.05192 56.93597
# Shear Modulus (GPa) = 21.71948 23.85255 22.78602
#
# Velocity S-wave (km/s) = 3.46667 3.63291 3.55077
# Velocity P-wave (km/s) = 6.80857 7.09027 6.95085
#
# Compressibility (1/GPa) = 0.01824151
#
# Stress axis : x y z
#
# Youngs Moduli (GPa) = 64.01157 56.94121 81.46713
#
# Poissons Ratio (x) = 0.19392 0.41069
# Poissons Ratio (y) = 0.21800 0.42053
# Poissons Ratio (z) = 0.32269 0.29393
#
# Static dielectric constant tensor:
#      x y z
#    x 4.696150 0.000000 0.000000 
#    y 0.000000 4.328710 0.000000 
#    z 0.000000 0.000000 3.767650 
# 
# 
# High freq. dielectric constant tensor:
#      x y z
#    x 1.696220 0.000000 0.000000 
#    y 0.000000 1.664850 0.000000 
#    z 0.000000 0.000000 1.715690 
# 
# From -- ./inp_files/3749.got.cif
#   From: 2010.03.12/outbox.cif.g09.slc.cpg/sg57_2_cif.got.tgz:3749.got - 2010.04.16 15:48:40.
