data_PCOD8230650
_publ_section_title
;
Structure prediction by ZEFSAII (Michael W. Deem and Ramdas Pophale) SiO2 
 PCOD8230650
Probable space group: P B C M
;
_chemical_formula_sum "Si O2"
_cell_formula_units_Z 64
_cell_length_a 21.456889
_cell_length_b 18.474453
_cell_length_c 8.980841
_cell_angle_alpha 90.000000
_cell_angle_beta 90.000000
_cell_angle_gamma 90.000000
_cell_volume 3560.043876
_symmetry_space_group_name_H-M "P B C M"
_symmetry_group_IT_number 57
_symmetry_cell_setting 'orthorhombic'
loop_
_space_group_symop_operation_xyz
x,y,z
-x,-y,1/2+z
x,1/2-y,-z
-x,1/2+y,1/2-z
-x,-y,-z
x,y,1/2-z
-x,1/2+y,z
x,1/2-y,1/2+z
loop_
_atom_site_type_symbol
_atom_site_label
_atom_site_fract_x
_atom_site_fract_y
_atom_site_fract_z
Si Si1 0.609707 0.172123 0.575465
Si Si2 0.942325 0.537970 0.077228
Si Si3 0.117693 0.173394 0.574241
Si Si4 0.187285 0.532382 0.579343
Si Si5 0.245546 0.401900 0.422806
Si Si6 0.747176 0.325198 0.077857
Si Si7 0.506277 0.827166 0.577548
Si Si8 0.643470 0.673174 0.422299
O O1 0.607434 0.250000 0.500000
O O2 0.597590 0.176798 0.750000
O O3 0.678546 0.141243 0.538629
O O4 0.551161 0.128238 0.500729
O O5 0.956606 0.553487 0.250000
O O6 0.885619 0.481941 0.058172
O O7 0.927849 0.613836 0.997110
O O8 0.000000 0.500000 0.000000
O O9 0.102354 0.250000 0.500000
O O10 0.105003 0.176880 0.750000
O O11 0.189349 0.153200 0.539297
O O12 0.207843 0.517667 0.750000
O O13 0.226830 0.482162 0.470605
O O14 0.201437 0.615229 0.533525
O O15 0.261571 0.401217 0.250000
O O16 0.306899 0.382076 0.512795
O O17 0.749309 0.306110 0.250000
O O18 0.763056 0.250000 0.000000
O O19 0.511865 0.750000 0.500000
O O20 0.490169 0.817766 0.750000
O O21 0.574666 0.862940 0.555462
O O22 0.650626 0.750000 0.500000
O O23 0.657772 0.686198 0.250000
#
# Coordination Sequence:
#
# PCOD8230650 Si02
#       8
#     8   8   8   8   8   8   8   8
#     4   9  15  24  41  64  90 119 153 196 244 292
#     4  10  20  36  58  80 106 141 175 208 248 296
#     4  10  20  34  53  79 108 136 172 214 253 296
#     4   9  19  36  55  74 100 133 165 199 245 298
#     4  10  20  32  49  73 100 131 167 208 252 299
#     4   9  18  32  51  76 101 126 159 201 249 298
#     4   9  16  25  38  59  88 122 160 200 243 291
#     4  10  19  29  43  65  95 130 166 206 249 294
#
# _framework density 17.977307
#
# number of rings (size 3 to 8) (size 9 to 14) (size 15 to 20)
#    0.000    2.500    0.000    3.375    0.000    5.500 
#    0.000    0.625    0.000    2.250    0.000    0.000 
#    0.000    0.000    0.000    0.000    0.000    0.000 
#
# Total GULP energy -793192.746331 kJ/mol
# GULP energy per Si atom -12393.636661 kJ/mol
# Density = 1.793639 g / cm^3
# Si number density = 17.977307 Si / 1000 Ang^3
#
#
#
# Elastic Constant Matrix: (Units=GPa)
#
#
# Indices 1 2 3 4 5 6 
#
# 1 108.9262 62.4710 59.1471 0.0000 0.0000 0.0000
# 2 62.4710 94.8082 51.8517 0.0000 0.0000 0.0000
# 3 59.1471 51.8517 110.3495 0.0000 0.0000 0.0000
# 4 0.0000 0.0000 0.0000 26.0724 0.0000 0.0000
# 5 0.0000 0.0000 0.0000 0.0000 28.6026 0.0000
# 6 0.0000 0.0000 0.0000 0.0000 0.0000 17.7731
#
#
#
# Elastic Compliance Matrix: (Units=1/GPa)
#
#
# Indices 1 2 3 4 5 6 
#
# 1 0.016625 -0.008184 -0.005065 0.000000 0.000000 0.000000
# 2 -0.008184 0.018225 -0.004177 0.000000 0.000000 0.000000
# 3 -0.005065 -0.004177 0.013740 0.000000 0.000000 0.000000
# 4 0.000000 0.000000 0.000000 0.038355 0.000000 0.000000
# 5 0.000000 0.000000 0.000000 0.000000 0.034962 0.000000
# 6 0.000000 0.000000 0.000000 0.000000 0.000000 0.056265
#
#
# Mechanical properties :
#
#
# Convention : Reuss Voigt Hill
#
# Bulk Modulus (GPa) = 72.79757 73.44703 73.12230
# Shear Modulus (GPa) = 22.97780 23.86391 23.42086
#
# Velocity S-wave (km/s) = 3.57901 3.64737 3.61335
# Velocity P-wave (km/s) = 7.59349 7.66041 7.62702
#
# Compressibility (1/GPa) = 0.01373672
#
# Stress axis : x y z
#
# Youngs Moduli (GPa) = 60.15164 54.87074 72.78189
#
# Poissons Ratio (x) = 0.44907 0.36865
# Poissons Ratio (y) = 0.49229 0.30400
# Poissons Ratio (z) = 0.30468 0.22919
#
# Static dielectric constant tensor:
#      x y z
#    x 3.955900 0.000000 0.000000 
#    y 0.000000 2.973760 0.000000 
#    z 0.000000 0.000000 3.484600 
# 
# 
# High freq. dielectric constant tensor:
#      x y z
#    x 1.703190 0.000000 0.000000 
#    y 0.000000 1.655400 0.000000 
#    z 0.000000 0.000000 1.711480 
# 
# From -- ./inp_files/8608.got.cif
#   From: 2010.03.12/outbox.cif.g09.slc.cpg/sg57_5_cif.got.tgz:8608.got - 2010.04.16 15:48:40.
