data_PCOD8230303
_publ_section_title
;
Structure prediction by ZEFSAII (Michael W. Deem and Ramdas Pophale) SiO2 
 PCOD8230303
Probable space group: P B C M
;
_chemical_formula_sum "Si O2"
_cell_formula_units_Z 64
_cell_length_a 10.300528
_cell_length_b 18.559050
_cell_length_c 19.496178
_cell_angle_alpha 90.000000
_cell_angle_beta 90.000000
_cell_angle_gamma 90.000000
_cell_volume 3727.045632
_symmetry_space_group_name_H-M "P B C M"
_symmetry_group_IT_number 57
_symmetry_cell_setting 'orthorhombic'
loop_
_space_group_symop_operation_xyz
x,y,z
-x,-y,1/2+z
x,1/2-y,-z
-x,1/2+y,1/2-z
-x,-y,-z
x,y,1/2-z
-x,1/2+y,z
x,1/2-y,1/2+z
loop_
_atom_site_type_symbol
_atom_site_label
_atom_site_fract_x
_atom_site_fract_y
_atom_site_fract_z
Si Si1 0.719399 0.849450 0.170013
Si Si2 0.716842 0.782062 0.573210
Si Si3 0.981071 0.347173 0.170780
Si Si4 0.979977 0.218465 0.426908
Si Si5 0.878761 0.066594 0.432765
Si Si6 0.629375 0.980631 0.087706
Si Si7 0.369370 0.439039 0.931080
Si Si8 0.878748 0.026739 0.589276
O O1 0.691117 0.838396 0.250000
O O2 0.681398 0.775493 0.131875
O O3 0.634100 0.915870 0.142382
O O4 0.869713 0.867908 0.154878
O O5 0.675016 0.750000 0.500000
O O6 0.636476 0.854814 0.588444
O O7 0.868488 0.802777 0.572597
O O8 0.955988 0.333244 0.250000
O O9 0.944759 0.274162 0.132293
O O10 0.887029 0.410376 0.145346
O O11 0.939286 0.250000 0.500000
O O12 0.892330 0.149285 0.411067
O O13 0.879393 0.062561 0.514743
O O14 0.747384 0.035573 0.400635
O O15 0.998311 0.024088 0.400486
O O16 0.499340 0.026144 0.099100
O O17 0.637462 0.945044 0.013008
O O18 0.250649 0.481565 0.896650
#
# Coordination Sequence:
#
# PCOD8230303 Si02
#       8
#     8   8   8   8   8   8   8   8
#     4  10  20  35  55  79 108 147 184 217 273 340
#     4  10  18  31  55  80 108 139 178 229 272 317
#     4  10  20  34  52  80 113 143 178 227 281 328
#     4  10  18  30  52  82 107 140 181 228 271 322
#     4  10  18  30  55  80 105 134 179 224 268 313
#     4  10  20  35  53  81 114 141 179 226 268 325
#     4  10  20  34  55  84 110 139 180 231 273 307
#     4  10  18  31  53  81 105 134 177 223 269 321
#
# _framework density 17.171778
#
# number of rings (size 3 to 8) (size 9 to 14) (size 15 to 20)
#    0.000    2.000    5.000    0.000    0.000    0.000 
#    0.000    5.000    0.000    0.000    0.000    0.000 
#    0.000    0.000    0.000    0.000    0.000    0.000 
#
# Total GULP energy -793791.491162 kJ/mol
# GULP energy per Si atom -12402.992049 kJ/mol
# Density = 1.713269 g / cm^3
# Si number density = 17.171778 Si / 1000 Ang^3
#
#
#
# Elastic Constant Matrix: (Units=GPa)
#
#
# Indices 1 2 3 4 5 6 
#
# 1 102.5528 68.9985 34.8347 0.0000 0.0000 0.0000
# 2 68.9985 165.3295 63.3651 0.0000 0.0000 0.0000
# 3 34.8347 63.3651 84.6074 0.0000 0.0000 0.0000
# 4 0.0000 0.0000 0.0000 27.6733 0.0000 0.0000
# 5 0.0000 0.0000 0.0000 0.0000 13.2107 0.0000
# 6 0.0000 0.0000 0.0000 0.0000 0.0000 27.2195
#
#
#
# Elastic Compliance Matrix: (Units=1/GPa)
#
#
# Indices 1 2 3 4 5 6 
#
# 1 0.013776 -0.005015 -0.001916 0.000000 0.000000 0.000000
# 2 -0.005015 0.010309 -0.005656 0.000000 0.000000 0.000000
# 3 -0.001916 -0.005656 0.016844 0.000000 0.000000 0.000000
# 4 0.000000 0.000000 0.000000 0.036136 0.000000 0.000000
# 5 0.000000 0.000000 0.000000 0.000000 0.075696 0.000000
# 6 0.000000 0.000000 0.000000 0.000000 0.000000 0.036738
#
#
# Mechanical properties :
#
#
# Convention : Reuss Voigt Hill
#
# Bulk Modulus (GPa) = 63.47095 76.32070 69.89583
# Shear Modulus (GPa) = 22.73491 25.97346 24.35419
#
# Velocity S-wave (km/s) = 3.64259 3.89339 3.77008
# Velocity P-wave (km/s) = 7.39823 8.04694 7.72940
#
# Compressibility (1/GPa) = 0.01575524
#
# Stress axis : x y z
#
# Youngs Moduli (GPa) = 72.59007 97.00007 59.36739
#
# Poissons Ratio (x) = 0.48645 0.11375
# Poissons Ratio (y) = 0.36403 0.33579
# Poissons Ratio (z) = 0.13909 0.54865
#
# Static dielectric constant tensor:
#      x y z
#    x 3.045730 0.000000 0.000000 
#    y 0.000000 3.231080 0.000000 
#    z 0.000000 0.000000 2.958250 
# 
# 
# High freq. dielectric constant tensor:
#      x y z
#    x 1.639400 0.000000 0.000000 
#    y 0.000000 1.676250 0.000000 
#    z 0.000000 0.000000 1.640090 
# 
# From -- ./inp_files/21399.got.cif
#   From: 2010.03.12/outbox.cif.g09.slc.cpg/sg57_11_cif.got.tgz:21399.got - 2010.04.16 15:48:40.
