data_PCOD8230632
_publ_section_title
;
Structure prediction by ZEFSAII (Michael W. Deem and Ramdas Pophale) SiO2 
 PCOD8230632
Probable space group: P B C M
;
_chemical_formula_sum "Si O2"
_cell_formula_units_Z 64
_cell_length_a 26.010112
_cell_length_b 18.220075
_cell_length_c 9.179269
_cell_angle_alpha 90.000000
_cell_angle_beta 90.000000
_cell_angle_gamma 90.000000
_cell_volume 4350.112412
_symmetry_space_group_name_H-M "P B C M"
_symmetry_group_IT_number 57
_symmetry_cell_setting 'orthorhombic'
loop_
_space_group_symop_operation_xyz
x,y,z
-x,-y,1/2+z
x,1/2-y,-z
-x,1/2+y,1/2-z
-x,-y,-z
x,y,1/2-z
-x,1/2+y,z
x,1/2-y,1/2+z
loop_
_atom_site_type_symbol
_atom_site_label
_atom_site_fract_x
_atom_site_fract_y
_atom_site_fract_z
Si Si1 0.991127 0.675500 0.083417
Si Si2 0.313791 0.175628 0.079349
Si Si3 0.393762 0.412784 0.414049
Si Si4 0.104523 0.077093 0.420749
Si Si5 0.803224 0.822922 0.919007
Si Si6 0.047612 0.535030 0.081382
Si Si7 0.499278 0.326998 0.420496
Si Si8 0.457497 0.953129 0.919572
O O1 0.982967 0.696984 0.250000
O O2 0.939597 0.634245 0.027943
O O3 0.041467 0.623090 0.063500
O O4 0.001587 0.750000 0.000000
O O5 0.321725 0.186976 0.250000
O O6 0.255040 0.155936 0.039113
O O7 0.331392 0.250000 0.000000
O O8 0.348975 0.108925 0.025274
O O9 0.375001 0.396550 0.250000
O O10 0.444883 0.366203 0.446842
O O11 0.404690 0.500111 0.433181
O O12 0.099306 0.060676 0.250000
O O13 0.160036 0.109742 0.463009
O O14 0.098579 0.999454 0.506488
O O15 0.808521 0.804969 0.750000
O O16 0.821678 0.750000 0.000000
O O17 0.046502 0.512640 0.250000
O O18 0.000000 0.500000 0.000000
O O19 0.497486 0.250000 0.500000
O O20 0.511841 0.317932 0.250000
O O21 0.544658 0.374865 0.497658
O O22 0.472147 0.942074 0.750000
O O23 0.500000 0.000000 0.000000
#
# Coordination Sequence:
#
# PCOD8230632 Si02
#       8
#     8   8   8   8   8   8   8   8
#     4   9  17  26  38  57  79 103 131 162 193 230
#     4  10  19  29  42  59  81 109 139 173 207 239
#     4   9  18  30  43  59  80 108 140 171 203 240
#     4   9  17  29  42  57  79 106 136 168 200 235
#     4   9  18  30  42  59  82 107 138 173 206 239
#     4   9  17  28  40  57  79 103 133 165 197 235
#     4  10  19  29  42  61  84 110 139 170 204 242
#     4   9  17  29  43  59  80 106 136 170 206 244
#
# _framework density 14.712263999999999
#
# number of rings (size 3 to 8) (size 9 to 14) (size 15 to 20)
#    0.000    2.750    0.000    3.750    0.000    7.500 
#    0.000    0.000    0.000    0.000    0.000    0.000 
#    0.000    1.000    0.000    6.500    0.000    5.250 
#
# Total GULP energy -793231.640844 kJ/mol
# GULP energy per Si atom -12394.244388 kJ/mol
# Density = 1.467878 g / cm^3
# Si number density = 14.712264 Si / 1000 Ang^3
#
#
#
# Elastic Constant Matrix: (Units=GPa)
#
#
# Indices 1 2 3 4 5 6 
#
# 1 58.0892 36.1485 34.9405 0.0000 0.0000 0.0000
# 2 36.1485 81.3974 47.8494 0.0000 0.0000 0.0000
# 3 34.9405 47.8494 83.2669 0.0000 0.0000 0.0000
# 4 0.0000 0.0000 0.0000 30.4453 0.0000 0.0000
# 5 0.0000 0.0000 0.0000 0.0000 19.6254 0.0000
# 6 0.0000 0.0000 0.0000 0.0000 0.0000 22.5540
#
#
#
# Elastic Compliance Matrix: (Units=1/GPa)
#
#
# Indices 1 2 3 4 5 6 
#
# 1 0.025882 -0.007717 -0.006426 0.000000 0.000000 0.000000
# 2 -0.007717 0.020853 -0.008745 0.000000 0.000000 0.000000
# 3 -0.006426 -0.008745 0.019732 0.000000 0.000000 0.000000
# 4 0.000000 0.000000 0.000000 0.032846 0.000000 0.000000
# 5 0.000000 0.000000 0.000000 0.000000 0.050954 0.000000
# 6 0.000000 0.000000 0.000000 0.000000 0.000000 0.044338
#
#
# Mechanical properties :
#
#
# Convention : Reuss Voigt Hill
#
# Bulk Modulus (GPa) = 48.33083 51.18114 49.75599
# Shear Modulus (GPa) = 20.22008 21.44595 20.83301
#
# Velocity S-wave (km/s) = 3.71127 3.82212 3.76710
# Velocity P-wave (km/s) = 7.16148 7.37168 7.26734
#
# Compressibility (1/GPa) = 0.02069072
#
# Stress axis : x y z
#
# Youngs Moduli (GPa) = 38.63645 47.95420 50.67975
#
# Poissons Ratio (x) = 0.37004 0.32569
# Poissons Ratio (y) = 0.29814 0.44321
# Poissons Ratio (z) = 0.24829 0.41937
#
# Static dielectric constant tensor:
#      x y z
#    x 2.858110 0.000000 0.000000 
#    y 0.000000 3.014790 0.000000 
#    z 0.000000 0.000000 3.051380 
# 
# 
# High freq. dielectric constant tensor:
#      x y z
#    x 1.525250 0.000000 0.000000 
#    y 0.000000 1.551810 0.000000 
#    z 0.000000 0.000000 1.577440 
# 
# From -- ./inp_files/9806.got.cif
#   From: 2010.03.12/outbox.cif.g09.slc.cpg/sg57_5_cif.got.tgz:9806.got - 2010.04.16 15:48:40.
