data_PCOD8230688
_publ_section_title
;
Structure prediction by ZEFSAII (Michael W. Deem and Ramdas Pophale) SiO2 
 PCOD8230688
Probable space group: P B C M
;
_chemical_formula_sum "Si O2"
_cell_formula_units_Z 64
_cell_length_a 18.160837
_cell_length_b 26.554126
_cell_length_c 9.078581
_cell_angle_alpha 90.000000
_cell_angle_beta 90.000000
_cell_angle_gamma 90.000000
_cell_volume 4378.101692
_symmetry_space_group_name_H-M "P B C M"
_symmetry_group_IT_number 57
_symmetry_cell_setting 'orthorhombic'
loop_
_space_group_symop_operation_xyz
x,y,z
-x,-y,1/2+z
x,1/2-y,-z
-x,1/2+y,1/2-z
-x,-y,-z
x,y,1/2-z
-x,1/2+y,z
x,1/2-y,1/2+z
loop_
_atom_site_type_symbol
_atom_site_label
_atom_site_fract_x
_atom_site_fract_y
_atom_site_fract_z
Si Si1 0.415801 0.895246 0.074606
Si Si2 0.325627 0.993895 0.082044
Si Si3 0.467768 0.048204 0.421390
Si Si4 0.660688 0.301787 0.924258
Si Si5 0.966790 0.547893 0.920854
Si Si6 0.084133 0.601471 0.424346
Si Si7 0.830741 0.199739 0.421275
Si Si8 0.175625 0.994968 0.918966
O O1 0.421462 0.889418 0.250000
O O2 0.364349 0.942302 0.026887
O O3 0.497920 0.903686 0.006310
O O4 0.385018 0.845385 0.001049
O O5 0.303776 0.986015 0.250000
O O6 0.379292 0.042524 0.062744
O O7 0.251574 0.006301 0.997547
O O8 0.490731 0.049382 0.250000
O O9 0.500000 0.000000 0.500000
O O10 0.644920 0.299914 0.750000
O O11 0.746157 0.312055 0.958912
O O12 0.635388 0.250000 0.000000
O O13 0.988310 0.547105 0.750000
O O14 0.878209 0.543548 0.940651
O O15 0.000000 0.500000 0.000000
O O16 0.003689 0.596744 0.997865
O O17 0.072610 0.599429 0.250000
O O18 0.120389 0.653339 0.477911
O O19 0.136828 0.555970 0.478590
O O20 0.858902 0.250000 0.500000
O O21 0.841755 0.208534 0.250000
O O22 0.194796 0.986218 0.750000
#
# Coordination Sequence:
#
# PCOD8230688 Si02
#       8
#     8   8   8   8   8   8   8   8
#     4  10  19  30  43  61  83 110 143 174 205 246
#     4   9  18  28  40  60  84 108 138 171 202 240
#     4   9  17  29  42  59  82 108 138 172 206 243
#     4  10  19  31  45  61  83 111 140 175 211 243
#     4   9  17  28  40  57  79 105 136 169 203 242
#     4   9  17  29  42  58  80 108 140 172 204 242
#     4   9  18  30  43  60  83 109 140 174 209 244
#     4   9  17  27  40  58  81 107 137 169 203 242
#
# _framework density 14.618207
#
# number of rings (size 3 to 8) (size 9 to 14) (size 15 to 20)
#    0.000    2.750    0.000    3.750    0.000    7.500 
#    0.000    0.000    0.000    0.000    0.000    0.000 
#    0.000    1.000    0.000    9.000    0.000    6.750 
#
# Total GULP energy -793176.495783 kJ/mol
# GULP energy per Si atom -12393.382747 kJ/mol
# Density = 1.458494 g / cm^3
# Si number density = 14.618207 Si / 1000 Ang^3
#
#
#
# Elastic Constant Matrix: (Units=GPa)
#
#
# Indices 1 2 3 4 5 6 
#
# 1 91.2196 56.2151 49.1343 0.0000 0.0000 0.0000
# 2 56.2151 94.1593 43.5153 0.0000 0.0000 0.0000
# 3 49.1343 43.5153 73.4700 0.0000 0.0000 0.0000
# 4 0.0000 0.0000 0.0000 24.9186 0.0000 0.0000
# 5 0.0000 0.0000 0.0000 0.0000 27.8843 0.0000
# 6 0.0000 0.0000 0.0000 0.0000 0.0000 27.3836
#
#
#
# Elastic Compliance Matrix: (Units=1/GPa)
#
#
# Indices 1 2 3 4 5 6 
#
# 1 0.021004 -0.008328 -0.009114 0.000000 0.000000 0.000000
# 2 -0.008328 0.017925 -0.005047 0.000000 0.000000 0.000000
# 3 -0.009114 -0.005047 0.022696 0.000000 0.000000 0.000000
# 4 0.000000 0.000000 0.000000 0.040131 0.000000 0.000000
# 5 0.000000 0.000000 0.000000 0.000000 0.035863 0.000000
# 6 0.000000 0.000000 0.000000 0.000000 0.000000 0.036518
#
#
# Mechanical properties :
#
#
# Convention : Reuss Voigt Hill
#
# Bulk Modulus (GPa) = 60.07518 61.84204 60.95861
# Shear Modulus (GPa) = 22.25557 23.36957 22.81257
#
# Velocity S-wave (km/s) = 3.90610 4.00266 3.95468
# Velocity P-wave (km/s) = 7.84403 7.98489 7.91477
#
# Compressibility (1/GPa) = 0.01664581
#
# Stress axis : x y z
#
# Youngs Moduli (GPa) = 47.61031 55.78914 44.06100
#
# Poissons Ratio (x) = 0.46459 0.40159
# Poissons Ratio (y) = 0.39648 0.22239
# Poissons Ratio (z) = 0.43394 0.28158
#
# Static dielectric constant tensor:
#      x y z
#    x 2.904850 0.000000 0.000000 
#    y 0.000000 2.665950 0.000000 
#    z 0.000000 0.000000 2.998560 
# 
# 
# High freq. dielectric constant tensor:
#      x y z
#    x 1.545980 0.000000 0.000000 
#    y 0.000000 1.527820 0.000000 
#    z 0.000000 0.000000 1.571810 
# 
# From -- ./inp_files/7399.got.cif
#   From: 2010.03.12/outbox.cif.g09.slc.cpg/sg57_4_cif.got.tgz:7399.got - 2010.04.16 15:48:40.
