data_PCOD8230375
_publ_section_title
;
Structure prediction by ZEFSAII (Michael W. Deem and Ramdas Pophale) SiO2 
 PCOD8230375
Probable space group: P B C M
;
_chemical_formula_sum "Si O2"
_cell_formula_units_Z 64
_cell_length_a 21.380298
_cell_length_b 18.712066
_cell_length_c 8.947980
_cell_angle_alpha 90.000000
_cell_angle_beta 90.000000
_cell_angle_gamma 90.000000
_cell_volume 3579.814308
_symmetry_space_group_name_H-M "P B C M"
_symmetry_group_IT_number 57
_symmetry_cell_setting 'orthorhombic'
loop_
_space_group_symop_operation_xyz
x,y,z
-x,-y,1/2+z
x,1/2-y,-z
-x,1/2+y,1/2-z
-x,-y,-z
x,y,1/2-z
-x,1/2+y,z
x,1/2-y,1/2+z
loop_
_atom_site_type_symbol
_atom_site_label
_atom_site_fract_x
_atom_site_fract_y
_atom_site_fract_z
Si Si1 0.936412 0.525505 0.572840
Si Si2 0.112217 0.319917 0.074728
Si Si3 0.486347 0.074472 0.924785
Si Si4 0.182905 0.973736 0.418437
Si Si5 0.599838 0.326606 0.072745
Si Si6 0.698832 0.073446 0.425193
Si Si7 0.653341 0.914920 0.077235
Si Si8 0.231637 0.366481 0.583476
O O1 0.938317 0.515791 0.750000
O O2 0.925053 0.608463 0.528473
O O3 0.882373 0.474918 0.506934
O O4 0.000000 0.500000 0.500000
O O5 0.112184 0.309394 0.250000
O O6 0.079933 0.250000 0.000000
O O7 0.183761 0.322784 0.018762
O O8 0.489221 0.060100 0.750000
O O9 0.537111 0.132098 0.976439
O O10 0.417610 0.102935 0.970349
O O11 0.500000 0.000000 0.000000
O O12 0.172351 0.944547 0.250000
O O13 0.231070 0.923572 0.508013
O O14 0.211273 0.051978 0.413164
O O15 0.606061 0.320605 0.250000
O O16 0.595114 0.250000 0.000000
O O17 0.660279 0.365882 0.008725
O O18 0.701884 0.090129 0.250000
O O19 0.666143 0.997881 0.458530
O O20 0.666393 0.899220 0.250000
O O21 0.698630 0.862575 0.984236
O O22 0.231785 0.333710 0.750000
#
# Coordination Sequence:
#
# PCOD8230375 Si02
#       8
#     8   8   8   8   8   8   8   8
#     4  10  20  34  54  82 114 148 185 224 268 315
#     4  10  20  34  53  77 107 143 182 222 265 317
#     4  10  20  34  53  76 101 134 178 226 274 326
#     4   9  17  30  50  77 107 135 169 212 257 305
#     4  11  23  37  53  74 103 137 176 222 276 334
#     4  10  18  31  53  77 102 132 169 214 267 318
#     4   9  17  30  49  74 102 131 166 215 267 314
#     4   9  17  29  47  73 102 133 169 210 256 306
#
# _framework density 17.878022999999999
#
# number of rings (size 3 to 8) (size 9 to 14) (size 15 to 20)
#    0.000    2.250    1.250    2.250    0.000    6.000 
#    0.000    0.625    0.000    2.250    0.000    3.500 
#    0.000    0.000    0.000    0.000    0.000    0.000 
#
# Total GULP energy -793607.500755 kJ/mol
# GULP energy per Si atom -12400.117199 kJ/mol
# Density = 1.783733 g / cm^3
# Si number density = 17.878023 Si / 1000 Ang^3
#
#
#
# Elastic Constant Matrix: (Units=GPa)
#
#
# Indices 1 2 3 4 5 6 
#
# 1 151.0539 58.2897 60.4976 0.0000 0.0000 0.0000
# 2 58.2897 81.6846 49.1778 0.0000 0.0000 0.0000
# 3 60.4976 49.1778 98.2349 0.0000 0.0000 0.0000
# 4 0.0000 0.0000 0.0000 27.3867 0.0000 0.0000
# 5 0.0000 0.0000 0.0000 0.0000 32.8910 0.0000
# 6 0.0000 0.0000 0.0000 0.0000 0.0000 -5.4162
#
#
#
# Elastic Compliance Matrix: (Units=1/GPa)
#
#
# Indices 1 2 3 4 5 6 
#
# 1 0.009995 -0.004905 -0.003700 0.000000 0.000000 0.000000
# 2 -0.004905 0.019931 -0.006957 0.000000 0.000000 0.000000
# 3 -0.003700 -0.006957 0.015941 0.000000 0.000000 0.000000
# 4 0.000000 0.000000 0.000000 0.036514 0.000000 0.000000
# 5 0.000000 0.000000 0.000000 0.000000 0.030403 0.000000
# 6 0.000000 0.000000 0.000000 0.000000 0.000000 -0.184630
#
#
# Mechanical properties :
#
#
# Convention : Reuss Voigt Hill
#
# Bulk Modulus (GPa) = 67.82783 74.10041 70.96412
# Shear Modulus (GPa) = -139.63055 21.83950 -58.89552
#
# Velocity S-wave (km/s) = -8.84711 3.49891 -5.74582
# Velocity P-wave (km/s) = 8.14495 7.60663 2.05904
#
# Compressibility (1/GPa) = 0.01474321
#
# Stress axis : x y z
#
# Youngs Moduli (GPa) = 100.05440 50.17416 62.73144
#
# Poissons Ratio (x) = 0.24609 0.23209
# Poissons Ratio (y) = 0.49073 0.43642
# Poissons Ratio (z) = 0.37018 0.34906
#
# Static dielectric constant tensor:
#      x y z
#    x 3.356440 0.000000 0.000000 
#    y 0.000000 3.319290 0.000000 
#    z 0.000000 0.000000 3.525040 
# 
# 
# High freq. dielectric constant tensor:
#      x y z
#    x 1.690240 0.000000 0.000000 
#    y 0.000000 1.661450 0.000000 
#    z 0.000000 0.000000 1.705770 
# 
# From -- ./inp_files/8481.got.cif
#   From: 2010.03.12/outbox.cif.g09.slc.cpg/sg57_5_cif.got.tgz:8481.got - 2010.04.16 15:48:40.
