data_PCOD8230949
_publ_section_title
;
Structure prediction by ZEFSAII (Michael W. Deem and Ramdas Pophale) SiO2 
 PCOD8230949
Probable space group: P B C M
;
_chemical_formula_sum "Si O2"
_cell_formula_units_Z 48
_cell_length_a 20.157733
_cell_length_b 13.829192
_cell_length_c 9.203530
_cell_angle_alpha 90.000000
_cell_angle_beta 90.000000
_cell_angle_gamma 90.000000
_cell_volume 2565.623512
_symmetry_space_group_name_H-M "P B C M"
_symmetry_group_IT_number 57
_symmetry_cell_setting 'orthorhombic'
loop_
_space_group_symop_operation_xyz
x,y,z
-x,-y,1/2+z
x,1/2-y,-z
-x,1/2+y,1/2-z
-x,-y,-z
x,y,1/2-z
-x,1/2+y,z
x,1/2-y,1/2+z
loop_
_atom_site_type_symbol
_atom_site_label
_atom_site_fract_x
_atom_site_fract_y
_atom_site_fract_z
Si Si1 0.354481 0.951535 0.917523
Si Si2 0.966611 0.647611 0.079328
Si Si3 0.537094 0.154385 0.921148
Si Si4 0.904759 0.475380 0.918524
Si Si5 0.779886 0.349831 0.920537
Si Si6 0.386056 0.340079 0.085635
O O1 0.371910 0.928194 0.750000
O O2 0.290713 0.892315 0.970953
O O3 0.339970 0.066039 0.935515
O O4 0.417740 0.931348 0.017823
O O5 0.953111 0.661596 0.250000
O O6 0.039384 0.604791 0.048344
O O7 0.959375 0.750000 0.000000
O O8 0.913583 0.571632 0.014577
O O9 0.547356 0.163668 0.750000
O O10 0.461008 0.135313 0.965838
O O11 0.564068 0.250000 0.000000
O O12 0.906533 0.506014 0.750000
O O13 0.835181 0.428023 0.963745
O O14 0.781421 0.329441 0.750000
O O15 0.794457 0.250000 0.000000
O O16 0.388508 0.305265 0.250000
O O17 0.354927 0.250000 0.000000
#
# Coordination Sequence:
#
# PCOD8230949 Si02
#       6
#     8   8   8   8   8   8
#     4  10  20  34  51  73 101 132 166 205 249 297
#     4  10  19  32  54  81 107 136 171 212 254 297
#     4  10  19  31  49  73  99 128 163 206 254 301
#     4   9  19  35  53  76 106 139 173 209 251 297
#     4  10  21  36  54  75 103 136 167 203 247 297
#     4   9  19  34  51  71  96 127 165 209 255 300
#
# _framework density 18.708901999999998
#
# number of rings (size 3 to 8) (size 9 to 14) (size 15 to 20)
#    0.000    2.333    0.000    2.500    0.000    4.667 
#    0.000    0.833    0.000    2.000    0.000    0.000 
#    0.000    0.000    0.000    0.000    0.000    0.000 
#
# Total GULP energy -595240.585987 kJ/mol
# GULP energy per Si atom -12400.845541 kJ/mol
# Density = 1.866632 g / cm^3
# Si number density = 18.708902 Si / 1000 Ang^3
#
#
#
# Elastic Constant Matrix: (Units=GPa)
#
#
# Indices 1 2 3 4 5 6 
#
# 1 49.0602 32.7504 27.8220 0.0000 0.0000 0.0000
# 2 32.7504 126.7254 60.4600 0.0000 0.0000 0.0000
# 3 27.8220 60.4600 76.8278 0.0000 0.0000 0.0000
# 4 0.0000 0.0000 0.0000 39.3263 0.0000 0.0000
# 5 0.0000 0.0000 0.0000 0.0000 19.4757 0.0000
# 6 0.0000 0.0000 0.0000 0.0000 0.0000 25.4682
#
#
#
# Elastic Compliance Matrix: (Units=1/GPa)
#
#
# Indices 1 2 3 4 5 6 
#
# 1 0.026670 -0.003658 -0.006779 0.000000 0.000000 0.000000
# 2 -0.003658 0.013137 -0.009013 0.000000 0.000000 0.000000
# 3 -0.006779 -0.009013 0.022564 0.000000 0.000000 0.000000
# 4 0.000000 0.000000 0.000000 0.025428 0.000000 0.000000
# 5 0.000000 0.000000 0.000000 0.000000 0.051346 0.000000
# 6 0.000000 0.000000 0.000000 0.000000 0.000000 0.039265
#
#
# Mechanical properties :
#
#
# Convention : Reuss Voigt Hill
#
# Bulk Modulus (GPa) = 42.60891 54.96423 48.78657
# Shear Modulus (GPa) = 22.20906 25.62611 23.91759
#
# Velocity S-wave (km/s) = 3.44915 3.70500 3.57936
# Velocity P-wave (km/s) = 6.21983 6.90978 6.57386
#
# Compressibility (1/GPa) = 0.02346927
#
# Stress axis : x y z
#
# Youngs Moduli (GPa) = 37.49592 76.12329 44.31817
#
# Poissons Ratio (x) = 0.27846 0.30045
# Poissons Ratio (y) = 0.13716 0.39945
# Poissons Ratio (z) = 0.25420 0.68611
#
# Static dielectric constant tensor:
#      x y z
#    x 3.305460 0.000000 0.000000 
#    y 0.000000 3.459400 0.000000 
#    z 0.000000 0.000000 3.429780 
# 
# 
# High freq. dielectric constant tensor:
#      x y z
#    x 1.705210 0.000000 0.000000 
#    y 0.000000 1.733880 0.000000 
#    z 0.000000 0.000000 1.725780 
# 
# From -- ./inp_files/6532.got.cif
#   From: 2010.03.12/outbox.cif.g09.slc.cpg/sg57_4_cif.got.tgz:6532.got - 2010.04.16 15:48:40.
