data_PCOD8230889
_publ_section_title
;
Structure prediction by ZEFSAII (Michael W. Deem and Ramdas Pophale) SiO2 
 PCOD8230889
Probable space group: P B C M
;
_chemical_formula_sum "Si O2"
_cell_formula_units_Z 48
_cell_length_a 15.423061
_cell_length_b 20.090108
_cell_length_c 8.878907
_cell_angle_alpha 90.000000
_cell_angle_beta 90.000000
_cell_angle_gamma 90.000000
_cell_volume 2751.137868
_symmetry_space_group_name_H-M "P B C M"
_symmetry_group_IT_number 57
_symmetry_cell_setting 'orthorhombic'
loop_
_space_group_symop_operation_xyz
x,y,z
-x,-y,1/2+z
x,1/2-y,-z
-x,1/2+y,1/2-z
-x,-y,-z
x,y,1/2-z
-x,1/2+y,z
x,1/2-y,1/2+z
loop_
_atom_site_type_symbol
_atom_site_label
_atom_site_fract_x
_atom_site_fract_y
_atom_site_fract_z
Si Si1 0.599522 0.924521 0.578292
Si Si2 0.100817 0.181093 0.426937
Si Si3 0.226686 0.927742 0.923787
Si Si4 0.229285 0.079229 0.927449
Si Si5 0.097983 0.681377 0.072499
Si Si6 0.414899 0.938402 0.576841
O O1 0.629313 0.914783 0.750000
O O2 0.674867 0.893333 0.473839
O O3 0.502099 0.893338 0.551484
O O4 0.586015 0.002077 0.542592
O O5 0.132500 0.250000 0.500000
O O6 0.114867 0.186592 0.250000
O O7 0.155514 0.120695 0.491620
O O8 0.001337 0.166328 0.470162
O O9 0.202533 0.932221 0.750000
O O10 0.157039 0.877791 0.998564
O O11 0.324489 0.898548 0.948358
O O12 0.219969 0.003178 0.987042
O O13 0.218683 0.086187 0.750000
O O14 0.110886 0.687847 0.250000
O O15 0.129536 0.750000 0.000000
O O16 0.415118 0.966222 0.750000
#
# Coordination Sequence:
#
# PCOD8230889 Si02
#       6
#     8   8   8   8   8   8
#     4   9  15  24  41  66  94 123 156 193 231 275
#     4  10  20  34  51  70  92 121 156 192 232 280
#     4   8  15  29  48  70  96 125 155 189 234 280
#     4  10  19  31  48  70  96 125 156 194 238 280
#     4   9  18  33  51  69  92 123 157 191 229 278
#     4   8  14  25  42  64  92 126 157 187 230 280
#
# _framework density 17.447324999999999
#
# number of rings (size 3 to 8) (size 9 to 14) (size 15 to 20)
#    0.000    3.000    0.000    2.500    0.000    2.000 
#    0.000    4.167    0.000    1.000    0.000    2.333 
#    0.000    0.000    0.000    0.000    0.000    0.000 
#
# Total GULP energy -594664.565052 kJ/mol
# GULP energy per Si atom -12388.845105 kJ/mol
# Density = 1.740761 g / cm^3
# Si number density = 17.447325 Si / 1000 Ang^3
#
#
#
# Elastic Constant Matrix: (Units=GPa)
#
#
# Indices 1 2 3 4 5 6 
#
# 1 134.6743 71.3127 34.8500 0.0000 0.0000 0.0000
# 2 71.3127 79.9960 25.5277 0.0000 0.0000 0.0000
# 3 34.8500 25.5277 47.6495 0.0000 0.0000 0.0000
# 4 0.0000 0.0000 0.0000 21.2392 0.0000 0.0000
# 5 0.0000 0.0000 0.0000 0.0000 23.1279 0.0000
# 6 0.0000 0.0000 0.0000 0.0000 0.0000 5.0338
#
#
#
# Elastic Compliance Matrix: (Units=1/GPa)
#
#
# Indices 1 2 3 4 5 6 
#
# 1 0.014837 -0.011777 -0.004542 0.000000 0.000000 0.000000
# 2 -0.011777 0.024427 -0.004473 0.000000 0.000000 0.000000
# 3 -0.004542 -0.004473 0.026705 0.000000 0.000000 0.000000
# 4 0.000000 0.000000 0.000000 0.047083 0.000000 0.000000
# 5 0.000000 0.000000 0.000000 0.000000 0.043238 0.000000
# 6 0.000000 0.000000 0.000000 0.000000 0.000000 0.198655
#
#
# Mechanical properties :
#
#
# Convention : Reuss Voigt Hill
#
# Bulk Modulus (GPa) = 41.00946 58.41116 49.71031
# Shear Modulus (GPa) = 12.35618 18.58881 15.47249
#
# Velocity S-wave (km/s) = 2.66409 3.26763 2.98117
# Velocity P-wave (km/s) = 5.74621 6.91287 6.35636
#
# Compressibility (1/GPa) = 0.02438462
#
# Stress axis : x y z
#
# Youngs Moduli (GPa) = 67.40020 40.93912 37.44641
#
# Poissons Ratio (x) = 0.48213 0.17008
# Poissons Ratio (y) = 0.79376 0.16749
# Poissons Ratio (z) = 0.30613 0.18312
#
# Static dielectric constant tensor:
#      x y z
#    x 3.756330 0.000000 0.000000 
#    y 0.000000 2.994450 0.000000 
#    z 0.000000 0.000000 3.150230 
# 
# 
# High freq. dielectric constant tensor:
#      x y z
#    x 1.696450 0.000000 0.000000 
#    y 0.000000 1.620700 0.000000 
#    z 0.000000 0.000000 1.667080 
# 
# From -- ./inp_files/4908.got.cif
#   From: 2010.03.12/outbox.cif.g09.slc.cpg/sg57_3_cif.got.tgz:4908.got - 2010.04.16 15:48:40.
