data_PCOD8230946
_publ_section_title
;
Structure prediction by ZEFSAII (Michael W. Deem and Ramdas Pophale) SiO2 
 PCOD8230946
Probable space group: P B C M
;
_chemical_formula_sum "Si O2"
_cell_formula_units_Z 64
_cell_length_a 15.501842
_cell_length_b 24.895679
_cell_length_c 9.015528
_cell_angle_alpha 90.000000
_cell_angle_beta 90.000000
_cell_angle_gamma 90.000000
_cell_volume 3479.352645
_symmetry_space_group_name_H-M "P B C M"
_symmetry_group_IT_number 57
_symmetry_cell_setting 'orthorhombic'
loop_
_space_group_symop_operation_xyz
x,y,z
-x,-y,1/2+z
x,1/2-y,-z
-x,1/2+y,1/2-z
-x,-y,-z
x,y,1/2-z
-x,1/2+y,z
x,1/2-y,1/2+z
loop_
_atom_site_type_symbol
_atom_site_label
_atom_site_fract_x
_atom_site_fract_y
_atom_site_fract_z
Si Si1 0.856753 0.938046 0.082560
Si Si2 0.788081 0.464741 0.422279
Si Si3 0.011221 0.299389 0.913328
Si Si4 0.195785 0.337154 0.915250
Si Si5 0.957954 0.098326 0.582433
Si Si6 0.385016 0.530372 0.423446
Si Si7 0.386623 0.305490 0.576342
Si Si8 0.455331 0.415116 0.424914
O O1 0.827705 0.953279 0.250000
O O2 0.960543 0.941797 0.068779
O O3 0.820252 0.879401 0.046237
O O4 0.813637 0.974876 0.959880
O O5 0.764028 0.460141 0.250000
O O6 0.869722 0.429121 0.467441
O O7 0.707008 0.447793 0.521710
O O8 0.975635 0.293460 0.750000
O O9 0.115225 0.296631 0.920515
O O10 0.970771 0.250000 0.000000
O O11 0.971873 0.353656 0.972360
O O12 0.199506 0.363848 0.750000
O O13 0.283769 0.305642 0.947130
O O14 0.951619 0.119945 0.750000
O O15 0.397727 0.541588 0.250000
O O16 0.391809 0.466030 0.456992
O O17 0.452815 0.566319 0.512747
O O18 0.421285 0.250000 0.500000
O O19 0.412043 0.304528 0.750000
O O20 0.425101 0.360056 0.503877
O O21 0.462321 0.403769 0.250000
#
# Coordination Sequence:
#
# PCOD8230946 Si02
#       8
#     8   8   8   8   8   8   8   8
#     4  10  19  31  49  73 104 141 177 214 253 297
#     4  11  21  33  51  75 105 138 171 210 257 307
#     4  10  19  32  51  72  97 132 173 217 260 302
#     4   9  19  33  49  73 104 139 177 213 252 301
#     4   9  20  35  49  70 101 137 175 213 254 301
#     4  10  21  37  59  84 107 135 173 218 265 313
#     4  11  22  35  53  78 110 145 179 216 259 312
#     4  10  21  38  58  81 109 139 173 213 261 316
#
# _framework density 18.394224999999999
#
# number of rings (size 3 to 8) (size 9 to 14) (size 15 to 20)
#    0.000    2.000    0.000    3.750    0.000    6.500 
#    0.000    0.000    0.000    0.750    0.000    1.750 
#    0.000    0.000    0.000    0.000    0.000    0.000 
#
# Total GULP energy -793319.528765 kJ/mol
# GULP energy per Si atom -12395.617637 kJ/mol
# Density = 1.835236 g / cm^3
# Si number density = 18.394225 Si / 1000 Ang^3
#
#
#
# Elastic Constant Matrix: (Units=GPa)
#
#
# Indices 1 2 3 4 5 6 
#
# 1 73.1652 23.3220 34.1670 0.0000 0.0000 0.0000
# 2 23.3220 68.1910 40.5787 0.0000 0.0000 0.0000
# 3 34.1670 40.5787 94.1841 0.0000 0.0000 0.0000
# 4 0.0000 0.0000 0.0000 33.0780 0.0000 0.0000
# 5 0.0000 0.0000 0.0000 0.0000 33.0671 0.0000
# 6 0.0000 0.0000 0.0000 0.0000 0.0000 26.3081
#
#
#
# Elastic Compliance Matrix: (Units=1/GPa)
#
#
# Indices 1 2 3 4 5 6 
#
# 1 0.016860 -0.002860 -0.004884 0.000000 0.000000 0.000000
# 2 -0.002860 0.020206 -0.007668 0.000000 0.000000 0.000000
# 3 -0.004884 -0.007668 0.015693 0.000000 0.000000 0.000000
# 4 0.000000 0.000000 0.000000 0.030232 0.000000 0.000000
# 5 0.000000 0.000000 0.000000 0.000000 0.030242 0.000000
# 6 0.000000 0.000000 0.000000 0.000000 0.000000 0.038011
#
#
# Mechanical properties :
#
#
# Convention : Reuss Voigt Hill
#
# Bulk Modulus (GPa) = 45.58970 47.96396 46.77683
# Shear Modulus (GPa) = 26.40205 27.65548 27.02876
#
# Velocity S-wave (km/s) = 3.79270 3.88169 3.83745
# Velocity P-wave (km/s) = 6.63461 6.79869 6.71715
#
# Compressibility (1/GPa) = 0.02193478
#
# Stress axis : x y z
#
# Youngs Moduli (GPa) = 59.31147 49.49050 63.72235
#
# Poissons Ratio (x) = 0.14154 0.31123
# Poissons Ratio (y) = 0.16963 0.48863
# Poissons Ratio (z) = 0.28969 0.37950
#
# Static dielectric constant tensor:
#      x y z
#    x 3.334740 0.000000 0.000000 
#    y 0.000000 3.190550 0.000000 
#    z 0.000000 0.000000 3.487110 
# 
# 
# High freq. dielectric constant tensor:
#      x y z
#    x 1.697400 0.000000 0.000000 
#    y 0.000000 1.695740 0.000000 
#    z 0.000000 0.000000 1.730630 
# 
# From -- ./inp_files/5588.got.cif
#   From: 2010.03.12/outbox.cif.g09.slc.cpg/sg57_3_cif.got.tgz:5588.got - 2010.04.16 15:48:40.
