data_PCOD8230768
_publ_section_title
;
Structure prediction by ZEFSAII (Michael W. Deem and Ramdas Pophale) SiO2 
 PCOD8230768
Probable space group: P B C M
;
_chemical_formula_sum "Si O2"
_cell_formula_units_Z 48
_cell_length_a 13.376422
_cell_length_b 23.857498
_cell_length_c 9.225938
_cell_angle_alpha 90.000000
_cell_angle_beta 90.000000
_cell_angle_gamma 90.000000
_cell_volume 2944.254783
_symmetry_space_group_name_H-M "P B C M"
_symmetry_group_IT_number 57
_symmetry_cell_setting 'orthorhombic'
loop_
_space_group_symop_operation_xyz
x,y,z
-x,-y,1/2+z
x,1/2-y,-z
-x,1/2+y,1/2-z
-x,-y,-z
x,y,1/2-z
-x,1/2+y,z
x,1/2-y,1/2+z
loop_
_atom_site_type_symbol
_atom_site_label
_atom_site_fract_x
_atom_site_fract_y
_atom_site_fract_z
Si Si1 0.641729 0.304955 0.080249
Si Si2 0.951622 0.421803 0.083372
Si Si3 0.154195 0.482434 0.082044
Si Si4 0.646116 0.529812 0.081288
Si Si5 0.129574 0.696069 0.581811
Si Si6 0.531097 0.082585 0.581849
O O1 0.631541 0.294640 0.250000
O O2 0.756319 0.315853 0.034683
O O3 0.578638 0.358890 0.031441
O O4 0.599130 0.250000 0.000000
O O5 0.918801 0.432162 0.250000
O O6 0.937408 0.357270 0.039205
O O7 0.067174 0.436780 0.059307
O O8 0.879860 0.458365 0.982779
O O9 0.180344 0.491153 0.250000
O O10 0.249815 0.459161 0.998447
O O11 0.658832 0.543190 0.250000
O O12 0.612406 0.465931 0.054009
O O13 0.566075 0.572764 0.015353
O O14 0.085619 0.750000 0.500000
O O15 0.122725 0.709521 0.750000
O O16 0.499386 0.083327 0.750000
#
# Coordination Sequence:
#
# PCOD8230768 Si02
#       6
#     8   8   8   8   8   8
#     4   9  17  29  46  67  92 120 148 182 224 270
#     4   9  18  32  48  67  94 125 154 188 230 272
#     4  10  19  30  47  70  94 122 156 191 229 275
#     4  10  19  31  48  69  94 122 152 189 232 276
#     4   9  17  30  47  68  94 122 151 184 226 272
#     4   9  18  32  48  67  92 122 153 186 227 273
#
# _framework density 16.302937
#
# number of rings (size 3 to 8) (size 9 to 14) (size 15 to 20)
#    0.000    2.667    0.000    2.000    0.000    5.333 
#    0.000    3.333    0.000    1.000    0.000    2.333 
#    0.000    0.000    0.000    0.000    0.000    0.000 
#
# Total GULP energy -595313.330296 kJ/mol
# GULP energy per Si atom -12402.361048 kJ/mol
# Density = 1.626583 g / cm^3
# Si number density = 16.302937 Si / 1000 Ang^3
#
#
#
# Elastic Constant Matrix: (Units=GPa)
#
#
# Indices 1 2 3 4 5 6 
#
# 1 89.0061 54.8513 53.9303 0.0000 0.0000 0.0000
# 2 54.8513 135.5379 53.4000 0.0000 0.0000 0.0000
# 3 53.9303 53.4000 78.7018 0.0000 0.0000 0.0000
# 4 0.0000 0.0000 0.0000 29.3055 0.0000 0.0000
# 5 0.0000 0.0000 0.0000 0.0000 28.2832 0.0000
# 6 0.0000 0.0000 0.0000 0.0000 0.0000 22.5341
#
#
#
# Elastic Compliance Matrix: (Units=1/GPa)
#
#
# Indices 1 2 3 4 5 6 
#
# 1 0.020537 -0.003776 -0.011511 0.000000 0.000000 0.000000
# 2 -0.003776 0.010764 -0.004716 0.000000 0.000000 0.000000
# 3 -0.011511 -0.004716 0.023794 0.000000 0.000000 0.000000
# 4 0.000000 0.000000 0.000000 0.034123 0.000000 0.000000
# 5 0.000000 0.000000 0.000000 0.000000 0.035357 0.000000
# 6 0.000000 0.000000 0.000000 0.000000 0.000000 0.044377
#
#
# Mechanical properties :
#
#
# Convention : Reuss Voigt Hill
#
# Bulk Modulus (GPa) = 66.27307 69.73434 68.00370
# Shear Modulus (GPa) = 23.36586 25.42883 24.39734
#
# Velocity S-wave (km/s) = 3.78991 3.95368 3.87266
# Velocity P-wave (km/s) = 7.73889 7.98179 7.86128
#
# Compressibility (1/GPa) = 0.01508909
#
# Stress axis : x y z
#
# Youngs Moduli (GPa) = 48.69315 92.90018 42.02772
#
# Poissons Ratio (x) = 0.35080 0.48377
# Poissons Ratio (y) = 0.18387 0.19821
# Poissons Ratio (z) = 0.56049 0.43813
#
# Static dielectric constant tensor:
#      x y z
#    x 2.983430 0.000000 0.000000 
#    y 0.000000 3.054170 0.000000 
#    z 0.000000 0.000000 3.123770 
# 
# 
# High freq. dielectric constant tensor:
#      x y z
#    x 1.614280 0.000000 0.000000 
#    y 0.000000 1.617900 0.000000 
#    z 0.000000 0.000000 1.633400 
# 
# From -- ./inp_files/3117.got.cif
#   From: 2010.03.12/outbox.cif.g09.slc.cpg/sg57_2_cif.got.tgz:3117.got - 2010.04.16 15:48:40.
