data_PCOD8230436
_publ_section_title
;
Structure prediction by ZEFSAII (Michael W. Deem and Ramdas Pophale) SiO2 
 PCOD8230436
Probable space group: P B C M
;
_chemical_formula_sum "Si O2"
_cell_formula_units_Z 56
_cell_length_a 14.877307
_cell_length_b 8.661646
_cell_length_c 20.626279
_cell_angle_alpha 90.000000
_cell_angle_beta 90.000000
_cell_angle_gamma 90.000000
_cell_volume 2657.942877
_symmetry_space_group_name_H-M "P B C M"
_symmetry_group_IT_number 57
_symmetry_cell_setting 'orthorhombic'
loop_
_space_group_symop_operation_xyz
x,y,z
-x,-y,1/2+z
x,1/2-y,-z
-x,1/2+y,1/2-z
-x,-y,-z
x,y,1/2-z
-x,1/2+y,z
x,1/2-y,1/2+z
loop_
_atom_site_type_symbol
_atom_site_label
_atom_site_fract_x
_atom_site_fract_y
_atom_site_fract_z
Si Si1 0.120190 0.393067 0.750000
Si Si2 0.580609 0.128388 0.326217
Si Si3 0.991155 0.342342 0.250000
Si Si4 0.395587 0.520520 0.827796
Si Si5 0.079182 0.831746 0.630284
Si Si6 0.219433 0.378217 0.874889
Si Si7 0.059991 0.971750 0.063366
Si Si8 0.759162 0.538663 0.671999
O O1 0.019649 0.471916 0.750000
O O2 0.174441 0.451380 0.811218
O O3 0.097115 0.207642 0.750000
O O4 0.577257 0.128220 0.250000
O O5 0.597229 0.302375 0.349447
O O6 0.485886 0.064381 0.351376
O O7 0.660338 0.016560 0.349468
O O8 0.940450 0.280450 0.188417
O O9 0.377754 0.498464 0.750000
O O10 0.319396 0.446471 0.873925
O O11 0.081052 0.711431 0.569508
O O12 0.173715 0.911428 0.644021
O O13 0.002016 0.960976 0.621630
O O14 0.156174 0.433839 0.935343
O O15 0.220958 0.194203 0.867801
O O16 0.000000 0.000000 0.000000
O O17 0.764393 0.562075 0.750000
#
# Coordination Sequence:
#
# PCOD8230436 Si02
#       8
#     4   8   4   8   8   8   8   8
#     4  12  24  34  56  83 123 150 202 254 318 372
#     4   9  19  31  49  81 126 169 201 243 310 392
#     4  12  22  36  56  87 113 148 198 254 326 372
#     4  10  18  32  53  82 125 169 210 254 314 386
#     4  12  23  39  61  83 117 156 202 257 315 376
#     4  12  22  36  58  84 118 164 210 263 314 376
#     4  12  27  44  59  81 116 164 215 263 312 373
#     4  11  22  34  57  91 126 160 205 255 323 394
#
# _framework density 21.068925
#
# number of rings (size 3 to 8) (size 9 to 14) (size 15 to 20)
#    0.000    0.857    5.000    3.000    2.000    2.286 
#    0.000    0.000    0.000    0.000    0.000    1.000 
#    0.000    2.286    0.000    0.429    0.000    0.429 
#
# Total GULP energy -693940.762906 kJ/mol
# GULP energy per Si atom -12391.799338 kJ/mol
# Density = 2.102097 g / cm^3
# Si number density = 21.068925 Si / 1000 Ang^3
#
#
#
# Elastic Constant Matrix: (Units=GPa)
#
#
# Indices 1 2 3 4 5 6 
#
# 1 162.3935 57.2152 27.9132 0.0000 0.0000 0.0000
# 2 57.2152 121.3048 19.2262 0.0000 0.0000 0.0000
# 3 27.9132 19.2262 45.7669 0.0000 0.0000 0.0000
# 4 0.0000 0.0000 0.0000 18.7263 0.0000 0.0000
# 5 0.0000 0.0000 0.0000 0.0000 32.3402 0.0000
# 6 0.0000 0.0000 0.0000 0.0000 0.0000 47.7641
#
#
#
# Elastic Compliance Matrix: (Units=1/GPa)
#
#
# Indices 1 2 3 4 5 6 
#
# 1 0.007868 -0.003161 -0.003471 0.000000 0.000000 0.000000
# 2 -0.003161 0.010102 -0.002316 0.000000 0.000000 0.000000
# 3 -0.003471 -0.002316 0.024940 0.000000 0.000000 0.000000
# 4 0.000000 0.000000 0.000000 0.053401 0.000000 0.000000
# 5 0.000000 0.000000 0.000000 0.000000 0.030921 0.000000
# 6 0.000000 0.000000 0.000000 0.000000 0.000000 0.020936
#
#
# Mechanical properties :
#
#
# Convention : Reuss Voigt Hill
#
# Bulk Modulus (GPa) = 39.97732 59.79715 49.88723
# Shear Modulus (GPa) = 28.66956 34.77349 31.72152
#
# Velocity S-wave (km/s) = 3.69284 4.06700 3.88442
# Velocity P-wave (km/s) = 6.09905 7.10614 6.62177
#
# Compressibility (1/GPa) = 0.02501418
#
# Stress axis : x y z
#
# Youngs Moduli (GPa) = 127.09408 98.99356 40.09693
#
# Poissons Ratio (x) = 0.31292 0.13917
# Poissons Ratio (y) = 0.40175 0.09285
# Poissons Ratio (z) = 0.44113 0.22924
#
# Static dielectric constant tensor:
#      x y z
#    x 4.163770 0.000000 0.000000 
#    y 0.000000 4.286820 0.000000 
#    z 0.000000 0.000000 3.309620 
# 
# 
# High freq. dielectric constant tensor:
#      x y z
#    x 1.833880 0.000000 0.000000 
#    y 0.000000 1.851390 0.000000 
#    z 0.000000 0.000000 1.765280 
# 
# From -- ./inp_files/25438.got.cif
#   From: 2010.03.12/outbox.cif.g09.slc.cpg/sg57_13_cif.got.tgz:25438.got - 2010.04.16 15:48:40.
