data_PCOD8230720
_publ_section_title
;
Structure prediction by ZEFSAII (Michael W. Deem and Ramdas Pophale) SiO2 
 PCOD8230720
Probable space group: P B C M
;
_chemical_formula_sum "Si O2"
_cell_formula_units_Z 64
_cell_length_a 17.022182
_cell_length_b 22.974539
_cell_length_c 9.002044
_cell_angle_alpha 90.000000
_cell_angle_beta 90.000000
_cell_angle_gamma 90.000000
_cell_volume 3520.490419
_symmetry_space_group_name_H-M "P B C M"
_symmetry_group_IT_number 57
_symmetry_cell_setting 'orthorhombic'
loop_
_space_group_symop_operation_xyz
x,y,z
-x,-y,1/2+z
x,1/2-y,-z
-x,1/2+y,1/2-z
-x,-y,-z
x,y,1/2-z
-x,1/2+y,z
x,1/2-y,1/2+z
loop_
_atom_site_type_symbol
_atom_site_label
_atom_site_fract_x
_atom_site_fract_y
_atom_site_fract_z
Si Si1 0.706971 0.690587 0.082439
Si Si2 0.327700 0.025102 0.923344
Si Si3 0.567429 0.892809 0.927210
Si Si4 0.266836 0.808417 0.078542
Si Si5 0.549177 0.190147 0.924148
Si Si6 0.917725 0.510297 0.924067
Si Si7 0.811922 0.590139 0.419845
Si Si8 0.221373 0.922124 0.579864
O O1 0.686356 0.705477 0.250000
O O2 0.636158 0.651105 0.021276
O O3 0.791604 0.658574 0.067871
O O4 0.713557 0.750000 0.000000
O O5 0.324520 0.042997 0.750000
O O6 0.304442 0.956926 0.940291
O O7 0.411730 0.044217 0.995912
O O8 0.263934 0.058116 0.019440
O O9 0.559526 0.900996 0.750000
O O10 0.488130 0.866194 0.995693
O O11 0.247148 0.801991 0.250000
O O12 0.358720 0.816601 0.048107
O O13 0.235684 0.750000 0.000000
O O14 0.220686 0.864355 0.018136
O O15 0.527706 0.191748 0.750000
O O16 0.518450 0.250000 0.000000
O O17 0.929870 0.513654 0.750000
O O18 0.853350 0.461519 0.968513
O O19 0.887370 0.573006 0.982569
O O20 0.000000 0.500000 0.000000
O O21 0.826550 0.571403 0.250000
O O22 0.211623 0.903244 0.750000
#
# Coordination Sequence:
#
# PCOD8230720 Si02
#       8
#     8   8   8   8   8   8   8   8
#     4   9  18  28  41  64  93 127 167 204 241 284
#     4   9  17  30  48  71  99 132 167 208 255 302
#     4  10  19  30  45  68  97 132 173 217 262 307
#     4  10  21  36  56  78 101 132 171 213 259 307
#     4  10  20  33  48  69  96 129 171 219 267 313
#     4  10  20  34  55  83 108 132 159 194 241 292
#     4   9  17  30  46  68  99 131 164 203 240 284
#     4   9  19  35  55  79 106 133 166 206 250 301
#
# _framework density 18.179283999999999
#
# number of rings (size 3 to 8) (size 9 to 14) (size 15 to 20)
#    0.000    2.500    0.000    4.125    0.000    8.500 
#    0.000    0.625    0.000    0.750    0.000    3.500 
#    0.000    0.000    0.000    0.000    0.000    0.000 
#
# Total GULP energy -793201.938011 kJ/mol
# GULP energy per Si atom -12393.780281 kJ/mol
# Density = 1.813791 g / cm^3
# Si number density = 18.179284 Si / 1000 Ang^3
#
#
#
# Elastic Constant Matrix: (Units=GPa)
#
#
# Indices 1 2 3 4 5 6 
#
# 1 47.6853 23.3575 35.8885 0.0000 0.0000 0.0000
# 2 23.3575 79.4740 50.8623 0.0000 0.0000 0.0000
# 3 35.8885 50.8623 93.9308 0.0000 0.0000 0.0000
# 4 0.0000 0.0000 0.0000 35.2219 0.0000 0.0000
# 5 0.0000 0.0000 0.0000 0.0000 28.3057 0.0000
# 6 0.0000 0.0000 0.0000 0.0000 0.0000 19.9295
#
#
#
# Elastic Compliance Matrix: (Units=1/GPa)
#
#
# Indices 1 2 3 4 5 6 
#
# 1 0.029694 -0.002244 -0.010130 0.000000 0.000000 0.000000
# 2 -0.002244 0.019425 -0.009661 0.000000 0.000000 0.000000
# 3 -0.010130 -0.009661 0.019748 0.000000 0.000000 0.000000
# 4 0.000000 0.000000 0.000000 0.028391 0.000000 0.000000
# 5 0.000000 0.000000 0.000000 0.000000 0.035329 0.000000
# 6 0.000000 0.000000 0.000000 0.000000 0.000000 0.050177
#
#
# Mechanical properties :
#
#
# Convention : Reuss Voigt Hill
#
# Bulk Modulus (GPa) = 40.32797 49.03407 44.68102
# Shear Modulus (GPa) = 21.26750 24.09021 22.67886
#
# Velocity S-wave (km/s) = 3.42405 3.64421 3.53584
# Velocity P-wave (km/s) = 6.15336 6.68865 6.42658
#
# Compressibility (1/GPa) = 0.02479668
#
# Stress axis : x y z
#
# Youngs Moduli (GPa) = 33.67672 51.47943 50.63780
#
# Poissons Ratio (x) = 0.11551 0.51298
# Poissons Ratio (y) = 0.07557 0.48922
# Poissons Ratio (z) = 0.34116 0.49735
#
# Static dielectric constant tensor:
#      x y z
#    x 3.028380 0.000000 0.000000 
#    y 0.000000 2.897260 0.000000 
#    z 0.000000 0.000000 2.824400 
# 
# 
# High freq. dielectric constant tensor:
#      x y z
#    x 1.672540 0.000000 0.000000 
#    y 0.000000 1.695340 0.000000 
#    z 0.000000 0.000000 1.719170 
# 
# From -- ./inp_files/7351.got.cif
#   From: 2010.03.12/outbox.cif.g09.slc.cpg/sg57_4_cif.got.tgz:7351.got - 2010.04.16 15:48:40.
