data_PCOD8230967
_publ_section_title
;
Structure prediction by ZEFSAII (Michael W. Deem and Ramdas Pophale) SiO2 
 PCOD8230967
Probable space group: P B C M
;
_chemical_formula_sum "Si O2"
_cell_formula_units_Z 40
_cell_length_a 9.630238
_cell_length_b 26.117987
_cell_length_c 9.018424
_cell_angle_alpha 90.000000
_cell_angle_beta 90.000000
_cell_angle_gamma 90.000000
_cell_volume 2268.335927
_symmetry_space_group_name_H-M "P B C M"
_symmetry_group_IT_number 57
_symmetry_cell_setting 'orthorhombic'
loop_
_space_group_symop_operation_xyz
x,y,z
-x,-y,1/2+z
x,1/2-y,-z
-x,1/2+y,1/2-z
-x,-y,-z
x,y,1/2-z
-x,1/2+y,z
x,1/2-y,1/2+z
loop_
_atom_site_type_symbol
_atom_site_label
_atom_site_fract_x
_atom_site_fract_y
_atom_site_fract_z
Si Si1 0.356360 0.609450 0.923959
Si Si2 0.653779 0.612188 0.075357
Si Si3 0.835600 0.697786 0.575096
Si Si4 0.357206 0.001487 0.419335
Si Si5 0.153709 0.698519 0.923682
O O1 0.391861 0.616481 0.750000
O O2 0.282833 0.553280 0.951936
O O3 0.246222 0.651223 0.979714
O O4 0.495795 0.615949 0.018757
O O5 0.657947 0.624794 0.250000
O O6 0.718966 0.555150 0.039488
O O7 0.746975 0.651305 0.986100
O O8 0.782371 0.750000 0.500000
O O9 0.814489 0.702400 0.750000
O O10 0.995127 0.687479 0.530835
O O11 0.398238 0.005237 0.250000
O O12 0.500000 0.000000 0.500000
O O13 0.168147 0.706557 0.750000
O O14 0.209541 0.750000 0.000000
#
# Coordination Sequence:
#
# PCOD8230967 Si02
#       5
#     8   8   8   8   8
#     4   9  17  32  52  73  97 128 163 201 241 284
#     4  10  19  31  49  75 101 127 160 199 239 284
#     4  10  20  35  52  70  94 127 162 198 240 288
#     4   8  15  28  47  69  96 127 159 194 236 282
#     4   9  19  34  52  71  94 125 161 198 241 288
#
# _framework density 17.634073000000001
#
# number of rings (size 3 to 8) (size 9 to 14) (size 15 to 20)
#    0.000    2.800    0.000    1.200    0.000    3.200 
#    0.000    3.000    0.000    0.000    0.000    0.000 
#    0.000    0.000    0.000    0.000    0.000    0.000 
#
# Total GULP energy -495545.987119 kJ/mol
# GULP energy per Si atom -12388.649678 kJ/mol
# Density = 1.759394 g / cm^3
# Si number density = 17.634073 Si / 1000 Ang^3
#
#
#
# Elastic Constant Matrix: (Units=GPa)
#
#
# Indices 1 2 3 4 5 6 
#
# 1 59.5876 71.1057 27.3685 0.0000 0.0000 0.0000
# 2 71.1057 195.0539 53.9667 0.0000 0.0000 0.0000
# 3 27.3685 53.9667 53.5243 0.0000 0.0000 0.0000
# 4 0.0000 0.0000 0.0000 28.9441 0.0000 0.0000
# 5 0.0000 0.0000 0.0000 0.0000 17.6728 0.0000
# 6 0.0000 0.0000 0.0000 0.0000 0.0000 -13.0043
#
#
#
# Elastic Compliance Matrix: (Units=1/GPa)
#
#
# Indices 1 2 3 4 5 6 
#
# 1 0.031122 -0.009628 -0.006205 0.000000 0.000000 0.000000
# 2 -0.009628 0.010089 -0.005249 0.000000 0.000000 0.000000
# 3 -0.006205 -0.005249 0.027149 0.000000 0.000000 0.000000
# 4 0.000000 0.000000 0.000000 0.034549 0.000000 0.000000
# 5 0.000000 0.000000 0.000000 0.000000 0.056584 0.000000
# 6 0.000000 0.000000 0.000000 0.000000 0.000000 -0.076898
#
#
# Mechanical properties :
#
#
# Convention : Reuss Voigt Hill
#
# Bulk Modulus (GPa) = 38.17754 68.11640 53.14697
# Shear Modulus (GPa) = 37.45536 17.10418 27.27977
#
# Velocity S-wave (km/s) = 4.61372 3.11778 3.93745
# Velocity P-wave (km/s) = 7.07664 7.18835 7.13271
#
# Compressibility (1/GPa) = 0.02619341
#
# Stress axis : x y z
#
# Youngs Moduli (GPa) = 32.13206 99.11730 36.83403
#
# Poissons Ratio (x) = 0.95433 0.22857
# Poissons Ratio (y) = 0.30938 0.19335
# Poissons Ratio (z) = 0.19940 0.52029
#
# Static dielectric constant tensor:
#      x y z
#    x 2.990530 0.000000 0.000000 
#    y 0.000000 4.109190 0.000000 
#    z 0.000000 0.000000 3.202010 
# 
# 
# High freq. dielectric constant tensor:
#      x y z
#    x 1.642560 0.000000 0.000000 
#    y 0.000000 1.708190 0.000000 
#    z 0.000000 0.000000 1.687830 
# 
# From -- ./inp_files/1513.got.cif
#   From: 2010.03.12/outbox.cif.g09.slc.cpg/sg57_1_cif.got.tgz:1513.got - 2010.04.16 15:48:40.
