data_PCOD8230810
_publ_section_title
;
Structure prediction by ZEFSAII (Michael W. Deem and Ramdas Pophale) SiO2 
 PCOD8230810
Probable space group: P B C M
;
_chemical_formula_sum "Si O2"
_cell_formula_units_Z 56
_cell_length_a 16.698941
_cell_length_b 21.191302
_cell_length_c 9.041012
_cell_angle_alpha 90.000000
_cell_angle_beta 90.000000
_cell_angle_gamma 90.000000
_cell_volume 3199.363727
_symmetry_space_group_name_H-M "P B C M"
_symmetry_group_IT_number 57
_symmetry_cell_setting 'orthorhombic'
loop_
_space_group_symop_operation_xyz
x,y,z
-x,-y,1/2+z
x,1/2-y,-z
-x,1/2+y,1/2-z
-x,-y,-z
x,y,1/2-z
-x,1/2+y,z
x,1/2-y,1/2+z
loop_
_atom_site_type_symbol
_atom_site_label
_atom_site_fract_x
_atom_site_fract_y
_atom_site_fract_z
Si Si1 0.553709 0.185629 0.074644
Si Si2 0.705274 0.515000 0.423751
Si Si3 0.136923 0.686992 0.917833
Si Si4 0.304673 0.624992 0.580356
Si Si5 0.882012 0.521468 0.421550
Si Si6 0.538943 0.939414 0.575726
Si Si7 0.035539 0.593429 0.420367
O O1 0.552677 0.194180 0.250000
O O2 0.498840 0.126636 0.021951
O O3 0.521180 0.250000 0.000000
O O4 0.643942 0.172760 0.019550
O O5 0.709605 0.506477 0.250000
O O6 0.684873 0.445311 0.486417
O O7 0.792362 0.540262 0.476652
O O8 0.633582 0.562441 0.468361
O O9 0.115584 0.702983 0.750000
O O10 0.211024 0.639592 0.931765
O O11 0.161795 0.750000 0.000000
O O12 0.058417 0.656356 0.991494
O O13 0.334295 0.631204 0.750000
O O14 0.882584 0.499317 0.250000
O O15 0.913079 0.464810 0.520846
O O16 0.940569 0.581339 0.442937
O O17 0.526895 0.947757 0.750000
O O18 0.500000 0.000000 0.500000
O O19 0.057391 0.603116 0.250000
#
# Coordination Sequence:
#
# PCOD8230810 Si02
#       7
#     8   8   8   8   8   8   8
#     4  11  23  36  52  76 105 139 177 215 259 311
#     4   9  16  31  54  77 103 134 167 207 258 306
#     4  11  22  35  50  71 102 138 174 206 247 303
#     4  10  19  33  54  76 103 139 171 206 254 308
#     4   9  17  32  52  74  99 131 167 203 248 300
#     4  10  20  34  54  78 103 134 173 216 261 309
#     4  10  19  30  49  75 102 131 166 206 249 294
#
# _framework density 17.503481000000001
#
# number of rings (size 3 to 8) (size 9 to 14) (size 15 to 20)
#    0.000    2.000    2.857    1.714    0.000    3.429 
#    0.000    0.714    0.000    0.857    0.000    2.000 
#    0.000    0.000    0.000    0.000    0.000    0.000 
#
# Total GULP energy -694268.716563 kJ/mol
# GULP energy per Si atom -12397.655653 kJ/mol
# Density = 1.746364 g / cm^3
# Si number density = 17.503481 Si / 1000 Ang^3
#
#
#
# Elastic Constant Matrix: (Units=GPa)
#
#
# Indices 1 2 3 4 5 6 
#
# 1 111.9971 44.9814 34.5055 0.0000 0.0000 0.0000
# 2 44.9814 93.2195 38.5026 0.0000 0.0000 0.0000
# 3 34.5055 38.5026 76.4227 0.0000 0.0000 0.0000
# 4 0.0000 0.0000 0.0000 28.3283 0.0000 0.0000
# 5 0.0000 0.0000 0.0000 0.0000 18.2274 0.0000
# 6 0.0000 0.0000 0.0000 0.0000 0.0000 26.1822
#
#
#
# Elastic Compliance Matrix: (Units=1/GPa)
#
#
# Indices 1 2 3 4 5 6 
#
# 1 0.011614 -0.004342 -0.003056 0.000000 0.000000 0.000000
# 2 -0.004342 0.015169 -0.005682 0.000000 0.000000 0.000000
# 3 -0.003056 -0.005682 0.017328 0.000000 0.000000 0.000000
# 4 0.000000 0.000000 0.000000 0.035300 0.000000 0.000000
# 5 0.000000 0.000000 0.000000 0.000000 0.054863 0.000000
# 6 0.000000 0.000000 0.000000 0.000000 0.000000 0.038194
#
#
# Mechanical properties :
#
#
# Convention : Reuss Voigt Hill
#
# Bulk Modulus (GPa) = 55.70838 57.51316 56.61077
# Shear Modulus (GPa) = 24.43641 25.45756 24.94698
#
# Velocity S-wave (km/s) = 3.74048 3.81783 3.77935
# Velocity P-wave (km/s) = 7.10993 7.23629 7.17339
#
# Compressibility (1/GPa) = 0.01795062
#
# Stress axis : x y z
#
# Youngs Moduli (GPa) = 86.10075 65.92250 57.71053
#
# Poissons Ratio (x) = 0.28623 0.17639
# Poissons Ratio (y) = 0.37384 0.32792
# Poissons Ratio (z) = 0.26317 0.37458
#
# Static dielectric constant tensor:
#      x y z
#    x 3.547390 0.000000 0.000000 
#    y 0.000000 3.195860 0.000000 
#    z 0.000000 0.000000 3.222660 
# 
# 
# High freq. dielectric constant tensor:
#      x y z
#    x 1.676030 0.000000 0.000000 
#    y 0.000000 1.656550 0.000000 
#    z 0.000000 0.000000 1.669790 
# 
# From -- ./inp_files/7079.got.cif
#   From: 2010.03.12/outbox.cif.g09.slc.cpg/sg57_4_cif.got.tgz:7079.got - 2010.04.16 15:48:40.
