data_PCOD8230077
_publ_section_title
;
Structure prediction by ZEFSAII (Michael W. Deem and Ramdas Pophale) SiO2 
 PCOD8230077
Probable space group: P B C M
;
_chemical_formula_sum "Si O2"
_cell_formula_units_Z 64
_cell_length_a 17.002691
_cell_length_b 23.985549
_cell_length_c 9.084272
_cell_angle_alpha 90.000000
_cell_angle_beta 90.000000
_cell_angle_gamma 90.000000
_cell_volume 3704.737616
_symmetry_space_group_name_H-M "P B C M"
_symmetry_group_IT_number 57
_symmetry_cell_setting 'orthorhombic'
loop_
_space_group_symop_operation_xyz
x,y,z
-x,-y,1/2+z
x,1/2-y,-z
-x,1/2+y,1/2-z
-x,-y,-z
x,y,1/2-z
-x,1/2+y,z
x,1/2-y,1/2+z
loop_
_atom_site_type_symbol
_atom_site_label
_atom_site_fract_x
_atom_site_fract_y
_atom_site_fract_z
Si Si1 0.165847 0.030365 0.921959
Si Si2 0.126428 0.196570 0.081766
Si Si3 0.148062 0.591573 0.423917
Si Si4 0.254327 0.690881 0.422143
Si Si5 0.259760 0.363831 0.420881
Si Si6 0.570868 0.190988 0.421964
Si Si7 0.971786 0.587689 0.419208
Si Si8 0.421931 0.190217 0.576554
O O1 0.149938 0.034721 0.750000
O O2 0.234943 0.073236 0.970321
O O3 0.190472 0.967164 0.965303
O O4 0.082227 0.043751 0.995889
O O5 0.142324 0.211312 0.250000
O O6 0.062339 0.149102 0.061142
O O7 0.091136 0.250000 0.000000
O O8 0.209760 0.180469 0.011800
O O9 0.145715 0.600000 0.250000
O O10 0.196006 0.644106 0.490089
O O11 0.059412 0.589578 0.486727
O O12 0.240148 0.750000 0.500000
O O13 0.239853 0.701308 0.250000
O O14 0.342321 0.665602 0.447252
O O15 0.240504 0.354742 0.250000
O O16 0.350906 0.352646 0.454801
O O17 0.571566 0.250000 0.500000
O O18 0.551214 0.196283 0.250000
O O19 0.498816 0.159474 0.504509
O O20 0.973348 0.568872 0.250000
O O21 0.405427 0.250000 0.500000
O O22 0.434222 0.199694 0.750000
#
# Coordination Sequence:
#
# PCOD8230077 Si02
#       8
#     8   8   8   8   8   8   8   8
#     4   9  17  31  50  68  88 117 152 188 223 261
#     4  10  19  29  42  61  89 123 152 181 221 266
#     4   9  17  31  51  70  89 116 150 186 223 265
#     4   9  18  32  49  70  94 119 147 181 223 269
#     4   9  18  30  44  65  90 117 151 186 220 261
#     4   9  16  27  44  65  89 116 146 179 217 262
#     4   9  18  31  46  66  91 118 149 188 229 263
#     4  10  18  27  42  65  91 116 145 180 217 261
#
# _framework density 17.275176999999999
#
# number of rings (size 3 to 8) (size 9 to 14) (size 15 to 20)
#    0.000    2.750    0.000    2.625    0.000    3.500 
#    0.000    1.250    0.000    0.750    0.000    0.000 
#    0.000    0.000    0.000    0.000    0.000    2.625 
#
# Total GULP energy -793135.865396 kJ/mol
# GULP energy per Si atom -12392.747897 kJ/mol
# Density = 1.723586 g / cm^3
# Si number density = 17.275177 Si / 1000 Ang^3
#
#
#
# Elastic Constant Matrix: (Units=GPa)
#
#
# Indices 1 2 3 4 5 6 
#
# 1 119.8260 59.1243 35.9989 0.0000 0.0000 0.0000
# 2 59.1243 100.5808 32.9942 0.0000 0.0000 0.0000
# 3 35.9989 32.9942 60.1034 0.0000 0.0000 0.0000
# 4 0.0000 0.0000 0.0000 17.3348 0.0000 0.0000
# 5 0.0000 0.0000 0.0000 0.0000 22.0294 0.0000
# 6 0.0000 0.0000 0.0000 0.0000 0.0000 20.0624
#
#
#
# Elastic Compliance Matrix: (Units=1/GPa)
#
#
# Indices 1 2 3 4 5 6 
#
# 1 0.012582 -0.006006 -0.004239 0.000000 0.000000 0.000000
# 2 -0.006006 0.014992 -0.004633 0.000000 0.000000 0.000000
# 3 -0.004239 -0.004633 0.021721 0.000000 0.000000 0.000000
# 4 0.000000 0.000000 0.000000 0.057687 0.000000 0.000000
# 5 0.000000 0.000000 0.000000 0.000000 0.045394 0.000000
# 6 0.000000 0.000000 0.000000 0.000000 0.000000 0.049844
#
#
# Mechanical properties :
#
#
# Convention : Reuss Voigt Hill
#
# Bulk Modulus (GPa) = 51.17949 59.63834 55.40891
# Shear Modulus (GPa) = 20.96524 22.04484 21.50504
#
# Velocity S-wave (km/s) = 3.48746 3.57613 3.53207
# Velocity P-wave (km/s) = 6.77546 7.18673 6.98412
#
# Compressibility (1/GPa) = 0.01953908
#
# Stress axis : x y z
#
# Youngs Moduli (GPa) = 79.47663 66.70072 46.03932
#
# Poissons Ratio (x) = 0.40058 0.19518
# Poissons Ratio (y) = 0.47730 0.21331
# Poissons Ratio (z) = 0.33693 0.30903
#
# Static dielectric constant tensor:
#      x y z
#    x 3.731800 0.000000 0.000000 
#    y 0.000000 3.215320 0.000000 
#    z 0.000000 0.000000 3.220480 
# 
# 
# High freq. dielectric constant tensor:
#      x y z
#    x 1.667340 0.000000 0.000000 
#    y 0.000000 1.647120 0.000000 
#    z 0.000000 0.000000 1.660010 
# 
# From -- ./inp_files/7448.got.cif
#   From: 2010.03.12/outbox.cif.g09.slc.cpg/sg57_4_cif.got.tgz:7448.got - 2010.04.16 15:48:40.
