data_PCOD8230107
_publ_section_title
;
Structure prediction by ZEFSAII (Michael W. Deem and Ramdas Pophale) SiO2 
 PCOD8230107
Probable space group: P B C M
;
_chemical_formula_sum "Si O2"
_cell_formula_units_Z 64
_cell_length_a 20.301373
_cell_length_b 22.683473
_cell_length_c 9.173372
_cell_angle_alpha 90.000000
_cell_angle_beta 90.000000
_cell_angle_gamma 90.000000
_cell_volume 4224.389602
_symmetry_space_group_name_H-M "P B C M"
_symmetry_group_IT_number 57
_symmetry_cell_setting 'orthorhombic'
loop_
_space_group_symop_operation_xyz
x,y,z
-x,-y,1/2+z
x,1/2-y,-z
-x,1/2+y,1/2-z
-x,-y,-z
x,y,1/2-z
-x,1/2+y,z
x,1/2-y,1/2+z
loop_
_atom_site_type_symbol
_atom_site_label
_atom_site_fract_x
_atom_site_fract_y
_atom_site_fract_z
Si Si1 0.518398 0.557315 0.415706
Si Si2 0.653281 0.982943 0.919355
Si Si3 0.614964 0.397688 0.578158
Si Si4 0.289433 0.687967 0.922637
Si Si5 0.043928 0.918736 0.585409
Si Si6 0.079171 0.444267 0.085591
Si Si7 0.168045 0.605627 0.917275
Si Si8 0.798227 0.972014 0.917050
O O1 0.500000 0.500000 0.500000
O O2 0.507472 0.540035 0.250000
O O3 0.596784 0.567922 0.445116
O O4 0.464758 0.608209 0.453127
O O5 0.654295 0.004242 0.750000
O O6 0.723526 0.953203 0.957174
O O7 0.641232 0.039573 0.020524
O O8 0.631265 0.392296 0.750000
O O9 0.647632 0.344791 0.489850
O O10 0.299541 0.695092 0.750000
O O11 0.223507 0.652237 0.960764
O O12 0.282145 0.750000 0.000000
O O13 0.035183 0.896628 0.750000
O O14 0.102883 0.881792 0.512147
O O15 0.975712 0.906881 0.500775
O O16 0.061165 0.987334 0.578525
O O17 0.081381 0.420749 0.250000
O O18 0.150905 0.434635 0.014158
O O19 0.146880 0.611604 0.750000
O O20 0.197074 0.541375 0.950312
O O21 0.815934 0.958519 0.750000
#
# Coordination Sequence:
#
# PCOD8230107 Si02
#       8
#     8   8   8   8   8   8   8   8
#     4   8  15  25  39  58  79 103 134 167 202 242
#     4   9  15  26  41  58  81 110 139 169 204 243
#     4  10  18  28  42  60  80 104 135 173 209 249
#     4  11  22  35  47  61  79 105 138 177 218 254
#     4   9  16  25  38  54  72  97 130 164 196 232
#     4   9  16  24  34  52  76 102 130 162 195 229
#     4   9  17  29  42  55  73 100 132 166 206 244
#     4   9  15  24  38  55  77 106 136 165 198 236
#
# _framework density 15.150117
#
# number of rings (size 3 to 8) (size 9 to 14) (size 15 to 20)
#    0.000    2.750    1.250    1.500    0.000    5.000 
#    0.000    0.000    0.000    0.000    0.000    0.000 
#    0.000    0.000    0.000    1.125    0.000   17.500 
#
# Total GULP energy -793008.709708 kJ/mol
# GULP energy per Si atom -12390.761089 kJ/mol
# Density = 1.511563 g / cm^3
# Si number density = 15.150117 Si / 1000 Ang^3
#
#
#
# Elastic Constant Matrix: (Units=GPa)
#
#
# Indices 1 2 3 4 5 6 
#
# 1 157.7405 34.4103 70.5385 0.0000 0.0000 0.0000
# 2 34.4103 31.0049 26.3410 0.0000 0.0000 0.0000
# 3 70.5385 26.3410 92.5333 0.0000 0.0000 0.0000
# 4 0.0000 0.0000 0.0000 14.1938 0.0000 0.0000
# 5 0.0000 0.0000 0.0000 0.0000 26.2041 0.0000
# 6 0.0000 0.0000 0.0000 0.0000 0.0000 12.0718
#
#
#
# Elastic Compliance Matrix: (Units=1/GPa)
#
#
# Indices 1 2 3 4 5 6 
#
# 1 0.010501 -0.006402 -0.006182 0.000000 0.000000 0.000000
# 2 -0.006402 0.046444 -0.008341 0.000000 0.000000 0.000000
# 3 -0.006182 -0.008341 0.017894 0.000000 0.000000 0.000000
# 4 0.000000 0.000000 0.000000 0.070453 0.000000 0.000000
# 5 0.000000 0.000000 0.000000 0.000000 0.038162 0.000000
# 6 0.000000 0.000000 0.000000 0.000000 0.000000 0.082838
#
#
# Mechanical properties :
#
#
# Convention : Reuss Voigt Hill
#
# Bulk Modulus (GPa) = 30.31324 60.42870 45.37097
# Shear Modulus (GPa) = 15.66720 20.49319 18.08019
#
# Velocity S-wave (km/s) = 3.21928 3.68186 3.45831
# Velocity P-wave (km/s) = 5.81982 7.61893 6.77932
#
# Compressibility (1/GPa) = 0.03298888
#
# Stress axis : x y z
#
# Youngs Moduli (GPa) = 95.23232 21.53126 55.88412
#
# Poissons Ratio (x) = 0.13783 0.34550
# Poissons Ratio (y) = 0.60964 0.46613
# Poissons Ratio (z) = 0.58876 0.17959
#
# Static dielectric constant tensor:
#      x y z
#    x 3.449280 0.000000 0.000000 
#    y 0.000000 2.354880 0.000000 
#    z 0.000000 0.000000 3.044330 
# 
# 
# High freq. dielectric constant tensor:
#      x y z
#    x 1.600520 0.000000 0.000000 
#    y 0.000000 1.495370 0.000000 
#    z 0.000000 0.000000 1.594360 
# 
# From -- ./inp_files/8788.got.cif
#   From: 2010.03.12/outbox.cif.g09.slc.cpg/sg57_5_cif.got.tgz:8788.got - 2010.04.16 15:48:40.
