data_PCOD8230398
_publ_section_title
;
Structure prediction by ZEFSAII (Michael W. Deem and Ramdas Pophale) SiO2 
 PCOD8230398
Probable space group: P B C M
;
_chemical_formula_sum "Si O2"
_cell_formula_units_Z 48
_cell_length_a 28.608080
_cell_length_b 8.427683
_cell_length_c 10.110081
_cell_angle_alpha 90.000000
_cell_angle_beta 90.000000
_cell_angle_gamma 90.000000
_cell_volume 2437.538805
_symmetry_space_group_name_H-M "P B C M"
_symmetry_group_IT_number 57
_symmetry_cell_setting 'orthorhombic'
loop_
_space_group_symop_operation_xyz
x,y,z
-x,-y,1/2+z
x,1/2-y,-z
-x,1/2+y,1/2-z
-x,-y,-z
x,y,1/2-z
-x,1/2+y,z
x,1/2-y,1/2+z
loop_
_atom_site_type_symbol
_atom_site_label
_atom_site_fract_x
_atom_site_fract_y
_atom_site_fract_z
Si Si1 0.605514 0.561342 0.486136
Si Si2 0.939230 0.063859 0.250000
Si Si3 0.298252 0.103452 0.098565
Si Si4 0.802588 0.894352 0.599977
Si Si5 0.559731 0.971837 0.250000
Si Si6 0.899527 0.561023 0.485239
Si Si7 0.457550 0.400921 0.750000
Si Si8 0.959400 0.432958 0.250000
O O1 0.609726 0.750000 0.500000
O O2 0.656959 0.495670 0.443092
O O3 0.590054 0.479286 0.622342
O O4 0.566289 0.519333 0.377820
O O5 0.951377 0.247097 0.250000
O O6 0.908334 0.024610 0.377048
O O7 0.985313 0.957145 0.250000
O O8 0.306252 0.162374 0.250000
O O9 0.247683 0.013131 0.087874
O O10 0.295657 0.250000 0.000000
O O11 0.801912 0.750000 0.500000
O O12 0.808183 0.830219 0.750000
O O13 0.848226 0.999290 0.564652
O O14 0.549019 0.786576 0.250000
O O15 0.512318 0.069666 0.250000
O O16 0.900881 0.750000 0.500000
O O17 0.938676 0.511968 0.380840
#
# Coordination Sequence:
#
# PCOD8230398 Si02
#       8
#     8   4   8   8   4   8   4   4
#     4   9  17  28  44  68  97 130 165 211 260 315
#     4  12  26  40  63  86 118 156 197 242 285 338
#     4   9  16  27  45  73 105 136 168 213 270 322
#     4   9  18  31  52  81 113 143 178 224 277 335
#     4  10  20  30  47  66  98 128 171 210 263 308
#     4  11  22  39  61  89 120 154 189 235 288 342
#     4  10  18  32  45  68  92 130 165 210 257 310
#     4  12  24  44  61  88 118 156 199 238 285 340
#
# _framework density 19.691994000000001
#
# number of rings (size 3 to 8) (size 9 to 14) (size 15 to 20)
#    0.000    2.000    1.667    3.000    7.000    0.000 
#    0.000    0.000    0.000    0.000    0.000    7.000 
#    0.000    0.000    0.000    0.000    0.000    0.000 
#
# Total GULP energy -594802.272185 kJ/mol
# GULP energy per Si atom -12391.714004 kJ/mol
# Density = 1.964717 g / cm^3
# Si number density = 19.691994 Si / 1000 Ang^3
#
#
#
# Elastic Constant Matrix: (Units=GPa)
#
#
# Indices 1 2 3 4 5 6 
#
# 1 176.5446 15.5680 77.1167 0.0000 0.0000 0.0000
# 2 15.5680 46.1279 17.8471 0.0000 0.0000 0.0000
# 3 77.1167 17.8471 174.6977 0.0000 0.0000 0.0000
# 4 0.0000 0.0000 0.0000 24.0695 0.0000 0.0000
# 5 0.0000 0.0000 0.0000 0.0000 38.2549 0.0000
# 6 0.0000 0.0000 0.0000 0.0000 0.0000 13.4498
#
#
#
# Elastic Compliance Matrix: (Units=1/GPa)
#
#
# Indices 1 2 3 4 5 6 
#
# 1 0.007084 -0.001230 -0.003001 0.000000 0.000000 0.000000
# 2 -0.001230 0.022784 -0.001785 0.000000 0.000000 0.000000
# 3 -0.003001 -0.001785 0.007231 0.000000 0.000000 0.000000
# 4 0.000000 0.000000 0.000000 0.041546 0.000000 0.000000
# 5 0.000000 0.000000 0.000000 0.000000 0.026140 0.000000
# 6 0.000000 0.000000 0.000000 0.000000 0.000000 0.074351
#
#
# Mechanical properties :
#
#
# Convention : Reuss Voigt Hill
#
# Bulk Modulus (GPa) = 39.89154 68.71490 54.30322
# Shear Modulus (GPa) = 25.05957 34.27739 29.66848
#
# Velocity S-wave (km/s) = 3.57119 4.17667 3.88574
# Velocity P-wave (km/s) = 6.10788 7.63086 6.91145
#
# Compressibility (1/GPa) = 0.02506797
#
# Stress axis : x y z
#
# Youngs Moduli (GPa) = 141.16830 43.88973 138.28559
#
# Poissons Ratio (x) = 0.05396 0.41505
# Poissons Ratio (y) = 0.17357 0.24683
# Poissons Ratio (z) = 0.42370 0.07834
#
# Static dielectric constant tensor:
#      x y z
#    x 4.612940 0.000000 0.000000 
#    y 0.000000 2.930870 0.000000 
#    z 0.000000 0.000000 3.950700 
# 
# 
# High freq. dielectric constant tensor:
#      x y z
#    x 1.800390 0.000000 0.000000 
#    y 0.000000 1.688470 0.000000 
#    z 0.000000 0.000000 1.794180 
# 
# From -- ./inp_files/10212.got.cif
#   From: 2010.03.12/outbox.cif.g09.slc.cpg/sg57_6_cif.got.tgz:10212.got - 2010.04.16 15:48:40.
