data_PCOD8230976
_publ_section_title
;
Structure prediction by ZEFSAII (Michael W. Deem and Ramdas Pophale) SiO2 
 PCOD8230976
Probable space group: P B C M
;
_chemical_formula_sum "Si O2"
_cell_formula_units_Z 64
_cell_length_a 22.816561
_cell_length_b 17.295266
_cell_length_c 9.121959
_cell_angle_alpha 90.000000
_cell_angle_beta 90.000000
_cell_angle_gamma 90.000000
_cell_volume 3599.693702
_symmetry_space_group_name_H-M "P B C M"
_symmetry_group_IT_number 57
_symmetry_cell_setting 'orthorhombic'
loop_
_space_group_symop_operation_xyz
x,y,z
-x,-y,1/2+z
x,1/2-y,-z
-x,1/2+y,1/2-z
-x,-y,-z
x,y,1/2-z
-x,1/2+y,z
x,1/2-y,1/2+z
loop_
_atom_site_type_symbol
_atom_site_label
_atom_site_fract_x
_atom_site_fract_y
_atom_site_fract_z
Si Si1 0.132313 0.978237 0.420906
Si Si2 0.735060 0.508850 0.419547
Si Si3 0.059593 0.829394 0.418969
Si Si4 0.306341 0.176070 0.420276
Si Si5 0.547263 0.329572 0.423377
Si Si6 0.959902 0.938526 0.079413
Si Si7 0.582271 0.622237 0.582666
Si Si8 0.375003 0.952291 0.918356
O O1 0.119742 0.991325 0.250000
O O2 0.104164 0.052224 0.506166
O O3 0.200880 0.976703 0.456316
O O4 0.103654 0.897200 0.474183
O O5 0.718066 0.494701 0.250000
O O6 0.732424 0.600447 0.454653
O O7 0.690972 0.462882 0.523651
O O8 0.073250 0.750000 0.500000
O O9 0.071994 0.813458 0.250000
O O10 0.991505 0.855312 0.444181
O O11 0.276992 0.250000 0.500000
O O12 0.309595 0.194187 0.250000
O O13 0.372363 0.165857 0.478590
O O14 0.563253 0.250000 0.500000
O O15 0.553233 0.321630 0.250000
O O16 0.482354 0.355452 0.470518
O O17 0.594081 0.390484 0.479870
O O18 0.955515 0.958375 0.250000
O O19 0.000000 0.000000 0.000000
O O20 0.594007 0.647894 0.750000
O O21 0.588381 0.530638 0.565723
O O22 0.372597 0.924447 0.750000
#
# Coordination Sequence:
#
# PCOD8230976 Si02
#       8
#     8   8   8   8   8   8   8   8
#     4   9  18  34  54  75 100 133 174 213 249 293
#     4   9  19  36  55  73  98 136 175 209 250 299
#     4   9  18  31  49  75 104 132 163 203 248 292
#     4  10  19  31  50  74 100 131 165 205 256 308
#     4  11  22  35  51  73 101 132 166 207 258 311
#     4   9  17  30  49  74 101 129 161 197 242 293
#     4   9  19  34  53  76 100 127 162 206 255 311
#     4  10  20  35  54  76 101 130 167 210 255 305
#
# _framework density 17.779291000000001
#
# number of rings (size 3 to 8) (size 9 to 14) (size 15 to 20)
#    0.000    2.500    0.000    3.000    0.000    6.000 
#    0.000    1.250    0.000    4.500    0.000    0.000 
#    0.000    0.000    0.000    0.000    0.000    0.000 
#
# Total GULP energy -793502.090405 kJ/mol
# GULP energy per Si atom -12398.470163 kJ/mol
# Density = 1.773882 g / cm^3
# Si number density = 17.779291 Si / 1000 Ang^3
#
#
#
# Elastic Constant Matrix: (Units=GPa)
#
#
# Indices 1 2 3 4 5 6 
#
# 1 68.0763 39.3979 35.3073 0.0000 0.0000 0.0000
# 2 39.3979 88.5401 40.4883 0.0000 0.0000 0.0000
# 3 35.3073 40.4883 79.2370 0.0000 0.0000 0.0000
# 4 0.0000 0.0000 0.0000 32.5725 0.0000 0.0000
# 5 0.0000 0.0000 0.0000 0.0000 27.6208 0.0000
# 6 0.0000 0.0000 0.0000 0.0000 0.0000 17.2855
#
#
#
# Elastic Compliance Matrix: (Units=1/GPa)
#
#
# Indices 1 2 3 4 5 6 
#
# 1 0.021919 -0.006899 -0.006242 0.000000 0.000000 0.000000
# 2 -0.006899 0.016910 -0.005566 0.000000 0.000000 0.000000
# 3 -0.006242 -0.005566 0.018246 0.000000 0.000000 0.000000
# 4 0.000000 0.000000 0.000000 0.030701 0.000000 0.000000
# 5 0.000000 0.000000 0.000000 0.000000 0.036205 0.000000
# 6 0.000000 0.000000 0.000000 0.000000 0.000000 0.057852
#
#
# Mechanical properties :
#
#
# Convention : Reuss Voigt Hill
#
# Bulk Modulus (GPa) = 50.86336 51.80449 51.33392
# Shear Modulus (GPa) = 22.14347 23.53975 22.84161
#
# Velocity S-wave (km/s) = 3.53294 3.64263 3.58820
# Velocity P-wave (km/s) = 6.73146 6.84780 6.78988
#
# Compressibility (1/GPa) = 0.01966052
#
# Stress axis : x y z
#
# Youngs Moduli (GPa) = 45.62158 59.13780 54.80704
#
# Poissons Ratio (x) = 0.40801 0.34209
# Poissons Ratio (y) = 0.31476 0.30507
# Poissons Ratio (z) = 0.28476 0.32917
#
# Static dielectric constant tensor:
#      x y z
#    x 3.148880 0.000000 0.000000 
#    y 0.000000 3.284080 0.000000 
#    z 0.000000 0.000000 3.428850 
# 
# 
# High freq. dielectric constant tensor:
#      x y z
#    x 1.675160 0.000000 0.000000 
#    y 0.000000 1.679460 0.000000 
#    z 0.000000 0.000000 1.695760 
# 
# From -- ./inp_files/8577.got.cif
#   From: 2010.03.12/outbox.cif.g09.slc.cpg/sg57_5_cif.got.tgz:8577.got - 2010.04.16 15:48:40.
