data_PCOD8230469
_publ_section_title
;
Structure prediction by ZEFSAII (Michael W. Deem and Ramdas Pophale) SiO2 
 PCOD8230469
Probable space group: P B C M
;
_chemical_formula_sum "Si O2"
_cell_formula_units_Z 64
_cell_length_a 14.855800
_cell_length_b 29.588005
_cell_length_c 8.816206
_cell_angle_alpha 90.000000
_cell_angle_beta 90.000000
_cell_angle_gamma 90.000000
_cell_volume 3875.194069
_symmetry_space_group_name_H-M "P B C M"
_symmetry_group_IT_number 57
_symmetry_cell_setting 'orthorhombic'
loop_
_space_group_symop_operation_xyz
x,y,z
-x,-y,1/2+z
x,1/2-y,-z
-x,1/2+y,1/2-z
-x,-y,-z
x,y,1/2-z
-x,1/2+y,z
x,1/2-y,1/2+z
loop_
_atom_site_type_symbol
_atom_site_label
_atom_site_fract_x
_atom_site_fract_y
_atom_site_fract_z
Si Si1 0.494832 0.795003 0.927160
Si Si2 0.328771 0.036991 0.569272
Si Si3 0.785168 0.388613 0.927281
Si Si4 0.290947 0.705238 0.071675
Si Si5 0.125604 0.032215 0.928262
Si Si6 0.538949 0.894469 0.570268
Si Si7 0.041710 0.561398 0.074910
Si Si8 0.369400 0.556511 0.569952
O O1 0.494414 0.786953 0.750000
O O2 0.392831 0.800517 0.988164
O O3 0.547411 0.841021 0.968598
O O4 0.539889 0.750000 0.000000
O O5 0.335155 0.031455 0.750000
O O6 0.225987 0.041375 0.510825
O O7 0.378695 0.082069 0.515392
O O8 0.377490 0.994534 0.490831
O O9 0.760545 0.396100 0.750000
O O10 0.765651 0.337983 0.982613
O O11 0.891226 0.396844 0.955887
O O12 0.727697 0.423979 0.024686
O O13 0.287545 0.709969 0.250000
O O14 0.246586 0.750000 0.000000
O O15 0.127385 0.035335 0.750000
O O16 0.093326 0.983161 0.985721
O O17 0.053470 0.068910 0.990044
O O18 0.543535 0.902862 0.750000
O O19 0.444624 0.913035 0.509307
O O20 0.018491 0.555927 0.250000
O O21 0.383151 0.556934 0.750000
#
# Coordination Sequence:
#
# PCOD8230469 Si02
#       8
#     8   8   8   8   8   8   8   8
#     4   9  18  32  51  71  96 127 159 201 245 289
#     4  11  22  37  52  69  98 135 170 207 248 290
#     4  10  18  33  51  70  99 135 165 198 244 290
#     4   9  17  30  48  69  96 128 160 196 242 290
#     4   9  18  32  49  69  96 126 157 199 244 283
#     4  11  22  37  52  71  99 133 168 205 247 291
#     4   9  17  30  50  71  94 125 160 197 238 287
#     4  12  23  33  48  72  99 134 172 206 238 286
#
# _framework density 16.515301000000001
#
# number of rings (size 3 to 8) (size 9 to 14) (size 15 to 20)
#    0.000    2.000    2.500    2.250    0.000    3.000 
#    0.000    0.000    0.000    0.000    0.000    0.875 
#    0.000    2.000    0.000    0.000    0.000    0.000 
#
# Total GULP energy -793533.886990 kJ/mol
# GULP energy per Si atom -12398.966984 kJ/mol
# Density = 1.647771 g / cm^3
# Si number density = 16.515301 Si / 1000 Ang^3
#
#
#
# Elastic Constant Matrix: (Units=GPa)
#
#
# Indices 1 2 3 4 5 6 
#
# 1 71.0565 33.4814 18.8247 0.0000 0.0000 0.0000
# 2 33.4814 110.0842 25.1480 0.0000 0.0000 0.0000
# 3 18.8247 25.1480 38.2496 0.0000 0.0000 0.0000
# 4 0.0000 0.0000 0.0000 26.6841 0.0000 0.0000
# 5 0.0000 0.0000 0.0000 0.0000 25.4610 0.0000
# 6 0.0000 0.0000 0.0000 0.0000 0.0000 19.1880
#
#
#
# Elastic Compliance Matrix: (Units=1/GPa)
#
#
# Indices 1 2 3 4 5 6 
#
# 1 0.017534 -0.003956 -0.006029 0.000000 0.000000 0.000000
# 2 -0.003956 0.011582 -0.005668 0.000000 0.000000 0.000000
# 3 -0.006029 -0.005668 0.032838 0.000000 0.000000 0.000000
# 4 0.000000 0.000000 0.000000 0.037475 0.000000 0.000000
# 5 0.000000 0.000000 0.000000 0.000000 0.039276 0.000000
# 6 0.000000 0.000000 0.000000 0.000000 0.000000 0.052116
#
#
# Mechanical properties :
#
#
# Convention : Reuss Voigt Hill
#
# Bulk Modulus (GPa) = 32.62754 41.58871 37.10812
# Shear Modulus (GPa) = 21.51998 23.72905 22.62451
#
# Velocity S-wave (km/s) = 3.61367 3.79462 3.70525
# Velocity P-wave (km/s) = 6.10003 6.66599 6.38928
#
# Compressibility (1/GPa) = 0.03064895
#
# Stress axis : x y z
#
# Youngs Moduli (GPa) = 57.03070 86.34200 30.45289
#
# Poissons Ratio (x) = 0.34155 0.18360
# Poissons Ratio (y) = 0.22560 0.17260
# Poissons Ratio (z) = 0.34383 0.48938
#
# Static dielectric constant tensor:
#      x y z
#    x 3.097960 0.000000 0.000000 
#    y 0.000000 3.169760 0.000000 
#    z 0.000000 0.000000 3.064960 
# 
# 
# High freq. dielectric constant tensor:
#      x y z
#    x 1.615450 0.000000 0.000000 
#    y 0.000000 1.623090 0.000000 
#    z 0.000000 0.000000 1.636820 
# 
# From -- ./inp_files/5969.got.cif
#   From: 2010.03.12/outbox.cif.g09.slc.cpg/sg57_3_cif.got.tgz:5969.got - 2010.04.16 15:48:40.
