data_PCOD8230609
_publ_section_title
;
Structure prediction by ZEFSAII (Michael W. Deem and Ramdas Pophale) SiO2 
 PCOD8230609
Probable space group: P B C M
;
_chemical_formula_sum "Si O2"
_cell_formula_units_Z 56
_cell_length_a 20.191618
_cell_length_b 9.104769
_cell_length_c 12.935331
_cell_angle_alpha 90.000000
_cell_angle_beta 90.000000
_cell_angle_gamma 90.000000
_cell_volume 2378.031479
_symmetry_space_group_name_H-M "P B C M"
_symmetry_group_IT_number 57
_symmetry_cell_setting 'orthorhombic'
loop_
_space_group_symop_operation_xyz
x,y,z
-x,-y,1/2+z
x,1/2-y,-z
-x,1/2+y,1/2-z
-x,-y,-z
x,y,1/2-z
-x,1/2+y,z
x,1/2-y,1/2+z
loop_
_atom_site_type_symbol
_atom_site_label
_atom_site_fract_x
_atom_site_fract_y
_atom_site_fract_z
Si Si1 0.470328 0.122335 0.571843
Si Si2 0.167341 0.841632 0.364313
Si Si3 0.611495 0.357972 0.362391
Si Si4 0.083267 0.161592 0.625787
Si Si5 0.960668 0.979754 0.630191
Si Si6 0.349389 0.540966 0.421439
Si Si7 0.202809 0.974641 0.933322
O O1 0.442516 0.250000 0.500000
O O2 0.531996 0.174453 0.642001
O O3 0.500000 0.000000 0.500000
O O4 0.405971 0.059392 0.633664
O O5 0.190370 0.889795 0.250000
O O6 0.091526 0.888440 0.384512
O O7 0.212076 0.929508 0.446244
O O8 0.172526 0.666012 0.374030
O O9 0.631698 0.423564 0.250000
O O10 0.634325 0.464255 0.454981
O O11 0.648765 0.204404 0.377453
O O12 0.082750 0.165634 0.750000
O O13 0.066063 0.325599 0.580955
O O14 0.030025 0.040852 0.582568
O O15 0.155556 0.113653 0.585559
O O16 0.973611 0.946973 0.750000
O O17 0.276213 0.480406 0.395449
#
# Coordination Sequence:
#
# PCOD8230609 Si02
#       7
#     8   8   8   8   8   8   8
#     4  10  18  39  62  83 120 156 193 252 300 349
#     4  10  21  39  61  86 117 156 206 257 298 355
#     4  10  19  35  64  90 116 155 202 254 302 357
#     4  10  20  37  61  91 124 159 201 253 308 367
#     4   9  19  37  63  91 123 160 203 258 314 355
#     4  10  22  39  56  90 126 157 201 248 306 362
#     4  11  23  37  61  90 121 163 203 241 307 375
#
# _framework density 23.54889
#
# number of rings (size 3 to 8) (size 9 to 14) (size 15 to 20)
#    0.000    2.000    2.857    3.000    0.000    6.857 
#    2.571    0.000    0.000    0.000    0.000    0.000 
#    0.000    0.000    0.000    0.000    0.000    0.000 
#
# Total GULP energy -694124.427644 kJ/mol
# GULP energy per Si atom -12395.079065 kJ/mol
# Density = 2.349529 g / cm^3
# Si number density = 23.548890 Si / 1000 Ang^3
#
#
#
# Elastic Constant Matrix: (Units=GPa)
#
#
# Indices 1 2 3 4 5 6 
#
# 1 190.5399 63.7365 11.4131 0.0000 0.0000 0.0000
# 2 63.7365 106.1415 12.8186 0.0000 0.0000 0.0000
# 3 11.4131 12.8186 71.7226 0.0000 0.0000 0.0000
# 4 0.0000 0.0000 0.0000 20.8004 0.0000 0.0000
# 5 0.0000 0.0000 0.0000 0.0000 -45.9467 0.0000
# 6 0.0000 0.0000 0.0000 0.0000 0.0000 39.7713
#
#
#
# Elastic Compliance Matrix: (Units=1/GPa)
#
#
# Indices 1 2 3 4 5 6 
#
# 1 0.006576 -0.003907 -0.000348 0.000000 0.000000 0.000000
# 2 -0.003907 0.011950 -0.001514 0.000000 0.000000 0.000000
# 3 -0.000348 -0.001514 0.014269 0.000000 0.000000 0.000000
# 4 0.000000 0.000000 0.000000 0.048076 0.000000 0.000000
# 5 0.000000 0.000000 0.000000 0.000000 -0.021764 0.000000
# 6 0.000000 0.000000 0.000000 0.000000 0.000000 0.025144
#
#
# Mechanical properties :
#
#
# Convention : Reuss Voigt Hill
#
# Bulk Modulus (GPa) = 47.04406 60.48228 53.76317
# Shear Modulus (GPa) = 48.60334 21.62073 35.11204
#
# Velocity S-wave (km/s) = 4.54798 3.03334 3.86557
# Velocity P-wave (km/s) = 6.89923 6.16504 6.54244
#
# Compressibility (1/GPa) = 0.02125667
#
# Stress axis : x y z
#
# Youngs Moduli (GPa) = 152.07024 83.68090 70.08386
#
# Poissons Ratio (x) = 0.32692 0.02440
# Poissons Ratio (y) = 0.59409 0.10612
# Poissons Ratio (z) = 0.05295 0.12670
#
# Static dielectric constant tensor:
#      x y z
#    x 4.594650 0.000000 0.000000 
#    y 0.000000 4.075400 0.000000 
#    z 0.000000 0.000000 4.300370 
# 
# 
# High freq. dielectric constant tensor:
#      x y z
#    x 1.931910 0.000000 0.000000 
#    y 0.000000 1.906460 0.000000 
#    z 0.000000 0.000000 1.934510 
# 
# From -- ./inp_files/19320.got.cif
#   From: 2010.03.12/outbox.cif.g09.slc.cpg/sg57_10_cif.got.tgz:19320.got - 2010.04.16 15:48:40.
