data_PCOD8230380
_publ_section_title
;
Structure prediction by ZEFSAII (Michael W. Deem and Ramdas Pophale) SiO2 
 PCOD8230380
Probable space group: P B C M
;
_chemical_formula_sum "Si O2"
_cell_formula_units_Z 48
_cell_length_a 30.810230
_cell_length_b 9.454466
_cell_length_c 8.697333
_cell_angle_alpha 90.000000
_cell_angle_beta 90.000000
_cell_angle_gamma 90.000000
_cell_volume 2533.483284
_symmetry_space_group_name_H-M "P B C M"
_symmetry_group_IT_number 57
_symmetry_cell_setting 'orthorhombic'
loop_
_space_group_symop_operation_xyz
x,y,z
-x,-y,1/2+z
x,1/2-y,-z
-x,1/2+y,1/2-z
-x,-y,-z
x,y,1/2-z
-x,1/2+y,z
x,1/2-y,1/2+z
loop_
_atom_site_type_symbol
_atom_site_label
_atom_site_fract_x
_atom_site_fract_y
_atom_site_fract_z
Si Si1 0.035010 0.400554 0.573901
Si Si2 0.620150 0.095752 0.069376
Si Si3 0.205160 0.595016 0.068425
Si Si4 0.133016 0.096469 0.071334
Si Si5 0.537876 0.593804 0.569693
Si Si6 0.707915 0.093381 0.567314
O O1 0.030135 0.250000 0.500000
O O2 0.023288 0.384507 0.750000
O O3 0.083800 0.459061 0.550131
O O4 0.000000 0.500000 0.500000
O O5 0.627088 0.115905 0.250000
O O6 0.582436 0.985730 0.030149
O O7 0.609125 0.250000 0.000000
O O8 0.663335 0.024653 0.994758
O O9 0.209851 0.604825 0.250000
O O10 0.199371 0.750000 0.000000
O O11 0.163109 0.507706 0.023544
O O12 0.248480 0.519184 0.998425
O O13 0.146379 0.099893 0.250000
O O14 0.138671 0.250000 0.000000
O O15 0.538388 0.750000 0.500000
O O16 0.500000 0.500000 0.500000
O O17 0.530201 0.607703 0.750000
O O18 0.708034 0.250000 0.500000
O O19 0.708778 0.091926 0.750000
#
# Coordination Sequence:
#
# PCOD8230380 Si02
#       6
#     8   8   8   8   8   8
#     4  10  21  37  58  81 109 142 180 224 272 326
#     4  10  20  35  56  83 111 144 183 225 273 327
#     4  11  21  35  56  82 112 146 185 231 274 321
#     4  10  21  38  57  80 109 144 182 223 273 329
#     4  11  24  40  60  84 114 148 186 230 277 328
#     4  10  18  31  53  80 110 144 181 225 273 325
#
# _framework density 18.946247
#
# number of rings (size 3 to 8) (size 9 to 14) (size 15 to 20)
#    0.000    1.667    0.000    7.500    0.000    6.667 
#    0.000    0.833    0.000    2.000    0.000    0.000 
#    0.000    0.000    0.000    0.000    0.000    0.000 
#
# Total GULP energy -595152.666524 kJ/mol
# GULP energy per Si atom -12399.013886 kJ/mol
# Density = 1.890312 g / cm^3
# Si number density = 18.946247 Si / 1000 Ang^3
#
#
#
# Elastic Constant Matrix: (Units=GPa)
#
#
# Indices 1 2 3 4 5 6 
#
# 1 154.1174 66.6739 90.8281 0.0000 0.0000 0.0000
# 2 66.6739 82.0817 55.8255 0.0000 0.0000 0.0000
# 3 90.8281 55.8255 168.0432 0.0000 0.0000 0.0000
# 4 0.0000 0.0000 0.0000 32.5437 0.0000 0.0000
# 5 0.0000 0.0000 0.0000 0.0000 35.4140 0.0000
# 6 0.0000 0.0000 0.0000 0.0000 0.0000 28.8184
#
#
#
# Elastic Compliance Matrix: (Units=1/GPa)
#
#
# Indices 1 2 3 4 5 6 
#
# 1 0.011897 -0.006834 -0.004160 0.000000 0.000000 0.000000
# 2 -0.006834 0.019665 -0.002839 0.000000 0.000000 0.000000
# 3 -0.004160 -0.002839 0.009142 0.000000 0.000000 0.000000
# 4 0.000000 0.000000 0.000000 0.030728 0.000000 0.000000
# 5 0.000000 0.000000 0.000000 0.000000 0.028237 0.000000
# 6 0.000000 0.000000 0.000000 0.000000 0.000000 0.034700
#
#
# Mechanical properties :
#
#
# Convention : Reuss Voigt Hill
#
# Bulk Modulus (GPa) = 76.69829 92.32193 84.51011
# Shear Modulus (GPa) = 30.05125 32.08288 31.06706
#
# Velocity S-wave (km/s) = 3.98695 4.11951 4.05377
# Velocity P-wave (km/s) = 7.85902 8.45348 8.16167
#
# Compressibility (1/GPa) = 0.01303810
#
# Stress axis : x y z
#
# Youngs Moduli (GPa) = 84.05601 50.85084 109.38072
#
# Poissons Ratio (x) = 0.34754 0.45500
# Poissons Ratio (y) = 0.57448 0.31053
# Poissons Ratio (z) = 0.34966 0.14436
#
# Static dielectric constant tensor:
#      x y z
#    x 4.177430 0.000000 0.000000 
#    y 0.000000 3.284710 0.000000 
#    z 0.000000 0.000000 3.700150 
# 
# 
# High freq. dielectric constant tensor:
#      x y z
#    x 1.759920 0.000000 0.000000 
#    y 0.000000 1.708480 0.000000 
#    z 0.000000 0.000000 1.760680 
# 
# From -- ./inp_files/9899.got.cif
#   From: 2010.03.12/outbox.cif.g09.slc.cpg/sg57_5_cif.got.tgz:9899.got - 2010.04.16 15:48:40.
