data_PCOD8230842
_publ_section_title
;
Structure prediction by ZEFSAII (Michael W. Deem and Ramdas Pophale) SiO2 
 PCOD8230842
Probable space group: P B C M
;
_chemical_formula_sum "Si O2"
_cell_formula_units_Z 64
_cell_length_a 21.741383
_cell_length_b 19.453226
_cell_length_c 9.402305
_cell_angle_alpha 90.000000
_cell_angle_beta 90.000000
_cell_angle_gamma 90.000000
_cell_volume 3976.611225
_symmetry_space_group_name_H-M "P B C M"
_symmetry_group_IT_number 57
_symmetry_cell_setting 'orthorhombic'
loop_
_space_group_symop_operation_xyz
x,y,z
-x,-y,1/2+z
x,1/2-y,-z
-x,1/2+y,1/2-z
-x,-y,-z
x,y,1/2-z
-x,1/2+y,z
x,1/2-y,1/2+z
loop_
_atom_site_type_symbol
_atom_site_label
_atom_site_fract_x
_atom_site_fract_y
_atom_site_fract_z
Si Si1 0.553882 0.036314 0.585127
Si Si2 0.022371 0.409976 0.588179
Si Si3 0.094118 0.519967 0.413421
Si Si4 0.476661 0.685475 0.586905
Si Si5 0.666904 0.941817 0.586596
Si Si6 0.806915 0.958275 0.913751
Si Si7 0.128742 0.317363 0.911989
Si Si8 0.619883 0.816319 0.416207
O O1 0.535598 0.030345 0.750000
O O2 0.559045 0.116399 0.541192
O O3 0.500000 0.000000 0.500000
O O4 0.619611 0.002918 0.551868
O O5 0.036611 0.436599 0.750000
O O6 0.051600 0.458621 0.469714
O O7 0.055748 0.335936 0.569845
O O8 0.947644 0.410205 0.567360
O O9 0.111075 0.507423 0.250000
O O10 0.157833 0.519078 0.500969
O O11 0.450291 0.750000 0.500000
O O12 0.466062 0.703998 0.750000
O O13 0.548094 0.672506 0.553240
O O14 0.659134 0.916542 0.750000
O O15 0.735065 0.969502 0.558166
O O16 0.656197 0.880464 0.478086
O O17 0.823953 0.967903 0.750000
O O18 0.829741 0.882372 0.963254
O O19 0.144798 0.299662 0.750000
O O20 0.146061 0.250000 0.000000
O O21 0.644275 0.750000 0.500000
O O22 0.634377 0.808052 0.250000
#
# Coordination Sequence:
#
# PCOD8230842 Si02
#       8
#     8   8   8   8   8   8   8   8
#     4  10  19  32  50  72  95 119 153 198 248 293
#     4   8  15  27  42  62  88 114 140 180 227 262
#     4   9  15  25  44  66  84 108 144 182 222 263
#     4   9  18  31  47  69  93 117 146 185 235 290
#     4  10  20  33  49  67  91 126 163 198 242 293
#     4   9  19  33  44  60  90 124 154 187 229 273
#     4   9  17  29  43  60  88 121 152 184 216 254
#     4  10  19  31  46  65  92 122 156 195 235 283
#
# _framework density 16.094106
#
# number of rings (size 3 to 8) (size 9 to 14) (size 15 to 20)
#    0.000    2.750    1.250    1.500    0.000    4.500 
#    0.000    1.250    0.000    0.000    0.000    0.875 
#    0.000    6.000    0.000    0.000    0.000    0.000 
#
# Total GULP energy -793109.771571 kJ/mol
# GULP energy per Si atom -12392.340181 kJ/mol
# Density = 1.605747 g / cm^3
# Si number density = 16.094106 Si / 1000 Ang^3
#
#
#
# Elastic Constant Matrix: (Units=GPa)
#
#
# Indices 1 2 3 4 5 6 
#
# 1 101.8271 47.0972 42.4744 0.0000 0.0000 0.0000
# 2 47.0972 61.2171 31.9042 0.0000 0.0000 0.0000
# 3 42.4744 31.9042 64.7052 0.0000 0.0000 0.0000
# 4 0.0000 0.0000 0.0000 24.2081 0.0000 0.0000
# 5 0.0000 0.0000 0.0000 0.0000 20.1996 0.0000
# 6 0.0000 0.0000 0.0000 0.0000 0.0000 16.5803
#
#
#
# Elastic Compliance Matrix: (Units=1/GPa)
#
#
# Indices 1 2 3 4 5 6 
#
# 1 0.016976 -0.009761 -0.006331 0.000000 0.000000 0.000000
# 2 -0.009761 0.027597 -0.007200 0.000000 0.000000 0.000000
# 3 -0.006331 -0.007200 0.023160 0.000000 0.000000 0.000000
# 4 0.000000 0.000000 0.000000 0.041308 0.000000 0.000000
# 5 0.000000 0.000000 0.000000 0.000000 0.049506 0.000000
# 6 0.000000 0.000000 0.000000 0.000000 0.000000 0.060313
#
#
# Mechanical properties :
#
#
# Convention : Reuss Voigt Hill
#
# Bulk Modulus (GPa) = 47.28054 52.30012 49.79033
# Shear Modulus (GPa) = 18.34902 19.28250 18.81576
#
# Velocity S-wave (km/s) = 3.38021 3.46513 3.42293
# Velocity P-wave (km/s) = 6.68399 6.96968 6.82833
#
# Compressibility (1/GPa) = 0.02115035
#
# Stress axis : x y z
#
# Youngs Moduli (GPa) = 58.90698 36.23537 43.17717
#
# Poissons Ratio (x) = 0.35370 0.27334
# Poissons Ratio (y) = 0.57500 0.31087
# Poissons Ratio (z) = 0.37292 0.26089
#
# Static dielectric constant tensor:
#      x y z
#    x 3.120340 0.000000 0.000000 
#    y 0.000000 2.967580 0.000000 
#    z 0.000000 0.000000 3.128700 
# 
# 
# High freq. dielectric constant tensor:
#      x y z
#    x 1.604590 0.000000 0.000000 
#    y 0.000000 1.587860 0.000000 
#    z 0.000000 0.000000 1.626000 
# 
# From -- ./inp_files/9558.got.cif
#   From: 2010.03.12/outbox.cif.g09.slc.cpg/sg57_5_cif.got.tgz:9558.got - 2010.04.16 15:48:40.
