data_PCOD8230059
_publ_section_title
;
Structure prediction by ZEFSAII (Michael W. Deem and Ramdas Pophale) SiO2 
 PCOD8230059
Probable space group: P B C M
;
_chemical_formula_sum "Si O2"
_cell_formula_units_Z 48
_cell_length_a 14.893278
_cell_length_b 21.602581
_cell_length_c 9.399360
_cell_angle_alpha 90.000000
_cell_angle_beta 90.000000
_cell_angle_gamma 90.000000
_cell_volume 3024.086588
_symmetry_space_group_name_H-M "P B C M"
_symmetry_group_IT_number 57
_symmetry_cell_setting 'orthorhombic'
loop_
_space_group_symop_operation_xyz
x,y,z
-x,-y,1/2+z
x,1/2-y,-z
-x,1/2+y,1/2-z
-x,-y,-z
x,y,1/2-z
-x,1/2+y,z
x,1/2-y,1/2+z
loop_
_atom_site_type_symbol
_atom_site_label
_atom_site_fract_x
_atom_site_fract_y
_atom_site_fract_z
Si Si1 0.871395 0.035586 0.085759
Si Si2 0.510852 0.436946 0.084418
Si Si3 0.191712 0.312589 0.914599
Si Si4 0.353714 0.099290 0.414967
Si Si5 0.294266 0.540034 0.910824
Si Si6 0.937032 0.920118 0.912892
O O1 0.850901 0.023641 0.250000
O O2 0.955566 0.081840 0.064270
O O3 0.783525 0.065861 0.013786
O O4 0.891711 0.970003 0.014338
O O5 0.485812 0.446051 0.250000
O O6 0.615860 0.418077 0.069159
O O7 0.500000 0.500000 0.000000
O O8 0.442809 0.388042 0.011048
O O9 0.195910 0.295360 0.750000
O O10 0.280436 0.350182 0.959768
O O11 0.103317 0.353118 0.949550
O O12 0.185052 0.250000 0.000000
O O13 0.380802 0.104688 0.250000
O O14 0.314125 0.031567 0.447928
O O15 0.259129 0.545399 0.750000
O O16 0.913041 0.938295 0.750000
#
# Coordination Sequence:
#
# PCOD8230059 Si02
#       6
#     8   8   8   8   8   8
#     4  10  18  26  45  70  89 117 155 188 222 275
#     4   9  17  27  41  62  89 120 149 179 218 264
#     4  10  20  34  49  65  90 123 156 190 231 273
#     4   9  17  30  45  61  88 123 150 182 227 267
#     4   9  16  28  43  62  93 125 144 173 230 275
#     4   9  18  33  45  60  92 124 147 185 237 275
#
# _framework density 15.872560999999999
#
# number of rings (size 3 to 8) (size 9 to 14) (size 15 to 20)
#    0.000    2.667    1.667    2.000    0.000    5.333 
#    0.000    0.000    0.000    0.000    0.000    1.167 
#    0.000    2.667    0.000    0.000    0.000    0.000 
#
# Total GULP energy -594965.558577 kJ/mol
# GULP energy per Si atom -12395.115804 kJ/mol
# Density = 1.583643 g / cm^3
# Si number density = 15.872561 Si / 1000 Ang^3
#
#
#
# Elastic Constant Matrix: (Units=GPa)
#
#
# Indices 1 2 3 4 5 6 
#
# 1 136.3525 48.4497 77.1468 0.0000 0.0000 0.0000
# 2 48.4497 64.5719 36.3096 0.0000 0.0000 0.0000
# 3 77.1468 36.3096 95.5422 0.0000 0.0000 0.0000
# 4 0.0000 0.0000 0.0000 21.5516 0.0000 0.0000
# 5 0.0000 0.0000 0.0000 0.0000 33.1851 0.0000
# 6 0.0000 0.0000 0.0000 0.0000 0.0000 16.9345
#
#
#
# Elastic Compliance Matrix: (Units=1/GPa)
#
#
# Indices 1 2 3 4 5 6 
#
# 1 0.014959 -0.005636 -0.009937 0.000000 0.000000 0.000000
# 2 -0.005636 0.021819 -0.003741 0.000000 0.000000 0.000000
# 3 -0.009937 -0.003741 0.019912 0.000000 0.000000 0.000000
# 4 0.000000 0.000000 0.000000 0.046400 0.000000 0.000000
# 5 0.000000 0.000000 0.000000 0.000000 0.030134 0.000000
# 6 0.000000 0.000000 0.000000 0.000000 0.000000 0.059051
#
#
# Mechanical properties :
#
#
# Convention : Reuss Voigt Hill
#
# Bulk Modulus (GPa) = 55.36530 68.91987 62.14258
# Shear Modulus (GPa) = 21.10388 23.30495 22.20441
#
# Velocity S-wave (km/s) = 3.65030 3.83594 3.74427
# Velocity P-wave (km/s) = 7.26107 7.94571 7.61109
#
# Compressibility (1/GPa) = 0.01806185
#
# Stress axis : x y z
#
# Youngs Moduli (GPa) = 66.85088 45.83096 50.22182
#
# Poissons Ratio (x) = 0.25832 0.49903
# Poissons Ratio (y) = 0.37680 0.18788
# Poissons Ratio (z) = 0.66427 0.17145
#
# Static dielectric constant tensor:
#      x y z
#    x 3.563380 0.000000 0.000000 
#    y 0.000000 2.544060 0.000000 
#    z 0.000000 0.000000 3.162200 
# 
# 
# High freq. dielectric constant tensor:
#      x y z
#    x 1.626440 0.000000 0.000000 
#    y 0.000000 1.543050 0.000000 
#    z 0.000000 0.000000 1.619720 
# 
# From -- ./inp_files/4829.got.cif
#   From: 2010.03.12/outbox.cif.g09.slc.cpg/sg57_3_cif.got.tgz:4829.got - 2010.04.16 15:48:40.
