data_PCOD8230053
_publ_section_title
;
Structure prediction by ZEFSAII (Michael W. Deem and Ramdas Pophale) SiO2 
 PCOD8230053
Probable space group: P B C M
;
_chemical_formula_sum "Si O2"
_cell_formula_units_Z 56
_cell_length_a 13.469311
_cell_length_b 27.631625
_cell_length_c 9.457595
_cell_angle_alpha 90.000000
_cell_angle_beta 90.000000
_cell_angle_gamma 90.000000
_cell_volume 3519.917782
_symmetry_space_group_name_H-M "P B C M"
_symmetry_group_IT_number 57
_symmetry_cell_setting 'orthorhombic'
loop_
_space_group_symop_operation_xyz
x,y,z
-x,-y,1/2+z
x,1/2-y,-z
-x,1/2+y,1/2-z
-x,-y,-z
x,y,1/2-z
-x,1/2+y,z
x,1/2-y,1/2+z
loop_
_atom_site_type_symbol
_atom_site_label
_atom_site_fract_x
_atom_site_fract_y
_atom_site_fract_z
Si Si1 0.599762 0.007707 0.414825
Si Si2 0.747869 0.293872 0.590214
Si Si3 0.769498 0.536618 0.091241
Si Si4 0.977594 0.295809 0.586063
Si Si5 0.279731 0.601028 0.410800
Si Si6 0.057906 0.101609 0.086437
Si Si7 0.890479 0.058294 0.588486
O O1 0.584802 0.995328 0.250000
O O2 0.630520 0.063730 0.437596
O O3 0.500000 0.000000 0.500000
O O4 0.683199 0.971674 0.477122
O O5 0.702208 0.250000 0.500000
O O6 0.739953 0.276170 0.750000
O O7 0.685050 0.343379 0.565622
O O8 0.862129 0.304738 0.549248
O O9 0.723457 0.534774 0.250000
O O10 0.825727 0.587691 0.064341
O O11 0.855842 0.496881 0.076058
O O12 0.019384 0.250000 0.500000
O O13 0.993323 0.284538 0.750000
O O14 0.039896 0.343049 0.539090
O O15 0.239440 0.594956 0.250000
O O16 0.191570 0.592495 0.518979
O O17 0.026837 0.094777 0.250000
O O18 0.993422 0.064918 0.992785
O O19 0.904360 0.074470 0.750000
#
# Coordination Sequence:
#
# PCOD8230053 Si02
#       7
#     8   8   8   8   8   8   8
#     4  10  20  34  53  71  92 118 148 187 232 279
#     4   9  16  27  42  62  89 120 156 187 218 261
#     4   9  19  32  46  66  91 118 152 187 222 268
#     4   9  17  28  42  60  86 122 159 191 221 258
#     4   9  17  31  47  64  89 125 156 181 221 276
#     4  10  18  30  45  61  89 127 157 184 222 268
#     4  10  18  26  40  65  93 120 152 189 220 253
#
# _framework density 15.909463000000001
#
# number of rings (size 3 to 8) (size 9 to 14) (size 15 to 20)
#    0.000    2.571    1.429    1.286    0.000    2.857 
#    0.000    0.000    0.000    0.000    0.000    1.000 
#    0.000    0.000    0.000    0.000    0.000    0.000 
#
# Total GULP energy -694216.976760 kJ/mol
# GULP energy per Si atom -12396.731728 kJ/mol
# Density = 1.587325 g / cm^3
# Si number density = 15.909463 Si / 1000 Ang^3
#
#
#
# Elastic Constant Matrix: (Units=GPa)
#
#
# Indices 1 2 3 4 5 6 
#
# 1 69.4732 37.6212 48.7679 0.0000 0.0000 0.0000
# 2 37.6212 84.5128 41.1347 0.0000 0.0000 0.0000
# 3 48.7679 41.1347 89.8583 0.0000 0.0000 0.0000
# 4 0.0000 0.0000 0.0000 24.8307 0.0000 0.0000
# 5 0.0000 0.0000 0.0000 0.0000 24.2635 0.0000
# 6 0.0000 0.0000 0.0000 0.0000 0.0000 14.7506
#
#
#
# Elastic Compliance Matrix: (Units=1/GPa)
#
#
# Indices 1 2 3 4 5 6 
#
# 1 0.025353 -0.005904 -0.011057 0.000000 0.000000 0.000000
# 2 -0.005904 0.016600 -0.004395 0.000000 0.000000 0.000000
# 3 -0.011057 -0.004395 0.019141 0.000000 0.000000 0.000000
# 4 0.000000 0.000000 0.000000 0.040273 0.000000 0.000000
# 5 0.000000 0.000000 0.000000 0.000000 0.041214 0.000000
# 6 0.000000 0.000000 0.000000 0.000000 0.000000 0.067794
#
#
# Mechanical properties :
#
#
# Convention : Reuss Voigt Hill
#
# Bulk Modulus (GPa) = 54.39933 55.43244 54.91589
# Shear Modulus (GPa) = 19.28918 20.52366 19.90642
#
# Velocity S-wave (km/s) = 3.48578 3.59559 3.54111
# Velocity P-wave (km/s) = 7.10410 7.22190 7.16324
#
# Compressibility (1/GPa) = 0.01838258
#
# Stress axis : x y z
#
# Youngs Moduli (GPa) = 39.44357 60.24169 52.24389
#
# Poissons Ratio (x) = 0.35568 0.57764
# Poissons Ratio (y) = 0.23289 0.22959
# Poissons Ratio (z) = 0.43611 0.26474
#
# Static dielectric constant tensor:
#      x y z
#    x 2.661400 0.000000 0.000000 
#    y 0.000000 3.153340 0.000000 
#    z 0.000000 0.000000 3.137980 
# 
# 
# High freq. dielectric constant tensor:
#      x y z
#    x 1.562270 0.000000 0.000000 
#    y 0.000000 1.608470 0.000000 
#    z 0.000000 0.000000 1.620540 
# 
# From -- ./inp_files/5913.got.cif
#   From: 2010.03.12/outbox.cif.g09.slc.cpg/sg57_3_cif.got.tgz:5913.got - 2010.04.16 15:48:40.
