data_PCOD8230103
_publ_section_title
;
Structure prediction by ZEFSAII (Michael W. Deem and Ramdas Pophale) SiO2 
 PCOD8230103
Probable space group: P B C M
;
_chemical_formula_sum "Si O2"
_cell_formula_units_Z 64
_cell_length_a 18.212762
_cell_length_b 25.029674
_cell_length_c 9.133521
_cell_angle_alpha 90.000000
_cell_angle_beta 90.000000
_cell_angle_gamma 90.000000
_cell_volume 4163.602275
_symmetry_space_group_name_H-M "P B C M"
_symmetry_group_IT_number 57
_symmetry_cell_setting 'orthorhombic'
loop_
_space_group_symop_operation_xyz
x,y,z
-x,-y,1/2+z
x,1/2-y,-z
-x,1/2+y,1/2-z
-x,-y,-z
x,y,1/2-z
-x,1/2+y,z
x,1/2-y,1/2+z
loop_
_atom_site_type_symbol
_atom_site_label
_atom_site_fract_x
_atom_site_fract_y
_atom_site_fract_z
Si Si1 0.264841 0.012964 0.920553
Si Si2 0.947114 0.302455 0.920592
Si Si3 0.114635 0.004457 0.420427
Si Si4 0.403165 0.045006 0.083928
Si Si5 0.675342 0.104332 0.418752
Si Si6 0.538832 0.424838 0.415172
Si Si7 0.221127 0.801709 0.921363
Si Si8 0.020693 0.919985 0.580688
O O1 0.260156 0.028089 0.750000
O O2 0.285893 0.951836 0.945288
O O3 0.326394 0.049778 0.997338
O O4 0.187233 0.023534 0.996674
O O5 0.955791 0.291427 0.750000
O O6 0.862866 0.310531 0.968174
O O7 0.987377 0.357740 0.966529
O O8 0.980919 0.250000 0.000000
O O9 0.131587 0.995059 0.250000
O O10 0.083385 0.949312 0.486497
O O11 0.057211 0.052270 0.445321
O O12 0.391757 0.064947 0.250000
O O13 0.433468 0.985275 0.081293
O O14 0.462981 0.082224 0.003675
O O15 0.654145 0.111943 0.250000
O O16 0.600930 0.111588 0.510503
O O17 0.732911 0.147737 0.475765
O O18 0.525502 0.405318 0.250000
O O19 0.228639 0.793365 0.750000
O O20 0.254353 0.750000 0.000000
O O21 0.045841 0.923642 0.750000
#
# Coordination Sequence:
#
# PCOD8230103 Si02
#       8
#     8   8   8   8   8   8   8   8
#     4  10  18  28  42  59  82 111 141 173 210 249
#     4   9  17  30  46  63  83 109 141 177 217 256
#     4  10  19  29  43  63  85 112 146 179 212 255
#     4   9  16  26  39  56  80 107 135 166 197 234
#     4   9  17  28  41  56  77 109 142 169 202 245
#     4   9  16  25  38  57  79 104 134 166 199 232
#     4   9  17  28  41  57  78 104 135 170 207 244
#     4   9  18  32  46  60  84 115 143 175 216 259
#
# _framework density 15.371306000000001
#
# number of rings (size 3 to 8) (size 9 to 14) (size 15 to 20)
#    0.000    2.750    0.000    2.250    0.000    7.000 
#    0.000    2.500    0.000    0.000    0.000    0.000 
#    0.000    1.000    0.000    6.250    0.000    4.625 
#
# Total GULP energy -793540.152402 kJ/mol
# GULP energy per Si atom -12399.064881 kJ/mol
# Density = 1.533632 g / cm^3
# Si number density = 15.371306 Si / 1000 Ang^3
#
#
#
# Elastic Constant Matrix: (Units=GPa)
#
#
# Indices 1 2 3 4 5 6 
#
# 1 85.2839 25.1011 51.0783 0.0000 0.0000 0.0000
# 2 25.1011 70.2136 29.1199 0.0000 0.0000 0.0000
# 3 51.0783 29.1199 89.7691 0.0000 0.0000 0.0000
# 4 0.0000 0.0000 0.0000 20.5363 0.0000 0.0000
# 5 0.0000 0.0000 0.0000 0.0000 28.8683 0.0000
# 6 0.0000 0.0000 0.0000 0.0000 0.0000 17.2465
#
#
#
# Elastic Compliance Matrix: (Units=1/GPa)
#
#
# Indices 1 2 3 4 5 6 
#
# 1 0.018174 -0.002552 -0.009513 0.000000 0.000000 0.000000
# 2 -0.002552 0.016814 -0.004002 0.000000 0.000000 0.000000
# 3 -0.009513 -0.004002 0.017851 0.000000 0.000000 0.000000
# 4 0.000000 0.000000 0.000000 0.048694 0.000000 0.000000
# 5 0.000000 0.000000 0.000000 0.000000 0.034640 0.000000
# 6 0.000000 0.000000 0.000000 0.000000 0.000000 0.057983
#
#
# Mechanical properties :
#
#
# Convention : Reuss Voigt Hill
#
# Bulk Modulus (GPa) = 48.29812 50.65171 49.47491
# Shear Modulus (GPa) = 21.44140 22.66138 22.05139
#
# Velocity S-wave (km/s) = 3.73889 3.84378 3.79170
# Velocity P-wave (km/s) = 7.08013 7.26107 7.17117
#
# Compressibility (1/GPa) = 0.02070474
#
# Stress axis : x y z
#
# Youngs Moduli (GPa) = 55.02258 59.47263 56.01890
#
# Poissons Ratio (x) = 0.15176 0.53293
# Poissons Ratio (y) = 0.14040 0.22421
# Poissons Ratio (z) = 0.52345 0.23804
#
# Static dielectric constant tensor:
#      x y z
#    x 2.943680 0.000000 0.000000 
#    y 0.000000 2.766960 0.000000 
#    z 0.000000 0.000000 3.056910 
# 
# 
# High freq. dielectric constant tensor:
#      x y z
#    x 1.580900 0.000000 0.000000 
#    y 0.000000 1.546790 0.000000 
#    z 0.000000 0.000000 1.600540 
# 
# From -- ./inp_files/7473.got.cif
#   From: 2010.03.12/outbox.cif.g09.slc.cpg/sg57_4_cif.got.tgz:7473.got - 2010.04.16 15:48:40.
