data_PCOD8230336
_publ_section_title
;
Structure prediction by ZEFSAII (Michael W. Deem and Ramdas Pophale) SiO2 
 PCOD8230336
Probable space group: P B C M
;
_chemical_formula_sum "Si O2"
_cell_formula_units_Z 64
_cell_length_a 16.871882
_cell_length_b 24.204875
_cell_length_c 8.690136
_cell_angle_alpha 90.000000
_cell_angle_beta 90.000000
_cell_angle_gamma 90.000000
_cell_volume 3548.893337
_symmetry_space_group_name_H-M "P B C M"
_symmetry_group_IT_number 57
_symmetry_cell_setting 'orthorhombic'
loop_
_space_group_symop_operation_xyz
x,y,z
-x,-y,1/2+z
x,1/2-y,-z
-x,1/2+y,1/2-z
-x,-y,-z
x,y,1/2-z
-x,1/2+y,z
x,1/2-y,1/2+z
loop_
_atom_site_type_symbol
_atom_site_label
_atom_site_fract_x
_atom_site_fract_y
_atom_site_fract_z
Si Si1 0.524823 0.909853 0.926003
Si Si2 0.752631 0.310927 0.066504
Si Si3 0.372690 0.306107 0.923768
Si Si4 0.355566 0.909109 0.430800
Si Si5 0.085136 0.810987 0.566502
Si Si6 0.221550 0.128695 0.066901
Si Si7 0.924472 0.689130 0.567903
Si Si8 0.678004 0.971975 0.567626
O O1 0.504533 0.924744 0.750000
O O2 0.554016 0.847182 0.940790
O O3 0.593185 0.949683 0.995681
O O4 0.446543 0.914862 0.025756
O O5 0.756333 0.306638 0.250000
O O6 0.685351 0.353386 0.004787
O O7 0.734944 0.250000 0.000000
O O8 0.834753 0.337321 0.002574
O O9 0.353260 0.292418 0.750000
O O10 0.291809 0.331355 0.992383
O O11 0.399711 0.250000 0.000000
O O12 0.348859 0.906562 0.250000
O O13 0.309725 0.964811 0.487991
O O14 0.082453 0.750000 0.500000
O O15 0.087496 0.811988 0.750000
O O16 0.004386 0.838509 0.503420
O O17 0.207236 0.132773 0.250000
O O18 0.247821 0.066370 0.016614
O O19 0.143637 0.145925 0.975401
O O20 0.906279 0.750000 0.500000
O O21 0.932864 0.694806 0.750000
O O22 0.670812 0.966012 0.750000
#
# Coordination Sequence:
#
# PCOD8230336 Si02
#       8
#     8   8   8   8   8   8   8   8
#     4   9  18  32  49  69  94 125 161 202 245 286
#     4  10  20  34  51  73 101 128 157 196 243 292
#     4   9  18  30  44  64  93 129 162 194 237 285
#     4  10  20  33  52  75  95 122 161 202 243 290
#     4  10  18  31  51  73  98 128 161 195 237 286
#     4   9  17  31  49  69  96 129 163 199 240 285
#     4  11  20  30  47  74 105 132 162 197 234 280
#     4   8  16  33  53  71  95 127 162 201 246 289
#
# _framework density 18.033791000000001
#
# number of rings (size 3 to 8) (size 9 to 14) (size 15 to 20)
#    0.000    2.500    0.000    6.375    0.000    3.500 
#    0.000    5.000    0.000    0.750    0.000    0.000 
#    0.000    0.000    0.000    0.000    0.000    0.000 
#
# Total GULP energy -793115.532648 kJ/mol
# GULP energy per Si atom -12392.430198 kJ/mol
# Density = 1.799275 g / cm^3
# Si number density = 18.033791 Si / 1000 Ang^3
#
#
#
# Elastic Constant Matrix: (Units=GPa)
#
#
# Indices 1 2 3 4 5 6 
#
# 1 100.0493 50.8488 25.9764 0.0000 0.0000 0.0000
# 2 50.8488 110.9673 33.7449 0.0000 0.0000 0.0000
# 3 25.9764 33.7449 64.3517 0.0000 0.0000 0.0000
# 4 0.0000 0.0000 0.0000 18.0206 0.0000 0.0000
# 5 0.0000 0.0000 0.0000 0.0000 29.3577 0.0000
# 6 0.0000 0.0000 0.0000 0.0000 0.0000 23.8436
#
#
#
# Elastic Compliance Matrix: (Units=1/GPa)
#
#
# Indices 1 2 3 4 5 6 
#
# 1 0.013386 -0.005343 -0.002602 0.000000 0.000000 0.000000
# 2 -0.005343 0.012854 -0.004584 0.000000 0.000000 0.000000
# 3 -0.002602 -0.004584 0.018993 0.000000 0.000000 0.000000
# 4 0.000000 0.000000 0.000000 0.055492 0.000000 0.000000
# 5 0.000000 0.000000 0.000000 0.000000 0.034063 0.000000
# 6 0.000000 0.000000 0.000000 0.000000 0.000000 0.041940
#
#
# Mechanical properties :
#
#
# Convention : Reuss Voigt Hill
#
# Bulk Modulus (GPa) = 49.56165 55.16759 52.36462
# Shear Modulus (GPa) = 23.97974 25.23094 24.60534
#
# Velocity S-wave (km/s) = 3.65048 3.74450 3.69779
# Velocity P-wave (km/s) = 6.73129 7.02515 6.87979
#
# Compressibility (1/GPa) = 0.02017689
#
# Stress axis : x y z
#
# Youngs Moduli (GPa) = 74.70528 77.79859 52.64984
#
# Poissons Ratio (x) = 0.41565 0.13698
# Poissons Ratio (y) = 0.39912 0.24133
# Poissons Ratio (z) = 0.19437 0.35660
#
# Static dielectric constant tensor:
#      x y z
#    x 3.703070 0.000000 0.000000 
#    y 0.000000 3.207630 0.000000 
#    z 0.000000 0.000000 3.179860 
# 
# 
# High freq. dielectric constant tensor:
#      x y z
#    x 1.697870 0.000000 0.000000 
#    y 0.000000 1.681230 0.000000 
#    z 0.000000 0.000000 1.686870 
# 
# From -- ./inp_files/7370.got.cif
#   From: 2010.03.12/outbox.cif.g09.slc.cpg/sg57_4_cif.got.tgz:7370.got - 2010.04.16 15:48:40.
