data_PCOD8230711
_publ_section_title
;
Structure prediction by ZEFSAII (Michael W. Deem and Ramdas Pophale) SiO2 
 PCOD8230711
Probable space group: P B C M
;
_chemical_formula_sum "Si O2"
_cell_formula_units_Z 64
_cell_length_a 28.217080
_cell_length_b 14.471373
_cell_length_c 8.941887
_cell_angle_alpha 90.000000
_cell_angle_beta 90.000000
_cell_angle_gamma 90.000000
_cell_volume 3651.329151
_symmetry_space_group_name_H-M "P B C M"
_symmetry_group_IT_number 57
_symmetry_cell_setting 'orthorhombic'
loop_
_space_group_symop_operation_xyz
x,y,z
-x,-y,1/2+z
x,1/2-y,-z
-x,1/2+y,1/2-z
-x,-y,-z
x,y,1/2-z
-x,1/2+y,z
x,1/2-y,1/2+z
loop_
_atom_site_type_symbol
_atom_site_label
_atom_site_fract_x
_atom_site_fract_y
_atom_site_fract_z
Si Si1 0.258673 0.346304 0.927628
Si Si2 0.935927 0.961300 0.924026
Si Si3 0.510574 0.097088 0.927444
Si Si4 0.385433 0.843466 0.072739
Si Si5 0.420379 0.164064 0.075118
Si Si6 0.339756 0.024189 0.424653
Si Si7 0.847852 0.844533 0.576197
Si Si8 0.018140 0.849680 0.073800
O O1 0.263958 0.336806 0.750000
O O2 0.293936 0.424795 0.994986
O O3 0.205086 0.372459 0.975982
O O4 0.273937 0.250000 0.000000
O O5 0.948299 0.946712 0.750000
O O6 0.882213 0.930730 0.962009
O O7 0.942824 0.070145 0.965933
O O8 0.968657 0.891244 0.017121
O O9 0.508894 0.087645 0.750000
O O10 0.561461 0.134035 0.982117
O O11 0.470298 0.164270 0.988704
O O12 0.500000 0.000000 0.000000
O O13 0.384351 0.835818 0.250000
O O14 0.347992 0.920809 0.014637
O O15 0.367052 0.750000 0.000000
O O16 0.429046 0.178201 0.250000
O O17 0.389304 0.074529 0.041498
O O18 0.392413 0.250000 0.000000
O O19 0.330434 0.021685 0.250000
O O20 0.865423 0.750000 0.500000
O O21 0.848407 0.822439 0.750000
O O22 0.015147 0.832474 0.250000
O O23 0.030512 0.750000 0.000000
#
# Coordination Sequence:
#
# PCOD8230711 Si02
#       8
#     8   8   8   8   8   8   8   8
#     4   9  17  31  52  74  98 126 154 190 238 291
#     4   9  18  31  46  67  96 128 166 207 244 290
#     4  11  21  35  53  72  97 127 158 193 234 280
#     4  10  21  37  53  71  93 123 158 194 232 273
#     4  11  21  34  50  72 100 128 157 190 229 280
#     4   9  18  34  52  70  97 126 154 191 235 282
#     4   9  17  29  47  72  97 124 158 195 239 287
#     4  10  19  30  45  66  95 131 168 206 245 289
#
# _framework density 17.527864999999998
#
# number of rings (size 3 to 8) (size 9 to 14) (size 15 to 20)
#    0.000    2.250    1.250    2.250    0.000    4.000 
#    0.000    1.250    0.000    0.750    0.000    0.000 
#    0.000    0.000    0.000    0.000    0.000    0.000 
#
# Total GULP energy -793201.035355 kJ/mol
# GULP energy per Si atom -12393.766177 kJ/mol
# Density = 1.748797 g / cm^3
# Si number density = 17.527865 Si / 1000 Ang^3
#
#
#
# Elastic Constant Matrix: (Units=GPa)
#
#
# Indices 1 2 3 4 5 6 
#
# 1 107.1586 69.6275 30.2402 0.0000 0.0000 0.0000
# 2 69.6275 154.2927 42.1797 0.0000 0.0000 0.0000
# 3 30.2402 42.1797 40.6142 0.0000 0.0000 0.0000
# 4 0.0000 0.0000 0.0000 31.0143 0.0000 0.0000
# 5 0.0000 0.0000 0.0000 0.0000 17.1516 0.0000
# 6 0.0000 0.0000 0.0000 0.0000 0.0000 -156.5998
#
#
#
# Elastic Compliance Matrix: (Units=1/GPa)
#
#
# Indices 1 2 3 4 5 6 
#
# 1 0.014002 -0.004844 -0.005395 0.000000 0.000000 0.000000
# 2 -0.004844 0.010726 -0.007533 0.000000 0.000000 0.000000
# 3 -0.005395 -0.007533 0.036463 0.000000 0.000000 0.000000
# 4 0.000000 0.000000 0.000000 0.032243 0.000000 0.000000
# 5 0.000000 0.000000 0.000000 0.000000 0.058304 0.000000
# 6 0.000000 0.000000 0.000000 0.000000 0.000000 -0.006386
#
#
# Mechanical properties :
#
#
# Convention : Reuss Voigt Hill
#
# Bulk Modulus (GPa) = 38.99125 65.12890 52.06008
# Shear Modulus (GPa) = 26.39292 -11.01890 7.68701
#
# Velocity S-wave (km/s) = 3.88463 -2.51001 2.09645
# Velocity P-wave (km/s) = 6.51261 5.37008 5.96875
#
# Compressibility (1/GPa) = 0.02564678
#
# Stress axis : x y z
#
# Youngs Moduli (GPa) = 71.42026 93.22761 27.42535
#
# Poissons Ratio (x) = 0.45157 0.14796
# Poissons Ratio (y) = 0.34594 0.20661
# Poissons Ratio (z) = 0.38530 0.70232
#
# Static dielectric constant tensor:
#      x y z
#    x 3.370050 0.000000 0.000000 
#    y 0.000000 3.418000 0.000000 
#    z 0.000000 0.000000 3.358770 
# 
# 
# High freq. dielectric constant tensor:
#      x y z
#    x 1.660030 0.000000 0.000000 
#    y 0.000000 1.682260 0.000000 
#    z 0.000000 0.000000 1.667770 
# 
# From -- ./inp_files/10352.got.cif
#   From: 2010.03.12/outbox.cif.g09.slc.cpg/sg57_6_cif.got.tgz:10352.got - 2010.04.16 15:48:40.
