data_PCOD8230559
_publ_section_title
;
Structure prediction by ZEFSAII (Michael W. Deem and Ramdas Pophale) SiO2 
 PCOD8230559
Probable space group: P B C M
;
_chemical_formula_sum "Si O2"
_cell_formula_units_Z 40
_cell_length_a 22.585157
_cell_length_b 8.398762
_cell_length_c 10.042410
_cell_angle_alpha 90.000000
_cell_angle_beta 90.000000
_cell_angle_gamma 90.000000
_cell_volume 1904.918225
_symmetry_space_group_name_H-M "P B C M"
_symmetry_group_IT_number 57
_symmetry_cell_setting 'orthorhombic'
loop_
_space_group_symop_operation_xyz
x,y,z
-x,-y,1/2+z
x,1/2-y,-z
-x,1/2+y,1/2-z
-x,-y,-z
x,y,1/2-z
-x,1/2+y,z
x,1/2-y,1/2+z
loop_
_atom_site_type_symbol
_atom_site_label
_atom_site_fract_x
_atom_site_fract_y
_atom_site_fract_z
Si Si1 0.947882 0.102590 0.250000
Si Si2 0.625033 0.563442 0.981027
Si Si3 0.741156 0.397936 0.902411
Si Si4 0.579407 0.438533 0.250000
Si Si5 0.866722 0.062121 0.483590
Si Si6 0.452018 0.929496 0.750000
Si Si7 0.922975 0.024067 0.750000
O O1 0.917926 0.020136 0.377979
O O2 0.937802 0.290350 0.250000
O O3 0.017513 0.077026 0.250000
O O4 0.618969 0.473399 0.121014
O O5 0.619821 0.750000 0.000000
O O6 0.688224 0.522674 0.917252
O O7 0.573045 0.510061 0.882617
O O8 0.743856 0.335167 0.750000
O O9 0.730640 0.250000 0.000000
O O10 0.801818 0.493723 0.935952
O O11 0.561937 0.255646 0.250000
O O12 0.522443 0.552057 0.250000
O O13 0.862235 0.250000 0.500000
O O14 0.884156 0.977013 0.621482
#
# Coordination Sequence:
#
# PCOD8230559 Si02
#       7
#     4   8   8   4   8   4   4
#     4  10  18  35  52  83 113 154 196 248 307 368
#     4  12  26  44  66  98 136 172 211 266 330 386
#     4  11  23  41  67  94 123 163 217 268 321 386
#     4  12  26  43  72  99 133 176 220 266 317 384
#     4   9  19  34  58  84 116 154 201 253 308 374
#     4  12  24  47  68  99 133 174 220 266 317 382
#     4  10  20  33  56  83 117 154 202 252 309 378
#
# _framework density 20.998276000000001
#
# number of rings (size 3 to 8) (size 9 to 14) (size 15 to 20)
#    0.000    1.200    2.000    4.800    5.600    0.000 
#    0.000    2.000    0.000    0.000    0.000    0.000 
#    0.000    0.000    0.000    0.000    0.000    0.000 
#
# Total GULP energy -496177.265633 kJ/mol
# GULP energy per Si atom -12404.431641 kJ/mol
# Density = 2.095048 g / cm^3
# Si number density = 20.998276 Si / 1000 Ang^3
#
#
#
# Elastic Constant Matrix: (Units=GPa)
#
#
# Indices 1 2 3 4 5 6 
#
# 1 119.1732 10.7103 44.3632 0.0000 0.0000 0.0000
# 2 10.7103 79.0778 23.9496 0.0000 0.0000 0.0000
# 3 44.3632 23.9496 172.3622 0.0000 0.0000 0.0000
# 4 0.0000 0.0000 0.0000 23.2934 0.0000 0.0000
# 5 0.0000 0.0000 0.0000 0.0000 44.1659 0.0000
# 6 0.0000 0.0000 0.0000 0.0000 0.0000 17.0251
#
#
#
# Elastic Compliance Matrix: (Units=1/GPa)
#
#
# Indices 1 2 3 4 5 6 
#
# 1 0.009304 -0.000558 -0.002317 0.000000 0.000000 0.000000
# 2 -0.000558 0.013235 -0.001695 0.000000 0.000000 0.000000
# 3 -0.002317 -0.001695 0.006634 0.000000 0.000000 0.000000
# 4 0.000000 0.000000 0.000000 0.042931 0.000000 0.000000
# 5 0.000000 0.000000 0.000000 0.000000 0.022642 0.000000
# 6 0.000000 0.000000 0.000000 0.000000 0.000000 0.058737
#
#
# Mechanical properties :
#
#
# Convention : Reuss Voigt Hill
#
# Bulk Modulus (GPa) = 49.92268 58.73993 54.33130
# Shear Modulus (GPa) = 29.53338 36.33623 32.93481
#
# Velocity S-wave (km/s) = 3.75436 4.16437 3.96467
# Velocity P-wave (km/s) = 6.52839 7.15241 6.84751
#
# Compressibility (1/GPa) = 0.02003098
#
# Stress axis : x y z
#
# Youngs Moduli (GPa) = 107.48201 75.55819 150.74611
#
# Poissons Ratio (x) = 0.04219 0.34929
# Poissons Ratio (y) = 0.06001 0.25555
# Poissons Ratio (z) = 0.24904 0.12809
#
# Static dielectric constant tensor:
#      x y z
#    x 4.074220 0.000000 0.000000 
#    y 0.000000 3.392700 0.000000 
#    z 0.000000 0.000000 4.158390 
# 
# 
# High freq. dielectric constant tensor:
#      x y z
#    x 1.837830 0.000000 0.000000 
#    y 0.000000 1.788840 0.000000 
#    z 0.000000 0.000000 1.846000 
# 
# From -- ./inp_files/9033.got.cif
#   From: 2010.03.12/outbox.cif.g09.slc.cpg/sg57_5_cif.got.tgz:9033.got - 2010.04.16 15:48:40.
