data_PCOD8230360
_publ_section_title
;
Structure prediction by ZEFSAII (Michael W. Deem and Ramdas Pophale) SiO2 
 PCOD8230360
Probable space group: P B C M
;
_chemical_formula_sum "Si O2"
_cell_formula_units_Z 64
_cell_length_a 11.843335
_cell_length_b 34.294070
_cell_length_c 8.794175
_cell_angle_alpha 90.000000
_cell_angle_beta 90.000000
_cell_angle_gamma 90.000000
_cell_volume 3571.808344
_symmetry_space_group_name_H-M "P B C M"
_symmetry_group_IT_number 57
_symmetry_cell_setting 'orthorhombic'
loop_
_space_group_symop_operation_xyz
x,y,z
-x,-y,1/2+z
x,1/2-y,-z
-x,1/2+y,1/2-z
-x,-y,-z
x,y,1/2-z
-x,1/2+y,z
x,1/2-y,1/2+z
loop_
_atom_site_type_symbol
_atom_site_label
_atom_site_fract_x
_atom_site_fract_y
_atom_site_fract_z
Si Si1 0.343047 0.865792 0.570357
Si Si2 0.691297 0.667345 0.083910
Si Si3 0.118526 0.605979 0.927663
Si Si4 0.114479 0.515952 0.929319
Si Si5 0.887016 0.618468 0.431870
Si Si6 0.750238 0.548561 0.570995
Si Si7 0.518478 0.209310 0.431059
Si Si8 0.554469 0.587976 0.083094
O O1 0.319801 0.867394 0.750000
O O2 0.229286 0.871002 0.477050
O O3 0.392117 0.823717 0.521538
O O4 0.429510 0.900682 0.523191
O O5 0.719747 0.684388 0.250000
O O6 0.810353 0.655155 0.005249
O O7 0.607396 0.698244 0.001213
O O8 0.621656 0.627787 0.100963
O O9 0.097656 0.611301 0.750000
O O10 0.129710 0.560929 0.973348
O O11 0.014306 0.625576 0.016273
O O12 0.111556 0.509281 0.750000
O O13 0.221319 0.493644 0.001736
O O14 0.000000 0.500000 0.000000
O O15 0.877626 0.615652 0.250000
O O16 0.840891 0.578483 0.502153
O O17 0.765789 0.547862 0.750000
O O18 0.620451 0.559114 0.530678
O O19 0.559432 0.250000 0.500000
O O20 0.510807 0.211809 0.250000
O O21 0.546954 0.568053 0.250000
#
# Coordination Sequence:
#
# PCOD8230360 Si02
#       8
#     8   8   8   8   8   8   8   8
#     4   9  19  36  56  76 103 140 179 212 252 316
#     4   7  13  27  48  74 100 127 160 199 241 294
#     4  11  23  35  50  75 105 134 175 225 267 308
#     4  11  22  35  50  70 100 136 175 224 271 318
#     4  10  18  31  52  72  97 135 173 209 255 309
#     4  11  20  30  48  75 102 128 167 218 270 317
#     4   9  17  32  55  83 110 133 164 203 247 301
#     4   8  15  31  52  71  94 130 172 211 254 306
#
# _framework density 17.918095000000001
#
# number of rings (size 3 to 8) (size 9 to 14) (size 15 to 20)
#    0.000    2.500    1.250    4.500    0.000    2.500 
#    0.000    6.250    0.000    0.750    0.000    1.750 
#    0.000    0.000    0.000    0.000    0.000    0.000 
#
# Total GULP energy -793102.838105 kJ/mol
# GULP energy per Si atom -12392.231845 kJ/mol
# Density = 1.787731 g / cm^3
# Si number density = 17.918095 Si / 1000 Ang^3
#
#
#
# Elastic Constant Matrix: (Units=GPa)
#
#
# Indices 1 2 3 4 5 6 
#
# 1 116.2234 45.1954 34.3665 0.0000 0.0000 0.0000
# 2 45.1954 77.6965 31.0615 0.0000 0.0000 0.0000
# 3 34.3665 31.0615 67.3280 0.0000 0.0000 0.0000
# 4 0.0000 0.0000 0.0000 21.9824 0.0000 0.0000
# 5 0.0000 0.0000 0.0000 0.0000 25.5282 0.0000
# 6 0.0000 0.0000 0.0000 0.0000 0.0000 22.9319
#
#
#
# Elastic Compliance Matrix: (Units=1/GPa)
#
#
# Indices 1 2 3 4 5 6 
#
# 1 0.011751 -0.005441 -0.003488 0.000000 0.000000 0.000000
# 2 -0.005441 0.018301 -0.005666 0.000000 0.000000 0.000000
# 3 -0.003488 -0.005666 0.019247 0.000000 0.000000 0.000000
# 4 0.000000 0.000000 0.000000 0.045491 0.000000 0.000000
# 5 0.000000 0.000000 0.000000 0.000000 0.039172 0.000000
# 6 0.000000 0.000000 0.000000 0.000000 0.000000 0.043607
#
#
# Mechanical properties :
#
#
# Convention : Reuss Voigt Hill
#
# Bulk Modulus (GPa) = 49.72823 53.61052 51.66937
# Shear Modulus (GPa) = 23.42334 24.13015 23.77674
#
# Velocity S-wave (km/s) = 3.61951 3.67371 3.64671
# Velocity P-wave (km/s) = 6.72912 6.92673 6.82864
#
# Compressibility (1/GPa) = 0.02010930
#
# Stress axis : x y z
#
# Youngs Moduli (GPa) = 85.09609 54.64272 51.95658
#
# Poissons Ratio (x) = 0.29733 0.18123
# Poissons Ratio (y) = 0.46303 0.29436
# Poissons Ratio (z) = 0.29682 0.30958
#
# Static dielectric constant tensor:
#      x y z
#    x 3.507300 0.000000 0.000000 
#    y 0.000000 3.256950 0.000000 
#    z 0.000000 0.000000 3.172890 
# 
# 
# High freq. dielectric constant tensor:
#      x y z
#    x 1.694740 0.000000 0.000000 
#    y 0.000000 1.662460 0.000000 
#    z 0.000000 0.000000 1.682590 
# 
# From -- ./inp_files/3745.got.cif
#   From: 2010.03.12/outbox.cif.g09.slc.cpg/sg57_2_cif.got.tgz:3745.got - 2010.04.16 15:48:40.
