data_PCOD8230284
_publ_section_title
;
Structure prediction by ZEFSAII (Michael W. Deem and Ramdas Pophale) SiO2 
 PCOD8230284
Probable space group: P B C M
;
_chemical_formula_sum "Si O2"
_cell_formula_units_Z 64
_cell_length_a 13.848780
_cell_length_b 27.894057
_cell_length_c 9.523955
_cell_angle_alpha 90.000000
_cell_angle_beta 90.000000
_cell_angle_gamma 90.000000
_cell_volume 3679.091042
_symmetry_space_group_name_H-M "P B C M"
_symmetry_group_IT_number 57
_symmetry_cell_setting 'orthorhombic'
loop_
_space_group_symop_operation_xyz
x,y,z
-x,-y,1/2+z
x,1/2-y,-z
-x,1/2+y,1/2-z
-x,-y,-z
x,y,1/2-z
-x,1/2+y,z
x,1/2-y,1/2+z
loop_
_atom_site_type_symbol
_atom_site_label
_atom_site_fract_x
_atom_site_fract_y
_atom_site_fract_z
Si Si1 0.383922 0.126550 0.086777
Si Si2 0.593479 0.982618 0.914769
Si Si3 0.005811 0.202038 0.084163
Si Si4 0.718182 0.069110 0.915039
Si Si5 0.729142 0.288211 0.101689
Si Si6 0.769492 0.795409 0.910662
Si Si7 0.116336 0.868925 0.406440
Si Si8 0.566168 0.145407 0.586045
O O1 0.408970 0.131101 0.250000
O O2 0.374155 0.070889 0.043274
O O3 0.286944 0.155889 0.048840
O O4 0.468617 0.150506 0.999299
O O5 0.568266 0.987231 0.750000
O O6 0.687779 0.014804 0.953282
O O7 0.500000 0.000000 0.000000
O O8 0.979301 0.207133 0.250000
O O9 0.118692 0.193968 0.060976
O O10 0.972153 0.250000 0.000000
O O11 0.957764 0.154146 0.017631
O O12 0.721805 0.077953 0.750000
O O13 0.828278 0.083026 0.967064
O O14 0.631676 0.102169 0.976168
O O15 0.725090 0.261383 0.250000
O O16 0.793375 0.334597 0.112274
O O17 0.621783 0.304624 0.058974
O O18 0.776679 0.250000 0.000000
O O19 0.751186 0.781347 0.750000
O O20 0.732948 0.750000 0.000000
O O21 0.068467 0.876559 0.250000
O O22 0.543051 0.137185 0.750000
#
# Coordination Sequence:
#
# PCOD8230284 Si02
#       8
#     8   8   8   8   8   8   8   8
#     4  10  20  32  49  74  98 123 161 205 242 280
#     4  10  18  30  51  75  99 129 164 201 240 280
#     4  10  19  32  51  72  94 123 159 203 250 293
#     4   8  15  29  47  68  97 129 157 189 235 288
#     4   9  18  29  41  60  89 124 155 188 231 281
#     4   9  20  37  52  70  98 128 162 203 246 291
#     4   9  17  30  48  69  94 123 157 195 236 288
#     4   9  17  30  45  62  89 125 160 192 231 280
#
# _framework density 17.395602
#
# number of rings (size 3 to 8) (size 9 to 14) (size 15 to 20)
#    0.000    2.750    1.250    2.250    0.000    3.500 
#    0.000    5.000    0.000    0.750    0.000    0.000 
#    0.000    0.000    0.000    0.000    0.000    0.375 
#
# Total GULP energy -792897.990840 kJ/mol
# GULP energy per Si atom -12389.031107 kJ/mol
# Density = 1.735601 g / cm^3
# Si number density = 17.395602 Si / 1000 Ang^3
#
#
#
# Elastic Constant Matrix: (Units=GPa)
#
#
# Indices 1 2 3 4 5 6 
#
# 1 73.7653 41.6795 34.8965 0.0000 0.0000 0.0000
# 2 41.6795 89.1615 38.2580 0.0000 0.0000 0.0000
# 3 34.8965 38.2580 63.0636 0.0000 0.0000 0.0000
# 4 0.0000 0.0000 0.0000 19.9019 0.0000 0.0000
# 5 0.0000 0.0000 0.0000 0.0000 21.5548 0.0000
# 6 0.0000 0.0000 0.0000 0.0000 0.0000 24.4432
#
#
#
# Elastic Compliance Matrix: (Units=1/GPa)
#
#
# Indices 1 2 3 4 5 6 
#
# 1 0.020800 -0.006468 -0.007586 0.000000 0.000000 0.000000
# 2 -0.006468 0.017174 -0.006839 0.000000 0.000000 0.000000
# 3 -0.007586 -0.006839 0.024204 0.000000 0.000000 0.000000
# 4 0.000000 0.000000 0.000000 0.050246 0.000000 0.000000
# 5 0.000000 0.000000 0.000000 0.000000 0.046393 0.000000
# 6 0.000000 0.000000 0.000000 0.000000 0.000000 0.040911
#
#
# Mechanical properties :
#
#
# Convention : Reuss Voigt Hill
#
# Bulk Modulus (GPa) = 49.04168 50.62870 49.83519
# Shear Modulus (GPa) = 20.13595 20.59043 20.36319
#
# Velocity S-wave (km/s) = 3.40594 3.44416 3.42511
# Velocity P-wave (km/s) = 6.61214 6.70700 6.65974
#
# Compressibility (1/GPa) = 0.02039082
#
# Stress axis : x y z
#
# Youngs Moduli (GPa) = 48.07733 58.22771 41.31580
#
# Poissons Ratio (x) = 0.37663 0.31341
# Poissons Ratio (y) = 0.31097 0.28258
# Poissons Ratio (z) = 0.36470 0.39825
#
# Static dielectric constant tensor:
#      x y z
#    x 3.192000 0.000000 0.000000 
#    y 0.000000 3.369460 0.000000 
#    z 0.000000 0.000000 2.552910 
# 
# 
# High freq. dielectric constant tensor:
#      x y z
#    x 1.658680 0.000000 0.000000 
#    y 0.000000 1.660190 0.000000 
#    z 0.000000 0.000000 1.660590 
# 
# From -- ./inp_files/6051.got.cif
#   From: 2010.03.12/outbox.cif.g09.slc.cpg/sg57_4_cif.got.tgz:6051.got - 2010.04.16 15:48:40.
