data_PCOD8230223
_publ_section_title
;
Structure prediction by ZEFSAII (Michael W. Deem and Ramdas Pophale) SiO2 
 PCOD8230223
Probable space group: P B C M
;
_chemical_formula_sum "Si O2"
_cell_formula_units_Z 32
_cell_length_a 10.226722
_cell_length_b 28.683964
_cell_length_c 5.267677
_cell_angle_alpha 90.000000
_cell_angle_beta 90.000000
_cell_angle_gamma 90.000000
_cell_volume 1545.235783
_symmetry_space_group_name_H-M "P B C M"
_symmetry_group_IT_number 57
_symmetry_cell_setting 'orthorhombic'
loop_
_space_group_symop_operation_xyz
x,y,z
-x,-y,1/2+z
x,1/2-y,-z
-x,1/2+y,1/2-z
-x,-y,-z
x,y,1/2-z
-x,1/2+y,z
x,1/2-y,1/2+z
loop_
_atom_site_type_symbol
_atom_site_label
_atom_site_fract_x
_atom_site_fract_y
_atom_site_fract_z
Si Si1 0.269467 0.122867 0.750000
Si Si2 0.468325 0.582078 0.750000
Si Si3 0.644847 0.125842 0.250000
Si Si4 0.667510 0.265405 0.750000
Si Si5 0.840325 0.912661 0.750000
Si Si6 0.749155 0.011380 0.750000
Si Si7 0.621166 0.773977 0.250000
Si Si8 0.864355 0.443620 0.750000
O O1 0.374145 0.079988 0.750000
O O2 0.179799 0.118931 0.499731
O O3 0.347588 0.171323 0.750000
O O4 0.428879 0.609680 0.499451
O O5 0.399665 0.531251 0.750000
O O6 0.639416 0.180748 0.250000
O O7 0.792491 0.106455 0.250000
O O8 0.748652 0.250000 0.500000
O O9 0.534973 0.234145 0.750000
O O10 0.982778 0.934865 0.750000
O O11 0.737801 0.955605 0.750000
O O12 0.826721 0.027727 0.500480
O O13 0.683564 0.750000 0.500000
#
# Coordination Sequence:
#
# PCOD8230223 Si02
#       8
#     4   4   4   4   4   4   4   4
#     4  12  24  36  56  86 121 153 186 232 291 355
#     4  10  20  35  55  84 116 149 187 233 289 337
#     4  10  19  35  59  85 110 139 186 246 287 323
#     4  10  18  29  52  81 107 132 172 230 287 334
#     4  12  24  38  57  85 121 159 193 231 282 350
#     4  10  21  38  62  84 111 153 201 246 281 326
#     4  10  19  34  55  77 105 142 185 228 272 338
#     4  10  21  39  62  84 111 151 200 244 281 329
#
# _framework density 20.708815000000001
#
# number of rings (size 3 to 8) (size 9 to 14) (size 15 to 20)
#    0.000    1.500    0.000    7.500    0.000    1.000 
#    0.000    0.000    0.000    4.500    0.000    0.000 
#    0.000    0.000    0.000    0.000    0.000    0.000 
#
# Total GULP energy -396729.723191 kJ/mol
# GULP energy per Si atom -12397.803850 kJ/mol
# Density = 2.066168 g / cm^3
# Si number density = 20.708815 Si / 1000 Ang^3
#
#
#
# Elastic Constant Matrix: (Units=GPa)
#
#
# Indices 1 2 3 4 5 6 
#
# 1 35.9791 3.7122 14.5500 0.0000 0.0000 0.0000
# 2 3.7122 77.1674 29.2504 0.0000 0.0000 0.0000
# 3 14.5500 29.2504 203.9080 0.0000 0.0000 0.0000
# 4 0.0000 0.0000 0.0000 19.9025 0.0000 0.0000
# 5 0.0000 0.0000 0.0000 0.0000 8.1209 0.0000
# 6 0.0000 0.0000 0.0000 0.0000 0.0000 23.5928
#
#
#
# Elastic Compliance Matrix: (Units=1/GPa)
#
#
# Indices 1 2 3 4 5 6 
#
# 1 0.028649 -0.000638 -0.001953 0.000000 0.000000 0.000000
# 2 -0.000638 0.013718 -0.001922 0.000000 0.000000 0.000000
# 3 -0.001953 -0.001922 0.005319 0.000000 0.000000 0.000000
# 4 0.000000 0.000000 0.000000 0.050245 0.000000 0.000000
# 5 0.000000 0.000000 0.000000 0.000000 0.123140 0.000000
# 6 0.000000 0.000000 0.000000 0.000000 0.000000 0.042386
#
#
# Mechanical properties :
#
#
# Convention : Reuss Voigt Hill
#
# Bulk Modulus (GPa) = 25.86610 45.78666 35.82638
# Shear Modulus (GPa) = 17.52107 28.29267 22.90687
#
# Velocity S-wave (km/s) = 2.91188 3.70024 3.32948
# Velocity P-wave (km/s) = 4.88087 6.35716 5.66729
#
# Compressibility (1/GPa) = 0.03866065
#
# Stress axis : x y z
#
# Youngs Moduli (GPa) = 34.90470 72.89586 187.99562
#
# Poissons Ratio (x) = 0.04651 0.36711
# Poissons Ratio (y) = 0.02227 0.36139
# Poissons Ratio (z) = 0.06816 0.14013
#
# Static dielectric constant tensor:
#      x y z
#    x 3.404440 0.000000 0.000000 
#    y 0.000000 3.678210 0.000000 
#    z 0.000000 0.000000 4.876840 
# 
# 
# High freq. dielectric constant tensor:
#      x y z
#    x 1.765770 0.000000 0.000000 
#    y 0.000000 1.806830 0.000000 
#    z 0.000000 0.000000 1.852780 
# 
# From -- ./inp_files/206.got.cif
#   From: 2010.03.12/outbox.cif.g09.slc.cpg/sg57_1_cif.got.tgz:206.got - 2010.04.16 15:48:40.
