data_PCOD8230675
_publ_section_title
;
Structure prediction by ZEFSAII (Michael W. Deem and Ramdas Pophale) SiO2 
 PCOD8230675
Probable space group: P B C M
;
_chemical_formula_sum "Si O2"
_cell_formula_units_Z 48
_cell_length_a 14.994043
_cell_length_b 21.442720
_cell_length_c 9.016835
_cell_angle_alpha 90.000000
_cell_angle_beta 90.000000
_cell_angle_gamma 90.000000
_cell_volume 2899.030264
_symmetry_space_group_name_H-M "P B C M"
_symmetry_group_IT_number 57
_symmetry_cell_setting 'orthorhombic'
loop_
_space_group_symop_operation_xyz
x,y,z
-x,-y,1/2+z
x,1/2-y,-z
-x,1/2+y,1/2-z
-x,-y,-z
x,y,1/2-z
-x,1/2+y,z
x,1/2-y,1/2+z
loop_
_atom_site_type_symbol
_atom_site_label
_atom_site_fract_x
_atom_site_fract_y
_atom_site_fract_z
Si Si1 0.446485 0.409382 0.922866
Si Si2 0.686178 0.683268 0.925770
Si Si3 0.148694 0.099962 0.577360
Si Si4 0.793256 0.038728 0.420183
Si Si5 0.014203 0.564998 0.078873
Si Si6 0.383234 0.952119 0.421973
O O1 0.448564 0.392392 0.750000
O O2 0.398015 0.474854 0.952885
O O3 0.395567 0.356391 0.012335
O O4 0.546890 0.411580 0.984510
O O5 0.675958 0.688770 0.750000
O O6 0.779453 0.651278 0.970735
O O7 0.683991 0.750000 0.000000
O O8 0.127539 0.102463 0.750000
O O9 0.054993 0.114430 0.492950
O O10 0.185390 0.032114 0.531430
O O11 0.760682 0.039447 0.250000
O O12 0.881111 0.082567 0.441135
O O13 0.715555 0.065994 0.523498
O O14 0.990253 0.557291 0.250000
O O15 0.000000 0.500000 0.000000
O O16 0.394295 0.935493 0.250000
#
# Coordination Sequence:
#
# PCOD8230675 Si02
#       6
#     8   8   8   8   8   8
#     4  10  20  33  48  69  96 128 164 202 247 295
#     4  11  22  36  52  71  97 129 168 208 247 291
#     4   9  18  31  46  65  94 128 160 199 240 283
#     4   9  16  28  44  67  97 128 157 192 240 288
#     4   9  17  27  42  65  94 126 158 191 232 281
#     4  10  19  29  47  72  97 128 162 199 245 297
#
# _framework density 16.557261
#
# number of rings (size 3 to 8) (size 9 to 14) (size 15 to 20)
#    0.000    2.333    1.667    3.000    0.000    6.000 
#    0.000    0.000    0.000    0.000    0.000    1.167 
#    0.000    5.333    0.000    0.000    0.000    0.000 
#
# Total GULP energy -595100.384955 kJ/mol
# GULP energy per Si atom -12397.924687 kJ/mol
# Density = 1.651958 g / cm^3
# Si number density = 16.557261 Si / 1000 Ang^3
#
#
#
# Elastic Constant Matrix: (Units=GPa)
#
#
# Indices 1 2 3 4 5 6 
#
# 1 137.9815 45.6493 64.6902 0.0000 0.0000 0.0000
# 2 45.6493 62.8023 35.6892 0.0000 0.0000 0.0000
# 3 64.6902 35.6892 84.7842 0.0000 0.0000 0.0000
# 4 0.0000 0.0000 0.0000 20.9311 0.0000 0.0000
# 5 0.0000 0.0000 0.0000 0.0000 36.8918 0.0000
# 6 0.0000 0.0000 0.0000 0.0000 0.0000 11.7332
#
#
#
# Elastic Compliance Matrix: (Units=1/GPa)
#
#
# Indices 1 2 3 4 5 6 
#
# 1 0.012267 -0.004729 -0.007369 0.000000 0.000000 0.000000
# 2 -0.004729 0.022752 -0.005969 0.000000 0.000000 0.000000
# 3 -0.007369 -0.005969 0.019930 0.000000 0.000000 0.000000
# 4 0.000000 0.000000 0.000000 0.047776 0.000000 0.000000
# 5 0.000000 0.000000 0.000000 0.000000 0.027106 0.000000
# 6 0.000000 0.000000 0.000000 0.000000 0.000000 0.085228
#
#
# Mechanical properties :
#
#
# Convention : Reuss Voigt Hill
#
# Bulk Modulus (GPa) = 53.14948 64.18058 58.66503
# Shear Modulus (GPa) = 19.42016 23.21385 21.31700
#
# Velocity S-wave (km/s) = 3.42849 3.74844 3.59203
# Velocity P-wave (km/s) = 6.91685 7.58824 7.26031
#
# Compressibility (1/GPa) = 0.01881486
#
# Stress axis : x y z
#
# Youngs Moduli (GPa) = 81.52283 43.95131 50.17596
#
# Poissons Ratio (x) = 0.20783 0.36974
# Poissons Ratio (y) = 0.38549 0.29953
# Poissons Ratio (z) = 0.60073 0.26237
#
# Static dielectric constant tensor:
#      x y z
#    x 3.357360 0.000000 0.000000 
#    y 0.000000 2.719340 0.000000 
#    z 0.000000 0.000000 3.253800 
# 
# 
# High freq. dielectric constant tensor:
#      x y z
#    x 1.653090 0.000000 0.000000 
#    y 0.000000 1.573870 0.000000 
#    z 0.000000 0.000000 1.652000 
# 
# From -- ./inp_files/4865.got.cif
#   From: 2010.03.12/outbox.cif.g09.slc.cpg/sg57_3_cif.got.tgz:4865.got - 2010.04.16 15:48:40.
