data_PCOD8230112
_publ_section_title
;
Structure prediction by ZEFSAII (Michael W. Deem and Ramdas Pophale) SiO2 
 PCOD8230112
Probable space group: P B C M
;
_chemical_formula_sum "Si O2"
_cell_formula_units_Z 56
_cell_length_a 16.324041
_cell_length_b 24.736904
_cell_length_c 8.770168
_cell_angle_alpha 90.000000
_cell_angle_beta 90.000000
_cell_angle_gamma 90.000000
_cell_volume 3541.448521
_symmetry_space_group_name_H-M "P B C M"
_symmetry_group_IT_number 57
_symmetry_cell_setting 'orthorhombic'
loop_
_space_group_symop_operation_xyz
x,y,z
-x,-y,1/2+z
x,1/2-y,-z
-x,1/2+y,1/2-z
-x,-y,-z
x,y,1/2-z
-x,1/2+y,z
x,1/2-y,1/2+z
loop_
_atom_site_type_symbol
_atom_site_label
_atom_site_fract_x
_atom_site_fract_y
_atom_site_fract_z
Si Si1 0.768835 0.305562 0.929893
Si Si2 0.475105 0.918388 0.070705
Si Si3 0.592901 0.305870 0.430265
Si Si4 0.623123 0.510655 0.570819
Si Si5 0.967688 0.946774 0.074269
Si Si6 0.193708 0.006037 0.571135
Si Si7 0.872420 0.397535 0.071149
O O1 0.758198 0.299951 0.750000
O O2 0.802765 0.250000 0.000000
O O3 0.681608 0.319846 0.003078
O O4 0.833997 0.351234 0.968678
O O5 0.466464 0.924617 0.250000
O O6 0.467055 0.855399 0.023930
O O7 0.562626 0.941590 0.012312
O O8 0.401469 0.953004 0.999144
O O9 0.557788 0.250000 0.500000
O O10 0.600334 0.298983 0.250000
O O11 0.615315 0.504437 0.750000
O O12 0.715736 0.525499 0.522185
O O13 0.981719 0.956044 0.250000
O O14 0.869773 0.943553 0.037766
O O15 0.029271 0.897904 0.027807
O O16 0.000000 0.000000 0.000000
O O17 0.191540 0.990123 0.750000
O O18 0.169318 0.954320 0.471638
O O19 0.857507 0.385977 0.250000
#
# Coordination Sequence:
#
# PCOD8230112 Si02
#       7
#     8   8   8   8   8   8   8
#     4  11  21  32  45  62  84 109 140 173 206 246
#     4   9  18  30  42  60  86 113 141 173 211 253
#     4  10  19  31  46  63  85 111 141 175 210 250
#     4   9  17  28  43  62  85 113 143 175 209 249
#     4   8  15  26  40  59  83 109 137 168 200 239
#     4   9  16  27  43  63  85 111 144 175 205 243
#     4  10  18  28  42  61  87 115 140 169 208 248
#
# _framework density 15.812738
#
# number of rings (size 3 to 8) (size 9 to 14) (size 15 to 20)
#    0.000    2.571    0.000    3.857    0.000    4.571 
#    0.000    0.000    0.000    0.000    0.000    1.000 
#    0.000    2.286    0.000    0.000    0.000    0.571 
#
# Total GULP energy -693793.640976 kJ/mol
# GULP energy per Si atom -12389.172160 kJ/mol
# Density = 1.577675 g / cm^3
# Si number density = 15.812738 Si / 1000 Ang^3
#
#
#
# Elastic Constant Matrix: (Units=GPa)
#
#
# Indices 1 2 3 4 5 6 
#
# 1 112.3650 54.8421 23.1342 0.0000 0.0000 0.0000
# 2 54.8421 96.8969 31.2404 0.0000 0.0000 0.0000
# 3 23.1342 31.2404 47.9723 0.0000 0.0000 0.0000
# 4 0.0000 0.0000 0.0000 22.9498 0.0000 0.0000
# 5 0.0000 0.0000 0.0000 0.0000 16.9710 0.0000
# 6 0.0000 0.0000 0.0000 0.0000 0.0000 24.8622
#
#
#
# Elastic Compliance Matrix: (Units=1/GPa)
#
#
# Indices 1 2 3 4 5 6 
#
# 1 0.012416 -0.006451 -0.001786 0.000000 0.000000 0.000000
# 2 -0.006451 0.016415 -0.007579 0.000000 0.000000 0.000000
# 3 -0.001786 -0.007579 0.026642 0.000000 0.000000 0.000000
# 4 0.000000 0.000000 0.000000 0.043573 0.000000 0.000000
# 5 0.000000 0.000000 0.000000 0.000000 0.058924 0.000000
# 6 0.000000 0.000000 0.000000 0.000000 0.000000 0.040222
#
#
# Mechanical properties :
#
#
# Convention : Reuss Voigt Hill
#
# Bulk Modulus (GPa) = 41.94520 52.85197 47.39859
# Shear Modulus (GPa) = 21.02856 22.82444 21.92650
#
# Velocity S-wave (km/s) = 3.65067 3.80336 3.72780
# Velocity P-wave (km/s) = 6.65985 7.26523 6.96912
#
# Compressibility (1/GPa) = 0.02384063
#
# Stress axis : x y z
#
# Youngs Moduli (GPa) = 80.54082 60.91976 37.53451
#
# Poissons Ratio (x) = 0.39302 0.06705
# Poissons Ratio (y) = 0.51960 0.28446
# Poissons Ratio (z) = 0.14387 0.46169
#
# Static dielectric constant tensor:
#      x y z
#    x 3.501090 0.000000 0.000000 
#    y 0.000000 2.962140 0.000000 
#    z 0.000000 0.000000 3.026000 
# 
# 
# High freq. dielectric constant tensor:
#      x y z
#    x 1.604390 0.000000 0.000000 
#    y 0.000000 1.578160 0.000000 
#    z 0.000000 0.000000 1.615600 
# 
# From -- ./inp_files/7327.got.cif
#   From: 2010.03.12/outbox.cif.g09.slc.cpg/sg57_4_cif.got.tgz:7327.got - 2010.04.16 15:48:40.
