data_PCOD8230220
_publ_section_title
;
Structure prediction by ZEFSAII (Michael W. Deem and Ramdas Pophale) SiO2 
 PCOD8230220
Probable space group: P B C M
;
_chemical_formula_sum "Si O2"
_cell_formula_units_Z 56
_cell_length_a 18.813870
_cell_length_b 18.419176
_cell_length_c 9.007479
_cell_angle_alpha 90.000000
_cell_angle_beta 90.000000
_cell_angle_gamma 90.000000
_cell_volume 3121.415588
_symmetry_space_group_name_H-M "P B C M"
_symmetry_group_IT_number 57
_symmetry_cell_setting 'orthorhombic'
loop_
_space_group_symop_operation_xyz
x,y,z
-x,-y,1/2+z
x,1/2-y,-z
-x,1/2+y,1/2-z
-x,-y,-z
x,y,1/2-z
-x,1/2+y,z
x,1/2-y,1/2+z
loop_
_atom_site_type_symbol
_atom_site_label
_atom_site_fract_x
_atom_site_fract_y
_atom_site_fract_z
Si Si1 0.845560 0.066444 0.423124
Si Si2 0.756913 0.881553 0.083576
Si Si3 0.711276 0.020192 0.924235
Si Si4 0.385167 0.181297 0.583971
Si Si5 0.031282 0.827483 0.576112
Si Si6 0.426574 0.479039 0.073158
Si Si7 0.090904 0.089632 0.918194
O O1 0.827074 0.066353 0.250000
O O2 0.894396 0.134749 0.467091
O O3 0.771649 0.074955 0.513244
O O4 0.887240 0.992158 0.464147
O O5 0.746721 0.916951 0.250000
O O6 0.701301 0.815422 0.069811
O O7 0.839166 0.858176 0.066670
O O8 0.739124 0.939598 0.957237
O O9 0.700938 0.032973 0.750000
O O10 0.635422 0.030769 0.006709
O O11 0.418493 0.250000 0.500000
O O12 0.411861 0.190678 0.750000
O O13 0.412076 0.104063 0.523160
O O14 0.025435 0.750000 0.500000
O O15 0.024484 0.815515 0.750000
O O16 0.968315 0.880922 0.527866
O O17 0.428960 0.488072 0.250000
O O18 0.500000 0.500000 0.000000
O O19 0.061443 0.091512 0.750000
#
# Coordination Sequence:
#
# PCOD8230220 Si02
#       7
#     8   8   8   8   8   8   8
#     4   9  19  36  55  73  97 132 170 212 259 306
#     4   8  16  31  47  68 100 133 163 201 245 291
#     4  10  18  29  51  80 102 125 160 201 245 297
#     4   9  18  31  48  71 102 137 170 203 243 294
#     4  11  23  36  50  70  99 134 172 215 267 316
#     4  10  20  35  54  78 108 139 171 209 251 296
#     4   9  17  32  53  74  99 130 168 213 259 304
#
# _framework density 17.940577999999999
#
# number of rings (size 3 to 8) (size 9 to 14) (size 15 to 20)
#    0.000    2.571    0.000    4.286    0.000    6.857 
#    0.000    1.429    0.000    0.857    0.000    6.000 
#    0.000    0.000    0.000    0.000    0.000    0.000 
#
# Total GULP energy -693982.178060 kJ/mol
# GULP energy per Si atom -12392.538894 kJ/mol
# Density = 1.789974 g / cm^3
# Si number density = 17.940578 Si / 1000 Ang^3
#
#
#
# Elastic Constant Matrix: (Units=GPa)
#
#
# Indices 1 2 3 4 5 6 
#
# 1 118.0986 26.6462 57.7620 0.0000 0.0000 0.0000
# 2 26.6462 42.8144 26.0510 0.0000 0.0000 0.0000
# 3 57.7620 26.0510 88.7217 0.0000 0.0000 0.0000
# 4 0.0000 0.0000 0.0000 22.3937 0.0000 0.0000
# 5 0.0000 0.0000 0.0000 0.0000 31.8610 0.0000
# 6 0.0000 0.0000 0.0000 0.0000 0.0000 14.3369
#
#
#
# Elastic Compliance Matrix: (Units=1/GPa)
#
#
# Indices 1 2 3 4 5 6 
#
# 1 0.012849 -0.003539 -0.007326 0.000000 0.000000 0.000000
# 2 -0.003539 0.029412 -0.006332 0.000000 0.000000 0.000000
# 3 -0.007326 -0.006332 0.017900 0.000000 0.000000 0.000000
# 4 0.000000 0.000000 0.000000 0.044655 0.000000 0.000000
# 5 0.000000 0.000000 0.000000 0.000000 0.031386 0.000000
# 6 0.000000 0.000000 0.000000 0.000000 0.000000 0.069750
#
#
# Mechanical properties :
#
#
# Convention : Reuss Voigt Hill
#
# Bulk Modulus (GPa) = 38.80984 52.28367 45.54675
# Shear Modulus (GPa) = 20.08538 22.99669 21.54104
#
# Velocity S-wave (km/s) = 3.34960 3.58414 3.46885
# Velocity P-wave (km/s) = 6.05303 6.80691 6.44101
#
# Compressibility (1/GPa) = 0.02576666
#
# Stress axis : x y z
#
# Youngs Moduli (GPa) = 77.82507 33.99967 55.86527
#
# Poissons Ratio (x) = 0.12033 0.40929
# Poissons Ratio (y) = 0.27544 0.35374
# Poissons Ratio (z) = 0.57017 0.21528
#
# Static dielectric constant tensor:
#      x y z
#    x 3.480550 0.000000 0.000000 
#    y 0.000000 3.068120 0.000000 
#    z 0.000000 0.000000 3.263870 
# 
# 
# High freq. dielectric constant tensor:
#      x y z
#    x 1.695080 0.000000 0.000000 
#    y 0.000000 1.655640 0.000000 
#    z 0.000000 0.000000 1.696430 
# 
# From -- ./inp_files/7085.got.cif
#   From: 2010.03.12/outbox.cif.g09.slc.cpg/sg57_4_cif.got.tgz:7085.got - 2010.04.16 15:48:40.
