data_PCOD8230512
_publ_section_title
;
Structure prediction by ZEFSAII (Michael W. Deem and Ramdas Pophale) SiO2 
 PCOD8230512
Probable space group: P B C M
;
_chemical_formula_sum "Si O2"
_cell_formula_units_Z 48
_cell_length_a 13.764527
_cell_length_b 20.145036
_cell_length_c 10.099493
_cell_angle_alpha 90.000000
_cell_angle_beta 90.000000
_cell_angle_gamma 90.000000
_cell_volume 2800.457024
_symmetry_space_group_name_H-M "P B C M"
_symmetry_group_IT_number 57
_symmetry_cell_setting 'orthorhombic'
loop_
_space_group_symop_operation_xyz
x,y,z
-x,-y,1/2+z
x,1/2-y,-z
-x,1/2+y,1/2-z
-x,-y,-z
x,y,1/2-z
-x,1/2+y,z
x,1/2-y,1/2+z
loop_
_atom_site_type_symbol
_atom_site_label
_atom_site_fract_x
_atom_site_fract_y
_atom_site_fract_z
Si Si1 0.730248 0.546611 0.499082
Si Si2 0.150351 0.057401 0.750000
Si Si3 0.863963 0.540325 0.250000
Si Si4 0.071818 0.906966 0.750000
Si Si5 0.848739 0.327923 0.996361
Si Si6 0.061213 0.892943 0.250000
Si Si7 0.529009 0.558948 0.403886
Si Si8 0.676164 0.401502 0.595932
O O1 0.783314 0.577549 0.625467
O O2 0.803315 0.554800 0.379591
O O3 0.631624 0.586963 0.459084
O O4 0.703550 0.470413 0.526146
O O5 0.055678 0.103967 0.750000
O O6 0.121698 0.979620 0.750000
O O7 0.896469 0.465395 0.250000
O O8 0.956237 0.587934 0.250000
O O9 0.099280 0.864964 0.622877
O O10 0.733301 0.344113 0.983795
O O11 0.863813 0.250000 0.000000
O O12 0.899094 0.354359 0.125762
O O13 0.500000 0.500000 0.500000
O O14 0.539779 0.535181 0.250000
O O15 0.440197 0.611971 0.412945
O O16 0.709933 0.403286 0.750000
#
# Coordination Sequence:
#
# PCOD8230512 Si02
#       8
#     8   4   4   4   8   4   8   8
#     4  11  17  32  49  80 106 140 170 207 268 323
#     4  11  20  34  56  72 112 147 166 217 277 327
#     4  11  20  30  56  74 110 135 176 227 263 325
#     4  11  21  38  49  75 104 147 179 213 276 317
#     4  12  22  36  54  74 105 143 179 221 259 314
#     4  11  23  34  49  83 106 137 181 223 264 309
#     4   9  19  29  48  73 107 137 164 203 252 311
#     4  10  18  34  50  73 107 143 172 204 263 323
#
# _framework density 17.140059000000001
#
# number of rings (size 3 to 8) (size 9 to 14) (size 15 to 20)
#    0.000    1.333    5.833    1.500    1.167    2.667 
#    0.000    0.000    0.000    0.000    0.000    7.000 
#    0.000    0.000    0.000    0.000    0.000    0.000 
#
# Total GULP energy -594847.317481 kJ/mol
# GULP energy per Si atom -12392.652448 kJ/mol
# Density = 1.710105 g / cm^3
# Si number density = 17.140059 Si / 1000 Ang^3
#
#
#
# Elastic Constant Matrix: (Units=GPa)
#
#
# Indices 1 2 3 4 5 6 
#
# 1 167.9373 40.1935 80.7991 0.0000 0.0000 0.0000
# 2 40.1935 58.4431 34.6902 0.0000 0.0000 0.0000
# 3 80.7991 34.6902 154.0506 0.0000 0.0000 0.0000
# 4 0.0000 0.0000 0.0000 96.7942 0.0000 0.0000
# 5 0.0000 0.0000 0.0000 0.0000 35.3437 0.0000
# 6 0.0000 0.0000 0.0000 0.0000 0.0000 15.9365
#
#
#
# Elastic Compliance Matrix: (Units=1/GPa)
#
#
# Indices 1 2 3 4 5 6 
#
# 1 0.008621 -0.003746 -0.003678 0.000000 0.000000 0.000000
# 2 -0.003746 0.021378 -0.002850 0.000000 0.000000 0.000000
# 3 -0.003678 -0.002850 0.009062 0.000000 0.000000 0.000000
# 4 0.000000 0.000000 0.000000 0.010331 0.000000 0.000000
# 5 0.000000 0.000000 0.000000 0.000000 0.028294 0.000000
# 6 0.000000 0.000000 0.000000 0.000000 0.000000 0.062749
#
#
# Mechanical properties :
#
#
# Convention : Reuss Voigt Hill
#
# Bulk Modulus (GPa) = 54.01147 76.86627 65.43887
# Shear Modulus (GPa) = 29.91278 44.59808 37.25543
#
# Velocity S-wave (km/s) = 4.18209 5.10649 4.66723
# Velocity P-wave (km/s) = 7.40946 8.92814 8.20402
#
# Compressibility (1/GPa) = 0.01851459
#
# Stress axis : x y z
#
# Youngs Moduli (GPa) = 116.00034 46.77706 110.34872
#
# Poissons Ratio (x) = 0.17521 0.40587
# Poissons Ratio (y) = 0.43449 0.31444
# Poissons Ratio (z) = 0.42666 0.13329
#
# Static dielectric constant tensor:
#      x y z
#    x 4.048990 0.000000 0.000000 
#    y 0.000000 2.758250 0.000000 
#    z 0.000000 0.000000 3.299320 
# 
# 
# High freq. dielectric constant tensor:
#      x y z
#    x 1.688850 0.000000 0.000000 
#    y 0.000000 1.593420 0.000000 
#    z 0.000000 0.000000 1.684150 
# 
# From -- ./inp_files/4772.got.cif
#   From: 2010.03.12/outbox.cif.g09.slc.cpg/sg57_3_cif.got.tgz:4772.got - 2010.04.16 15:48:40.
