data_PCOD8230414
_publ_section_title
;
Structure prediction by ZEFSAII (Michael W. Deem and Ramdas Pophale) SiO2 
 PCOD8230414
Probable space group: P B C M
;
_chemical_formula_sum "Si O2"
_cell_formula_units_Z 48
_cell_length_a 12.525802
_cell_length_b 25.252788
_cell_length_c 8.555047
_cell_angle_alpha 90.000000
_cell_angle_beta 90.000000
_cell_angle_gamma 90.000000
_cell_volume 2706.059086
_symmetry_space_group_name_H-M "P B C M"
_symmetry_group_IT_number 57
_symmetry_cell_setting 'orthorhombic'
loop_
_space_group_symop_operation_xyz
x,y,z
-x,-y,1/2+z
x,1/2-y,-z
-x,1/2+y,1/2-z
-x,-y,-z
x,y,1/2-z
-x,1/2+y,z
x,1/2-y,1/2+z
loop_
_atom_site_type_symbol
_atom_site_label
_atom_site_fract_x
_atom_site_fract_y
_atom_site_fract_z
Si Si1 0.882192 0.607012 0.067030
Si Si2 0.274609 0.191283 0.932074
Si Si3 0.116919 0.607968 0.566338
Si Si4 0.276713 0.690811 0.433680
Si Si5 0.489722 0.807507 0.069438
Si Si6 0.118854 0.499931 0.434686
O O1 0.903710 0.603300 0.250000
O O2 0.805706 0.655500 0.029225
O O3 0.825733 0.552526 0.006783
O O4 0.994648 0.616057 0.982349
O O5 0.242846 0.192366 0.750000
O O6 0.393777 0.165830 0.952635
O O7 0.266812 0.250000 0.000000
O O8 0.123731 0.601601 0.750000
O O9 0.181507 0.658875 0.511884
O O10 0.170912 0.555337 0.489639
O O11 0.273569 0.750000 0.500000
O O12 0.260023 0.690913 0.250000
O O13 0.391753 0.664078 0.478249
O O14 0.457017 0.804040 0.250000
O O15 0.503948 0.750000 0.000000
O O16 0.121315 0.495869 0.250000
O O17 0.000000 0.500000 0.500000
#
# Coordination Sequence:
#
# PCOD8230414 Si02
#       6
#     8   8   8   8   8   8
#     4  11  21  34  52  76 104 135 170 207 251 299
#     4  10  20  34  52  76 104 135 170 208 251 299
#     4  11  21  35  53  75 103 134 169 208 252 299
#     4  11  21  34  52  76 104 134 169 207 251 300
#     4   9  17  31  51  73  98 130 169 208 246 292
#     4  10  18  32  52  74  99 130 169 208 247 293
#
# _framework density 17.737971999999999
#
# number of rings (size 3 to 8) (size 9 to 14) (size 15 to 20)
#    0.000    1.667    0.000   10.000    0.000    2.667 
#    0.000    3.333    0.000    1.000    0.000    0.000 
#    0.000    0.000    0.000    0.000    0.000    0.000 
#
# Total GULP energy -594961.824210 kJ/mol
# GULP energy per Si atom -12395.038004 kJ/mol
# Density = 1.769760 g / cm^3
# Si number density = 17.737972 Si / 1000 Ang^3
#
#
#
# Elastic Constant Matrix: (Units=GPa)
#
#
# Indices 1 2 3 4 5 6 
#
# 1 71.9931 40.3694 20.0643 0.0000 0.0000 0.0000
# 2 40.3694 86.5864 27.9059 0.0000 0.0000 0.0000
# 3 20.0643 27.9059 123.9357 0.0000 0.0000 0.0000
# 4 0.0000 0.0000 0.0000 31.0170 0.0000 0.0000
# 5 0.0000 0.0000 0.0000 0.0000 26.8806 0.0000
# 6 0.0000 0.0000 0.0000 0.0000 0.0000 1.0193
#
#
#
# Elastic Compliance Matrix: (Units=1/GPa)
#
#
# Indices 1 2 3 4 5 6 
#
# 1 0.018961 -0.008465 -0.001164 0.000000 0.000000 0.000000
# 2 -0.008465 0.016232 -0.002284 0.000000 0.000000 0.000000
# 3 -0.001164 -0.002284 0.008771 0.000000 0.000000 0.000000
# 4 0.000000 0.000000 0.000000 0.032240 0.000000 0.000000
# 5 0.000000 0.000000 0.000000 0.000000 0.037202 0.000000
# 6 0.000000 0.000000 0.000000 0.000000 0.000000 0.981061
#
#
# Mechanical properties :
#
#
# Convention : Reuss Voigt Hill
#
# Bulk Modulus (GPa) = 49.65685 51.02161 50.33923
# Shear Modulus (GPa) = 4.44442 24.72843 14.58642
#
# Velocity S-wave (km/s) = 1.58462 3.73781 2.87074
# Velocity P-wave (km/s) = 5.60388 6.88874 6.27926
#
# Compressibility (1/GPa) = 0.02013821
#
# Stress axis : x y z
#
# Youngs Moduli (GPa) = 52.73871 61.60570 114.00622
#
# Poissons Ratio (x) = 0.52152 0.13266
# Poissons Ratio (y) = 0.44646 0.26044
# Poissons Ratio (z) = 0.06137 0.14073
#
# Static dielectric constant tensor:
#      x y z
#    x 3.490700 0.000000 0.000000 
#    y 0.000000 3.582930 0.000000 
#    z 0.000000 0.000000 4.592550 
# 
# 
# High freq. dielectric constant tensor:
#      x y z
#    x 1.668810 0.000000 0.000000 
#    y 0.000000 1.671490 0.000000 
#    z 0.000000 0.000000 1.712930 
# 
# From -- ./inp_files/3315.got.cif
#   From: 2010.03.12/outbox.cif.g09.slc.cpg/sg57_2_cif.got.tgz:3315.got - 2010.04.16 15:48:40.
