data_PCOD8230930
_publ_section_title
;
Structure prediction by ZEFSAII (Michael W. Deem and Ramdas Pophale) SiO2 
 PCOD8230930
Probable space group: P B C M
;
_chemical_formula_sum "Si O2"
_cell_formula_units_Z 48
_cell_length_a 13.565949
_cell_length_b 23.678818
_cell_length_c 8.717093
_cell_angle_alpha 90.000000
_cell_angle_beta 90.000000
_cell_angle_gamma 90.000000
_cell_volume 2800.153755
_symmetry_space_group_name_H-M "P B C M"
_symmetry_group_IT_number 57
_symmetry_cell_setting 'orthorhombic'
loop_
_space_group_symop_operation_xyz
x,y,z
-x,-y,1/2+z
x,1/2-y,-z
-x,1/2+y,1/2-z
-x,-y,-z
x,y,1/2-z
-x,1/2+y,z
x,1/2-y,1/2+z
loop_
_atom_site_type_symbol
_atom_site_label
_atom_site_fract_x
_atom_site_fract_y
_atom_site_fract_z
Si Si1 0.139832 0.527378 0.571880
Si Si2 0.345542 0.978825 0.926640
Si Si3 0.545095 0.578598 0.426214
Si Si4 0.647223 0.807917 0.928886
Si Si5 0.857113 0.690641 0.930828
Si Si6 0.963753 0.912171 0.928309
O O1 0.121594 0.539745 0.750000
O O2 0.253127 0.537701 0.530452
O O3 0.110704 0.463111 0.530730
O O4 0.074336 0.570602 0.473910
O O5 0.313064 0.978588 0.750000
O O6 0.430385 0.932784 0.961384
O O7 0.385451 0.040832 0.967112
O O8 0.569908 0.563279 0.250000
O O9 0.566507 0.643957 0.461540
O O10 0.666511 0.798983 0.750000
O O11 0.605694 0.750000 0.000000
O O12 0.750124 0.825847 0.004525
O O13 0.850675 0.696506 0.750000
O O14 0.893668 0.750000 0.000000
O O15 0.934254 0.642432 0.975034
O O16 0.959753 0.896847 0.750000
#
# Coordination Sequence:
#
# PCOD8230930 Si02
#       6
#     8   8   8   8   8   8
#     4  10  20  33  50  73 100 129 161 198 242 291
#     4  10  19  31  49  72  97 127 162 198 239 287
#     4   9  19  33  48  69  98 129 159 196 241 287
#     4  10  19  32  49  70  97 127 160 197 238 282
#     4  11  21  33  50  73 100 129 162 198 240 288
#     4  10  20  34  51  72  99 129 161 199 242 287
#
# _framework density 17.141915000000001
#
# number of rings (size 3 to 8) (size 9 to 14) (size 15 to 20)
#    0.000    2.000    0.000    5.500    0.000    8.000 
#    0.000    0.000    0.000    1.000    0.000    4.667 
#    0.000    0.000    0.000    0.000    0.000    0.000 
#
# Total GULP energy -595392.039719 kJ/mol
# GULP energy per Si atom -12404.000827 kJ/mol
# Density = 1.710290 g / cm^3
# Si number density = 17.141915 Si / 1000 Ang^3
#
#
#
# Elastic Constant Matrix: (Units=GPa)
#
#
# Indices 1 2 3 4 5 6 
#
# 1 93.5766 52.1702 32.9032 0.0000 0.0000 0.0000
# 2 52.1702 112.0975 45.0244 0.0000 0.0000 0.0000
# 3 32.9032 45.0244 90.4310 0.0000 0.0000 0.0000
# 4 0.0000 0.0000 0.0000 28.2904 0.0000 0.0000
# 5 0.0000 0.0000 0.0000 0.0000 29.1603 0.0000
# 6 0.0000 0.0000 0.0000 0.0000 0.0000 23.8511
#
#
#
# Elastic Compliance Matrix: (Units=1/GPa)
#
#
# Indices 1 2 3 4 5 6 
#
# 1 0.014854 -0.005928 -0.002453 0.000000 0.000000 0.000000
# 2 -0.005928 0.013516 -0.004573 0.000000 0.000000 0.000000
# 3 -0.002453 -0.004573 0.014227 0.000000 0.000000 0.000000
# 4 0.000000 0.000000 0.000000 0.035348 0.000000 0.000000
# 5 0.000000 0.000000 0.000000 0.000000 0.034293 0.000000
# 6 0.000000 0.000000 0.000000 0.000000 0.000000 0.041927
#
#
# Mechanical properties :
#
#
# Convention : Reuss Voigt Hill
#
# Bulk Modulus (GPa) = 59.91546 61.81119 60.86333
# Shear Modulus (GPa) = 26.93447 27.32751 27.13099
#
# Velocity S-wave (km/s) = 3.96822 3.99707 3.98267
# Velocity P-wave (km/s) = 7.48493 7.57884 7.53203
#
# Compressibility (1/GPa) = 0.01669018
#
# Stress axis : x y z
#
# Youngs Moduli (GPa) = 67.32310 73.98548 70.28648
#
# Poissons Ratio (x) = 0.43855 0.17243
# Poissons Ratio (y) = 0.39906 0.32140
# Poissons Ratio (z) = 0.16516 0.33832
#
# Static dielectric constant tensor:
#      x y z
#    x 3.079260 0.000000 0.000000 
#    y 0.000000 3.156870 0.000000 
#    z 0.000000 0.000000 3.308150 
# 
# 
# High freq. dielectric constant tensor:
#      x y z
#    x 1.648180 0.000000 0.000000 
#    y 0.000000 1.651250 0.000000 
#    z 0.000000 0.000000 1.678860 
# 
# From -- ./inp_files/3093.got.cif
#   From: 2010.03.12/outbox.cif.g09.slc.cpg/sg57_2_cif.got.tgz:3093.got - 2010.04.16 15:48:40.
