data_PCOD8230197
_publ_section_title
;
Structure prediction by ZEFSAII (Michael W. Deem and Ramdas Pophale) SiO2 
 PCOD8230197
Probable space group: P B C M
;
_chemical_formula_sum "Si O2"
_cell_formula_units_Z 64
_cell_length_a 11.548040
_cell_length_b 33.047274
_cell_length_c 9.124533
_cell_angle_alpha 90.000000
_cell_angle_beta 90.000000
_cell_angle_gamma 90.000000
_cell_volume 3482.206862
_symmetry_space_group_name_H-M "P B C M"
_symmetry_group_IT_number 57
_symmetry_cell_setting 'orthorhombic'
loop_
_space_group_symop_operation_xyz
x,y,z
-x,-y,1/2+z
x,1/2-y,-z
-x,1/2+y,1/2-z
-x,-y,-z
x,y,1/2-z
-x,1/2+y,z
x,1/2-y,1/2+z
loop_
_atom_site_type_symbol
_atom_site_label
_atom_site_fract_x
_atom_site_fract_y
_atom_site_fract_z
Si Si1 0.788758 0.862721 0.087089
Si Si2 0.732595 0.518838 0.080980
Si Si3 0.065700 0.437883 0.419321
Si Si4 0.367933 0.877958 0.923646
Si Si5 0.424518 0.078041 0.918694
Si Si6 0.447621 0.709813 0.421156
Si Si7 0.285795 0.210659 0.079771
Si Si8 0.803826 0.430521 0.081948
O O1 0.792580 0.843921 0.250000
O O2 0.898696 0.891132 0.058329
O O3 0.672986 0.888315 0.066967
O O4 0.791557 0.827108 0.969259
O O5 0.725136 0.532388 0.250000
O O6 0.724764 0.470441 0.065004
O O7 0.856241 0.533227 0.018795
O O8 0.623859 0.537138 0.993025
O O9 0.084300 0.450715 0.250000
O O10 0.933271 0.441680 0.469663
O O11 0.379491 0.882402 0.750000
O O12 0.379700 0.830758 0.970097
O O13 0.463547 0.905973 0.998654
O O14 0.244665 0.894435 0.980350
O O15 0.456018 0.068657 0.750000
O O16 0.397220 0.750000 0.500000
O O17 0.434330 0.717576 0.250000
O O18 0.581124 0.703087 0.465994
O O19 0.271025 0.217230 0.250000
O O20 0.236338 0.250000 0.000000
O O21 0.805534 0.415451 0.250000
#
# Coordination Sequence:
#
# PCOD8230197 Si02
#       8
#     8   8   8   8   8   8   8   8
#     4   9  17  30  50  75 101 132 167 209 258 309
#     4  10  20  34  55  80 106 135 175 224 269 312
#     4   9  19  36  56  77 103 135 177 221 263 314
#     4  11  22  36  54  79 110 140 177 222 260 309
#     4  10  20  34  53  76 105 142 177 210 264 321
#     4   9  19  33  51  77 106 136 169 209 255 305
#     4  10  18  29  47  74 107 135 163 204 254 311
#     4  10  22  38  54  76 105 142 182 219 262 312
#
# _framework density 18.379151
#
# number of rings (size 3 to 8) (size 9 to 14) (size 15 to 20)
#    0.000    2.250    1.250    2.625    0.000    5.500 
#    0.000    0.000    0.000    0.750    0.000    1.750 
#    0.000    0.000    0.000    0.000    0.000    0.000 
#
# Total GULP energy -793674.219045 kJ/mol
# GULP energy per Si atom -12401.159673 kJ/mol
# Density = 1.833732 g / cm^3
# Si number density = 18.379151 Si / 1000 Ang^3
#
#
#
# Elastic Constant Matrix: (Units=GPa)
#
#
# Indices 1 2 3 4 5 6 
#
# 1 43.4840 21.4338 23.6414 0.0000 0.0000 0.0000
# 2 21.4338 94.7944 45.0881 0.0000 0.0000 0.0000
# 3 23.6414 45.0881 88.1777 0.0000 0.0000 0.0000
# 4 0.0000 0.0000 0.0000 34.5574 0.0000 0.0000
# 5 0.0000 0.0000 0.0000 0.0000 27.9730 0.0000
# 6 0.0000 0.0000 0.0000 0.0000 0.0000 21.3555
#
#
#
# Elastic Compliance Matrix: (Units=1/GPa)
#
#
# Indices 1 2 3 4 5 6 
#
# 1 0.027833 -0.003626 -0.005608 0.000000 0.000000 0.000000
# 2 -0.003626 0.014412 -0.006397 0.000000 0.000000 0.000000
# 3 -0.005608 -0.006397 0.016115 0.000000 0.000000 0.000000
# 4 0.000000 0.000000 0.000000 0.028937 0.000000 0.000000
# 5 0.000000 0.000000 0.000000 0.000000 0.035749 0.000000
# 6 0.000000 0.000000 0.000000 0.000000 0.000000 0.046826
#
#
# Mechanical properties :
#
#
# Convention : Reuss Voigt Hill
#
# Bulk Modulus (GPa) = 36.90314 45.19805 41.05060
# Shear Modulus (GPa) = 23.79048 25.86337 24.82693
#
# Velocity S-wave (km/s) = 3.60172 3.75535 3.67934
# Velocity P-wave (km/s) = 6.11710 6.59158 6.35877
#
# Compressibility (1/GPa) = 0.02709796
#
# Stress axis : x y z
#
# Youngs Moduli (GPa) = 35.92812 69.38830 62.05232
#
# Poissons Ratio (x) = 0.25158 0.34802
# Poissons Ratio (y) = 0.13027 0.39695
# Poissons Ratio (z) = 0.20150 0.44388
#
# Static dielectric constant tensor:
#      x y z
#    x 3.195170 0.000000 0.000000 
#    y 0.000000 3.417600 0.000000 
#    z 0.000000 0.000000 3.405680 
# 
# 
# High freq. dielectric constant tensor:
#      x y z
#    x 1.684500 0.000000 0.000000 
#    y 0.000000 1.712760 0.000000 
#    z 0.000000 0.000000 1.718200 
# 
# From -- ./inp_files/3918.got.cif
#   From: 2010.03.12/outbox.cif.g09.slc.cpg/sg57_2_cif.got.tgz:3918.got - 2010.04.16 15:48:40.
