data_PCOD8230294
_publ_section_title
;
Structure prediction by ZEFSAII (Michael W. Deem and Ramdas Pophale) SiO2 
 PCOD8230294
Probable space group: P B C M
;
_chemical_formula_sum "Si O2"
_cell_formula_units_Z 64
_cell_length_a 23.576231
_cell_length_b 9.114497
_cell_length_c 16.483040
_cell_angle_alpha 90.000000
_cell_angle_beta 90.000000
_cell_angle_gamma 90.000000
_cell_volume 3541.966073
_symmetry_space_group_name_H-M "P B C M"
_symmetry_group_IT_number 57
_symmetry_cell_setting 'orthorhombic'
loop_
_space_group_symop_operation_xyz
x,y,z
-x,-y,1/2+z
x,1/2-y,-z
-x,1/2+y,1/2-z
-x,-y,-z
x,y,1/2-z
-x,1/2+y,z
x,1/2-y,1/2+z
loop_
_atom_site_type_symbol
_atom_site_label
_atom_site_fract_x
_atom_site_fract_y
_atom_site_fract_z
Si Si1 0.324685 0.931307 0.658596
Si Si2 0.544583 0.451930 0.659678
Si Si3 0.866081 0.918358 0.477024
Si Si4 0.665650 0.144907 0.923557
Si Si5 0.460602 0.838072 0.082878
Si Si6 0.963254 0.972479 0.579520
Si Si7 0.738255 0.923452 0.014885
Si Si8 0.950516 0.658200 0.843941
O O1 0.307846 0.972215 0.750000
O O2 0.389524 0.972579 0.638929
O O3 0.313877 0.755049 0.647981
O O4 0.289330 0.036078 0.600248
O O5 0.529608 0.506577 0.750000
O O6 0.530837 0.279404 0.654725
O O7 0.508487 0.538788 0.592454
O O8 0.862177 0.750000 0.500000
O O9 0.899083 0.007055 0.549081
O O10 0.802690 0.981283 0.475259
O O11 0.899496 0.929017 0.390320
O O12 0.601614 0.085794 0.909256
O O13 0.664248 0.250000 0.000000
O O14 0.708186 0.008724 0.939458
O O15 0.468395 0.750000 0.000000
O O16 0.964237 0.807198 0.610228
O O17 0.000000 0.000000 0.500000
O O18 0.989361 0.071042 0.651275
O O19 0.733427 0.750000 0.000000
O O20 0.933327 0.679833 0.750000
#
# Coordination Sequence:
#
# PCOD8230294 Si02
#       8
#     8   8   8   8   8   8   8   8
#     4   9  19  35  52  70 100 136 167 204 258 311
#     4  10  20  33  49  72 100 129 159 199 255 312
#     4   8  17  32  50  71  99 135 167 196 245 302
#     4   8  17  34  52  71  96 132 169 201 249 308
#     4  10  19  32  50  72  97 127 164 204 245 297
#     4   9  17  32  50  70 101 138 168 197 242 298
#     4  10  19  34  55  77  98 128 174 218 248 289
#     4  10  18  30  51  79 105 131 165 207 248 289
#
# _framework density 18.06906
#
# number of rings (size 3 to 8) (size 9 to 14) (size 15 to 20)
#    0.000    2.750    0.000    3.000    0.000    2.500 
#    0.000    8.125    0.000    6.750    0.000    0.000 
#    0.000    0.000    0.000    0.000    0.000    0.000 
#
# Total GULP energy -792887.280819 kJ/mol
# GULP energy per Si atom -12388.863763 kJ/mol
# Density = 1.802793 g / cm^3
# Si number density = 18.069060 Si / 1000 Ang^3
#
#
#
# Elastic Constant Matrix: (Units=GPa)
#
#
# Indices 1 2 3 4 5 6 
#
# 1 130.8200 59.3762 52.3537 0.0000 0.0000 0.0000
# 2 59.3762 71.5714 29.5184 0.0000 0.0000 0.0000
# 3 52.3537 29.5184 75.8767 0.0000 0.0000 0.0000
# 4 0.0000 0.0000 0.0000 24.9480 0.0000 0.0000
# 5 0.0000 0.0000 0.0000 0.0000 18.4624 0.0000
# 6 0.0000 0.0000 0.0000 0.0000 0.0000 26.6775
#
#
#
# Elastic Compliance Matrix: (Units=1/GPa)
#
#
# Indices 1 2 3 4 5 6 
#
# 1 0.014415 -0.009358 -0.006305 0.000000 0.000000 0.000000
# 2 -0.009358 0.022718 -0.002381 0.000000 0.000000 0.000000
# 3 -0.006305 -0.002381 0.018456 0.000000 0.000000 0.000000
# 4 0.000000 0.000000 0.000000 0.040083 0.000000 0.000000
# 5 0.000000 0.000000 0.000000 0.000000 0.054164 0.000000
# 6 0.000000 0.000000 0.000000 0.000000 0.000000 0.037485
#
#
# Mechanical properties :
#
#
# Convention : Reuss Voigt Hill
#
# Bulk Modulus (GPa) = 51.28276 62.30720 56.79498
# Shear Modulus (GPa) = 21.74763 23.15223 22.44993
#
# Velocity S-wave (km/s) = 3.47303 3.58344 3.52867
# Velocity P-wave (km/s) = 6.67276 7.18881 6.93559
#
# Compressibility (1/GPa) = 0.01949973
#
# Stress axis : x y z
#
# Youngs Moduli (GPa) = 69.37217 44.01870 54.18240
#
# Poissons Ratio (x) = 0.41194 0.34165
# Poissons Ratio (y) = 0.64920 0.12900
# Poissons Ratio (z) = 0.43743 0.10480
#
# Static dielectric constant tensor:
#      x y z
#    x 3.645620 0.000000 0.000000 
#    y 0.000000 3.340160 0.000000 
#    z 0.000000 0.000000 3.970070 
# 
# 
# High freq. dielectric constant tensor:
#      x y z
#    x 1.695660 0.000000 0.000000 
#    y 0.000000 1.682510 0.000000 
#    z 0.000000 0.000000 1.696190 
# 
# From -- ./inp_files/23139.got.cif
#   From: 2010.03.12/outbox.cif.g09.slc.cpg/sg57_12_cif.got.tgz:23139.got - 2010.04.16 15:48:40.
