data_PCOD8230586
_publ_section_title
;
Structure prediction by ZEFSAII (Michael W. Deem and Ramdas Pophale) SiO2 
 PCOD8230586
Probable space group: P B C M
;
_chemical_formula_sum "Si O2"
_cell_formula_units_Z 64
_cell_length_a 14.585829
_cell_length_b 25.097936
_cell_length_c 8.743145
_cell_angle_alpha 90.000000
_cell_angle_beta 90.000000
_cell_angle_gamma 90.000000
_cell_volume 3200.639835
_symmetry_space_group_name_H-M "P B C M"
_symmetry_group_IT_number 57
_symmetry_cell_setting 'orthorhombic'
loop_
_space_group_symop_operation_xyz
x,y,z
-x,-y,1/2+z
x,1/2-y,-z
-x,1/2+y,1/2-z
-x,-y,-z
x,y,1/2-z
-x,1/2+y,z
x,1/2-y,1/2+z
loop_
_atom_site_type_symbol
_atom_site_label
_atom_site_fract_x
_atom_site_fract_y
_atom_site_fract_z
Si Si1 0.176960 0.303766 0.568154
Si Si2 0.993016 0.338644 0.068994
Si Si3 0.960993 0.052938 0.071811
Si Si4 0.210742 0.980731 0.422428
Si Si5 0.353752 0.894162 0.077183
Si Si6 0.717779 0.907526 0.930657
Si Si7 0.790470 0.193984 0.931554
Si Si8 0.479335 0.442406 0.930297
O O1 0.222365 0.250000 0.500000
O O2 0.178117 0.302405 0.750000
O O3 0.072158 0.304379 0.510082
O O4 0.235719 0.353879 0.503005
O O5 0.001827 0.333941 0.250000
O O6 0.893180 0.319331 0.009693
O O7 0.009235 0.398822 0.015017
O O8 0.982817 0.057670 0.250000
O O9 0.852506 0.052094 0.039265
O O10 0.000000 0.000000 0.000000
O O11 0.169511 0.976986 0.250000
O O12 0.309497 0.953040 0.425438
O O13 0.218959 0.041974 0.475270
O O14 0.382029 0.878937 0.250000
O O15 0.282193 0.850464 0.011721
O O16 0.443987 0.898402 0.973501
O O17 0.711705 0.902677 0.750000
O O18 0.615779 0.917888 0.995696
O O19 0.790995 0.196120 0.750000
O O20 0.758129 0.250000 0.000000
O O21 0.474879 0.449719 0.750000
O O22 0.500000 0.500000 0.000000
#
# Coordination Sequence:
#
# PCOD8230586 Si02
#       8
#     8   8   8   8   8   8   8   8
#     4  11  23  41  62  87 117 158 203 249 299 352
#     4  11  22  40  62  87 117 156 202 254 302 353
#     4  12  24  36  53  83 121 161 203 246 298 360
#     4  10  18  36  60  82 117 156 191 239 300 357
#     4  10  20  38  60  86 120 156 192 242 302 352
#     4   9  20  38  61  85 116 155 194 238 299 359
#     4  10  22  39  60  85 119 159 198 242 296 352
#     4  11  21  37  61  91 120 154 195 244 300 363
#
# _framework density 19.996002000000001
#
# number of rings (size 3 to 8) (size 9 to 14) (size 15 to 20)
#    0.000    1.500    2.500    3.375    0.000    4.000 
#    0.000    3.750    0.000    3.000    0.000    0.000 
#    0.000    0.000    0.000    0.000    0.000    0.000 
#
# Total GULP energy -793603.612987 kJ/mol
# GULP energy per Si atom -12400.056453 kJ/mol
# Density = 1.995049 g / cm^3
# Si number density = 19.996002 Si / 1000 Ang^3
#
#
#
# Elastic Constant Matrix: (Units=GPa)
#
#
# Indices 1 2 3 4 5 6 
#
# 1 94.4938 38.2707 25.8256 0.0000 0.0000 0.0000
# 2 38.2707 137.1171 24.8978 0.0000 0.0000 0.0000
# 3 25.8256 24.8978 53.9597 0.0000 0.0000 0.0000
# 4 0.0000 0.0000 0.0000 33.7855 0.0000 0.0000
# 5 0.0000 0.0000 0.0000 0.0000 28.9682 0.0000
# 6 0.0000 0.0000 0.0000 0.0000 0.0000 22.1410
#
#
#
# Elastic Compliance Matrix: (Units=1/GPa)
#
#
# Indices 1 2 3 4 5 6 
#
# 1 0.013054 -0.002738 -0.004984 0.000000 0.000000 0.000000
# 2 -0.002738 0.008534 -0.002627 0.000000 0.000000 0.000000
# 3 -0.004984 -0.002627 0.022130 0.000000 0.000000 0.000000
# 4 0.000000 0.000000 0.000000 0.029598 0.000000 0.000000
# 5 0.000000 0.000000 0.000000 0.000000 0.034521 0.000000
# 6 0.000000 0.000000 0.000000 0.000000 0.000000 0.045165
#
#
# Mechanical properties :
#
#
# Convention : Reuss Voigt Hill
#
# Bulk Modulus (GPa) = 43.44297 51.50653 47.47475
# Shear Modulus (GPa) = 27.56712 30.08404 28.82558
#
# Velocity S-wave (km/s) = 3.71702 3.88300 3.80092
# Velocity P-wave (km/s) = 6.33993 6.77628 6.56173
#
# Compressibility (1/GPa) = 0.02301868
#
# Stress axis : x y z
#
# Youngs Moduli (GPa) = 76.60484 117.17247 45.18732
#
# Poissons Ratio (x) = 0.32087 0.22522
# Poissons Ratio (y) = 0.20978 0.11872
# Poissons Ratio (z) = 0.38181 0.30784
#
# Static dielectric constant tensor:
#      x y z
#    x 3.874880 0.000000 0.000000 
#    y 0.000000 3.817260 0.000000 
#    z 0.000000 0.000000 3.534010 
# 
# 
# High freq. dielectric constant tensor:
#      x y z
#    x 1.777740 0.000000 0.000000 
#    y 0.000000 1.785010 0.000000 
#    z 0.000000 0.000000 1.761600 
# 
# From -- ./inp_files/5767.got.cif
#   From: 2010.03.12/outbox.cif.g09.slc.cpg/sg57_3_cif.got.tgz:5767.got - 2010.04.16 15:48:40.
