data_PCOD8230175
_publ_section_title
;
Structure prediction by ZEFSAII (Michael W. Deem and Ramdas Pophale) SiO2 
 PCOD8230175
Probable space group: P B C M
;
_chemical_formula_sum "Si O2"
_cell_formula_units_Z 64
_cell_length_a 14.990167
_cell_length_b 29.078905
_cell_length_c 9.253596
_cell_angle_alpha 90.000000
_cell_angle_beta 90.000000
_cell_angle_gamma 90.000000
_cell_volume 4033.620678
_symmetry_space_group_name_H-M "P B C M"
_symmetry_group_IT_number 57
_symmetry_cell_setting 'orthorhombic'
loop_
_space_group_symop_operation_xyz
x,y,z
-x,-y,1/2+z
x,1/2-y,-z
-x,1/2+y,1/2-z
-x,-y,-z
x,y,1/2-z
-x,1/2+y,z
x,1/2-y,1/2+z
loop_
_atom_site_type_symbol
_atom_site_label
_atom_site_fract_x
_atom_site_fract_y
_atom_site_fract_z
Si Si1 0.465852 0.886150 0.580702
Si Si2 0.493095 0.203770 0.919547
Si Si3 0.872171 0.472734 0.918487
Si Si4 0.941639 0.941605 0.585228
Si Si5 0.633547 0.946876 0.917072
Si Si6 0.325278 0.537760 0.419116
Si Si7 0.788900 0.877525 0.586124
Si Si8 0.714963 0.705135 0.582855
O O1 0.471660 0.873523 0.750000
O O2 0.456299 0.839509 0.489003
O O3 0.553265 0.914122 0.531074
O O4 0.379168 0.916251 0.542918
O O5 0.515322 0.207718 0.750000
O O6 0.388583 0.196032 0.947975
O O7 0.525603 0.250000 0.000000
O O8 0.866140 0.481928 0.750000
O O9 0.776644 0.453796 0.973020
O O10 0.953084 0.437235 0.956059
O O11 0.892136 0.521467 0.988285
O O12 0.932129 0.958569 0.750000
O O13 0.891843 0.892929 0.564840
O O14 0.621504 0.959520 0.750000
O O15 0.726248 0.921090 0.947772
O O16 0.630152 0.994203 0.004018
O O17 0.330583 0.527312 0.250000
O O18 0.770906 0.860244 0.750000
O O19 0.771709 0.837419 0.473805
O O20 0.748737 0.750000 0.500000
O O21 0.735227 0.712273 0.750000
#
# Coordination Sequence:
#
# PCOD8230175 Si02
#       8
#     8   8   8   8   8   8   8   8
#     4  10  20  33  46  64  92 126 158 189 228 272
#     4  10  20  33  50  70  91 118 151 189 230 272
#     4   9  17  29  44  64  89 117 153 193 227 263
#     4   9  17  29  45  64  88 119 152 186 227 269
#     4  10  19  30  44  63  92 128 160 189 221 266
#     4  10  20  31  45  65  92 125 160 197 231 264
#     4  10  18  29  46  67  92 123 155 186 226 273
#     4  10  20  32  48  69  93 120 150 186 227 273
#
# _framework density 15.866638999999999
#
# number of rings (size 3 to 8) (size 9 to 14) (size 15 to 20)
#    0.000    2.250    2.500    1.125    0.000    3.000 
#    0.000    0.000    0.000    0.000    0.000    0.875 
#    0.000    0.000    0.000    0.000    0.000    0.000 
#
# Total GULP energy -793544.861443 kJ/mol
# GULP energy per Si atom -12399.138460 kJ/mol
# Density = 1.583053 g / cm^3
# Si number density = 15.866639 Si / 1000 Ang^3
#
#
#
# Elastic Constant Matrix: (Units=GPa)
#
#
# Indices 1 2 3 4 5 6 
#
# 1 83.7218 45.4822 29.9880 0.0000 0.0000 0.0000
# 2 45.4822 108.4287 52.9520 0.0000 0.0000 0.0000
# 3 29.9880 52.9520 60.2591 0.0000 0.0000 0.0000
# 4 0.0000 0.0000 0.0000 32.2921 0.0000 0.0000
# 5 0.0000 0.0000 0.0000 0.0000 16.1853 0.0000
# 6 0.0000 0.0000 0.0000 0.0000 0.0000 17.9146
#
#
#
# Elastic Compliance Matrix: (Units=1/GPa)
#
#
# Indices 1 2 3 4 5 6 
#
# 1 0.015902 -0.004915 -0.003595 0.000000 0.000000 0.000000
# 2 -0.004915 0.017675 -0.013086 0.000000 0.000000 0.000000
# 3 -0.003595 -0.013086 0.029883 0.000000 0.000000 0.000000
# 4 0.000000 0.000000 0.000000 0.030967 0.000000 0.000000
# 5 0.000000 0.000000 0.000000 0.000000 0.061784 0.000000
# 6 0.000000 0.000000 0.000000 0.000000 0.000000 0.055821
#
#
# Mechanical properties :
#
#
# Convention : Reuss Voigt Hill
#
# Bulk Modulus (GPa) = 49.33636 56.58379 52.96007
# Shear Modulus (GPa) = 19.08555 21.54421 20.31488
#
# Velocity S-wave (km/s) = 3.47201 3.68887 3.58208
# Velocity P-wave (km/s) = 6.87277 7.34052 7.11049
#
# Compressibility (1/GPa) = 0.02026903
#
# Stress axis : x y z
#
# Youngs Moduli (GPa) = 62.88551 56.57814 33.46415
#
# Poissons Ratio (x) = 0.27807 0.12030
# Poissons Ratio (y) = 0.30907 0.43790
# Poissons Ratio (z) = 0.22606 0.74036
#
# Static dielectric constant tensor:
#      x y z
#    x 3.177260 0.000000 0.000000 
#    y 0.000000 2.848400 0.000000 
#    z 0.000000 0.000000 3.059560 
# 
# 
# High freq. dielectric constant tensor:
#      x y z
#    x 1.596050 0.000000 0.000000 
#    y 0.000000 1.590430 0.000000 
#    z 0.000000 0.000000 1.613820 
# 
# From -- ./inp_files/6030.got.cif
#   From: 2010.03.12/outbox.cif.g09.slc.cpg/sg57_4_cif.got.tgz:6030.got - 2010.04.16 15:48:40.
