data_PCOD8230683
_publ_section_title
;
Structure prediction by ZEFSAII (Michael W. Deem and Ramdas Pophale) SiO2 
 PCOD8230683
Probable space group: P B C M
;
_chemical_formula_sum "Si O2"
_cell_formula_units_Z 56
_cell_length_a 20.734638
_cell_length_b 17.339765
_cell_length_c 9.119745
_cell_angle_alpha 90.000000
_cell_angle_beta 90.000000
_cell_angle_gamma 90.000000
_cell_volume 3278.856121
_symmetry_space_group_name_H-M "P B C M"
_symmetry_group_IT_number 57
_symmetry_cell_setting 'orthorhombic'
loop_
_space_group_symop_operation_xyz
x,y,z
-x,-y,1/2+z
x,1/2-y,-z
-x,1/2+y,1/2-z
-x,-y,-z
x,y,1/2-z
-x,1/2+y,z
x,1/2-y,1/2+z
loop_
_atom_site_type_symbol
_atom_site_label
_atom_site_fract_x
_atom_site_fract_y
_atom_site_fract_z
Si Si1 0.074788 0.330650 0.423373
Si Si2 0.478688 0.112441 0.584998
Si Si3 0.363158 0.322460 0.580033
Si Si4 0.408865 0.550994 0.414620
Si Si5 0.295544 0.017982 0.419806
Si Si6 0.964650 0.433969 0.417243
Si Si7 0.149896 0.030955 0.421559
O O1 0.091085 0.250000 0.500000
O O2 0.087312 0.322446 0.250000
O O3 0.120976 0.397766 0.486512
O O4 0.998834 0.352344 0.458794
O O5 0.485880 0.144508 0.750000
O O6 0.433815 0.168040 0.489969
O O7 0.549202 0.110770 0.510196
O O8 0.446901 0.028746 0.587882
O O9 0.329249 0.250000 0.500000
O O10 0.371846 0.304731 0.750000
O O11 0.318038 0.395124 0.551129
O O12 0.400037 0.582996 0.250000
O O13 0.338505 0.541300 0.487020
O O14 0.303366 0.995648 0.250000
O O15 0.222085 0.012731 0.474105
O O16 0.980549 0.449425 0.250000
O O17 0.888575 0.449130 0.448030
O O18 0.000000 0.500000 0.500000
O O19 0.148631 0.054508 0.250000
#
# Coordination Sequence:
#
# PCOD8230683 Si02
#       7
#     8   8   8   8   8   8   8
#     4  10  19  30  45  67  92 119 151 187 226 270
#     4   9  16  27  43  61  81 107 140 178 218 254
#     4  10  19  30  42  59  85 116 148 179 214 259
#     4   9  16  26  42  63  85 108 137 176 216 253
#     4   9  18  30  44  63  88 117 147 179 217 263
#     4   8  15  28  46  65  86 113 147 186 227 268
#     4   9  17  31  48  66  90 120 152 188 229 272
#
# _framework density 17.079127
#
# number of rings (size 3 to 8) (size 9 to 14) (size 15 to 20)
#    0.000    2.857    0.000    1.714    0.000    5.714 
#    0.000    1.429    0.000    0.000    0.000    1.000 
#    0.000    4.571    0.000    0.000    0.000    0.000 
#
# Total GULP energy -693837.611895 kJ/mol
# GULP energy per Si atom -12389.957355 kJ/mol
# Density = 1.704025 g / cm^3
# Si number density = 17.079127 Si / 1000 Ang^3
#
#
#
# Elastic Constant Matrix: (Units=GPa)
#
#
# Indices 1 2 3 4 5 6 
#
# 1 127.7332 17.7159 43.3460 0.0000 0.0000 0.0000
# 2 17.7159 8.8406 8.0256 0.0000 0.0000 0.0000
# 3 43.3460 8.0256 81.4782 0.0000 0.0000 0.0000
# 4 0.0000 0.0000 0.0000 20.4589 0.0000 0.0000
# 5 0.0000 0.0000 0.0000 0.0000 23.3254 0.0000
# 6 0.0000 0.0000 0.0000 0.0000 0.0000 12.2175
#
#
#
# Elastic Compliance Matrix: (Units=1/GPa)
#
#
# Indices 1 2 3 4 5 6 
#
# 1 0.012163 -0.020317 -0.004470 0.000000 0.000000 0.000000
# 2 -0.020317 0.158158 -0.004770 0.000000 0.000000 0.000000
# 3 -0.004470 -0.004770 0.015121 0.000000 0.000000 0.000000
# 4 0.000000 0.000000 0.000000 0.048878 0.000000 0.000000
# 5 0.000000 0.000000 0.000000 0.000000 0.042872 0.000000
# 6 0.000000 0.000000 0.000000 0.000000 0.000000 0.081850
#
#
# Mechanical properties :
#
#
# Convention : Reuss Voigt Hill
#
# Bulk Modulus (GPa) = 7.91585 39.58078 23.74832
# Shear Modulus (GPa) = 10.86331 21.13132 15.99732
#
# Velocity S-wave (km/s) = 2.52475 3.52129 3.06381
# Velocity P-wave (km/s) = 3.62547 6.30538 5.14305
#
# Compressibility (1/GPa) = 0.12632877
#
# Stress axis : x y z
#
# Youngs Moduli (GPa) = 82.21347 6.32280 66.13355
#
# Poissons Ratio (x) = 0.12846 0.29560
# Poissons Ratio (y) = 1.67033 0.31546
# Poissons Ratio (z) = 0.36747 0.03016
#
# Static dielectric constant tensor:
#      x y z
#    x 3.490790 0.000000 0.000000 
#    y 0.000000 3.044280 0.000000 
#    z 0.000000 0.000000 3.336280 
# 
# 
# High freq. dielectric constant tensor:
#      x y z
#    x 1.651410 0.000000 0.000000 
#    y 0.000000 1.617030 0.000000 
#    z 0.000000 0.000000 1.672070 
# 
# From -- ./inp_files/7007.got.cif
#   From: 2010.03.12/outbox.cif.g09.slc.cpg/sg57_4_cif.got.tgz:7007.got - 2010.04.16 15:48:40.
