data_PCOD8230063
_publ_section_title
;
Structure prediction by ZEFSAII (Michael W. Deem and Ramdas Pophale) SiO2 
 PCOD8230063
Probable space group: P B C M
;
_chemical_formula_sum "Si O2"
_cell_formula_units_Z 64
_cell_length_a 26.187289
_cell_length_b 18.513878
_cell_length_c 8.922218
_cell_angle_alpha 90.000000
_cell_angle_beta 90.000000
_cell_angle_gamma 90.000000
_cell_volume 4325.743550
_symmetry_space_group_name_H-M "P B C M"
_symmetry_group_IT_number 57
_symmetry_cell_setting 'orthorhombic'
loop_
_space_group_symop_operation_xyz
x,y,z
-x,-y,1/2+z
x,1/2-y,-z
-x,1/2+y,1/2-z
-x,-y,-z
x,y,1/2-z
-x,1/2+y,z
x,1/2-y,1/2+z
loop_
_atom_site_type_symbol
_atom_site_label
_atom_site_fract_x
_atom_site_fract_y
_atom_site_fract_z
Si Si1 0.499570 0.827638 0.573905
Si Si2 0.311517 0.675228 0.574187
Si Si3 0.003187 0.827786 0.071613
Si Si4 0.102609 0.912797 0.425267
Si Si5 0.196536 0.824801 0.072741
Si Si6 0.604218 0.410702 0.578882
Si Si7 0.044216 0.453583 0.926895
Si Si8 0.456195 0.454548 0.076164
O O1 0.502045 0.750000 0.500000
O O2 0.507944 0.820883 0.750000
O O3 0.445682 0.864641 0.532946
O O4 0.545729 0.876671 0.505568
O O5 0.329492 0.750000 0.500000
O O6 0.315351 0.685798 0.750000
O O7 0.254023 0.654672 0.523009
O O8 0.348483 0.610830 0.524650
O O9 0.999657 0.823211 0.250000
O O10 0.055773 0.864238 0.011853
O O11 0.998024 0.750000 0.000000
O O12 0.955545 0.875892 0.008799
O O13 0.101840 0.899270 0.250000
O O14 0.157246 0.885812 0.488632
O O15 0.095427 0.998619 0.459165
O O16 0.193573 0.815912 0.250000
O O17 0.179231 0.750000 0.000000
O O18 0.618370 0.393415 0.750000
O O19 0.595023 0.497024 0.557192
O O20 0.035206 0.443899 0.750000
O O21 0.000000 0.500000 0.000000
O O22 0.469106 0.442983 0.250000
O O23 0.500000 0.500000 0.000000
#
# Coordination Sequence:
#
# PCOD8230063 Si02
#       8
#     8   8   8   8   8   8   8   8
#     4  10  19  29  42  61  83 109 137 167 199 236
#     4  10  19  28  41  58  79 106 136 170 203 233
#     4  10  18  27  40  59  81 107 136 167 200 238
#     4   8  15  27  42  57  77 105 136 166 199 236
#     4   9  17  29  41  57  79 104 135 169 201 234
#     4   9  18  30  43  58  79 107 138 167 199 235
#     4   9  16  27  41  57  78 105 133 165 201 238
#     4   9  17  29  43  59  79 105 134 167 202 238
#
# _framework density 14.795144000000001
#
# number of rings (size 3 to 8) (size 9 to 14) (size 15 to 20)
#    0.000    2.750    0.000    4.125    0.000    4.500 
#    0.000    3.125    0.000    0.000    0.000    0.000 
#    0.000    1.000    0.000    8.750    0.000    3.125 
#
# Total GULP energy -793066.290413 kJ/mol
# GULP energy per Si atom -12391.660788 kJ/mol
# Density = 1.476147 g / cm^3
# Si number density = 14.795144 Si / 1000 Ang^3
#
#
#
# Elastic Constant Matrix: (Units=GPa)
#
#
# Indices 1 2 3 4 5 6 
#
# 1 65.9217 48.8182 29.7923 0.0000 0.0000 0.0000
# 2 48.8182 116.4756 45.1323 0.0000 0.0000 0.0000
# 3 29.7923 45.1323 68.3212 0.0000 0.0000 0.0000
# 4 0.0000 0.0000 0.0000 28.3132 0.0000 0.0000
# 5 0.0000 0.0000 0.0000 0.0000 14.8024 0.0000
# 6 0.0000 0.0000 0.0000 0.0000 0.0000 23.2032
#
#
#
# Elastic Compliance Matrix: (Units=1/GPa)
#
#
# Indices 1 2 3 4 5 6 
#
# 1 0.023184 -0.007795 -0.004960 0.000000 0.000000 0.000000
# 2 -0.007795 0.014160 -0.005955 0.000000 0.000000 0.000000
# 3 -0.004960 -0.005955 0.020733 0.000000 0.000000 0.000000
# 4 0.000000 0.000000 0.000000 0.035319 0.000000 0.000000
# 5 0.000000 0.000000 0.000000 0.000000 0.067556 0.000000
# 6 0.000000 0.000000 0.000000 0.000000 0.000000 0.043097
#
#
# Mechanical properties :
#
#
# Convention : Reuss Voigt Hill
#
# Bulk Modulus (GPa) = 48.40973 55.35601 51.88287
# Shear Modulus (GPa) = 20.13236 21.72881 20.93058
#
# Velocity S-wave (km/s) = 3.69282 3.83645 3.76532
# Velocity P-wave (km/s) = 7.13958 7.55782 7.35168
#
# Compressibility (1/GPa) = 0.02065700
#
# Stress axis : x y z
#
# Youngs Moduli (GPa) = 43.13361 70.62158 48.23120
#
# Poissons Ratio (x) = 0.55049 0.23924
# Poissons Ratio (y) = 0.33622 0.28721
# Poissons Ratio (z) = 0.21396 0.42054
#
# Static dielectric constant tensor:
#      x y z
#    x 2.906090 0.000000 0.000000 
#    y 0.000000 3.169540 0.000000 
#    z 0.000000 0.000000 3.016690 
# 
# 
# High freq. dielectric constant tensor:
#      x y z
#    x 1.528010 0.000000 0.000000 
#    y 0.000000 1.560750 0.000000 
#    z 0.000000 0.000000 1.573750 
# 
# From -- ./inp_files/9804.got.cif
#   From: 2010.03.12/outbox.cif.g09.slc.cpg/sg57_5_cif.got.tgz:9804.got - 2010.04.16 15:48:40.
