data_PCOD8230002
_publ_section_title
;
Structure prediction by ZEFSAII (Michael W. Deem and Ramdas Pophale) SiO2 
 PCOD8230002
Probable space group: P B C M
;
_chemical_formula_sum "Si O2"
_cell_formula_units_Z 56
_cell_length_a 15.140798
_cell_length_b 8.796520
_cell_length_c 20.266124
_cell_angle_alpha 90.000000
_cell_angle_beta 90.000000
_cell_angle_gamma 90.000000
_cell_volume 2699.170728
_symmetry_space_group_name_H-M "P B C M"
_symmetry_group_IT_number 57
_symmetry_cell_setting 'orthorhombic'
loop_
_space_group_symop_operation_xyz
x,y,z
-x,-y,1/2+z
x,1/2-y,-z
-x,1/2+y,1/2-z
-x,-y,-z
x,y,1/2-z
-x,1/2+y,z
x,1/2-y,1/2+z
loop_
_atom_site_type_symbol
_atom_site_label
_atom_site_fract_x
_atom_site_fract_y
_atom_site_fract_z
Si Si1 0.774022 0.501465 0.132634
Si Si2 0.749673 0.342917 0.827140
Si Si3 0.928847 0.356656 0.626821
Si Si4 0.944551 0.061584 0.561885
Si Si5 0.577575 0.992683 0.172975
Si Si6 0.397931 0.141159 0.171388
Si Si7 0.123688 0.370141 0.750000
Si Si8 0.021895 0.663971 0.750000
O O1 0.753411 0.337011 0.162073
O O2 0.841426 0.494131 0.069178
O O3 0.679532 0.581676 0.122285
O O4 0.818844 0.610661 0.185740
O O5 0.758412 0.382429 0.750000
O O6 0.829275 0.422727 0.869035
O O7 0.659094 0.410805 0.856986
O O8 0.932171 0.239973 0.687254
O O9 0.000065 0.492744 0.624884
O O10 0.944806 0.245599 0.563240
O O11 0.000000 0.000000 0.500000
O O12 0.576490 0.024261 0.250000
O O13 0.484605 0.053320 0.145712
O O14 0.588771 0.817294 0.155979
O O15 0.378311 0.112590 0.250000
O O16 0.038596 0.483889 0.750000
O O17 0.083128 0.199423 0.750000
#
# Coordination Sequence:
#
# PCOD8230002 Si02
#       8
#     8   8   8   8   8   8   4   4
#     4  11  19  33  53  72 105 148 187 236 278 331
#     4  10  17  31  49  75 106 140 178 221 280 337
#     4  11  20  35  55  75 107 142 184 234 281 337
#     4  11  24  38  52  74 107 151 193 233 279 333
#     4   9  19  30  46  76 115 152 181 219 276 350
#     4  10  18  31  48  75 110 148 185 223 279 344
#     4  12  20  34  50  79 113 140 188 233 291 343
#     4  12  18  36  52  81 103 140 184 231 299 331
#
# _framework density 20.747112999999999
#
# number of rings (size 3 to 8) (size 9 to 14) (size 15 to 20)
#    0.000    1.429    6.429    1.286    0.000    3.429 
#    2.571    0.000    0.000    0.000    0.000    1.000 
#    0.000    2.286    0.000    0.571    0.000    0.429 
#
# Total GULP energy -693824.739460 kJ/mol
# GULP energy per Si atom -12389.727490 kJ/mol
# Density = 2.069989 g / cm^3
# Si number density = 20.747113 Si / 1000 Ang^3
#
#
#
# Elastic Constant Matrix: (Units=GPa)
#
#
# Indices 1 2 3 4 5 6 
#
# 1 192.3748 64.0997 15.2697 0.0000 0.0000 0.0000
# 2 64.0997 53.0653 -4.5735 0.0000 0.0000 0.0000
# 3 15.2697 -4.5735 28.7689 0.0000 0.0000 0.0000
# 4 0.0000 0.0000 0.0000 9.6993 0.0000 0.0000
# 5 0.0000 0.0000 0.0000 0.0000 26.5038 0.0000
# 6 0.0000 0.0000 0.0000 0.0000 0.0000 44.7129
#
#
#
# Elastic Compliance Matrix: (Units=1/GPa)
#
#
# Indices 1 2 3 4 5 6 
#
# 1 0.010029 -0.012748 -0.007350 0.000000 0.000000 0.000000
# 2 -0.012748 0.035311 0.012380 0.000000 0.000000 0.000000
# 3 -0.007350 0.012380 0.040629 0.000000 0.000000 0.000000
# 4 0.000000 0.000000 0.000000 0.103100 0.000000 0.000000
# 5 0.000000 0.000000 0.000000 0.000000 0.037730 0.000000
# 6 0.000000 0.000000 0.000000 0.000000 0.000000 0.022365
#
#
# Mechanical properties :
#
#
# Convention : Reuss Voigt Hill
#
# Bulk Modulus (GPa) = 14.17782 47.08898 30.63340
# Shear Modulus (GPa) = 17.35434 29.47740 23.41587
#
# Velocity S-wave (km/s) = 2.89532 3.77343 3.36316
# Velocity P-wave (km/s) = 4.24566 6.45995 5.46610
#
# Compressibility (1/GPa) = 0.07053270
#
# Stress axis : x y z
#
# Youngs Moduli (GPa) = 99.70711 28.31980 24.61295
#
# Poissons Ratio (x) = 0.36103 0.18090
# Poissons Ratio (y) = 1.27110 -0.30471
# Poissons Ratio (z) = 0.73284 -0.35060
#
# Static dielectric constant tensor:
#      x y z
#    x 4.318610 0.000000 0.000000 
#    y 0.000000 3.755690 0.000000 
#    z 0.000000 0.000000 3.443800 
# 
# 
# High freq. dielectric constant tensor:
#      x y z
#    x 1.827200 0.000000 0.000000 
#    y 0.000000 1.816250 0.000000 
#    z 0.000000 0.000000 1.750730 
# 
# From -- ./inp_files/25437.got.cif
#   From: 2010.03.12/outbox.cif.g09.slc.cpg/sg57_13_cif.got.tgz:25437.got - 2010.04.16 15:48:40.
