data_PCOD8230086
_publ_section_title
;
Structure prediction by ZEFSAII (Michael W. Deem and Ramdas Pophale) SiO2 
 PCOD8230086
Probable space group: P B C M
;
_chemical_formula_sum "Si O2"
_cell_formula_units_Z 64
_cell_length_a 20.227479
_cell_length_b 20.466048
_cell_length_c 9.214554
_cell_angle_alpha 90.000000
_cell_angle_beta 90.000000
_cell_angle_gamma 90.000000
_cell_volume 3814.609331
_symmetry_space_group_name_H-M "P B C M"
_symmetry_group_IT_number 57
_symmetry_cell_setting 'orthorhombic'
loop_
_space_group_symop_operation_xyz
x,y,z
-x,-y,1/2+z
x,1/2-y,-z
-x,1/2+y,1/2-z
-x,-y,-z
x,y,1/2-z
-x,1/2+y,z
x,1/2-y,1/2+z
loop_
_atom_site_type_symbol
_atom_site_label
_atom_site_fract_x
_atom_site_fract_y
_atom_site_fract_z
Si Si1 0.825316 0.026343 0.917992
Si Si2 0.426237 0.569035 0.585749
Si Si3 0.819027 0.893245 0.081299
Si Si4 0.325298 0.398431 0.089183
Si Si5 0.971248 0.061279 0.583132
Si Si6 0.552248 0.914594 0.586966
Si Si7 0.053212 0.315898 0.418458
Si Si8 0.699368 0.052270 0.086073
O O1 0.804641 0.018955 0.750000
O O2 0.892464 0.067446 0.935976
O O3 0.768019 0.065509 0.002649
O O4 0.837776 0.954735 0.982886
O O5 0.421047 0.595300 0.750000
O O6 0.488208 0.603754 0.507759
O O7 0.436435 0.491691 0.585364
O O8 0.359976 0.588379 0.498774
O O9 0.821473 0.915676 0.250000
O O10 0.745159 0.866576 0.043599
O O11 0.870877 0.835870 0.049513
O O12 0.346708 0.375627 0.250000
O O13 0.314462 0.475710 0.087919
O O14 0.383337 0.378273 0.978892
O O15 0.991436 0.051430 0.750000
O O16 0.004486 0.127463 0.523326
O O17 0.000000 0.000000 0.500000
O O18 0.541579 0.888974 0.750000
O O19 0.035327 0.250000 0.500000
O O20 0.041370 0.303096 0.250000
O O21 0.703559 0.079857 0.250000
#
# Coordination Sequence:
#
# PCOD8230086 Si02
#       8
#     8   8   8   8   8   8   8   8
#     4  10  18  27  43  67  88 111 147 190 232 276
#     4   9  15  22  32  46  69 102 140 180 216 260
#     4   9  17  30  46  62  86 117 148 187 231 275
#     4   8  14  23  35  51  71 101 139 177 217 259
#     4  10  20  33  51  72  95 121 155 197 240 287
#     4   9  15  21  30  46  69 100 137 177 217 259
#     4  10  21  36  51  70  96 125 157 195 240 289
#     4   9  16  25  36  52  77 109 141 178 223 269
#
# _framework density 16.777602999999999
#
# number of rings (size 3 to 8) (size 9 to 14) (size 15 to 20)
#    0.000    2.750    1.250    2.250    0.000    7.500 
#    0.000    0.000    0.000    0.000    0.000    0.000 
#    0.000    0.000    0.000    1.125    0.000   14.000 
#
# Total GULP energy -793413.785870 kJ/mol
# GULP energy per Si atom -12397.090404 kJ/mol
# Density = 1.673942 g / cm^3
# Si number density = 16.777603 Si / 1000 Ang^3
#
#
#
# Elastic Constant Matrix: (Units=GPa)
#
#
# Indices 1 2 3 4 5 6 
#
# 1 129.9496 39.9121 68.0757 0.0000 0.0000 0.0000
# 2 39.9121 51.4974 32.1695 0.0000 0.0000 0.0000
# 3 68.0757 32.1695 118.0947 0.0000 0.0000 0.0000
# 4 0.0000 0.0000 0.0000 14.3710 0.0000 0.0000
# 5 0.0000 0.0000 0.0000 0.0000 31.1556 0.0000
# 6 0.0000 0.0000 0.0000 0.0000 0.0000 9.9015
#
#
#
# Elastic Compliance Matrix: (Units=1/GPa)
#
#
# Indices 1 2 3 4 5 6 
#
# 1 0.012496 -0.006248 -0.005501 0.000000 0.000000 0.000000
# 2 -0.006248 0.026525 -0.003624 0.000000 0.000000 0.000000
# 3 -0.005501 -0.003624 0.012626 0.000000 0.000000 0.000000
# 4 0.000000 0.000000 0.000000 0.069585 0.000000 0.000000
# 5 0.000000 0.000000 0.000000 0.000000 0.032097 0.000000
# 6 0.000000 0.000000 0.000000 0.000000 0.000000 0.100995
#
#
# Mechanical properties :
#
#
# Convention : Reuss Voigt Hill
#
# Bulk Modulus (GPa) = 47.84588 64.42847 56.13717
# Shear Modulus (GPa) = 17.12111 21.71125 19.41618
#
# Velocity S-wave (km/s) = 3.19795 3.60121 3.40555
# Velocity P-wave (km/s) = 6.49734 7.46836 6.99971
#
# Compressibility (1/GPa) = 0.02090044
#
# Stress axis : x y z
#
# Youngs Moduli (GPa) = 80.02296 37.70069 79.20060
#
# Poissons Ratio (x) = 0.23557 0.43572
# Poissons Ratio (y) = 0.50002 0.28699
# Poissons Ratio (z) = 0.44024 0.13661
#
# Static dielectric constant tensor:
#      x y z
#    x 3.524120 0.000000 0.000000 
#    y 0.000000 2.461480 0.000000 
#    z 0.000000 0.000000 3.328040 
# 
# 
# High freq. dielectric constant tensor:
#      x y z
#    x 1.666190 0.000000 0.000000 
#    y 0.000000 1.557580 0.000000 
#    z 0.000000 0.000000 1.658230 
# 
# From -- ./inp_files/8694.got.cif
#   From: 2010.03.12/outbox.cif.g09.slc.cpg/sg57_5_cif.got.tgz:8694.got - 2010.04.16 15:48:40.
