data_PCOD8230356
_publ_section_title
;
Structure prediction by ZEFSAII (Michael W. Deem and Ramdas Pophale) SiO2 
 PCOD8230356
Probable space group: P B C M
;
_chemical_formula_sum "Si O2"
_cell_formula_units_Z 56
_cell_length_a 14.786037
_cell_length_b 22.688600
_cell_length_c 8.823292
_cell_angle_alpha 90.000000
_cell_angle_beta 90.000000
_cell_angle_gamma 90.000000
_cell_volume 2959.989287
_symmetry_space_group_name_H-M "P B C M"
_symmetry_group_IT_number 57
_symmetry_cell_setting 'orthorhombic'
loop_
_space_group_symop_operation_xyz
x,y,z
-x,-y,1/2+z
x,1/2-y,-z
-x,1/2+y,1/2-z
-x,-y,-z
x,y,1/2-z
-x,1/2+y,z
x,1/2-y,1/2+z
loop_
_atom_site_type_symbol
_atom_site_label
_atom_site_fract_x
_atom_site_fract_y
_atom_site_fract_z
Si Si1 0.427693 0.190038 0.069984
Si Si2 0.912597 0.422131 0.928110
Si Si3 0.298013 0.089023 0.427842
Si Si4 0.592033 0.019792 0.572144
Si Si5 0.612211 0.151983 0.927818
Si Si6 0.188211 0.688784 0.928846
Si Si7 0.887644 0.955068 0.927435
O O1 0.425229 0.192855 0.250000
O O2 0.360600 0.140149 0.000526
O O3 0.389692 0.250000 0.000000
O O4 0.531007 0.181424 0.019290
O O5 0.896539 0.416265 0.750000
O O6 0.019047 0.423220 0.970809
O O7 0.868167 0.366230 0.008503
O O8 0.870955 0.483669 0.985070
O O9 0.310454 0.095405 0.250000
O O10 0.191959 0.091249 0.472736
O O11 0.331402 0.025186 0.483743
O O12 0.578810 0.017519 0.750000
O O13 0.620936 0.084438 0.518935
O O14 0.500000 0.000000 0.500000
O O15 0.591460 0.157662 0.750000
O O16 0.706230 0.182666 0.972182
O O17 0.174151 0.690494 0.750000
O O18 0.152156 0.750000 0.000000
O O19 0.883589 0.970798 0.750000
#
# Coordination Sequence:
#
# PCOD8230356 Si02
#       7
#     8   8   8   8   8   8   8
#     4  11  22  36  54  74 103 142 183 223 264 314
#     4  10  20  35  58  88 115 142 179 225 278 333
#     4   9  18  34  55  78 106 143 179 215 267 322
#     4  10  18  31  51  78 108 138 173 215 264 314
#     4  10  21  36  56  80 108 142 182 223 271 326
#     4  11  23  39  58  80 111 150 188 231 278 332
#     4   9  18  36  61  84 111 145 181 223 275 332
#
# _framework density 18.918987000000001
#
# number of rings (size 3 to 8) (size 9 to 14) (size 15 to 20)
#    0.000    2.000    1.429    2.571    0.000    5.143 
#    0.000    4.286    0.000    1.714    0.000    0.000 
#    0.000    0.000    0.000    0.000    0.000    0.000 
#
# Total GULP energy -694286.890938 kJ/mol
# GULP energy per Si atom -12397.980195 kJ/mol
# Density = 1.887593 g / cm^3
# Si number density = 18.918987 Si / 1000 Ang^3
#
#
#
# Elastic Constant Matrix: (Units=GPa)
#
#
# Indices 1 2 3 4 5 6 
#
# 1 113.9119 56.7716 34.3226 0.0000 0.0000 0.0000
# 2 56.7716 129.0121 43.9666 0.0000 0.0000 0.0000
# 3 34.3226 43.9666 56.5456 0.0000 0.0000 0.0000
# 4 0.0000 0.0000 0.0000 31.1958 0.0000 0.0000
# 5 0.0000 0.0000 0.0000 0.0000 25.8074 0.0000
# 6 0.0000 0.0000 0.0000 0.0000 0.0000 25.3404
#
#
#
# Elastic Compliance Matrix: (Units=1/GPa)
#
#
# Indices 1 2 3 4 5 6 
#
# 1 0.011971 -0.003798 -0.004313 0.000000 0.000000 0.000000
# 2 -0.003798 0.011751 -0.006831 0.000000 0.000000 0.000000
# 3 -0.004313 -0.006831 0.025615 0.000000 0.000000 0.000000
# 4 0.000000 0.000000 0.000000 0.032056 0.000000 0.000000
# 5 0.000000 0.000000 0.000000 0.000000 0.038749 0.000000
# 6 0.000000 0.000000 0.000000 0.000000 0.000000 0.039463
#
#
# Mechanical properties :
#
#
# Convention : Reuss Voigt Hill
#
# Bulk Modulus (GPa) = 51.41049 63.28791 57.34920
# Shear Modulus (GPa) = 25.51388 27.42932 26.47160
#
# Velocity S-wave (km/s) = 3.67629 3.81179 3.74466
# Velocity P-wave (km/s) = 6.72705 7.27308 7.00539
#
# Compressibility (1/GPa) = 0.01945128
#
# Stress axis : x y z
#
# Youngs Moduli (GPa) = 83.53392 85.10248 39.04035
#
# Poissons Ratio (x) = 0.32322 0.16839
# Poissons Ratio (y) = 0.31726 0.26669
# Poissons Ratio (z) = 0.36031 0.58135
#
# Static dielectric constant tensor:
#      x y z
#    x 3.555080 0.000000 0.000000 
#    y 0.000000 3.614270 0.000000 
#    z 0.000000 0.000000 3.314240 
# 
# 
# High freq. dielectric constant tensor:
#      x y z
#    x 1.737260 0.000000 0.000000 
#    y 0.000000 1.738470 0.000000 
#    z 0.000000 0.000000 1.722570 
# 
# From -- ./inp_files/5204.got.cif
#   From: 2010.03.12/outbox.cif.g09.slc.cpg/sg57_3_cif.got.tgz:5204.got - 2010.04.16 15:48:40.
