data_PCOD8230692
_publ_section_title
;
Structure prediction by ZEFSAII (Michael W. Deem and Ramdas Pophale) SiO2 
 PCOD8230692
Probable space group: P B C M
;
_chemical_formula_sum "Si O2"
_cell_formula_units_Z 64
_cell_length_a 31.295397
_cell_length_b 14.074438
_cell_length_c 9.041718
_cell_angle_alpha 90.000000
_cell_angle_beta 90.000000
_cell_angle_gamma 90.000000
_cell_volume 3982.561447
_symmetry_space_group_name_H-M "P B C M"
_symmetry_group_IT_number 57
_symmetry_cell_setting 'orthorhombic'
loop_
_space_group_symop_operation_xyz
x,y,z
-x,-y,1/2+z
x,1/2-y,-z
-x,1/2+y,1/2-z
-x,-y,-z
x,y,1/2-z
-x,1/2+y,z
x,1/2-y,1/2+z
loop_
_atom_site_type_symbol
_atom_site_label
_atom_site_fract_x
_atom_site_fract_y
_atom_site_fract_z
Si Si1 0.483586 0.650647 0.924017
Si Si2 0.558547 0.956431 0.577717
Si Si3 0.641899 0.849646 0.578892
Si Si4 0.097511 0.459305 0.080824
Si Si5 0.931870 0.340139 0.917731
Si Si6 0.182605 0.352339 0.074435
Si Si7 0.028117 0.345289 0.575921
Si Si8 0.735732 0.648335 0.424121
O O1 0.487342 0.668901 0.750000
O O2 0.448917 0.567773 0.960972
O O3 0.469936 0.750000 0.000000
O O4 0.528876 0.614004 0.983931
O O5 0.548490 0.938484 0.750000
O O6 0.607083 0.929229 0.535229
O O7 0.633056 0.750000 0.500000
O O8 0.638892 0.823903 0.750000
O O9 0.688696 0.895584 0.543838
O O10 0.087224 0.431265 0.250000
O O11 0.100572 0.572766 0.062033
O O12 0.142253 0.415854 0.029166
O O13 0.058397 0.429011 0.978633
O O14 0.936605 0.308783 0.750000
O O15 0.979549 0.365985 0.976317
O O16 0.911889 0.250000 0.000000
O O17 0.187627 0.341965 0.250000
O O18 0.176047 0.250000 0.000000
O O19 0.224756 0.405149 0.005218
O O20 0.045542 0.250000 0.500000
O O21 0.032582 0.335534 0.750000
O O22 0.735105 0.750000 0.500000
O O23 0.745110 0.655805 0.250000
#
# Coordination Sequence:
#
# PCOD8230692 Si02
#       8
#     8   8   8   8   8   8   8   8
#     4  10  19  30  44  62  88 120 151 185 222 259
#     4   9  18  31  45  63  87 116 151 186 220 259
#     4   9  17  28  43  64  88 114 143 176 214 253
#     4  10  20  32  46  65  89 115 144 177 212 251
#     4   9  19  34  48  64  86 112 143 180 217 250
#     4  10  19  30  44  63  89 117 141 169 207 253
#     4  10  19  30  46  66  89 116 144 174 209 250
#     4   9  16  27  43  62  86 113 140 171 209 255
#
# _framework density 16.070060000000002
#
# number of rings (size 3 to 8) (size 9 to 14) (size 15 to 20)
#    0.000    2.500    0.000    3.375    0.000    5.500 
#    0.000    0.000    0.000    0.000    0.000    0.875 
#    0.000    6.000    0.000    0.000    0.000    0.000 
#
# Total GULP energy -793217.044482 kJ/mol
# GULP energy per Si atom -12394.016320 kJ/mol
# Density = 1.603348 g / cm^3
# Si number density = 16.070060 Si / 1000 Ang^3
#
#
#
# Elastic Constant Matrix: (Units=GPa)
#
#
# Indices 1 2 3 4 5 6 
#
# 1 111.7851 55.3140 41.0679 0.0000 0.0000 0.0000
# 2 55.3140 87.5679 38.7303 0.0000 0.0000 0.0000
# 3 41.0679 38.7303 66.9086 0.0000 0.0000 0.0000
# 4 0.0000 0.0000 0.0000 23.3924 0.0000 0.0000
# 5 0.0000 0.0000 0.0000 0.0000 19.4372 0.0000
# 6 0.0000 0.0000 0.0000 0.0000 0.0000 22.9583
#
#
#
# Elastic Compliance Matrix: (Units=1/GPa)
#
#
# Indices 1 2 3 4 5 6 
#
# 1 0.014024 -0.006790 -0.004678 0.000000 0.000000 0.000000
# 2 -0.006790 0.018637 -0.006620 0.000000 0.000000 0.000000
# 3 -0.004678 -0.006620 0.021649 0.000000 0.000000 0.000000
# 4 0.000000 0.000000 0.000000 0.042749 0.000000 0.000000
# 5 0.000000 0.000000 0.000000 0.000000 0.051448 0.000000
# 6 0.000000 0.000000 0.000000 0.000000 0.000000 0.043557
#
#
# Mechanical properties :
#
#
# Convention : Reuss Voigt Hill
#
# Bulk Modulus (GPa) = 55.14405 59.60956 57.37681
# Shear Modulus (GPa) = 21.34166 21.90087 21.62126
#
# Velocity S-wave (km/s) = 3.64818 3.69567 3.67200
# Velocity P-wave (km/s) = 7.22045 7.44209 7.33211
#
# Compressibility (1/GPa) = 0.01813432
#
# Stress axis : x y z
#
# Youngs Moduli (GPa) = 71.30710 53.65761 46.19135
#
# Poissons Ratio (x) = 0.36432 0.21606
# Poissons Ratio (y) = 0.48415 0.30581
# Poissons Ratio (z) = 0.33354 0.35524
#
# Static dielectric constant tensor:
#      x y z
#    x 3.511700 0.000000 0.000000 
#    y 0.000000 2.902050 0.000000 
#    z 0.000000 0.000000 3.146490 
# 
# 
# High freq. dielectric constant tensor:
#      x y z
#    x 1.610540 0.000000 0.000000 
#    y 0.000000 1.588430 0.000000 
#    z 0.000000 0.000000 1.628520 
# 
# From -- ./inp_files/10344.got.cif
#   From: 2010.03.12/outbox.cif.g09.slc.cpg/sg57_6_cif.got.tgz:10344.got - 2010.04.16 15:48:40.
