data_PCOD8230760
_publ_section_title
;
Structure prediction by ZEFSAII (Michael W. Deem and Ramdas Pophale) SiO2 
 PCOD8230760
Probable space group: P B C M
;
_chemical_formula_sum "Si O2"
_cell_formula_units_Z 56
_cell_length_a 14.861553
_cell_length_b 20.600687
_cell_length_c 9.442850
_cell_angle_alpha 90.000000
_cell_angle_beta 90.000000
_cell_angle_gamma 90.000000
_cell_volume 2891.005975
_symmetry_space_group_name_H-M "P B C M"
_symmetry_group_IT_number 57
_symmetry_cell_setting 'orthorhombic'
loop_
_space_group_symop_operation_xyz
x,y,z
-x,-y,1/2+z
x,1/2-y,-z
-x,1/2+y,1/2-z
-x,-y,-z
x,y,1/2-z
-x,1/2+y,z
x,1/2-y,1/2+z
loop_
_atom_site_type_symbol
_atom_site_label
_atom_site_fract_x
_atom_site_fract_y
_atom_site_fract_z
Si Si1 0.721537 0.520929 0.407987
Si Si2 0.051619 0.310301 0.592362
Si Si3 0.160592 0.692102 0.094009
Si Si4 0.536966 0.187590 0.586323
Si Si5 0.720241 0.124386 0.906128
Si Si6 0.926404 0.543371 0.417460
Si Si7 0.558093 0.946026 0.417921
O O1 0.712303 0.552143 0.250000
O O2 0.682538 0.448243 0.403936
O O3 0.826505 0.518128 0.452021
O O4 0.660657 0.557475 0.523240
O O5 0.090404 0.250000 0.500000
O O6 0.092745 0.303101 0.750000
O O7 0.073596 0.381417 0.529425
O O8 0.945244 0.305824 0.599190
O O9 0.202095 0.696535 0.250000
O O10 0.200702 0.750000 0.000000
O O11 0.197386 0.627614 0.017471
O O12 0.503163 0.250000 0.500000
O O13 0.526720 0.204838 0.750000
O O14 0.639946 0.171660 0.547086
O O15 0.478024 0.125220 0.547232
O O16 0.756952 0.142864 0.750000
O O17 0.949339 0.539748 0.250000
O O18 0.000000 0.500000 0.500000
O O19 0.557238 0.961445 0.250000
O O20 0.500000 0.000000 0.500000
#
# Coordination Sequence:
#
# PCOD8230760 Si02
#       7
#     8   8   8   8   8   8   8
#     4  10  21  38  59  85 116 153 193 240 295 349
#     4   9  19  35  53  76 107 148 195 241 289 347
#     4  10  19  30  46  71 104 141 185 231 282 344
#     4  10  22  38  56  82 115 149 190 237 287 345
#     4  10  19  33  51  76 111 144 182 230 284 348
#     4  10  21  37  59  87 121 155 195 246 299 352
#     4  11  22  40  63  87 116 152 195 241 286 345
#
# _framework density 19.370419999999999
#
# number of rings (size 3 to 8) (size 9 to 14) (size 15 to 20)
#    0.000    2.000    1.429    2.143    0.000    5.143 
#    0.000    0.714    0.000    3.429    0.000    0.000 
#    0.000    0.000    0.000    0.000    0.000    0.000 
#
# Total GULP energy -694113.111883 kJ/mol
# GULP energy per Si atom -12394.876998 kJ/mol
# Density = 1.932633 g / cm^3
# Si number density = 19.370420 Si / 1000 Ang^3
#
#
#
# Elastic Constant Matrix: (Units=GPa)
#
#
# Indices 1 2 3 4 5 6 
#
# 1 71.9128 38.5473 48.8134 0.0000 0.0000 0.0000
# 2 38.5473 126.4373 58.3478 0.0000 0.0000 0.0000
# 3 48.8134 58.3478 110.5730 0.0000 0.0000 0.0000
# 4 0.0000 0.0000 0.0000 33.9834 0.0000 0.0000
# 5 0.0000 0.0000 0.0000 0.0000 28.7089 0.0000
# 6 0.0000 0.0000 0.0000 0.0000 0.0000 28.3154
#
#
#
# Elastic Compliance Matrix: (Units=1/GPa)
#
#
# Indices 1 2 3 4 5 6 
#
# 1 0.020553 -0.002748 -0.007623 0.000000 0.000000 0.000000
# 2 -0.002748 0.010822 -0.004498 0.000000 0.000000 0.000000
# 3 -0.007623 -0.004498 0.014783 0.000000 0.000000 0.000000
# 4 0.000000 0.000000 0.000000 0.029426 0.000000 0.000000
# 5 0.000000 0.000000 0.000000 0.000000 0.034832 0.000000
# 6 0.000000 0.000000 0.000000 0.000000 0.000000 0.035316
#
#
# Mechanical properties :
#
#
# Convention : Reuss Voigt Hill
#
# Bulk Modulus (GPa) = 60.90093 66.70448 63.80270
# Shear Modulus (GPa) = 27.63268 29.08251 28.35760
#
# Velocity S-wave (km/s) = 3.78105 3.87898 3.83033
# Velocity P-wave (km/s) = 7.11128 7.38735 7.25063
#
# Compressibility (1/GPa) = 0.01642011
#
# Stress axis : x y z
#
# Youngs Moduli (GPa) = 48.65360 92.40040 67.64747
#
# Poissons Ratio (x) = 0.25394 0.51570
# Poissons Ratio (y) = 0.13371 0.30425
# Poissons Ratio (z) = 0.37090 0.41558
#
# Static dielectric constant tensor:
#      x y z
#    x 3.326960 0.000000 0.000000 
#    y 0.000000 3.610110 0.000000 
#    z 0.000000 0.000000 3.730560 
# 
# 
# High freq. dielectric constant tensor:
#      x y z
#    x 1.737150 0.000000 0.000000 
#    y 0.000000 1.753980 0.000000 
#    z 0.000000 0.000000 1.753970 
# 
# From -- ./inp_files/5108.got.cif
#   From: 2010.03.12/outbox.cif.g09.slc.cpg/sg57_3_cif.got.tgz:5108.got - 2010.04.16 15:48:40.
