data_PCOD8230035
_publ_section_title
;
Structure prediction by ZEFSAII (Michael W. Deem and Ramdas Pophale) SiO2 
 PCOD8230035
Probable space group: P B C M
;
_chemical_formula_sum "Si O2"
_cell_formula_units_Z 48
_cell_length_a 15.576595
_cell_length_b 10.154275
_cell_length_c 16.336515
_cell_angle_alpha 90.000000
_cell_angle_beta 90.000000
_cell_angle_gamma 90.000000
_cell_volume 2583.930718
_symmetry_space_group_name_H-M "P B C M"
_symmetry_group_IT_number 57
_symmetry_cell_setting 'orthorhombic'
loop_
_space_group_symop_operation_xyz
x,y,z
-x,-y,1/2+z
x,1/2-y,-z
-x,1/2+y,1/2-z
-x,-y,-z
x,y,1/2-z
-x,1/2+y,z
x,1/2-y,1/2+z
loop_
_atom_site_type_symbol
_atom_site_label
_atom_site_fract_x
_atom_site_fract_y
_atom_site_fract_z
Si Si1 0.657971 0.778192 0.154665
Si Si2 0.191506 0.884994 0.047089
Si Si3 0.655426 0.472566 0.154151
Si Si4 0.993621 0.375167 0.056007
Si Si5 0.498935 0.626616 0.556025
Si Si6 0.821457 0.864949 0.433657
O O1 0.637326 0.798010 0.250000
O O2 0.651081 0.625715 0.128662
O O3 0.590404 0.857383 0.099864
O O4 0.752299 0.836795 0.136910
O O5 0.262325 0.904647 0.115323
O O6 0.100350 0.884462 0.098458
O O7 0.208674 0.750000 0.000000
O O8 0.196820 0.997776 0.978262
O O9 0.664052 0.456866 0.250000
O O10 0.571891 0.393110 0.125826
O O11 0.082345 0.367297 0.108803
O O12 0.988924 0.250000 0.000000
O O13 0.000000 0.500000 0.000000
O O14 0.474133 0.750000 0.500000
O O15 0.500000 0.500000 0.500000
O O16 0.816141 0.750000 0.500000
#
# Coordination Sequence:
#
# PCOD8230035 Si02
#       6
#     8   8   8   8   8   8
#     4  11  23  39  58  86 117 148 186 232 285 340
#     4  10  19  35  56  86 116 146 190 235 279 325
#     4  11  23  39  58  85 117 149 184 232 289 340
#     4   8  16  28  52  83 111 141 184 237 273 314
#     4  12  23  41  63  86 111 145 193 234 277 335
#     4  10  17  34  59  83 110 149 195 228 271 333
#
# _framework density 18.576349
#
# number of rings (size 3 to 8) (size 9 to 14) (size 15 to 20)
#    0.000    1.667    3.333    2.500    0.000    0.000 
#    0.000    3.333    0.000    0.000    0.000    0.000 
#    0.000    0.000    0.000    0.000    0.000    0.000 
#
# Total GULP energy -594809.975589 kJ/mol
# GULP energy per Si atom -12391.874491 kJ/mol
# Density = 1.853407 g / cm^3
# Si number density = 18.576349 Si / 1000 Ang^3
#
#
#
# Elastic Constant Matrix: (Units=GPa)
#
#
# Indices 1 2 3 4 5 6 
#
# 1 172.9893 40.9685 55.6530 0.0000 0.0000 0.0000
# 2 40.9685 131.1944 41.2755 0.0000 0.0000 0.0000
# 3 55.6530 41.2755 67.4747 0.0000 0.0000 0.0000
# 4 0.0000 0.0000 0.0000 25.5947 0.0000 0.0000
# 5 0.0000 0.0000 0.0000 0.0000 11.5616 0.0000
# 6 0.0000 0.0000 0.0000 0.0000 0.0000 22.7976
#
#
#
# Elastic Compliance Matrix: (Units=1/GPa)
#
#
# Indices 1 2 3 4 5 6 
#
# 1 0.007897 -0.000516 -0.006198 0.000000 0.000000 0.000000
# 2 -0.000516 0.009473 -0.005369 0.000000 0.000000 0.000000
# 3 -0.006198 -0.005369 0.023216 0.000000 0.000000 0.000000
# 4 0.000000 0.000000 0.000000 0.039071 0.000000 0.000000
# 5 0.000000 0.000000 0.000000 0.000000 0.086494 0.000000
# 6 0.000000 0.000000 0.000000 0.000000 0.000000 0.043864
#
#
# Mechanical properties :
#
#
# Convention : Reuss Voigt Hill
#
# Bulk Modulus (GPa) = 60.89895 71.93916 66.41905
# Shear Modulus (GPa) = 20.86356 27.57488 24.21922
#
# Velocity S-wave (km/s) = 3.35494 3.85698 3.61469
# Velocity P-wave (km/s) = 6.91822 7.65803 7.29750
#
# Compressibility (1/GPa) = 0.01642065
#
# Stress axis : x y z
#
# Youngs Moduli (GPa) = 126.63424 105.56814 43.07327
#
# Poissons Ratio (x) = 0.05449 0.26695
# Poissons Ratio (y) = 0.06536 0.23125
# Poissons Ratio (z) = 0.78482 0.56678
#
# Static dielectric constant tensor:
#      x y z
#    x 3.988840 0.000000 0.000000 
#    y 0.000000 3.482190 0.000000 
#    z 0.000000 0.000000 3.765560 
# 
# 
# High freq. dielectric constant tensor:
#      x y z
#    x 1.750890 0.000000 0.000000 
#    y 0.000000 1.739340 0.000000 
#    z 0.000000 0.000000 1.675460 
# 
# From -- ./inp_files/22392.got.cif
#   From: 2010.03.12/outbox.cif.g09.slc.cpg/sg57_12_cif.got.tgz:22392.got - 2010.04.16 15:48:40.
