data_PCOD8230350
_publ_section_title
;
Structure prediction by ZEFSAII (Michael W. Deem and Ramdas Pophale) SiO2 
 PCOD8230350
Probable space group: P B C M
;
_chemical_formula_sum "Si O2"
_cell_formula_units_Z 40
_cell_length_a 25.542849
_cell_length_b 9.960101
_cell_length_c 8.571220
_cell_angle_alpha 90.000000
_cell_angle_beta 90.000000
_cell_angle_gamma 90.000000
_cell_volume 2180.598559
_symmetry_space_group_name_H-M "P B C M"
_symmetry_group_IT_number 57
_symmetry_cell_setting 'orthorhombic'
loop_
_space_group_symop_operation_xyz
x,y,z
-x,-y,1/2+z
x,1/2-y,-z
-x,1/2+y,1/2-z
-x,-y,-z
x,y,1/2-z
-x,1/2+y,z
x,1/2-y,1/2+z
loop_
_atom_site_type_symbol
_atom_site_label
_atom_site_fract_x
_atom_site_fract_y
_atom_site_fract_z
Si Si1 0.651023 0.899008 0.064714
Si Si2 0.757549 0.898312 0.564815
Si Si3 0.156814 0.891133 0.066137
Si Si4 0.038814 0.891366 0.434209
Si Si5 0.456852 0.099811 0.435042
O O1 0.646715 0.902280 0.250000
O O2 0.654753 0.750000 0.000000
O O3 0.704811 0.967602 0.006070
O O4 0.598732 0.963253 0.990695
O O5 0.767799 0.750000 0.500000
O O6 0.752262 0.891649 0.750000
O O7 0.805682 0.989803 0.507768
O O8 0.158286 0.880313 0.250000
O O9 0.097913 0.922012 0.007138
O O10 0.177281 0.750000 0.000000
O O11 0.019457 0.750000 0.500000
O O12 0.035761 0.889548 0.250000
O O13 0.000000 0.000000 0.500000
O O14 0.465371 0.250000 0.500000
O O15 0.459341 0.105579 0.250000
O O16 0.500000 0.000000 0.500000
#
# Coordination Sequence:
#
# PCOD8230350 Si02
#       5
#     8   8   8   8   8
#     4  10  18  31  51  76 103 136 173 213 259 309
#     4  10  19  33  52  77 103 132 170 214 256 304
#     4   9  20  36  54  75 104 137 172 209 257 311
#     4  10  20  36  55  78 105 138 175 216 261 312
#     4  11  21  36  56  80 108 141 177 218 264 314
#
# _framework density 18.343586999999999
#
# number of rings (size 3 to 8) (size 9 to 14) (size 15 to 20)
#    0.000    2.000    0.000    7.200    0.000    3.200 
#    0.000    3.000    0.000    2.400    0.000    0.000 
#    0.000    0.000    0.000    0.000    0.000    0.000 
#
# Total GULP energy -495906.276602 kJ/mol
# GULP energy per Si atom -12397.656915 kJ/mol
# Density = 1.830184 g / cm^3
# Si number density = 18.343587 Si / 1000 Ang^3
#
#
#
# Elastic Constant Matrix: (Units=GPa)
#
#
# Indices 1 2 3 4 5 6 
#
# 1 154.3944 92.6775 53.9788 0.0000 0.0000 0.0000
# 2 92.6775 108.4583 43.8512 0.0000 0.0000 0.0000
# 3 53.9788 43.8512 118.6491 0.0000 0.0000 0.0000
# 4 0.0000 0.0000 0.0000 29.3487 0.0000 0.0000
# 5 0.0000 0.0000 0.0000 0.0000 29.8757 0.0000
# 6 0.0000 0.0000 0.0000 0.0000 0.0000 -184.0525
#
#
#
# Elastic Compliance Matrix: (Units=1/GPa)
#
#
# Indices 1 2 3 4 5 6 
#
# 1 0.013793 -0.010874 -0.002256 0.000000 0.000000 0.000000
# 2 -0.010874 0.019412 -0.002228 0.000000 0.000000 0.000000
# 3 -0.002256 -0.002228 0.010278 0.000000 0.000000 0.000000
# 4 0.000000 0.000000 0.000000 0.034073 0.000000 0.000000
# 5 0.000000 0.000000 0.000000 0.000000 0.033472 0.000000
# 6 0.000000 0.000000 0.000000 0.000000 0.000000 -0.005433
#
#
# Mechanical properties :
#
#
# Convention : Reuss Voigt Hill
#
# Bulk Modulus (GPa) = 78.32030 84.72411 81.52220
# Shear Modulus (GPa) = 35.57039 -12.23267 11.66886
#
# Velocity S-wave (km/s) = 4.40832 -2.58517 2.52489
# Velocity P-wave (km/s) = 8.28855 6.11365 7.28275
#
# Compressibility (1/GPa) = 0.01276808
#
# Stress axis : x y z
#
# Youngs Moduli (GPa) = 72.50112 51.51333 97.29569
#
# Poissons Ratio (x) = 0.56015 0.21952
# Poissons Ratio (y) = 0.78836 0.21674
# Poissons Ratio (z) = 0.16358 0.11475
#
# Static dielectric constant tensor:
#      x y z
#    x 4.368020 0.000000 0.000000 
#    y 0.000000 3.268370 0.000000 
#    z 0.000000 0.000000 3.348670 
# 
# 
# High freq. dielectric constant tensor:
#      x y z
#    x 1.729320 0.000000 0.000000 
#    y 0.000000 1.683800 0.000000 
#    z 0.000000 0.000000 1.727110 
# 
# From -- ./inp_files/9629.got.cif
#   From: 2010.03.12/outbox.cif.g09.slc.cpg/sg57_5_cif.got.tgz:9629.got - 2010.04.16 15:48:40.
