data_PCOD8230691
_publ_section_title
;
Structure prediction by ZEFSAII (Michael W. Deem and Ramdas Pophale) SiO2 
 PCOD8230691
Probable space group: P B C M
;
_chemical_formula_sum "Si O2"
_cell_formula_units_Z 64
_cell_length_a 18.177321
_cell_length_b 25.017739
_cell_length_c 8.970382
_cell_angle_alpha 90.000000
_cell_angle_beta 90.000000
_cell_angle_gamma 90.000000
_cell_volume 4079.330305
_symmetry_space_group_name_H-M "P B C M"
_symmetry_group_IT_number 57
_symmetry_cell_setting 'orthorhombic'
loop_
_space_group_symop_operation_xyz
x,y,z
-x,-y,1/2+z
x,1/2-y,-z
-x,1/2+y,1/2-z
-x,-y,-z
x,y,1/2-z
-x,1/2+y,z
x,1/2-y,1/2+z
loop_
_atom_site_type_symbol
_atom_site_label
_atom_site_fract_x
_atom_site_fract_y
_atom_site_fract_z
Si Si1 0.763906 0.010686 0.072993
Si Si2 0.385867 0.510797 0.923826
Si Si3 0.902717 0.045611 0.916752
Si Si4 0.731489 0.802812 0.080001
Si Si5 0.443124 0.197544 0.917052
Si Si6 0.194359 0.099409 0.073891
Si Si7 0.526943 0.919741 0.424297
Si Si8 0.037457 0.425754 0.915496
O O1 0.762681 0.011521 0.250000
O O2 0.686468 0.031440 0.008810
O O3 0.775675 0.951066 0.015088
O O4 0.829138 0.049622 0.016058
O O5 0.368820 0.503421 0.750000
O O6 0.446751 0.555992 0.953324
O O7 0.412132 0.453709 0.987463
O O8 0.883060 0.063841 0.750000
O O9 0.933449 0.986049 0.921126
O O10 0.967511 0.084139 0.978126
O O11 0.760625 0.805979 0.250000
O O12 0.644230 0.803827 0.076407
O O13 0.762097 0.750000 0.000000
O O14 0.759702 0.850883 0.980570
O O15 0.472451 0.202853 0.750000
O O16 0.472829 0.141398 0.984807
O O17 0.474363 0.250000 0.000000
O O18 0.205360 0.089277 0.250000
O O19 0.107792 0.110077 0.037569
O O20 0.548692 0.921327 0.250000
O O21 0.010532 0.411379 0.750000
#
# Coordination Sequence:
#
# PCOD8230691 Si02
#       8
#     8   8   8   8   8   8   8   8
#     4  11  20  29  42  60  85 115 146 178 214 256
#     4  10  19  30  45  64  87 116 148 181 218 262
#     4   9  16  26  40  58  81 108 139 172 203 240
#     4  10  19  30  44  62  86 114 144 179 217 255
#     4   9  18  31  46  64  85 111 143 179 218 258
#     4  10  19  30  44  62  84 111 146 182 215 255
#     4   9  18  32  47  64  88 115 144 180 221 264
#     4   8  15  26  39  57  81 108 136 168 206 245
#
# _framework density 15.688848999999999
#
# number of rings (size 3 to 8) (size 9 to 14) (size 15 to 20)
#    0.000    2.500    0.000    4.125    0.000    6.000 
#    0.000    0.000    0.000    0.000    0.000    0.000 
#    0.000    1.000    0.000    9.250    0.000    4.125 
#
# Total GULP energy -793399.272452 kJ/mol
# GULP energy per Si atom -12396.863632 kJ/mol
# Density = 1.565314 g / cm^3
# Si number density = 15.688849 Si / 1000 Ang^3
#
#
#
# Elastic Constant Matrix: (Units=GPa)
#
#
# Indices 1 2 3 4 5 6 
#
# 1 60.9921 4.1595 37.1322 0.0000 0.0000 0.0000
# 2 4.1595 50.2039 15.2034 0.0000 0.0000 0.0000
# 3 37.1322 15.2034 97.6948 0.0000 0.0000 0.0000
# 4 0.0000 0.0000 0.0000 20.2795 0.0000 0.0000
# 5 0.0000 0.0000 0.0000 0.0000 26.9094 0.0000
# 6 0.0000 0.0000 0.0000 0.0000 0.0000 9.9612
#
#
#
# Elastic Compliance Matrix: (Units=1/GPa)
#
#
# Indices 1 2 3 4 5 6 
#
# 1 0.021357 0.000723 -0.008230 0.000000 0.000000 0.000000
# 2 0.000723 0.020928 -0.003532 0.000000 0.000000 0.000000
# 3 -0.008230 -0.003532 0.013914 0.000000 0.000000 0.000000
# 4 0.000000 0.000000 0.000000 0.049311 0.000000 0.000000
# 5 0.000000 0.000000 0.000000 0.000000 0.037162 0.000000
# 6 0.000000 0.000000 0.000000 0.000000 0.000000 0.100390
#
#
# Mechanical properties :
#
#
# Convention : Reuss Voigt Hill
#
# Bulk Modulus (GPa) = 29.30715 35.76455 32.53585
# Shear Modulus (GPa) = 18.08243 21.58975 19.83609
#
# Velocity S-wave (km/s) = 3.39863 3.71363 3.55962
# Velocity P-wave (km/s) = 5.84138 6.42135 6.13822
#
# Compressibility (1/GPa) = 0.03412137
#
# Stress axis : x y z
#
# Youngs Moduli (GPa) = 46.82393 47.78199 71.87234
#
# Poissons Ratio (x) = -0.03454 0.59149
# Poissons Ratio (y) = -0.03385 0.25383
# Poissons Ratio (z) = 0.38535 0.16875
#
# Static dielectric constant tensor:
#      x y z
#    x 3.101470 0.000000 0.000000 
#    y 0.000000 2.794290 0.000000 
#    z 0.000000 0.000000 3.161810 
# 
# 
# High freq. dielectric constant tensor:
#      x y z
#    x 1.595800 0.000000 0.000000 
#    y 0.000000 1.557520 0.000000 
#    z 0.000000 0.000000 1.615750 
# 
# From -- ./inp_files/7498.got.cif
#   From: 2010.03.12/outbox.cif.g09.slc.cpg/sg57_4_cif.got.tgz:7498.got - 2010.04.16 15:48:40.
