data_PCOD8230656
_publ_section_title
;
Structure prediction by ZEFSAII (Michael W. Deem and Ramdas Pophale) SiO2 
 PCOD8230656
Probable space group: P B C M
;
_chemical_formula_sum "Si O2"
_cell_formula_units_Z 64
_cell_length_a 16.833879
_cell_length_b 23.093928
_cell_length_c 8.887131
_cell_angle_alpha 90.000000
_cell_angle_beta 90.000000
_cell_angle_gamma 90.000000
_cell_volume 3454.964510
_symmetry_space_group_name_H-M "P B C M"
_symmetry_group_IT_number 57
_symmetry_cell_setting 'orthorhombic'
loop_
_space_group_symop_operation_xyz
x,y,z
-x,-y,1/2+z
x,1/2-y,-z
-x,1/2+y,1/2-z
-x,-y,-z
x,y,1/2-z
-x,1/2+y,z
x,1/2-y,1/2+z
loop_
_atom_site_type_symbol
_atom_site_label
_atom_site_fract_x
_atom_site_fract_y
_atom_site_fract_z
Si Si1 0.045358 0.190743 0.424483
Si Si2 0.284186 0.424707 0.429748
Si Si3 0.682144 0.399225 0.581838
Si Si4 0.833692 0.019447 0.084081
Si Si5 0.776909 0.309063 0.420675
Si Si6 0.072156 0.608561 0.919012
Si Si7 0.769896 0.809795 0.573308
Si Si8 0.585857 0.005578 0.929274
O O1 0.014448 0.250000 0.500000
O O2 0.027571 0.197455 0.250000
O O3 0.137429 0.180839 0.460341
O O4 0.999495 0.134729 0.484879
O O5 0.294894 0.425797 0.250000
O O6 0.203127 0.458972 0.476622
O O7 0.279276 0.360056 0.492088
O O8 0.360085 0.454347 0.505180
O O9 0.647427 0.389676 0.750000
O O10 0.761931 0.435787 0.592186
O O11 0.702131 0.337661 0.506120
O O12 0.618800 0.431765 0.477544
O O13 0.870373 0.010703 0.250000
O O14 0.903262 0.044664 0.978459
O O15 0.801091 0.250000 0.500000
O O16 0.751296 0.297175 0.250000
O O17 0.853030 0.349673 0.428864
O O18 0.041364 0.601109 0.750000
O O19 0.740600 0.750000 0.500000
O O20 0.751451 0.809455 0.750000
O O21 0.582926 0.001193 0.750000
O O22 0.500000 0.000000 0.000000
#
# Coordination Sequence:
#
# PCOD8230656 Si02
#       8
#     8   8   8   8   8   8   8   8
#     4  10  20  33  49  69  97 132 175 224 274 320
#     4  10  20  36  58  83 109 138 172 213 259 310
#     4   9  17  31  49  71 100 133 168 208 250 294
#     4   8  16  30  48  70  99 133 168 208 257 307
#     4  10  19  29  43  67  97 134 176 216 256 303
#     4  10  19  29  45  69  98 132 174 221 268 313
#     4  10  21  37  57  80 104 136 176 220 266 314
#     4  11  21  35  57  85 113 138 166 202 245 297
#
# _framework density 18.524069000000001
#
# number of rings (size 3 to 8) (size 9 to 14) (size 15 to 20)
#    0.000    2.250    0.000    4.500    0.000    7.500 
#    0.000    0.625    0.000    0.750    0.000    5.250 
#    0.000    0.000    0.000    0.000    0.000    0.000 
#
# Total GULP energy -793594.718407 kJ/mol
# GULP energy per Si atom -12399.917475 kJ/mol
# Density = 1.848191 g / cm^3
# Si number density = 18.524069 Si / 1000 Ang^3
#
#
#
# Elastic Constant Matrix: (Units=GPa)
#
#
# Indices 1 2 3 4 5 6 
#
# 1 52.7456 25.4753 41.3204 0.0000 0.0000 0.0000
# 2 25.4753 88.2252 48.0334 0.0000 0.0000 0.0000
# 3 41.3204 48.0334 137.8761 0.0000 0.0000 0.0000
# 4 0.0000 0.0000 0.0000 32.9181 0.0000 0.0000
# 5 0.0000 0.0000 0.0000 0.0000 26.8045 0.0000
# 6 0.0000 0.0000 0.0000 0.0000 0.0000 17.1446
#
#
#
# Elastic Compliance Matrix: (Units=1/GPa)
#
#
# Indices 1 2 3 4 5 6 
#
# 1 0.025877 -0.004010 -0.006358 0.000000 0.000000 0.000000
# 2 -0.004010 0.014609 -0.003888 0.000000 0.000000 0.000000
# 3 -0.006358 -0.003888 0.010513 0.000000 0.000000 0.000000
# 4 0.000000 0.000000 0.000000 0.030378 0.000000 0.000000
# 5 0.000000 0.000000 0.000000 0.000000 0.037307 0.000000
# 6 0.000000 0.000000 0.000000 0.000000 0.000000 0.058327
#
#
# Mechanical properties :
#
#
# Convention : Reuss Voigt Hill
#
# Bulk Modulus (GPa) = 44.47103 56.50058 50.48580
# Shear Modulus (GPa) = 23.47207 26.30796 24.89001
#
# Velocity S-wave (km/s) = 3.56351 3.77265 3.66957
# Velocity P-wave (km/s) = 6.40240 7.03879 6.72812
#
# Compressibility (1/GPa) = 0.02248655
#
# Stress axis : x y z
#
# Youngs Moduli (GPa) = 38.64493 68.44958 95.12326
#
# Poissons Ratio (x) = 0.27452 0.60478
# Poissons Ratio (y) = 0.15499 0.36981
# Poissons Ratio (z) = 0.24570 0.26611
#
# Static dielectric constant tensor:
#      x y z
#    x 3.126540 0.000000 0.000000 
#    y 0.000000 3.506870 0.000000 
#    z 0.000000 0.000000 3.646770 
# 
# 
# High freq. dielectric constant tensor:
#      x y z
#    x 1.683830 0.000000 0.000000 
#    y 0.000000 1.714940 0.000000 
#    z 0.000000 0.000000 1.736010 
# 
# From -- ./inp_files/7219.got.cif
#   From: 2010.03.12/outbox.cif.g09.slc.cpg/sg57_4_cif.got.tgz:7219.got - 2010.04.16 15:48:40.
