data_PCOD8230504
_publ_section_title
;
Structure prediction by ZEFSAII (Michael W. Deem and Ramdas Pophale) SiO2 
 PCOD8230504
Probable space group: P B C M
;
_chemical_formula_sum "Si O2"
_cell_formula_units_Z 64
_cell_length_a 16.039713
_cell_length_b 12.770130
_cell_length_c 16.854274
_cell_angle_alpha 90.000000
_cell_angle_beta 90.000000
_cell_angle_gamma 90.000000
_cell_volume 3452.247800
_symmetry_space_group_name_H-M "P B C M"
_symmetry_group_IT_number 57
_symmetry_cell_setting 'orthorhombic'
loop_
_space_group_symop_operation_xyz
x,y,z
-x,-y,1/2+z
x,1/2-y,-z
-x,1/2+y,1/2-z
-x,-y,-z
x,y,1/2-z
-x,1/2+y,z
x,1/2-y,1/2+z
loop_
_atom_site_type_symbol
_atom_site_label
_atom_site_fract_x
_atom_site_fract_y
_atom_site_fract_z
Si Si1 0.562721 0.111776 0.583830
Si Si2 0.751217 0.627429 0.490845
Si Si3 0.147657 0.616317 0.838245
Si Si4 0.364504 0.817268 0.658187
Si Si5 0.808940 0.190329 0.077687
Si Si6 0.391882 0.008499 0.569946
Si Si7 0.902819 0.009826 0.989257
Si Si8 0.693393 0.513253 0.337585
O O1 0.584357 0.231577 0.606360
O O2 0.463369 0.096699 0.575716
O O3 0.602806 0.076725 0.500820
O O4 0.600872 0.032216 0.649062
O O5 0.742907 0.750000 0.500000
O O6 0.695405 0.569460 0.557844
O O7 0.848271 0.595260 0.502083
O O8 0.718543 0.598963 0.402790
O O9 0.110842 0.602762 0.750000
O O10 0.133473 0.734589 0.868209
O O11 0.246233 0.588592 0.841840
O O12 0.101034 0.538539 0.896756
O O13 0.367870 0.783583 0.750000
O O14 0.270488 0.838223 0.629586
O O15 0.401266 0.934771 0.647545
O O16 0.865098 0.093283 0.050794
O O17 0.776059 0.250000 0.000000
O O18 0.000000 0.000000 0.000000
O O19 0.698266 0.565556 0.250000
#
# Coordination Sequence:
#
# PCOD8230504 Si02
#       8
#     8   8   8   8   8   8   8   8
#     4  10  20  34  58  82 111 153 205 248 285 339
#     4  10  21  38  60  78 112 158 199 235 291 367
#     4   9  17  32  57  89 114 140 184 245 303 346
#     4  12  22  34  56  85 119 155 193 245 305 353
#     4  10  18  33  59  85 112 143 187 241 294 357
#     4  10  22  38  54  80 115 155 201 247 289 346
#     4  10  21  37  61  87 115 153 198 245 291 364
#     4   9  17  32  56  85 109 140 194 250 292 332
#
# _framework density 18.538646
#
# number of rings (size 3 to 8) (size 9 to 14) (size 15 to 20)
#    0.000    2.000    2.500    1.875    0.000    5.500 
#    0.000    1.875    0.000    3.000    0.000    0.000 
#    0.000    0.000    0.000    0.000    0.000    0.000 
#
# Total GULP energy -793094.465703 kJ/mol
# GULP energy per Si atom -12392.101027 kJ/mol
# Density = 1.849645 g / cm^3
# Si number density = 18.538646 Si / 1000 Ang^3
#
#
#
# Elastic Constant Matrix: (Units=GPa)
#
#
# Indices 1 2 3 4 5 6 
#
# 1 107.4794 40.8932 29.9546 0.0000 0.0000 0.0000
# 2 40.8932 117.9206 41.4773 0.0000 0.0000 0.0000
# 3 29.9546 41.4773 97.7434 0.0000 0.0000 0.0000
# 4 0.0000 0.0000 0.0000 20.7089 0.0000 0.0000
# 5 0.0000 0.0000 0.0000 0.0000 12.8849 0.0000
# 6 0.0000 0.0000 0.0000 0.0000 0.0000 15.9910
#
#
#
# Elastic Compliance Matrix: (Units=1/GPa)
#
#
# Indices 1 2 3 4 5 6 
#
# 1 0.011064 -0.003108 -0.002072 0.000000 0.000000 0.000000
# 2 -0.003108 0.010841 -0.003648 0.000000 0.000000 0.000000
# 3 -0.002072 -0.003648 0.012414 0.000000 0.000000 0.000000
# 4 0.000000 0.000000 0.000000 0.048288 0.000000 0.000000
# 5 0.000000 0.000000 0.000000 0.000000 0.077610 0.000000
# 6 0.000000 0.000000 0.000000 0.000000 0.000000 0.062535
#
#
# Mechanical properties :
#
#
# Convention : Reuss Voigt Hill
#
# Bulk Modulus (GPa) = 60.01178 60.86597 60.43888
# Shear Modulus (GPa) = 20.32827 23.97153 22.14990
#
# Velocity S-wave (km/s) = 3.31499 3.59981 3.46033
# Velocity P-wave (km/s) = 6.86248 7.08388 6.97406
#
# Compressibility (1/GPa) = 0.01666339
#
# Stress axis : x y z
#
# Youngs Moduli (GPa) = 90.38253 92.24009 80.55549
#
# Poissons Ratio (x) = 0.28670 0.16689
# Poissons Ratio (y) = 0.28092 0.29386
# Poissons Ratio (z) = 0.18725 0.33649
#
# Static dielectric constant tensor:
#      x y z
#    x 3.220320 0.000000 0.000000 
#    y 0.000000 3.288430 0.000000 
#    z 0.000000 0.000000 3.581130 
# 
# 
# High freq. dielectric constant tensor:
#      x y z
#    x 1.699010 0.000000 0.000000 
#    y 0.000000 1.708380 0.000000 
#    z 0.000000 0.000000 1.717450 
# 
# From -- ./inp_files/22667.got.cif
#   From: 2010.03.12/outbox.cif.g09.slc.cpg/sg57_12_cif.got.tgz:22667.got - 2010.04.16 15:48:40.
