data_PCOD8230781
_publ_section_title
;
Structure prediction by ZEFSAII (Michael W. Deem and Ramdas Pophale) SiO2 
 PCOD8230781
Probable space group: P B C M
;
_chemical_formula_sum "Si O2"
_cell_formula_units_Z 64
_cell_length_a 14.721071
_cell_length_b 29.504427
_cell_length_c 8.998111
_cell_angle_alpha 90.000000
_cell_angle_beta 90.000000
_cell_angle_gamma 90.000000
_cell_volume 3908.210420
_symmetry_space_group_name_H-M "P B C M"
_symmetry_group_IT_number 57
_symmetry_cell_setting 'orthorhombic'
loop_
_space_group_symop_operation_xyz
x,y,z
-x,-y,1/2+z
x,1/2-y,-z
-x,1/2+y,1/2-z
-x,-y,-z
x,y,1/2-z
-x,1/2+y,z
x,1/2-y,1/2+z
loop_
_atom_site_type_symbol
_atom_site_label
_atom_site_fract_x
_atom_site_fract_y
_atom_site_fract_z
Si Si1 0.289827 0.205500 0.576483
Si Si2 0.643178 0.557250 0.074385
Si Si3 0.668394 0.034453 0.078058
Si Si4 0.202956 0.113488 0.574418
Si Si5 0.465989 0.613118 0.076286
Si Si6 0.499486 0.204113 0.575060
Si Si7 0.942184 0.564448 0.079648
Si Si8 0.874129 0.022755 0.420032
O O1 0.248741 0.250000 0.500000
O O2 0.278572 0.211911 0.750000
O O3 0.233569 0.162659 0.517360
O O4 0.394178 0.198510 0.531094
O O5 0.656382 0.557458 0.250000
O O6 0.558719 0.588453 0.025841
O O7 0.626670 0.506068 0.019608
O O8 0.733808 0.574930 0.995722
O O9 0.650354 0.022412 0.250000
O O10 0.617846 0.080710 0.034481
O O11 0.774930 0.042648 0.045462
O O12 0.210207 0.109581 0.750000
O O13 0.100022 0.104992 0.519117
O O14 0.468802 0.624525 0.250000
O O15 0.450128 0.659845 0.987962
O O16 0.538377 0.250000 0.500000
O O17 0.515209 0.207413 0.750000
O O18 0.917322 0.573588 0.250000
O O19 0.050989 0.562364 0.055333
O O20 0.895587 0.517494 0.032253
O O21 0.880317 0.004576 0.250000
#
# Coordination Sequence:
#
# PCOD8230781 Si02
#       8
#     8   8   8   8   8   8   8   8
#     4   9  19  32  48  69  93 123 157 193 236 287
#     4  11  21  31  45  69  98 130 167 203 232 275
#     4  10  20  34  50  67  95 134 167 200 242 286
#     4  11  20  32  48  69  97 130 162 193 240 292
#     4  10  21  34  48  70  98 130 166 200 240 288
#     4  10  19  33  51  71  95 125 160 200 243 286
#     4  10  19  30  47  71  94 121 160 200 238 281
#     4   9  18  32  48  67  94 126 159 198 242 283
#
# _framework density 16.375781
#
# number of rings (size 3 to 8) (size 9 to 14) (size 15 to 20)
#    0.000    2.000    2.500    1.875    0.000    3.000 
#    0.000    0.000    0.000    0.000    0.000    0.875 
#    0.000    2.000    0.000    0.000    0.000    0.000 
#
# Total GULP energy -793687.572987 kJ/mol
# GULP energy per Si atom -12401.368328 kJ/mol
# Density = 1.633851 g / cm^3
# Si number density = 16.375781 Si / 1000 Ang^3
#
#
#
# Elastic Constant Matrix: (Units=GPa)
#
#
# Indices 1 2 3 4 5 6 
#
# 1 65.7636 40.4128 26.2830 0.0000 0.0000 0.0000
# 2 40.4128 121.1981 45.1285 0.0000 0.0000 0.0000
# 3 26.2830 45.1285 62.7527 0.0000 0.0000 0.0000
# 4 0.0000 0.0000 0.0000 31.1442 0.0000 0.0000
# 5 0.0000 0.0000 0.0000 0.0000 19.8619 0.0000
# 6 0.0000 0.0000 0.0000 0.0000 0.0000 21.5861
#
#
#
# Elastic Compliance Matrix: (Units=1/GPa)
#
#
# Indices 1 2 3 4 5 6 
#
# 1 0.020185 -0.004893 -0.004936 0.000000 0.000000 0.000000
# 2 -0.004893 0.012454 -0.006907 0.000000 0.000000 0.000000
# 3 -0.004936 -0.006907 0.022970 0.000000 0.000000 0.000000
# 4 0.000000 0.000000 0.000000 0.032109 0.000000 0.000000
# 5 0.000000 0.000000 0.000000 0.000000 0.050348 0.000000
# 6 0.000000 0.000000 0.000000 0.000000 0.000000 0.046326
#
#
# Mechanical properties :
#
#
# Convention : Reuss Voigt Hill
#
# Bulk Modulus (GPa) = 45.17049 52.59588 48.88319
# Shear Modulus (GPa) = 22.19822 23.71110 22.95466
#
# Velocity S-wave (km/s) = 3.68578 3.80931 3.74805
# Velocity P-wave (km/s) = 6.76438 7.17883 6.97468
#
# Compressibility (1/GPa) = 0.02213835
#
# Stress axis : x y z
#
# Youngs Moduli (GPa) = 49.54107 80.29300 43.53484
#
# Poissons Ratio (x) = 0.39286 0.21487
# Poissons Ratio (y) = 0.24240 0.30071
# Poissons Ratio (z) = 0.24451 0.55460
#
# Static dielectric constant tensor:
#      x y z
#    x 3.112440 0.000000 0.000000 
#    y 0.000000 3.086170 0.000000 
#    z 0.000000 0.000000 3.096500 
# 
# 
# High freq. dielectric constant tensor:
#      x y z
#    x 1.610070 0.000000 0.000000 
#    y 0.000000 1.615970 0.000000 
#    z 0.000000 0.000000 1.638060 
# 
# From -- ./inp_files/5988.got.cif
#   From: 2010.03.12/outbox.cif.g09.slc.cpg/sg57_3_cif.got.tgz:5988.got - 2010.04.16 15:48:40.
