data_PCOD8230269
_publ_section_title
;
Structure prediction by ZEFSAII (Michael W. Deem and Ramdas Pophale) SiO2 
 PCOD8230269
Probable space group: P B C M
;
_chemical_formula_sum "Si O2"
_cell_formula_units_Z 48
_cell_length_a 15.645170
_cell_length_b 9.904311
_cell_length_c 15.502470
_cell_angle_alpha 90.000000
_cell_angle_beta 90.000000
_cell_angle_gamma 90.000000
_cell_volume 2402.179493
_symmetry_space_group_name_H-M "P B C M"
_symmetry_group_IT_number 57
_symmetry_cell_setting 'orthorhombic'
loop_
_space_group_symop_operation_xyz
x,y,z
-x,-y,1/2+z
x,1/2-y,-z
-x,1/2+y,1/2-z
-x,-y,-z
x,y,1/2-z
-x,1/2+y,z
x,1/2-y,1/2+z
loop_
_atom_site_type_symbol
_atom_site_label
_atom_site_fract_x
_atom_site_fract_y
_atom_site_fract_z
Si Si1 0.441039 0.366508 0.930626
Si Si2 0.191179 0.857610 0.930341
Si Si3 0.042843 0.385732 0.250000
Si Si4 0.860225 0.842011 0.424586
Si Si5 0.687829 0.793833 0.154536
Si Si6 0.895596 0.182814 0.250000
Si Si7 0.378858 0.948302 0.570078
O O1 0.376347 0.332901 0.852636
O O2 0.538179 0.367509 0.894700
O O3 0.427741 0.250000 0.000000
O O4 0.408861 0.505804 0.973944
O O5 0.164677 0.817048 0.833767
O O6 0.294279 0.857348 0.935381
O O7 0.150085 0.002565 0.954597
O O8 0.155977 0.750000 0.000000
O O9 0.086830 0.330267 0.163329
O O10 0.043030 0.549602 0.250000
O O11 0.948358 0.322332 0.250000
O O12 0.903575 0.750000 0.500000
O O13 0.766817 0.778054 0.410257
O O14 0.725974 0.802293 0.250000
O O15 0.636697 0.930761 0.136043
#
# Coordination Sequence:
#
# PCOD8230269 Si02
#       7
#     8   8   4   8   8   4   8
#     4   9  17  31  49  76 105 148 193 242 276 332
#     4  10  21  38  61  87 118 156 195 237 296 359
#     4  10  22  42  62  89 116 150 188 239 290 358
#     4  10  20  38  63  87 112 152 195 235 292 350
#     4  10  18  30  49  77 108 141 190 240 280 340
#     4  10  24  42  64  87 120 152 194 241 302 358
#     4   9  18  31  54  73 109 149 195 228 291 333
#
# _framework density 19.981853999999998
#
# number of rings (size 3 to 8) (size 9 to 14) (size 15 to 20)
#    0.000    2.333    0.833    3.000    3.500    2.667 
#    0.000    3.333    1.833    0.000    0.000    0.000 
#    0.000    0.000    0.000    0.000    0.000    0.000 
#
# Total GULP energy -594972.274665 kJ/mol
# GULP energy per Si atom -12395.255722 kJ/mol
# Density = 1.993637 g / cm^3
# Si number density = 19.981854 Si / 1000 Ang^3
#
#
#
# Elastic Constant Matrix: (Units=GPa)
#
#
# Indices 1 2 3 4 5 6 
#
# 1 78.0325 35.9213 26.6064 0.0000 0.0000 0.0000
# 2 35.9213 68.1014 45.4271 0.0000 0.0000 0.0000
# 3 26.6064 45.4271 118.5560 0.0000 0.0000 0.0000
# 4 0.0000 0.0000 0.0000 25.6732 0.0000 0.0000
# 5 0.0000 0.0000 0.0000 0.0000 24.4637 0.0000
# 6 0.0000 0.0000 0.0000 0.0000 0.0000 33.1688
#
#
#
# Elastic Compliance Matrix: (Units=1/GPa)
#
#
# Indices 1 2 3 4 5 6 
#
# 1 0.016947 -0.008600 -0.000508 0.000000 0.000000 0.000000
# 2 -0.008600 0.024090 -0.007301 0.000000 0.000000 0.000000
# 3 -0.000508 -0.007301 0.011346 0.000000 0.000000 0.000000
# 4 0.000000 0.000000 0.000000 0.038951 0.000000 0.000000
# 5 0.000000 0.000000 0.000000 0.000000 0.040877 0.000000
# 6 0.000000 0.000000 0.000000 0.000000 0.000000 0.030149
#
#
# Mechanical properties :
#
#
# Convention : Reuss Voigt Hill
#
# Bulk Modulus (GPa) = 51.10883 53.39992 52.25438
# Shear Modulus (GPa) = 24.78923 27.11015 25.94969
#
# Velocity S-wave (km/s) = 3.52602 3.68739 3.60761
# Velocity P-wave (km/s) = 6.49694 6.70159 6.60006
#
# Compressibility (1/GPa) = 0.01956609
#
# Stress axis : x y z
#
# Youngs Moduli (GPa) = 59.00586 41.51055 88.13542
#
# Poissons Ratio (x) = 0.35701 0.04477
# Poissons Ratio (y) = 0.50748 0.64344
# Poissons Ratio (z) = 0.02997 0.30305
#
# Static dielectric constant tensor:
#      x y z
#    x 3.581370 0.000000 0.000000 
#    y 0.000000 3.627410 0.000000 
#    z 0.000000 0.000000 3.543420 
# 
# 
# High freq. dielectric constant tensor:
#      x y z
#    x 1.777660 0.000000 0.000000 
#    y 0.000000 1.764640 0.000000 
#    z 0.000000 0.000000 1.768050 
# 
# From -- ./inp_files/18444.got.cif
#   From: 2010.03.12/outbox.cif.g09.slc.cpg/sg57_10_cif.got.tgz:18444.got - 2010.04.16 15:48:40.
