data_PCOD8230471
_publ_section_title
;
Structure prediction by ZEFSAII (Michael W. Deem and Ramdas Pophale) SiO2 
 PCOD8230471
Probable space group: P B C M
;
_chemical_formula_sum "Si O2"
_cell_formula_units_Z 64
_cell_length_a 8.520022
_cell_length_b 23.383030
_cell_length_c 16.378935
_cell_angle_alpha 90.000000
_cell_angle_beta 90.000000
_cell_angle_gamma 90.000000
_cell_volume 3263.075800
_symmetry_space_group_name_H-M "P B C M"
_symmetry_group_IT_number 57
_symmetry_cell_setting 'orthorhombic'
loop_
_space_group_symop_operation_xyz
x,y,z
-x,-y,1/2+z
x,1/2-y,-z
-x,1/2+y,1/2-z
-x,-y,-z
x,y,1/2-z
-x,1/2+y,z
x,1/2-y,1/2+z
loop_
_atom_site_type_symbol
_atom_site_label
_atom_site_fract_x
_atom_site_fract_y
_atom_site_fract_z
Si Si1 0.425748 0.084945 0.056736
Si Si2 0.999344 0.400609 0.000084
Si Si3 0.704700 0.464067 0.477422
Si Si4 0.805768 0.296550 0.437213
Si Si5 0.822161 0.873181 0.840875
Si Si6 0.404696 0.881719 0.157337
Si Si7 0.714599 0.858770 0.413692
Si Si8 0.895910 0.758182 0.156572
O O1 0.358705 0.104567 0.144829
O O2 0.327937 0.031006 0.020979
O O3 0.609375 0.068275 0.051677
O O4 0.388585 0.138640 0.996892
O O5 0.890433 0.456379 0.010058
O O6 0.889459 0.345196 0.009211
O O7 0.131451 0.398862 0.071738
O O8 0.070753 0.402896 0.909181
O O9 0.651532 0.438076 0.390514
O O10 0.733688 0.250000 0.500000
O O11 0.668248 0.324125 0.382403
O O12 0.929787 0.264263 0.379012
O O13 0.874161 0.892069 0.750000
O O14 0.832908 0.805648 0.850766
O O15 0.345935 0.887157 0.250000
O O16 0.595655 0.879505 0.157156
O O17 0.772648 0.795077 0.395485
O O18 0.898146 0.779468 0.250000
#
# Coordination Sequence:
#
# PCOD8230471 Si02
#       8
#     8   8   8   8   8   8   8   8
#     4   9  19  36  57  81 105 142 187 227 280 340
#     4   9  18  34  56  78 103 140 185 223 269 331
#     4   9  19  37  59  79 106 144 185 233 281 331
#     4  10  18  33  52  77 105 146 189 219 264 325
#     4  10  20  33  51  77 111 145 177 224 278 334
#     4  10  20  35  53  81 112 142 184 236 283 328
#     4   9  19  33  54  77 106 141 180 230 271 330
#     4  10  19  33  52  76 110 146 177 222 279 328
#
# _framework density 19.613396999999999
#
# number of rings (size 3 to 8) (size 9 to 14) (size 15 to 20)
#    0.000    2.500    1.250    0.750    0.000    2.500 
#    9.000    1.250    0.000   12.750    0.000    0.000 
#    0.000    0.000    0.000    0.000    0.000    0.000 
#
# Total GULP energy -792999.578313 kJ/mol
# GULP energy per Si atom -12390.618411 kJ/mol
# Density = 1.956876 g / cm^3
# Si number density = 19.613397 Si / 1000 Ang^3
#
#
#
# Elastic Constant Matrix: (Units=GPa)
#
#
# Indices 1 2 3 4 5 6 
#
# 1 97.4822 30.9902 42.5120 0.0000 0.0000 0.0000
# 2 30.9902 46.2296 33.4124 0.0000 0.0000 0.0000
# 3 42.5120 33.4124 107.3454 0.0000 0.0000 0.0000
# 4 0.0000 0.0000 0.0000 15.1352 0.0000 0.0000
# 5 0.0000 0.0000 0.0000 0.0000 23.2719 0.0000
# 6 0.0000 0.0000 0.0000 0.0000 0.0000 26.8550
#
#
#
# Elastic Compliance Matrix: (Units=1/GPa)
#
#
# Indices 1 2 3 4 5 6 
#
# 1 0.013919 -0.006898 -0.003365 0.000000 0.000000 0.000000
# 2 -0.006898 0.031329 -0.007019 0.000000 0.000000 0.000000
# 3 -0.003365 -0.007019 0.012833 0.000000 0.000000 0.000000
# 4 0.000000 0.000000 0.000000 0.066071 0.000000 0.000000
# 5 0.000000 0.000000 0.000000 0.000000 0.042970 0.000000
# 6 0.000000 0.000000 0.000000 0.000000 0.000000 0.037237
#
#
# Mechanical properties :
#
#
# Convention : Reuss Voigt Hill
#
# Bulk Modulus (GPa) = 42.52598 51.65405 47.09001
# Shear Modulus (GPa) = 20.26230 22.66193 21.46211
#
# Velocity S-wave (km/s) = 3.21765 3.40285 3.31155
# Velocity P-wave (km/s) = 5.96100 6.46780 6.21957
#
# Compressibility (1/GPa) = 0.02351504
#
# Stress axis : x y z
#
# Youngs Moduli (GPa) = 71.84501 31.91944 77.92249
#
# Poissons Ratio (x) = 0.22020 0.26221
# Poissons Ratio (y) = 0.49562 0.54697
# Poissons Ratio (z) = 0.24176 0.22406
#
# Static dielectric constant tensor:
#      x y z
#    x 3.827330 0.000000 0.000000 
#    y 0.000000 3.485620 0.000000 
#    z 0.000000 0.000000 3.572520 
# 
# 
# High freq. dielectric constant tensor:
#      x y z
#    x 1.765330 0.000000 0.000000 
#    y 0.000000 1.758160 0.000000 
#    z 0.000000 0.000000 1.742740 
# 
# From -- ./inp_files/16919.got.cif
#   From: 2010.03.12/outbox.cif.g09.slc.cpg/sg57_9_cif.got.tgz:16919.got - 2010.04.16 15:48:40.
