data_PCOD8230746
_publ_section_title
;
Structure prediction by ZEFSAII (Michael W. Deem and Ramdas Pophale) SiO2 
 PCOD8230746
Probable space group: P B C M
;
_chemical_formula_sum "Si O2"
_cell_formula_units_Z 56
_cell_length_a 20.445890
_cell_length_b 18.167088
_cell_length_c 9.113937
_cell_angle_alpha 90.000000
_cell_angle_beta 90.000000
_cell_angle_gamma 90.000000
_cell_volume 3385.301565
_symmetry_space_group_name_H-M "P B C M"
_symmetry_group_IT_number 57
_symmetry_cell_setting 'orthorhombic'
loop_
_space_group_symop_operation_xyz
x,y,z
-x,-y,1/2+z
x,1/2-y,-z
-x,1/2+y,1/2-z
-x,-y,-z
x,y,1/2-z
-x,1/2+y,z
x,1/2-y,1/2+z
loop_
_atom_site_type_symbol
_atom_site_label
_atom_site_fract_x
_atom_site_fract_y
_atom_site_fract_z
Si Si1 0.435117 0.025562 0.420732
Si Si2 0.865820 0.091059 0.584610
Si Si3 0.511394 0.823708 0.918648
Si Si4 0.997845 0.827272 0.421089
Si Si5 0.944486 0.954815 0.920147
Si Si6 0.377949 0.900204 0.577585
Si Si7 0.242967 0.826463 0.577737
O O1 0.438734 0.005510 0.250000
O O2 0.375928 0.979887 0.495389
O O3 0.500000 0.000000 0.500000
O O4 0.431899 0.114300 0.442293
O O5 0.842083 0.108167 0.750000
O O6 0.810271 0.113719 0.470597
O O7 0.931941 0.135778 0.551932
O O8 0.878174 0.003121 0.566100
O O9 0.504149 0.802841 0.750000
O O10 0.441079 0.853640 0.975326
O O11 0.533056 0.750000 0.000000
O O12 0.997909 0.750000 0.500000
O O13 0.981779 0.818599 0.250000
O O14 0.940525 0.876360 0.497101
O O15 0.963025 0.943067 0.750000
O O16 0.000000 0.000000 0.000000
O O17 0.380543 0.916206 0.750000
O O18 0.314286 0.854829 0.530886
O O19 0.227417 0.750000 0.500000
O O20 0.237725 0.814341 0.750000
#
# Coordination Sequence:
#
# PCOD8230746 Si02
#       7
#     8   8   8   8   8   8   8
#     4   9  17  29  45  65  88 116 149 185 224 268
#     4   9  19  33  47  65  91 123 157 189 224 268
#     4   9  17  28  43  65  91 115 144 180 220 264
#     4  10  19  30  46  69  95 122 152 189 231 275
#     4   9  17  30  47  66  89 118 152 190 231 276
#     4   9  19  33  45  63  90 120 155 189 220 262
#     4  11  22  33  47  67  93 124 158 192 224 263
#
# _framework density 16.542100999999999
#
# number of rings (size 3 to 8) (size 9 to 14) (size 15 to 20)
#    0.000    2.571    0.000    4.286    0.000    8.571 
#    0.000    0.000    0.000    0.000    0.000    1.000 
#    0.000    4.571    0.000    0.000    0.000    0.000 
#
# Total GULP energy -694093.078619 kJ/mol
# GULP energy per Si atom -12394.519261 kJ/mol
# Density = 1.650445 g / cm^3
# Si number density = 16.542101 Si / 1000 Ang^3
#
#
#
# Elastic Constant Matrix: (Units=GPa)
#
#
# Indices 1 2 3 4 5 6 
#
# 1 31.8043 16.4146 22.6808 0.0000 0.0000 0.0000
# 2 16.4146 90.0190 48.9679 0.0000 0.0000 0.0000
# 3 22.6808 48.9679 87.1079 0.0000 0.0000 0.0000
# 4 0.0000 0.0000 0.0000 35.8099 0.0000 0.0000
# 5 0.0000 0.0000 0.0000 0.0000 22.6794 0.0000
# 6 0.0000 0.0000 0.0000 0.0000 0.0000 22.8228
#
#
#
# Elastic Compliance Matrix: (Units=1/GPa)
#
#
# Indices 1 2 3 4 5 6 
#
# 1 0.038935 -0.002283 -0.008854 0.000000 0.000000 0.000000
# 2 -0.002283 0.016136 -0.008476 0.000000 0.000000 0.000000
# 3 -0.008854 -0.008476 0.018551 0.000000 0.000000 0.000000
# 4 0.000000 0.000000 0.000000 0.027925 0.000000 0.000000
# 5 0.000000 0.000000 0.000000 0.000000 0.044093 0.000000
# 6 0.000000 0.000000 0.000000 0.000000 0.000000 0.043816
#
#
# Mechanical properties :
#
#
# Convention : Reuss Voigt Hill
#
# Bulk Modulus (GPa) = 29.07504 42.78423 35.92963
# Shear Modulus (GPa) = 20.82053 24.32029 22.57041
#
# Velocity S-wave (km/s) = 3.55158 3.83849 3.69782
# Velocity P-wave (km/s) = 5.86795 6.75021 6.32448
#
# Compressibility (1/GPa) = 0.03439377
#
# Stress axis : x y z
#
# Youngs Moduli (GPa) = 25.68389 61.97303 53.90689
#
# Poissons Ratio (x) = 0.14149 0.47730
# Poissons Ratio (y) = 0.05864 0.45694
# Poissons Ratio (z) = 0.22741 0.52531
#
# Static dielectric constant tensor:
#      x y z
#    x 3.223110 0.000000 0.000000 
#    y 0.000000 3.107570 0.000000 
#    z 0.000000 0.000000 3.363330 
# 
# 
# High freq. dielectric constant tensor:
#      x y z
#    x 1.588260 0.000000 0.000000 
#    y 0.000000 1.642820 0.000000 
#    z 0.000000 0.000000 1.650910 
# 
# From -- ./inp_files/8286.got.cif
#   From: 2010.03.12/outbox.cif.g09.slc.cpg/sg57_5_cif.got.tgz:8286.got - 2010.04.16 15:48:40.
