data_PCOD8230498
_publ_section_title
;
Structure prediction by ZEFSAII (Michael W. Deem and Ramdas Pophale) SiO2 
 PCOD8230498
Probable space group: P B C M
;
_chemical_formula_sum "Si O2"
_cell_formula_units_Z 48
_cell_length_a 28.786539
_cell_length_b 9.146250
_cell_length_c 8.822283
_cell_angle_alpha 90.000000
_cell_angle_beta 90.000000
_cell_angle_gamma 90.000000
_cell_volume 2322.809031
_symmetry_space_group_name_H-M "P B C M"
_symmetry_group_IT_number 57
_symmetry_cell_setting 'orthorhombic'
loop_
_space_group_symop_operation_xyz
x,y,z
-x,-y,1/2+z
x,1/2-y,-z
-x,1/2+y,1/2-z
-x,-y,-z
x,y,1/2-z
-x,1/2+y,z
x,1/2-y,1/2+z
loop_
_atom_site_type_symbol
_atom_site_label
_atom_site_fract_x
_atom_site_fract_y
_atom_site_fract_z
Si Si1 0.891253 0.412811 0.528583
Si Si2 0.364386 0.911641 0.932291
Si Si3 0.968410 0.331762 0.750000
Si Si4 0.193839 0.400088 0.082417
Si Si5 0.457699 0.588704 0.932373
Si Si6 0.729011 0.090123 0.930789
Si Si7 0.941027 0.494631 0.250000
O O1 0.870744 0.250000 0.500000
O O2 0.940946 0.396215 0.608484
O O3 0.852223 0.504328 0.613831
O O4 0.904297 0.507575 0.384006
O O5 0.366400 0.912646 0.750000
O O6 0.363101 0.750000 0.000000
O O7 0.410296 0.987346 0.004184
O O8 0.317116 0.985090 0.994992
O O9 0.968977 0.157142 0.750000
O O10 0.022190 0.374979 0.750000
O O11 0.215488 0.371892 0.250000
O O12 0.181072 0.250000 0.000000
O O13 0.228535 0.486685 0.973288
O O14 0.458313 0.590597 0.750000
O O15 0.461308 0.750000 0.000000
O O16 0.500000 0.500000 0.000000
O O17 0.723804 0.102353 0.750000
O O18 0.737942 0.250000 0.000000
#
# Coordination Sequence:
#
# PCOD8230498 Si02
#       7
#     8   8   4   8   8   8   4
#     4  10  22  40  63  87 119 157 200 243 291 351
#     4  10  18  33  57  87 120 157 203 253 302 356
#     4  10  20  40  56  92 116 160 190 248 283 354
#     4  12  26  43  62  88 122 156 199 249 306 365
#     4  11  21  36  57  86 122 163 209 258 310 365
#     4  11  22  39  65  93 121 157 200 247 301 358
#     4  10  22  34  64  86 124 150 200 232 299 342
#
# _framework density 20.664632999999998
#
# number of rings (size 3 to 8) (size 9 to 14) (size 15 to 20)
#    0.000    1.333    0.833    8.000    2.333    1.333 
#    0.000    0.833    0.000    0.000    0.000    0.000 
#    0.000    0.000    0.000    0.000    0.000    0.000 
#
# Total GULP energy -594891.274857 kJ/mol
# GULP energy per Si atom -12393.568226 kJ/mol
# Density = 2.061760 g / cm^3
# Si number density = 20.664633 Si / 1000 Ang^3
#
#
#
# Elastic Constant Matrix: (Units=GPa)
#
#
# Indices 1 2 3 4 5 6 
#
# 1 108.6232 37.0531 33.9672 0.0000 0.0000 0.0000
# 2 37.0531 66.0839 25.7677 0.0000 0.0000 0.0000
# 3 33.9672 25.7677 184.5804 0.0000 0.0000 0.0000
# 4 0.0000 0.0000 0.0000 26.1615 0.0000 0.0000
# 5 0.0000 0.0000 0.0000 0.0000 37.1180 0.0000
# 6 0.0000 0.0000 0.0000 0.0000 0.0000 30.1236
#
#
#
# Elastic Compliance Matrix: (Units=1/GPa)
#
#
# Indices 1 2 3 4 5 6 
#
# 1 0.011673 -0.006036 -0.001306 0.000000 0.000000 0.000000
# 2 -0.006036 0.019125 -0.001559 0.000000 0.000000 0.000000
# 3 -0.001306 -0.001559 0.005876 0.000000 0.000000 0.000000
# 4 0.000000 0.000000 0.000000 0.038224 0.000000 0.000000
# 5 0.000000 0.000000 0.000000 0.000000 0.026941 0.000000
# 6 0.000000 0.000000 0.000000 0.000000 0.000000 0.033197
#
#
# Mechanical properties :
#
#
# Convention : Reuss Voigt Hill
#
# Bulk Modulus (GPa) = 52.98809 61.42926 57.20868
# Shear Modulus (GPa) = 31.42130 36.18059 33.80095
#
# Velocity S-wave (km/s) = 3.90363 4.18885 4.04875
# Velocity P-wave (km/s) = 6.78347 7.29291 7.04280
#
# Compressibility (1/GPa) = 0.01887217
#
# Stress axis : x y z
#
# Youngs Moduli (GPa) = 85.66454 52.28842 170.19588
#
# Poissons Ratio (x) = 0.31562 0.22219
# Poissons Ratio (y) = 0.51709 0.26534
# Poissons Ratio (z) = 0.11184 0.08152
#
# Static dielectric constant tensor:
#      x y z
#    x 4.321850 0.000000 0.000000 
#    y 0.000000 3.440110 0.000000 
#    z 0.000000 0.000000 4.272320 
# 
# 
# High freq. dielectric constant tensor:
#      x y z
#    x 1.820810 0.000000 0.000000 
#    y 0.000000 1.773330 0.000000 
#    z 0.000000 0.000000 1.834520 
# 
# From -- ./inp_files/10111.got.cif
#   From: 2010.03.12/outbox.cif.g09.slc.cpg/sg57_6_cif.got.tgz:10111.got - 2010.04.16 15:48:40.
