data_PCOD8230126
_publ_section_title
;
Structure prediction by ZEFSAII (Michael W. Deem and Ramdas Pophale) SiO2 
 PCOD8230126
Probable space group: P B C M
;
_chemical_formula_sum "Si O2"
_cell_formula_units_Z 64
_cell_length_a 17.132995
_cell_length_b 23.913431
_cell_length_c 9.022893
_cell_angle_alpha 90.000000
_cell_angle_beta 90.000000
_cell_angle_gamma 90.000000
_cell_volume 3696.757705
_symmetry_space_group_name_H-M "P B C M"
_symmetry_group_IT_number 57
_symmetry_cell_setting 'orthorhombic'
loop_
_space_group_symop_operation_xyz
x,y,z
-x,-y,1/2+z
x,1/2-y,-z
-x,1/2+y,1/2-z
-x,-y,-z
x,y,1/2-z
-x,1/2+y,z
x,1/2-y,1/2+z
loop_
_atom_site_type_symbol
_atom_site_label
_atom_site_fract_x
_atom_site_fract_y
_atom_site_fract_z
Si Si1 0.925518 0.192997 0.080838
Si Si2 0.244349 0.689798 0.074385
Si Si3 0.094885 0.310824 0.924286
Si Si4 0.335566 0.030626 0.577245
Si Si5 0.765131 0.866008 0.074006
Si Si6 0.646293 0.092362 0.075229
Si Si7 0.527871 0.588311 0.419576
Si Si8 0.629388 0.695860 0.079411
O O1 0.918326 0.209302 0.250000
O O2 0.842743 0.165079 0.034148
O O3 0.007900 0.161409 0.051487
O O4 0.935778 0.250000 0.000000
O O5 0.255280 0.696938 0.250000
O O6 0.304310 0.643958 0.007658
O O7 0.259251 0.750000 0.000000
O O8 0.113668 0.304211 0.750000
O O9 0.104516 0.250000 0.000000
O O10 0.151250 0.356264 0.999352
O O11 0.349901 0.038490 0.750000
O O12 0.266902 0.072635 0.525170
O O13 0.418787 0.043629 0.503455
O O14 0.311866 0.966904 0.537296
O O15 0.771843 0.860105 0.250000
O O16 0.707202 0.819495 0.010283
O O17 0.641896 0.101263 0.250000
O O18 0.558615 0.091242 0.009718
O O19 0.523787 0.568603 0.250000
O O20 0.563541 0.649529 0.435467
O O21 0.651336 0.707276 0.250000
O O22 0.593423 0.750000 0.000000
#
# Coordination Sequence:
#
# PCOD8230126 Si02
#       8
#     8   8   8   8   8   8   8   8
#     4   8  15  27  44  66  90 118 148 178 216 261
#     4   9  17  31  50  71  96 121 146 180 222 268
#     4  10  18  28  44  67  93 119 149 183 220 264
#     4   9  18  32  49  67  88 117 153 189 224 263
#     4  10  19  30  44  64  89 117 151 188 223 261
#     4   9  17  31  51  71  90 116 150 186 223 265
#     4   9  18  31  47  67  90 117 150 189 229 263
#     4  10  19  30  43  61  89 123 152 180 220 267
#
# _framework density 17.312469
#
# number of rings (size 3 to 8) (size 9 to 14) (size 15 to 20)
#    0.000    2.750    0.000    1.875    0.000    2.000 
#    0.000    1.250    0.000    0.750    0.000    0.000 
#    0.000    0.000    0.000    0.000    0.000    1.000 
#
# Total GULP energy -792971.059261 kJ/mol
# GULP energy per Si atom -12390.172801 kJ/mol
# Density = 1.727307 g / cm^3
# Si number density = 17.312469 Si / 1000 Ang^3
#
#
#
# Elastic Constant Matrix: (Units=GPa)
#
#
# Indices 1 2 3 4 5 6 
#
# 1 128.8587 62.3281 35.0437 0.0000 0.0000 0.0000
# 2 62.3281 97.3789 30.3019 0.0000 0.0000 0.0000
# 3 35.0437 30.3019 50.8265 0.0000 0.0000 0.0000
# 4 0.0000 0.0000 0.0000 18.4973 0.0000 0.0000
# 5 0.0000 0.0000 0.0000 0.0000 24.4311 0.0000
# 6 0.0000 0.0000 0.0000 0.0000 0.0000 19.0748
#
#
#
# Elastic Compliance Matrix: (Units=1/GPa)
#
#
# Indices 1 2 3 4 5 6 
#
# 1 0.012041 -0.006291 -0.004552 0.000000 0.000000 0.000000
# 2 -0.006291 0.015895 -0.005139 0.000000 0.000000 0.000000
# 3 -0.004552 -0.005139 0.025877 0.000000 0.000000 0.000000
# 4 0.000000 0.000000 0.000000 0.054062 0.000000 0.000000
# 5 0.000000 0.000000 0.000000 0.000000 0.040932 0.000000
# 6 0.000000 0.000000 0.000000 0.000000 0.000000 0.052425
#
#
# Mechanical properties :
#
#
# Convention : Reuss Voigt Hill
#
# Bulk Modulus (GPa) = 45.76634 59.15681 52.46158
# Shear Modulus (GPa) = 20.79205 22.36000 21.57602
#
# Velocity S-wave (km/s) = 3.46929 3.59772 3.53409
# Velocity P-wave (km/s) = 6.52233 7.17651 6.85723
#
# Compressibility (1/GPa) = 0.02185012
#
# Stress axis : x y z
#
# Youngs Moduli (GPa) = 83.04980 62.91459 38.64477
#
# Poissons Ratio (x) = 0.39577 0.17590
# Poissons Ratio (y) = 0.52243 0.19859
# Poissons Ratio (z) = 0.37801 0.32331
#
# Static dielectric constant tensor:
#      x y z
#    x 3.661580 0.000000 0.000000 
#    y 0.000000 3.149210 0.000000 
#    z 0.000000 0.000000 3.171680 
# 
# 
# High freq. dielectric constant tensor:
#      x y z
#    x 1.672890 0.000000 0.000000 
#    y 0.000000 1.645820 0.000000 
#    z 0.000000 0.000000 1.661540 
# 
# From -- ./inp_files/7435.got.cif
#   From: 2010.03.12/outbox.cif.g09.slc.cpg/sg57_4_cif.got.tgz:7435.got - 2010.04.16 15:48:40.
