data_PCOD8230048
_publ_section_title
;
Structure prediction by ZEFSAII (Michael W. Deem and Ramdas Pophale) SiO2 
 PCOD8230048
Probable space group: P B C M
;
_chemical_formula_sum "Si O2"
_cell_formula_units_Z 64
_cell_length_a 26.161996
_cell_length_b 18.495164
_cell_length_c 9.082712
_cell_angle_alpha 90.000000
_cell_angle_beta 90.000000
_cell_angle_gamma 90.000000
_cell_volume 4394.855548
_symmetry_space_group_name_H-M "P B C M"
_symmetry_group_IT_number 57
_symmetry_cell_setting 'orthorhombic'
loop_
_space_group_symop_operation_xyz
x,y,z
-x,-y,1/2+z
x,1/2-y,-z
-x,1/2+y,1/2-z
-x,-y,-z
x,y,1/2-z
-x,1/2+y,z
x,1/2-y,1/2+z
loop_
_atom_site_type_symbol
_atom_site_label
_atom_site_fract_x
_atom_site_fract_y
_atom_site_fract_z
Si Si1 0.800676 0.322708 0.078383
Si Si2 0.542955 0.954293 0.421078
Si Si3 0.897446 0.407932 0.078245
Si Si4 0.011156 0.675196 0.422891
Si Si5 0.685388 0.324121 0.423016
Si Si6 0.501199 0.672919 0.423094
Si Si7 0.044179 0.460100 0.918587
Si Si8 0.603554 0.410494 0.583152
O O1 0.802263 0.306367 0.250000
O O2 0.839689 0.386655 0.033559
O O3 0.743328 0.344481 0.030283
O O4 0.819126 0.250000 0.000000
O O5 0.529017 0.942484 0.250000
O O6 0.545973 0.876804 0.503550
O O7 0.500000 0.000000 0.500000
O O8 0.594215 0.003038 0.436012
O O9 0.907287 0.390895 0.250000
O O10 0.903628 0.495019 0.045755
O O11 0.937387 0.360811 0.985391
O O12 0.999194 0.750000 0.500000
O O13 0.019082 0.687750 0.250000
O O14 0.960505 0.625171 0.457411
O O15 0.667877 0.250000 0.500000
O O16 0.679508 0.313616 0.250000
O O17 0.649238 0.388979 0.475043
O O18 0.502486 0.750000 0.500000
O O19 0.511907 0.680632 0.250000
O O20 0.446873 0.635662 0.456028
O O21 0.030420 0.469150 0.750000
O O22 0.000000 0.500000 0.000000
O O23 0.620026 0.393343 0.750000
#
# Coordination Sequence:
#
# PCOD8230048 Si02
#       8
#     8   8   8   8   8   8   8   8
#     4   9  18  29  40  56  77 101 130 163 196 229
#     4   9  17  29  43  59  80 105 134 166 200 237
#     4   9  16  28  43  56  74 101 131 162 196 231
#     4  10  18  26  37  56  79 102 130 158 188 228
#     4  10  19  29  41  57  78 104 133 166 199 231
#     4  10  19  29  42  61  84 109 137 166 197 234
#     4   8  15  26  39  54  73  98 126 157 191 227
#     4   9  18  30  43  59  79 106 137 166 197 233
#
# _framework density 14.562480000000001
#
# number of rings (size 3 to 8) (size 9 to 14) (size 15 to 20)
#    0.000    2.750    0.000    3.000    0.000    6.500 
#    0.000    0.000    0.000    0.000    0.000    0.000 
#    0.000    1.000    0.000    7.500    0.000    1.375 
#
# Total GULP energy -792893.441985 kJ/mol
# GULP energy per Si atom -12388.960031 kJ/mol
# Density = 1.452934 g / cm^3
# Si number density = 14.562480 Si / 1000 Ang^3
#
#
#
# Elastic Constant Matrix: (Units=GPa)
#
#
# Indices 1 2 3 4 5 6 
#
# 1 64.6572 48.3883 32.7032 0.0000 0.0000 0.0000
# 2 48.3883 109.8009 48.7956 0.0000 0.0000 0.0000
# 3 32.7032 48.7956 68.9687 0.0000 0.0000 0.0000
# 4 0.0000 0.0000 0.0000 24.2102 0.0000 0.0000
# 5 0.0000 0.0000 0.0000 0.0000 15.5549 0.0000
# 6 0.0000 0.0000 0.0000 0.0000 0.0000 23.0805
#
#
#
# Elastic Compliance Matrix: (Units=1/GPa)
#
#
# Indices 1 2 3 4 5 6 
#
# 1 0.024582 -0.008246 -0.005822 0.000000 0.000000 0.000000
# 2 -0.008246 0.016050 -0.007446 0.000000 0.000000 0.000000
# 3 -0.005822 -0.007446 0.022528 0.000000 0.000000 0.000000
# 4 0.000000 0.000000 0.000000 0.041305 0.000000 0.000000
# 5 0.000000 0.000000 0.000000 0.000000 0.064289 0.000000
# 6 0.000000 0.000000 0.000000 0.000000 0.000000 0.043327
#
#
# Mechanical properties :
#
#
# Convention : Reuss Voigt Hill
#
# Bulk Modulus (GPa) = 49.67012 55.91120 52.79066
# Shear Modulus (GPa) = 19.09725 20.13842 19.61783
#
# Velocity S-wave (km/s) = 3.62526 3.72277 3.67434
# Velocity P-wave (km/s) = 7.19066 7.54692 7.37095
#
# Compressibility (1/GPa) = 0.02013283
#
# Stress axis : x y z
#
# Youngs Moduli (GPa) = 40.68031 62.30541 44.38938
#
# Poissons Ratio (x) = 0.51374 0.25845
# Poissons Ratio (y) = 0.33543 0.33050
# Poissons Ratio (z) = 0.23685 0.46390
#
# Static dielectric constant tensor:
#      x y z
#    x 2.818050 0.000000 0.000000 
#    y 0.000000 3.201260 0.000000 
#    z 0.000000 0.000000 2.992670 
# 
# 
# High freq. dielectric constant tensor:
#      x y z
#    x 1.518130 0.000000 0.000000 
#    y 0.000000 1.551350 0.000000 
#    z 0.000000 0.000000 1.571910 
# 
# From -- ./inp_files/9595.got.cif
#   From: 2010.03.12/outbox.cif.g09.slc.cpg/sg57_5_cif.got.tgz:9595.got - 2010.04.16 15:48:40.
