data_PCOD8230095
_publ_section_title
;
Structure prediction by ZEFSAII (Michael W. Deem and Ramdas Pophale) SiO2 
 PCOD8230095
Probable space group: P B C M
;
_chemical_formula_sum "Si O2"
_cell_formula_units_Z 64
_cell_length_a 18.557439
_cell_length_b 25.181608
_cell_length_c 9.026718
_cell_angle_alpha 90.000000
_cell_angle_beta 90.000000
_cell_angle_gamma 90.000000
_cell_volume 4218.240875
_symmetry_space_group_name_H-M "P B C M"
_symmetry_group_IT_number 57
_symmetry_cell_setting 'orthorhombic'
loop_
_space_group_symop_operation_xyz
x,y,z
-x,-y,1/2+z
x,1/2-y,-z
-x,1/2+y,1/2-z
-x,-y,-z
x,y,1/2-z
-x,1/2+y,z
x,1/2-y,1/2+z
loop_
_atom_site_type_symbol
_atom_site_label
_atom_site_fract_x
_atom_site_fract_y
_atom_site_fract_z
Si Si1 0.759189 0.014141 0.074805
Si Si2 0.388438 0.507513 0.923147
Si Si3 0.894781 0.039549 0.919761
Si Si4 0.721831 0.802177 0.076204
Si Si5 0.444660 0.197044 0.922202
Si Si6 0.191570 0.100796 0.920422
Si Si7 0.523316 0.919853 0.422706
Si Si8 0.045931 0.439389 0.080246
O O1 0.752222 0.019716 0.250000
O O2 0.781008 0.955582 0.016919
O O3 0.683694 0.029122 0.000347
O O4 0.824145 0.052875 0.018382
O O5 0.375225 0.499374 0.750000
O O6 0.447064 0.552990 0.955685
O O7 0.413824 0.451211 0.990683
O O8 0.869405 0.038711 0.750000
O O9 0.962853 0.080490 0.944112
O O10 0.931833 0.984028 0.962768
O O11 0.734414 0.796912 0.250000
O O12 0.638614 0.810029 0.035803
O O13 0.766064 0.850949 0.003226
O O14 0.753259 0.750000 0.000000
O O15 0.457109 0.206237 0.750000
O O16 0.482095 0.141830 0.974613
O O17 0.477032 0.250000 0.000000
O O18 0.213992 0.101575 0.750000
O O19 0.104922 0.107594 0.942364
O O20 0.544465 0.922443 0.250000
O O21 0.054341 0.461288 0.250000
#
# Coordination Sequence:
#
# PCOD8230095 Si02
#       8
#     8   8   8   8   8   8   8   8
#     4  10  18  28  41  56  78 108 138 164 199 244
#     4  10  19  29  43  63  84 108 140 174 206 246
#     4   9  15  23  36  55  78 100 127 163 194 224
#     4   9  16  26  39  54  74  99 129 162 193 226
#     4   9  17  29  44  61  81 108 140 172 206 242
#     4   8  14  25  40  54  71 103 138 160 186 233
#     4   9  18  32  46  60  83 112 138 168 210 255
#     4   8  14  24  37  53  74 102 132 158 189 228
#
# _framework density 15.1722
#
# number of rings (size 3 to 8) (size 9 to 14) (size 15 to 20)
#    0.000    3.000    0.000    2.625    0.000    3.500 
#    0.000    5.625    0.000    0.000    0.000    0.000 
#    0.000    1.000    0.000    3.750    0.000    3.125 
#
# Total GULP energy -792915.599023 kJ/mol
# GULP energy per Si atom -12389.306235 kJ/mol
# Density = 1.513767 g / cm^3
# Si number density = 15.172200 Si / 1000 Ang^3
#
#
#
# Elastic Constant Matrix: (Units=GPa)
#
#
# Indices 1 2 3 4 5 6 
#
# 1 92.4496 26.5725 36.0647 0.0000 0.0000 0.0000
# 2 26.5725 72.3272 19.9726 0.0000 0.0000 0.0000
# 3 36.0647 19.9726 51.2462 0.0000 0.0000 0.0000
# 4 0.0000 0.0000 0.0000 17.4640 0.0000 0.0000
# 5 0.0000 0.0000 0.0000 0.0000 23.4398 0.0000
# 6 0.0000 0.0000 0.0000 0.0000 0.0000 17.2229
#
#
#
# Elastic Compliance Matrix: (Units=1/GPa)
#
#
# Indices 1 2 3 4 5 6 
#
# 1 0.015470 -0.003000 -0.009718 0.000000 0.000000 0.000000
# 2 -0.003000 0.016075 -0.004154 0.000000 0.000000 0.000000
# 3 -0.009718 -0.004154 0.027971 0.000000 0.000000 0.000000
# 4 0.000000 0.000000 0.000000 0.057261 0.000000 0.000000
# 5 0.000000 0.000000 0.000000 0.000000 0.042663 0.000000
# 6 0.000000 0.000000 0.000000 0.000000 0.000000 0.058062
#
#
# Mechanical properties :
#
#
# Convention : Reuss Voigt Hill
#
# Bulk Modulus (GPa) = 38.79981 42.36030 40.58006
# Shear Modulus (GPa) = 19.24285 20.51953 19.88119
#
# Velocity S-wave (km/s) = 3.56518 3.68155 3.62383
# Velocity P-wave (km/s) = 6.52501 6.78616 6.65687
#
# Compressibility (1/GPa) = 0.02577332
#
# Stress axis : x y z
#
# Youngs Moduli (GPa) = 64.64164 62.20716 35.75073
#
# Poissons Ratio (x) = 0.18662 0.34742
# Poissons Ratio (y) = 0.19393 0.14850
# Poissons Ratio (z) = 0.62817 0.25840
#
# Static dielectric constant tensor:
#      x y z
#    x 3.156670 0.000000 0.000000 
#    y 0.000000 2.834930 0.000000 
#    z 0.000000 0.000000 2.877970 
# 
# 
# High freq. dielectric constant tensor:
#      x y z
#    x 1.583030 0.000000 0.000000 
#    y 0.000000 1.533310 0.000000 
#    z 0.000000 0.000000 1.579490 
# 
# From -- ./inp_files/7499.got.cif
#   From: 2010.03.12/outbox.cif.g09.slc.cpg/sg57_4_cif.got.tgz:7499.got - 2010.04.16 15:48:40.
