data_PCOD8230516
_publ_section_title
;
Structure prediction by ZEFSAII (Michael W. Deem and Ramdas Pophale) SiO2 
 PCOD8230516
Probable space group: P B C M
;
_chemical_formula_sum "Si O2"
_cell_formula_units_Z 48
_cell_length_a 14.764271
_cell_length_b 17.652271
_cell_length_c 9.993956
_cell_angle_alpha 90.000000
_cell_angle_beta 90.000000
_cell_angle_gamma 90.000000
_cell_volume 2604.653923
_symmetry_space_group_name_H-M "P B C M"
_symmetry_group_IT_number 57
_symmetry_cell_setting 'orthorhombic'
loop_
_space_group_symop_operation_xyz
x,y,z
-x,-y,1/2+z
x,1/2-y,-z
-x,1/2+y,1/2-z
-x,-y,-z
x,y,1/2-z
-x,1/2+y,z
x,1/2-y,1/2+z
loop_
_atom_site_type_symbol
_atom_site_label
_atom_site_fract_x
_atom_site_fract_y
_atom_site_fract_z
Si Si1 0.285307 0.177258 0.250000
Si Si2 0.592225 0.967056 0.750000
Si Si3 0.705788 0.466059 0.023688
Si Si4 0.694285 0.652557 0.750000
Si Si5 0.385478 0.997889 0.750000
Si Si6 0.190078 0.388041 0.504348
Si Si7 0.016616 0.178598 0.906204
Si Si8 0.811539 0.180872 0.902685
O O1 0.367438 0.117587 0.250000
O O2 0.335222 0.259329 0.250000
O O3 0.218524 0.168146 0.376195
O O4 0.622538 0.011949 0.618566
O O5 0.484558 0.962582 0.750000
O O6 0.669948 0.465015 0.873968
O O7 0.787601 0.525667 0.044472
O O8 0.741300 0.384396 0.063868
O O9 0.611906 0.590800 0.750000
O O10 0.752826 0.638055 0.620858
O O11 0.084201 0.385108 0.464668
O O12 0.037222 0.197230 0.750000
O O13 0.913748 0.150280 0.924270
O O14 0.034919 0.250000 0.000000
O O15 0.798674 0.208378 0.750000
O O16 0.789804 0.250000 0.000000
#
# Coordination Sequence:
#
# PCOD8230516 Si02
#       8
#     4   4   8   4   4   8   8   8
#     4  10  20  32  55  81 113 145 183 229 279 338
#     4  10  20  40  59  83 113 147 189 234 286 346
#     4  10  21  39  59  82 113 149 187 231 290 342
#     4  10  18  34  51  81 113 143 181 229 281 330
#     4  10  22  36  61  85 113 147 187 234 286 344
#     4  10  20  32  54  82 111 149 185 225 277 334
#     4  10  20  34  53  81 116 152 190 231 273 323
#     4  10  22  40  60  82 113 152 193 235 276 325
#
# _framework density 18.428552
#
# number of rings (size 3 to 8) (size 9 to 14) (size 15 to 20)
#    0.000    2.000    1.667    2.000    2.333    0.667 
#    0.000    1.667    0.000    0.000    0.000    0.000 
#    0.000    0.000    0.000    0.000    0.000    0.000 
#
# Total GULP energy -595115.120709 kJ/mol
# GULP energy per Si atom -12398.231681 kJ/mol
# Density = 1.838661 g / cm^3
# Si number density = 18.428552 Si / 1000 Ang^3
#
#
#
# Elastic Constant Matrix: (Units=GPa)
#
#
# Indices 1 2 3 4 5 6 
#
# 1 69.2406 33.4467 16.9753 0.0000 0.0000 0.0000
# 2 33.4467 88.0665 23.2254 0.0000 0.0000 0.0000
# 3 16.9753 23.2254 114.9746 0.0000 0.0000 0.0000
# 4 0.0000 0.0000 0.0000 19.1064 0.0000 0.0000
# 5 0.0000 0.0000 0.0000 0.0000 -2.7326 0.0000
# 6 0.0000 0.0000 0.0000 0.0000 0.0000 22.6400
#
#
#
# Elastic Compliance Matrix: (Units=1/GPa)
#
#
# Indices 1 2 3 4 5 6 
#
# 1 0.017880 -0.006438 -0.001340 0.000000 0.000000 0.000000
# 2 -0.006438 0.014312 -0.001941 0.000000 0.000000 0.000000
# 3 -0.001340 -0.001941 0.009287 0.000000 0.000000 0.000000
# 4 0.000000 0.000000 0.000000 0.052339 0.000000 0.000000
# 5 0.000000 0.000000 0.000000 0.000000 -0.365947 0.000000
# 6 0.000000 0.000000 0.000000 0.000000 0.000000 0.044170
#
#
# Mechanical properties :
#
#
# Convention : Reuss Voigt Hill
#
# Bulk Modulus (GPa) = 45.36327 46.61962 45.99145
# Shear Modulus (GPa) = -24.85381 21.04504 -1.90439
#
# Velocity S-wave (km/s) = -3.67639 3.38299 -1.01766
# Velocity P-wave (km/s) = 2.57838 6.37274 4.86107
#
# Compressibility (1/GPa) = 0.02204426
#
# Stress axis : x y z
#
# Youngs Moduli (GPa) = 55.92705 69.87275 107.67331
#
# Poissons Ratio (x) = 0.44981 0.14423
# Poissons Ratio (y) = 0.36003 0.20895
# Poissons Ratio (z) = 0.07492 0.13559
#
# Static dielectric constant tensor:
#      x y z
#    x 3.232250 0.000000 0.000000 
#    y 0.000000 3.373870 0.000000 
#    z 0.000000 0.000000 3.662400 
# 
# 
# High freq. dielectric constant tensor:
#      x y z
#    x 1.697450 0.000000 0.000000 
#    y 0.000000 1.700250 0.000000 
#    z 0.000000 0.000000 1.741530 
# 
# From -- ./inp_files/4773.got.cif
#   From: 2010.03.12/outbox.cif.g09.slc.cpg/sg57_3_cif.got.tgz:4773.got - 2010.04.16 15:48:40.
