data_PCOD8230877
_publ_section_title
;
Structure prediction by ZEFSAII (Michael W. Deem and Ramdas Pophale) SiO2 
 PCOD8230877
Probable space group: P B C M
;
_chemical_formula_sum "Si O2"
_cell_formula_units_Z 64
_cell_length_a 22.753963
_cell_length_b 17.683761
_cell_length_c 9.081288
_cell_angle_alpha 90.000000
_cell_angle_beta 90.000000
_cell_angle_gamma 90.000000
_cell_volume 3654.089103
_symmetry_space_group_name_H-M "P B C M"
_symmetry_group_IT_number 57
_symmetry_cell_setting 'orthorhombic'
loop_
_space_group_symop_operation_xyz
x,y,z
-x,-y,1/2+z
x,1/2-y,-z
-x,1/2+y,1/2-z
-x,-y,-z
x,y,1/2-z
-x,1/2+y,z
x,1/2-y,1/2+z
loop_
_atom_site_type_symbol
_atom_site_label
_atom_site_fract_x
_atom_site_fract_y
_atom_site_fract_z
Si Si1 0.704334 0.324103 0.918939
Si Si2 0.034995 0.937309 0.917957
Si Si3 0.458956 0.324844 0.425022
Si Si4 0.260343 0.513943 0.074352
Si Si5 0.573349 0.126385 0.419599
Si Si6 0.384367 0.034980 0.924445
Si Si7 0.864525 0.539733 0.922782
Si Si8 0.938944 0.670353 0.423896
O O1 0.721218 0.314435 0.750000
O O2 0.735646 0.399477 0.983719
O O3 0.634420 0.330182 0.940045
O O4 0.728699 0.250000 0.000000
O O5 0.019316 0.950039 0.750000
O O6 0.007008 0.855456 0.961398
O O7 0.103537 0.957031 0.947915
O O8 0.000000 0.000000 0.000000
O O9 0.432780 0.250000 0.500000
O O10 0.456780 0.317784 0.250000
O O11 0.525996 0.335309 0.474893
O O12 0.418544 0.392684 0.486810
O O13 0.261370 0.517315 0.250000
O O14 0.317157 0.467397 0.015800
O O15 0.201653 0.472261 0.018156
O O16 0.552237 0.130865 0.250000
O O17 0.580653 0.039883 0.472792
O O18 0.382167 0.037635 0.750000
O O19 0.866113 0.561298 0.750000
O O20 0.893741 0.607702 0.013920
O O21 0.926609 0.750000 0.500000
O O22 0.928397 0.679206 0.250000
#
# Coordination Sequence:
#
# PCOD8230877 Si02
#       8
#     8   8   8   8   8   8   8   8
#     4   9  17  29  46  68  93 120 149 185 230 278
#     4   8  15  27  45  69  93 118 148 183 223 267
#     4  11  21  31  45  66  92 119 149 187 233 282
#     4   8  15  30  51  70  90 122 160 192 226 273
#     4   9  17  31  50  69  89 114 149 190 232 280
#     4   8  16  31  49  68  90 119 153 189 230 277
#     4   9  16  30  53  74  92 121 161 197 230 271
#     4  10  19  31  47  70 101 129 156 193 234 274
#
# _framework density 17.514624999999999
#
# number of rings (size 3 to 8) (size 9 to 14) (size 15 to 20)
#    0.000    3.000    0.000    3.000    0.000    2.000 
#    0.000    2.500    0.000    5.250    0.000    0.000 
#    0.000    0.000    0.000    0.000    0.000    0.000 
#
# Total GULP energy -792886.777214 kJ/mol
# GULP energy per Si atom -12388.855894 kJ/mol
# Density = 1.747476 g / cm^3
# Si number density = 17.514625 Si / 1000 Ang^3
#
#
#
# Elastic Constant Matrix: (Units=GPa)
#
#
# Indices 1 2 3 4 5 6 
#
# 1 75.3004 40.6242 23.3884 0.0000 0.0000 0.0000
# 2 40.6242 111.6660 33.0842 0.0000 0.0000 0.0000
# 3 23.3884 33.0842 46.1523 0.0000 0.0000 0.0000
# 4 0.0000 0.0000 0.0000 24.7732 0.0000 0.0000
# 5 0.0000 0.0000 0.0000 0.0000 16.1509 0.0000
# 6 0.0000 0.0000 0.0000 0.0000 0.0000 19.8208
#
#
#
# Elastic Compliance Matrix: (Units=1/GPa)
#
#
# Indices 1 2 3 4 5 6 
#
# 1 0.017551 -0.004761 -0.005481 0.000000 0.000000 0.000000
# 2 -0.004761 0.012662 -0.006664 0.000000 0.000000 0.000000
# 3 -0.005481 -0.006664 0.029222 0.000000 0.000000 0.000000
# 4 0.000000 0.000000 0.000000 0.040366 0.000000 0.000000
# 5 0.000000 0.000000 0.000000 0.000000 0.061916 0.000000
# 6 0.000000 0.000000 0.000000 0.000000 0.000000 0.050452
#
#
# Mechanical properties :
#
#
# Convention : Reuss Voigt Hill
#
# Bulk Modulus (GPa) = 39.02812 47.47911 43.25362
# Shear Modulus (GPa) = 19.64461 21.21710 20.43086
#
# Velocity S-wave (km/s) = 3.35268 3.48428 3.41912
# Velocity P-wave (km/s) = 6.10891 6.58438 6.35110
#
# Compressibility (1/GPa) = 0.02562255
#
# Stress axis : x y z
#
# Youngs Moduli (GPa) = 56.97591 78.97823 34.22076
#
# Poissons Ratio (x) = 0.37603 0.18758
# Poissons Ratio (y) = 0.27127 0.22804
# Poissons Ratio (z) = 0.31230 0.52629
#
# Static dielectric constant tensor:
#      x y z
#    x 3.643750 0.000000 0.000000 
#    y 0.000000 3.483390 0.000000 
#    z 0.000000 0.000000 3.019530 
# 
# 
# High freq. dielectric constant tensor:
#      x y z
#    x 1.665300 0.000000 0.000000 
#    y 0.000000 1.675040 0.000000 
#    z 0.000000 0.000000 1.654160 
# 
# From -- ./inp_files/8489.got.cif
#   From: 2010.03.12/outbox.cif.g09.slc.cpg/sg57_5_cif.got.tgz:8489.got - 2010.04.16 15:48:40.
