data_PCOD8230184
_publ_section_title
;
Structure prediction by ZEFSAII (Michael W. Deem and Ramdas Pophale) SiO2 
 PCOD8230184
Probable space group: P B C M
;
_chemical_formula_sum "Si O2"
_cell_formula_units_Z 64
_cell_length_a 14.650226
_cell_length_b 28.080554
_cell_length_c 8.872958
_cell_angle_alpha 90.000000
_cell_angle_beta 90.000000
_cell_angle_gamma 90.000000
_cell_volume 3650.214802
_symmetry_space_group_name_H-M "P B C M"
_symmetry_group_IT_number 57
_symmetry_cell_setting 'orthorhombic'
loop_
_space_group_symop_operation_xyz
x,y,z
-x,-y,1/2+z
x,1/2-y,-z
-x,1/2+y,1/2-z
-x,-y,-z
x,y,1/2-z
-x,1/2+y,z
x,1/2-y,1/2+z
loop_
_atom_site_type_symbol
_atom_site_label
_atom_site_fract_x
_atom_site_fract_y
_atom_site_fract_z
Si Si1 0.534618 0.387237 0.071947
Si Si2 0.852148 0.028736 0.072599
Si Si3 0.028441 0.884599 0.929242
Si Si4 0.653033 0.924118 0.072174
Si Si5 0.855390 0.921537 0.429292
Si Si6 0.650092 0.299247 0.427176
Si Si7 0.352843 0.530572 0.427446
Si Si8 0.859324 0.200083 0.928016
O O1 0.544738 0.387218 0.250000
O O2 0.427368 0.387629 0.023345
O O3 0.584993 0.340690 0.005702
O O4 0.579014 0.435226 0.013069
O O5 0.860280 0.026706 0.250000
O O6 0.922177 0.067685 0.007505
O O7 0.750360 0.044916 0.027803
O O8 0.874107 0.975628 0.013004
O O9 0.033208 0.880552 0.750000
O O10 0.076559 0.839408 0.000924
O O11 0.924194 0.886262 0.985485
O O12 0.659307 0.929257 0.250000
O O13 0.752854 0.906573 0.017683
O O14 0.629598 0.977026 0.012185
O O15 0.867875 0.916633 0.250000
O O16 0.617994 0.250000 0.500000
O O17 0.638277 0.293966 0.250000
O O18 0.754350 0.311526 0.470278
O O19 0.369582 0.535526 0.250000
O O20 0.874023 0.202272 0.750000
O O21 0.888724 0.250000 0.000000
#
# Coordination Sequence:
#
# PCOD8230184 Si02
#       8
#     8   8   8   8   8   8   8   8
#     4  10  18  29  46  70  95 121 154 194 235 278
#     4   8  16  29  45  66  96 129 161 193 231 279
#     4  11  20  30  47  72  97 123 155 197 241 281
#     4   8  16  30  47  65  92 128 163 194 229 272
#     4   9  17  32  49  65  90 130 170 199 228 272
#     4   9  19  33  50  71  96 121 149 185 229 277
#     4   9  16  28  45  67  94 127 160 189 225 278
#     4  10  20  35  52  72  96 123 151 185 230 283
#
# _framework density 17.533214999999998
#
# number of rings (size 3 to 8) (size 9 to 14) (size 15 to 20)
#    0.000    2.750    0.000    3.750    0.000    1.000 
#    0.000    4.375    0.000    0.750    0.000    1.750 
#    0.000    0.000    0.000    0.000    0.000    0.000 
#
# Total GULP energy -793335.992043 kJ/mol
# GULP energy per Si atom -12395.874876 kJ/mol
# Density = 1.749331 g / cm^3
# Si number density = 17.533215 Si / 1000 Ang^3
#
#
#
# Elastic Constant Matrix: (Units=GPa)
#
#
# Indices 1 2 3 4 5 6 
#
# 1 135.7303 82.1390 34.7743 0.0000 0.0000 0.0000
# 2 82.1390 106.0115 31.9983 0.0000 0.0000 0.0000
# 3 34.7743 31.9983 34.0823 0.0000 0.0000 0.0000
# 4 0.0000 0.0000 0.0000 24.0851 0.0000 0.0000
# 5 0.0000 0.0000 0.0000 0.0000 19.5615 0.0000
# 6 0.0000 0.0000 0.0000 0.0000 0.0000 32.0524
#
#
#
# Elastic Compliance Matrix: (Units=1/GPa)
#
#
# Indices 1 2 3 4 5 6 
#
# 1 0.014704 -0.009579 -0.006009 0.000000 0.000000 0.000000
# 2 -0.009579 0.019403 -0.008444 0.000000 0.000000 0.000000
# 3 -0.006009 -0.008444 0.043399 0.000000 0.000000 0.000000
# 4 0.000000 0.000000 0.000000 0.041519 0.000000 0.000000
# 5 0.000000 0.000000 0.000000 0.000000 0.051121 0.000000
# 6 0.000000 0.000000 0.000000 0.000000 0.000000 0.031199
#
#
# Mechanical properties :
#
#
# Convention : Reuss Voigt Hill
#
# Bulk Modulus (GPa) = 33.96374 63.73858 48.85116
# Shear Modulus (GPa) = 19.28834 23.60063 21.44449
#
# Velocity S-wave (km/s) = 3.32038 3.67284 3.50105
# Velocity P-wave (km/s) = 5.84064 7.37688 6.65324
#
# Compressibility (1/GPa) = 0.02944317
#
# Stress axis : x y z
#
# Youngs Moduli (GPa) = 68.00882 51.53719 23.04184
#
# Poissons Ratio (x) = 0.49367 0.13846
# Poissons Ratio (y) = 0.65146 0.19456
# Poissons Ratio (z) = 0.40868 0.43516
#
# Static dielectric constant tensor:
#      x y z
#    x 3.572150 0.000000 0.000000 
#    y 0.000000 3.391160 0.000000 
#    z 0.000000 0.000000 3.005970 
# 
# 
# High freq. dielectric constant tensor:
#      x y z
#    x 1.682890 0.000000 0.000000 
#    y 0.000000 1.659710 0.000000 
#    z 0.000000 0.000000 1.654850 
# 
# From -- ./inp_files/5594.got.cif
#   From: 2010.03.12/outbox.cif.g09.slc.cpg/sg57_3_cif.got.tgz:5594.got - 2010.04.16 15:48:40.
