data_PCOD8230780
_publ_section_title
;
Structure prediction by ZEFSAII (Michael W. Deem and Ramdas Pophale) SiO2 
 PCOD8230780
Probable space group: P B C M
;
_chemical_formula_sum "Si O2"
_cell_formula_units_Z 64
_cell_length_a 16.144445
_cell_length_b 23.748248
_cell_length_c 9.105429
_cell_angle_alpha 90.000000
_cell_angle_beta 90.000000
_cell_angle_gamma 90.000000
_cell_volume 3491.042273
_symmetry_space_group_name_H-M "P B C M"
_symmetry_group_IT_number 57
_symmetry_cell_setting 'orthorhombic'
loop_
_space_group_symop_operation_xyz
x,y,z
-x,-y,1/2+z
x,1/2-y,-z
-x,1/2+y,1/2-z
-x,-y,-z
x,y,1/2-z
-x,1/2+y,z
x,1/2-y,1/2+z
loop_
_atom_site_type_symbol
_atom_site_label
_atom_site_fract_x
_atom_site_fract_y
_atom_site_fract_z
Si Si1 0.030443 0.945767 0.082341
Si Si2 0.135548 0.112961 0.583057
Si Si3 0.617674 0.892913 0.584662
Si Si4 0.708581 0.308013 0.923258
Si Si5 0.516786 0.192963 0.079269
Si Si6 0.726697 0.523381 0.922889
Si Si7 0.763879 0.804361 0.912936
Si Si8 0.786738 0.085476 0.925373
O O1 0.038990 0.963972 0.250000
O O2 0.118200 0.923411 0.024736
O O3 0.961592 0.897708 0.060485
O O4 0.000000 0.000000 0.000000
O O5 0.157513 0.128031 0.750000
O O6 0.190478 0.058587 0.537437
O O7 0.155925 0.166880 0.485070
O O8 0.603896 0.916401 0.750000
O O9 0.535107 0.861631 0.524441
O O10 0.644208 0.943853 0.477695
O O11 0.688800 0.846923 0.585271
O O12 0.727931 0.305232 0.750000
O O13 0.612171 0.320074 0.953576
O O14 0.735579 0.250000 0.000000
O O15 0.760121 0.356693 0.000468
O O16 0.498721 0.202796 0.250000
O O17 0.487419 0.250000 0.000000
O O18 0.718534 0.511466 0.750000
O O19 0.731094 0.464847 0.010067
O O20 0.789090 0.786242 0.750000
O O21 0.734894 0.750000 0.000000
O O22 0.776011 0.088602 0.750000
#
# Coordination Sequence:
#
# PCOD8230780 Si02
#       8
#     8   8   8   8   8   8   8   8
#     4  10  20  34  55  81 107 135 172 217 262 313
#     4   9  18  33  50  72 103 135 170 213 256 304
#     4   9  18  32  50  76 109 140 176 219 265 315
#     4  10  21  39  61  83 108 139 179 224 272 321
#     4   9  18  33  55  80 106 139 179 226 272 318
#     4  10  19  32  52  78 109 143 177 215 263 315
#     4  10  19  30  47  71 102 140 175 210 255 309
#     4  11  22  36  57  83 110 141 177 219 270 323
#
# _framework density 18.332633999999999
#
# number of rings (size 3 to 8) (size 9 to 14) (size 15 to 20)
#    0.000    2.250    1.250    1.875    0.000    3.000 
#    0.000    1.250    0.000    0.000    0.000    0.000 
#    0.000    0.000    0.000    0.000    0.000    0.000 
#
# Total GULP energy -793625.575337 kJ/mol
# GULP energy per Si atom -12400.399615 kJ/mol
# Density = 1.829091 g / cm^3
# Si number density = 18.332634 Si / 1000 Ang^3
#
#
#
# Elastic Constant Matrix: (Units=GPa)
#
#
# Indices 1 2 3 4 5 6 
#
# 1 85.9900 52.5650 39.4663 0.0000 0.0000 0.0000
# 2 52.5650 106.5010 56.9332 0.0000 0.0000 0.0000
# 3 39.4663 56.9332 95.5238 0.0000 0.0000 0.0000
# 4 0.0000 0.0000 0.0000 38.7554 0.0000 0.0000
# 5 0.0000 0.0000 0.0000 0.0000 23.4235 0.0000
# 6 0.0000 0.0000 0.0000 0.0000 0.0000 20.4523
#
#
#
# Elastic Compliance Matrix: (Units=1/GPa)
#
#
# Indices 1 2 3 4 5 6 
#
# 1 0.017223 -0.006893 -0.003008 0.000000 0.000000 0.000000
# 2 -0.006893 0.016539 -0.007009 0.000000 0.000000 0.000000
# 3 -0.003008 -0.007009 0.015889 0.000000 0.000000 0.000000
# 4 0.000000 0.000000 0.000000 0.025803 0.000000 0.000000
# 5 0.000000 0.000000 0.000000 0.000000 0.042692 0.000000
# 6 0.000000 0.000000 0.000000 0.000000 0.000000 0.048894
#
#
# Mechanical properties :
#
#
# Convention : Reuss Voigt Hill
#
# Bulk Modulus (GPa) = 63.16746 65.10489 64.13618
# Shear Modulus (GPa) = 24.25567 25.79625 25.02596
#
# Velocity S-wave (km/s) = 3.64137 3.75523 3.69874
# Velocity P-wave (km/s) = 7.22569 7.37513 7.30079
#
# Compressibility (1/GPa) = 0.01583094
#
# Stress axis : x y z
#
# Youngs Moduli (GPa) = 58.06093 60.46387 62.93689
#
# Poissons Ratio (x) = 0.41678 0.18929
# Poissons Ratio (y) = 0.40021 0.44115
# Poissons Ratio (z) = 0.17463 0.42382
#
# Static dielectric constant tensor:
#      x y z
#    x 3.529070 0.000000 0.000000 
#    y 0.000000 3.352360 0.000000 
#    z 0.000000 0.000000 3.458430 
# 
# 
# High freq. dielectric constant tensor:
#      x y z
#    x 1.700950 0.000000 0.000000 
#    y 0.000000 1.701600 0.000000 
#    z 0.000000 0.000000 1.717590 
# 
# From -- ./inp_files/7367.got.cif
#   From: 2010.03.12/outbox.cif.g09.slc.cpg/sg57_4_cif.got.tgz:7367.got - 2010.04.16 15:48:40.
