data_PCOD8230014
_publ_section_title
;
Structure prediction by ZEFSAII (Michael W. Deem and Ramdas Pophale) SiO2 
 PCOD8230014
Probable space group: P B C M
;
_chemical_formula_sum "Si O2"
_cell_formula_units_Z 44
_cell_length_a 8.801895
_cell_length_b 17.321016
_cell_length_c 14.512402
_cell_angle_alpha 90.000000
_cell_angle_beta 90.000000
_cell_angle_gamma 90.000000
_cell_volume 2212.528361
_symmetry_space_group_name_H-M "P B C M"
_symmetry_group_IT_number 57
_symmetry_cell_setting 'orthorhombic'
loop_
_space_group_symop_operation_xyz
x,y,z
-x,-y,1/2+z
x,1/2-y,-z
-x,1/2+y,1/2-z
-x,-y,-z
x,y,1/2-z
-x,1/2+y,z
x,1/2-y,1/2+z
loop_
_atom_site_type_symbol
_atom_site_label
_atom_site_fract_x
_atom_site_fract_y
_atom_site_fract_z
Si Si1 0.542318 0.610472 0.250000
Si Si2 0.988092 0.287032 0.907153
Si Si3 0.802085 0.007718 0.750000
Si Si4 0.028053 0.537764 0.099783
Si Si5 0.297843 0.348462 0.250000
Si Si6 0.264719 0.989771 0.750000
Si Si7 0.343762 0.271086 0.602524
Si Si8 0.059433 0.826383 0.250000
O O1 0.633784 0.528963 0.250000
O O2 0.365335 0.587229 0.250000
O O3 0.570497 0.659741 0.156295
O O4 0.168567 0.294742 0.898711
O O5 0.924335 0.373073 0.904312
O O6 0.910287 0.230532 0.834489
O O7 0.933067 0.250000 0.000000
O O8 0.821367 0.101644 0.750000
O O9 0.875349 0.973458 0.842399
O O10 0.165629 0.500447 0.156732
O O11 0.000000 0.500000 0.000000
O O12 0.369154 0.433764 0.250000
O O13 0.361098 0.307116 0.340399
O O14 0.113847 0.355890 0.250000
O O15 0.406044 0.250000 0.500000
#
# Coordination Sequence:
#
# PCOD8230014 Si02
#       8
#     4   8   4   8   4   4   8   4
#     4  11  22  42  59  92 125 168 210 247 316 378
#     4  10  19  32  58  91 113 148 202 252 303 356
#     4  11  20  36  60  87 122 162 204 254 314 364
#     4  11  22  38  61  89 121 156 202 261 317 357
#     4   9  18  33  55  87 121 149 202 257 300 349
#     4  11  25  39  60  88 128 156 198 257 312 375
#     4   9  19  35  63  88 117 161 212 250 292 371
#     4  10  17  32  54  84 120 153 198 253 300 350
#
# _framework density 19.886749999999999
#
# number of rings (size 3 to 8) (size 9 to 14) (size 15 to 20)
#    0.000    1.818    3.636    2.727    5.091    0.000 
#    0.000    8.182    0.000    0.000    0.000    0.000 
#    0.000    0.000    0.000    0.000    0.000    0.000 
#
# Total GULP energy -545169.691077 kJ/mol
# GULP energy per Si atom -12390.220252 kJ/mol
# Density = 1.984149 g / cm^3
# Si number density = 19.886750 Si / 1000 Ang^3
#
#
#
# Elastic Constant Matrix: (Units=GPa)
#
#
# Indices 1 2 3 4 5 6 
#
# 1 42.5651 19.5471 30.1404 0.0000 0.0000 0.0000
# 2 19.5471 167.2250 71.4159 0.0000 0.0000 0.0000
# 3 30.1404 71.4159 185.7888 0.0000 0.0000 0.0000
# 4 0.0000 0.0000 0.0000 34.0089 0.0000 0.0000
# 5 0.0000 0.0000 0.0000 0.0000 7.0736 0.0000
# 6 0.0000 0.0000 0.0000 0.0000 0.0000 27.5407
#
#
#
# Elastic Compliance Matrix: (Units=1/GPa)
#
#
# Indices 1 2 3 4 5 6 
#
# 1 0.026866 -0.001530 -0.003770 0.000000 0.000000 0.000000
# 2 -0.001530 0.007242 -0.002535 0.000000 0.000000 0.000000
# 3 -0.003770 -0.002535 0.006969 0.000000 0.000000 0.000000
# 4 0.000000 0.000000 0.000000 0.029404 0.000000 0.000000
# 5 0.000000 0.000000 0.000000 0.000000 0.141370 0.000000
# 6 0.000000 0.000000 0.000000 0.000000 0.000000 0.036310
#
#
# Mechanical properties :
#
#
# Convention : Reuss Voigt Hill
#
# Bulk Modulus (GPa) = 39.36312 70.86506 55.11409
# Shear Modulus (GPa) = 18.36209 32.02300 25.19255
#
# Velocity S-wave (km/s) = 3.04194 4.01717 3.56308
# Velocity P-wave (km/s) = 5.67225 7.56495 6.68592
#
# Compressibility (1/GPa) = 0.02540449
#
# Stress axis : x y z
#
# Youngs Moduli (GPa) = 37.22193 138.09084 143.49930
#
# Poissons Ratio (x) = 0.21131 0.54102
# Poissons Ratio (y) = 0.05696 0.36382
# Poissons Ratio (z) = 0.14033 0.35011
#
# Static dielectric constant tensor:
#      x y z
#    x 3.060310 0.000000 0.000000 
#    y 0.000000 3.756800 0.000000 
#    z 0.000000 0.000000 3.806440 
# 
# 
# High freq. dielectric constant tensor:
#      x y z
#    x 1.722160 0.000000 0.000000 
#    y 0.000000 1.796860 0.000000 
#    z 0.000000 0.000000 1.786290 
# 
# From -- ./inp_files/16271.got.cif
#   From: 2010.03.12/outbox.cif.g09.slc.cpg/sg57_9_cif.got.tgz:16271.got - 2010.04.16 15:48:40.
