data_PCOD8230719
_publ_section_title
;
Structure prediction by ZEFSAII (Michael W. Deem and Ramdas Pophale) SiO2 
 PCOD8230719
Probable space group: P B C M
;
_chemical_formula_sum "Si O2"
_cell_formula_units_Z 56
_cell_length_a 25.426716
_cell_length_b 14.216480
_cell_length_c 8.969974
_cell_angle_alpha 90.000000
_cell_angle_beta 90.000000
_cell_angle_gamma 90.000000
_cell_volume 3242.451845
_symmetry_space_group_name_H-M "P B C M"
_symmetry_group_IT_number 57
_symmetry_cell_setting 'orthorhombic'
loop_
_space_group_symop_operation_xyz
x,y,z
-x,-y,1/2+z
x,1/2-y,-z
-x,1/2+y,1/2-z
-x,-y,-z
x,y,1/2-z
-x,1/2+y,z
x,1/2-y,1/2+z
loop_
_atom_site_type_symbol
_atom_site_label
_atom_site_fract_x
_atom_site_fract_y
_atom_site_fract_z
Si Si1 0.024343 0.352935 0.425436
Si Si2 0.077893 0.975399 0.424911
Si Si3 0.378081 0.535712 0.421483
Si Si4 0.161629 0.651341 0.073054
Si Si5 0.537107 0.154980 0.574550
Si Si6 0.281191 0.844759 0.923590
Si Si7 0.418964 0.159729 0.579998
O O1 0.026804 0.250000 0.500000
O O2 0.036494 0.343530 0.250000
O O3 0.066379 0.423159 0.501154
O O4 0.967634 0.399077 0.454361
O O5 0.087429 0.990859 0.250000
O O6 0.129499 0.934541 0.503388
O O7 0.389566 0.562609 0.250000
O O8 0.425430 0.572138 0.521565
O O9 0.321029 0.572870 0.472994
O O10 0.377694 0.423885 0.444637
O O11 0.152245 0.657203 0.250000
O O12 0.221957 0.629074 0.029399
O O13 0.143806 0.750000 0.000000
O O14 0.558329 0.250000 0.500000
O O15 0.541506 0.164514 0.750000
O O16 0.477473 0.133894 0.519846
O O17 0.283576 0.825665 0.750000
O O18 0.300969 0.750000 0.000000
O O19 0.394693 0.250000 0.500000
O O20 0.425157 0.187682 0.750000
#
# Coordination Sequence:
#
# PCOD8230719 Si02
#       7
#     8   8   8   8   8   8   8
#     4  10  20  33  50  74 105 137 168 204 245 288
#     4  10  20  33  51  75 102 134 170 205 242 288
#     4  10  19  32  49  69  93 122 155 194 238 282
#     4  10  19  32  50  72  98 129 163 200 242 287
#     4  10  19  30  45  68  95 123 152 185 229 283
#     4   9  19  33  49  70  96 124 155 193 239 287
#     4   9  19  33  48  66  91 121 154 192 233 279
#
# _framework density 17.270882
#
# number of rings (size 3 to 8) (size 9 to 14) (size 15 to 20)
#    0.000    2.286    0.000    3.000    0.000    6.286 
#    0.000    0.000    0.000    0.857    0.000    2.000 
#    0.000    0.000    0.000    0.000    0.000    0.000 
#
# Total GULP energy -694382.570556 kJ/mol
# GULP energy per Si atom -12399.688760 kJ/mol
# Density = 1.723157 g / cm^3
# Si number density = 17.270882 Si / 1000 Ang^3
#
#
#
# Elastic Constant Matrix: (Units=GPa)
#
#
# Indices 1 2 3 4 5 6 
#
# 1 81.5363 62.0205 39.6633 0.0000 0.0000 0.0000
# 2 62.0205 130.2963 59.3380 0.0000 0.0000 0.0000
# 3 39.6633 59.3380 78.5086 0.0000 0.0000 0.0000
# 4 0.0000 0.0000 0.0000 33.5301 0.0000 0.0000
# 5 0.0000 0.0000 0.0000 0.0000 18.6947 0.0000
# 6 0.0000 0.0000 0.0000 0.0000 0.0000 13.8679
#
#
#
# Elastic Compliance Matrix: (Units=1/GPa)
#
#
# Indices 1 2 3 4 5 6 
#
# 1 0.020209 -0.007578 -0.004482 0.000000 0.000000 0.000000
# 2 -0.007578 0.014545 -0.007165 0.000000 0.000000 0.000000
# 3 -0.004482 -0.007165 0.020417 0.000000 0.000000 0.000000
# 4 0.000000 0.000000 0.000000 0.029824 0.000000 0.000000
# 5 0.000000 0.000000 0.000000 0.000000 0.053491 0.000000
# 6 0.000000 0.000000 0.000000 0.000000 0.000000 0.072109
#
#
# Mechanical properties :
#
#
# Convention : Reuss Voigt Hill
#
# Bulk Modulus (GPa) = 59.80485 68.04277 63.92381
# Shear Modulus (GPa) = 19.63721 21.83983 20.73852
#
# Velocity S-wave (km/s) = 3.37562 3.55990 3.46899
# Velocity P-wave (km/s) = 7.06370 7.50867 7.28958
#
# Compressibility (1/GPa) = 0.01672105
#
# Stress axis : x y z
#
# Youngs Moduli (GPa) = 49.48229 68.75270 48.97888
#
# Poissons Ratio (x) = 0.52103 0.21953
# Poissons Ratio (y) = 0.37499 0.35091
# Poissons Ratio (z) = 0.22178 0.49259
#
# Static dielectric constant tensor:
#      x y z
#    x 3.208800 0.000000 0.000000 
#    y 0.000000 3.227060 0.000000 
#    z 0.000000 0.000000 3.282630 
# 
# 
# High freq. dielectric constant tensor:
#      x y z
#    x 1.648660 0.000000 0.000000 
#    y 0.000000 1.662050 0.000000 
#    z 0.000000 0.000000 1.676290 
# 
# From -- ./inp_files/8101.got.cif
#   From: 2010.03.12/outbox.cif.g09.slc.cpg/sg57_5_cif.got.tgz:8101.got - 2010.04.16 15:48:40.
