data_PCOD8230647
_publ_section_title
;
Structure prediction by ZEFSAII (Michael W. Deem and Ramdas Pophale) SiO2 
 PCOD8230647
Probable space group: P B C M
;
_chemical_formula_sum "Si O2"
_cell_formula_units_Z 64
_cell_length_a 18.411417
_cell_length_b 24.618376
_cell_length_c 8.726176
_cell_angle_alpha 90.000000
_cell_angle_beta 90.000000
_cell_angle_gamma 90.000000
_cell_volume 3955.219434
_symmetry_space_group_name_H-M "P B C M"
_symmetry_group_IT_number 57
_symmetry_cell_setting 'orthorhombic'
loop_
_space_group_symop_operation_xyz
x,y,z
-x,-y,1/2+z
x,1/2-y,-z
-x,1/2+y,1/2-z
-x,-y,-z
x,y,1/2-z
-x,1/2+y,z
x,1/2-y,1/2+z
loop_
_atom_site_type_symbol
_atom_site_label
_atom_site_fract_x
_atom_site_fract_y
_atom_site_fract_z
Si Si1 0.262390 0.006725 0.576928
Si Si2 0.108035 0.010428 0.429098
Si Si3 0.400959 0.043185 0.077381
Si Si4 0.217627 0.805782 0.429478
Si Si5 0.676621 0.113725 0.422103
Si Si6 0.539128 0.078286 0.577650
Si Si7 0.937406 0.307416 0.568803
Si Si8 0.005126 0.586951 0.570887
O O1 0.243156 0.024365 0.750000
O O2 0.192208 0.010177 0.470567
O O3 0.324298 0.046613 0.510938
O O4 0.292356 0.946335 0.572981
O O5 0.097576 0.021806 0.250000
O O6 0.069738 0.058450 0.522937
O O7 0.072406 0.952446 0.473752
O O8 0.389184 0.063941 0.250000
O O9 0.432242 0.982827 0.076962
O O10 0.458724 0.082247 0.993758
O O11 0.247524 0.750000 0.500000
O O12 0.203421 0.799451 0.250000
O O13 0.276997 0.851345 0.459695
O O14 0.142594 0.822252 0.509446
O O15 0.681006 0.137519 0.250000
O O16 0.593194 0.115078 0.476956
O O17 0.536369 0.101113 0.750000
O O18 0.964533 0.250000 0.500000
O O19 0.936543 0.302296 0.750000
O O20 0.989961 0.356153 0.518386
O O21 0.004313 0.599598 0.750000
#
# Coordination Sequence:
#
# PCOD8230647 Si02
#       8
#     8   8   8   8   8   8   8   8
#     4  10  19  29  43  63  88 118 151 186 223 266
#     4  10  20  32  47  67  92 123 156 190 230 277
#     4   9  16  26  40  58  83 113 144 179 215 253
#     4  11  21  33  47  64  87 115 148 186 227 266
#     4  10  19  30  44  63  87 117 152 186 222 265
#     4   9  16  26  40  59  83 112 145 178 214 254
#     4  11  21  34  51  70  92 119 153 191 232 275
#     4  10  20  34  50  68  92 121 154 191 231 276
#
# _framework density 16.181149999999999
#
# number of rings (size 3 to 8) (size 9 to 14) (size 15 to 20)
#    0.000    2.000    0.000    6.000    0.000    8.000 
#    0.000    0.000    0.000    0.000    0.000    0.000 
#    0.000    1.000    0.000   10.000    0.000    6.500 
#
# Total GULP energy -793709.836795 kJ/mol
# GULP energy per Si atom -12401.716200 kJ/mol
# Density = 1.614432 g / cm^3
# Si number density = 16.181150 Si / 1000 Ang^3
#
#
#
# Elastic Constant Matrix: (Units=GPa)
#
#
# Indices 1 2 3 4 5 6 
#
# 1 76.3220 21.2775 28.9049 0.0000 0.0000 0.0000
# 2 21.2775 55.8952 33.4385 0.0000 0.0000 0.0000
# 3 28.9049 33.4385 114.5453 0.0000 0.0000 0.0000
# 4 0.0000 0.0000 0.0000 23.1822 0.0000 0.0000
# 5 0.0000 0.0000 0.0000 0.0000 27.8289 0.0000
# 6 0.0000 0.0000 0.0000 0.0000 0.0000 17.9062
#
#
#
# Elastic Compliance Matrix: (Units=1/GPa)
#
#
# Indices 1 2 3 4 5 6 
#
# 1 0.015278 -0.004252 -0.002614 0.000000 0.000000 0.000000
# 2 -0.004252 0.022859 -0.005600 0.000000 0.000000 0.000000
# 3 -0.002614 -0.005600 0.011025 0.000000 0.000000 0.000000
# 4 0.000000 0.000000 0.000000 0.043137 0.000000 0.000000
# 5 0.000000 0.000000 0.000000 0.000000 0.035934 0.000000
# 6 0.000000 0.000000 0.000000 0.000000 0.000000 0.055847
#
#
# Mechanical properties :
#
#
# Convention : Reuss Voigt Hill
#
# Bulk Modulus (GPa) = 41.27214 46.00049 43.63631
# Shear Modulus (GPa) = 23.03214 24.65956 23.84585
#
# Velocity S-wave (km/s) = 3.77688 3.90804 3.84302
# Velocity P-wave (km/s) = 6.67693 6.98955 6.83503
#
# Compressibility (1/GPa) = 0.02422942
#
# Stress axis : x y z
#
# Youngs Moduli (GPa) = 65.45469 43.74552 90.70577
#
# Poissons Ratio (x) = 0.18600 0.23711
# Poissons Ratio (y) = 0.27831 0.50798
# Poissons Ratio (z) = 0.17110 0.24499
#
# Static dielectric constant tensor:
#      x y z
#    x 3.016190 0.000000 0.000000 
#    y 0.000000 2.763610 0.000000 
#    z 0.000000 0.000000 3.271760 
# 
# 
# High freq. dielectric constant tensor:
#      x y z
#    x 1.613570 0.000000 0.000000 
#    y 0.000000 1.576260 0.000000 
#    z 0.000000 0.000000 1.646320 
# 
# From -- ./inp_files/7391.got.cif
#   From: 2010.03.12/outbox.cif.g09.slc.cpg/sg57_4_cif.got.tgz:7391.got - 2010.04.16 15:48:40.
