data_PCOD8230464
_publ_section_title
;
Structure prediction by ZEFSAII (Michael W. Deem and Ramdas Pophale) SiO2 
 PCOD8230464
Probable space group: P B C M
;
_chemical_formula_sum "Si O2"
_cell_formula_units_Z 56
_cell_length_a 7.983806
_cell_length_b 19.075808
_cell_length_c 18.151764
_cell_angle_alpha 90.000000
_cell_angle_beta 90.000000
_cell_angle_gamma 90.000000
_cell_volume 2764.469192
_symmetry_space_group_name_H-M "P B C M"
_symmetry_group_IT_number 57
_symmetry_cell_setting 'orthorhombic'
loop_
_space_group_symop_operation_xyz
x,y,z
-x,-y,1/2+z
x,1/2-y,-z
-x,1/2+y,1/2-z
-x,-y,-z
x,y,1/2-z
-x,1/2+y,z
x,1/2-y,1/2+z
loop_
_atom_site_type_symbol
_atom_site_label
_atom_site_fract_x
_atom_site_fract_y
_atom_site_fract_z
Si Si1 0.471276 0.319686 0.960042
Si Si2 0.733229 0.944371 0.562477
Si Si3 0.094113 0.837702 0.416467
Si Si4 0.171988 0.683935 0.415592
Si Si5 0.958137 0.056645 0.333197
Si Si6 0.218054 0.429286 0.391961
Si Si7 0.578151 0.412864 0.091507
O O1 0.327226 0.364098 0.917898
O O2 0.629750 0.296234 0.911522
O O3 0.395781 0.250000 0.000000
O O4 0.548397 0.378733 0.012466
O O5 0.776461 0.953724 0.476873
O O6 0.894472 0.960505 0.610748
O O7 0.598205 0.003338 0.584357
O O8 0.081218 0.756369 0.395854
O O9 0.110505 0.845773 0.505211
O O10 0.253810 0.875931 0.376274
O O11 0.923142 0.869776 0.384842
O O12 0.131245 0.629517 0.351972
O O13 0.026091 0.060315 0.250000
O O14 0.823417 0.994739 0.340272
O O15 0.401407 0.400392 0.365027
#
# Coordination Sequence:
#
# PCOD8230464 Si02
#       7
#     8   8   8   8   8   8   8
#     4  10  18  32  58  95 124 145 194 264 314 356
#     4  11  21  35  61  88 121 157 204 258 309 352
#     4  10  18  35  64  94 118 150 195 257 304 359
#     4  10  19  37  57  90 127 151 195 248 312 361
#     4  12  25  39  57  86 127 169 205 245 307 380
#     4  11  20  37  65  88 117 155 204 259 302 348
#     4  10  19  34  56  94 116 149 197 259 307 349
#
# _framework density 20.257052000000002
#
# number of rings (size 3 to 8) (size 9 to 14) (size 15 to 20)
#    0.000    1.429    5.714    4.714    0.000    2.286 
#    0.000    3.571    0.000    0.000    0.000    0.000 
#    0.000    0.000    0.000    0.000    0.000    0.000 
#
# Total GULP energy -693945.105253 kJ/mol
# GULP energy per Si atom -12391.876880 kJ/mol
# Density = 2.021095 g / cm^3
# Si number density = 20.257052 Si / 1000 Ang^3
#
#
#
# Elastic Constant Matrix: (Units=GPa)
#
#
# Indices 1 2 3 4 5 6 
#
# 1 122.3112 52.6673 0.9824 0.0000 0.0000 0.0000
# 2 52.6673 142.8655 13.8507 0.0000 0.0000 0.0000
# 3 0.9824 13.8507 34.5485 0.0000 0.0000 0.0000
# 4 0.0000 0.0000 0.0000 9.4148 0.0000 0.0000
# 5 0.0000 0.0000 0.0000 0.0000 2.2560 0.0000
# 6 0.0000 0.0000 0.0000 0.0000 0.0000 37.4856
#
#
#
# Elastic Compliance Matrix: (Units=1/GPa)
#
#
# Indices 1 2 3 4 5 6 
#
# 1 0.009767 -0.003718 0.001213 0.000000 0.000000 0.000000
# 2 -0.003718 0.008698 -0.003381 0.000000 0.000000 0.000000
# 3 0.001213 -0.003381 0.030266 0.000000 0.000000 0.000000
# 4 0.000000 0.000000 0.000000 0.106216 0.000000 0.000000
# 5 0.000000 0.000000 0.000000 0.000000 0.443254 0.000000
# 6 0.000000 0.000000 0.000000 0.000000 0.000000 0.026677
#
#
# Mechanical properties :
#
#
# Convention : Reuss Voigt Hill
#
# Bulk Modulus (GPa) = 27.05785 48.30286 37.68036
# Shear Modulus (GPa) = 7.70451 25.31295 16.50873
#
# Velocity S-wave (km/s) = 1.95234 3.53878 2.85785
# Velocity P-wave (km/s) = 4.29749 6.37135 5.43427
#
# Compressibility (1/GPa) = 0.03695785
#
# Stress axis : x y z
#
# Youngs Moduli (GPa) = 102.38337 114.96697 33.04045
#
# Poissons Ratio (x) = 0.42748 -0.04008
# Poissons Ratio (y) = 0.38069 0.11172
# Poissons Ratio (z) = -0.12419 0.38875
#
# Static dielectric constant tensor:
#      x y z
#    x 4.220900 0.000000 0.000000 
#    y 0.000000 3.922470 0.000000 
#    z 0.000000 0.000000 2.962620 
# 
# 
# High freq. dielectric constant tensor:
#      x y z
#    x 1.808280 0.000000 0.000000 
#    y 0.000000 1.809700 0.000000 
#    z 0.000000 0.000000 1.704080 
# 
# From -- ./inp_files/24539.got.cif
#   From: 2010.03.12/outbox.cif.g09.slc.cpg/sg57_13_cif.got.tgz:24539.got - 2010.04.16 15:48:40.
