data_PCOD8230047
_publ_section_title
;
Structure prediction by ZEFSAII (Michael W. Deem and Ramdas Pophale) SiO2 
 PCOD8230047
Probable space group: P B C M
;
_chemical_formula_sum "Si O2"
_cell_formula_units_Z 40
_cell_length_a 7.485454
_cell_length_b 18.440458
_cell_length_c 14.196493
_cell_angle_alpha 90.000000
_cell_angle_beta 90.000000
_cell_angle_gamma 90.000000
_cell_volume 1959.615752
_symmetry_space_group_name_H-M "P B C M"
_symmetry_group_IT_number 57
_symmetry_cell_setting 'orthorhombic'
loop_
_space_group_symop_operation_xyz
x,y,z
-x,-y,1/2+z
x,1/2-y,-z
-x,1/2+y,1/2-z
-x,-y,-z
x,y,1/2-z
-x,1/2+y,z
x,1/2-y,1/2+z
loop_
_atom_site_type_symbol
_atom_site_label
_atom_site_fract_x
_atom_site_fract_y
_atom_site_fract_z
Si Si1 0.491691 0.391364 0.034912
Si Si2 0.130682 0.168726 0.983546
Si Si3 0.161286 0.604562 0.854275
Si Si4 0.978114 0.539541 0.097915
Si Si5 0.622191 0.466171 0.643011
O O1 0.341868 0.328969 0.041119
O O2 0.677301 0.366554 0.081140
O O3 0.410089 0.456876 0.094907
O O4 0.525444 0.408141 0.924498
O O5 0.022331 0.135385 0.896103
O O6 0.062203 0.250000 0.000000
O O7 0.105470 0.119012 0.077819
O O8 0.187972 0.636094 0.750000
O O9 0.154421 0.515765 0.846866
O O10 0.166249 0.549225 0.149805
O O11 0.000000 0.500000 0.000000
O O12 0.545847 0.463082 0.750000
#
# Coordination Sequence:
#
# PCOD8230047 Si02
#       5
#     8   8   8   8   8
#     4  11  21  38  62  93 126 160 206 260 320 371
#     4  11  24  42  63  86 129 176 205 253 317 379
#     4  11  22  40  69  97 122 162 215 262 314 371
#     4  10  17  38  63  90 120 161 205 261 311 360
#     4  11  20  35  64  95 125 156 205 267 319 371
#
# _framework density 20.412165999999999
#
# number of rings (size 3 to 8) (size 9 to 14) (size 15 to 20)
#    0.000    1.200    8.000    2.400    0.000    1.600 
#    0.000    4.000    0.000    0.000    0.000    0.000 
#    0.000    0.000    0.000    0.000    0.000    0.000 
#
# Total GULP energy -495735.550067 kJ/mol
# GULP energy per Si atom -12393.388752 kJ/mol
# Density = 2.036571 g / cm^3
# Si number density = 20.412166 Si / 1000 Ang^3
#
#
#
# Elastic Constant Matrix: (Units=GPa)
#
#
# Indices 1 2 3 4 5 6 
#
# 1 109.8157 20.0324 34.6304 0.0000 0.0000 0.0000
# 2 20.0324 87.9468 23.6272 0.0000 0.0000 0.0000
# 3 34.6304 23.6272 145.1676 0.0000 0.0000 0.0000
# 4 0.0000 0.0000 0.0000 8.5673 0.0000 0.0000
# 5 0.0000 0.0000 0.0000 0.0000 15.3844 0.0000
# 6 0.0000 0.0000 0.0000 0.0000 0.0000 20.2945
#
#
#
# Elastic Compliance Matrix: (Units=1/GPa)
#
#
# Indices 1 2 3 4 5 6 
#
# 1 0.010092 -0.001727 -0.002126 0.000000 0.000000 0.000000
# 2 -0.001727 0.012186 -0.001571 0.000000 0.000000 0.000000
# 3 -0.002126 -0.001571 0.007652 0.000000 0.000000 0.000000
# 4 0.000000 0.000000 0.000000 0.116723 0.000000 0.000000
# 5 0.000000 0.000000 0.000000 0.000000 0.065001 0.000000
# 6 0.000000 0.000000 0.000000 0.000000 0.000000 0.049274
#
#
# Mechanical properties :
#
#
# Convention : Reuss Voigt Hill
#
# Bulk Modulus (GPa) = 52.41255 55.50113 53.95684
# Shear Modulus (GPa) = 17.97671 26.49192 22.23432
#
# Velocity S-wave (km/s) = 2.97086 3.60648 3.30399
# Velocity P-wave (km/s) = 6.12379 6.67769 6.40673
#
# Compressibility (1/GPa) = 0.01907940
#
# Stress axis : x y z
#
# Youngs Moduli (GPa) = 99.09020 82.06053 130.69219
#
# Poissons Ratio (x) = 0.14176 0.27789
# Poissons Ratio (y) = 0.17117 0.20536
# Poissons Ratio (z) = 0.21069 0.12894
#
# Static dielectric constant tensor:
#      x y z
#    x 4.052730 0.000000 0.000000 
#    y 0.000000 3.725150 0.000000 
#    z 0.000000 0.000000 3.845640 
# 
# 
# High freq. dielectric constant tensor:
#      x y z
#    x 1.814160 0.000000 0.000000 
#    y 0.000000 1.746530 0.000000 
#    z 0.000000 0.000000 1.789850 
# 
# From -- ./inp_files/16127.got.cif
#   From: 2010.03.12/outbox.cif.g09.slc.cpg/sg57_9_cif.got.tgz:16127.got - 2010.04.16 15:48:40.
