data_PCOD8230473
_publ_section_title
;
Structure prediction by ZEFSAII (Michael W. Deem and Ramdas Pophale) SiO2 
 PCOD8230473
Probable space group: P B C M
;
_chemical_formula_sum "Si O2"
_cell_formula_units_Z 48
_cell_length_a 9.270368
_cell_length_b 16.567313
_cell_length_c 16.610280
_cell_angle_alpha 90.000000
_cell_angle_beta 90.000000
_cell_angle_gamma 90.000000
_cell_volume 2551.091320
_symmetry_space_group_name_H-M "P B C M"
_symmetry_group_IT_number 57
_symmetry_cell_setting 'orthorhombic'
loop_
_space_group_symop_operation_xyz
x,y,z
-x,-y,1/2+z
x,1/2-y,-z
-x,1/2+y,1/2-z
-x,-y,-z
x,y,1/2-z
-x,1/2+y,z
x,1/2-y,1/2+z
loop_
_atom_site_type_symbol
_atom_site_label
_atom_site_fract_x
_atom_site_fract_y
_atom_site_fract_z
Si Si1 0.326562 0.446938 0.156496
Si Si2 0.851058 0.706220 0.843549
Si Si3 0.408101 0.641993 0.900367
Si Si4 0.164636 0.742994 0.843382
Si Si5 0.426554 0.289981 0.843561
Si Si6 0.654118 0.386211 0.583513
O O1 0.298612 0.461779 0.250000
O O2 0.225017 0.374762 0.121992
O O3 0.495787 0.425872 0.143512
O O4 0.283310 0.527251 0.108616
O O5 0.875236 0.690969 0.750000
O O6 0.745634 0.783909 0.857996
O O7 0.006664 0.725127 0.881793
O O8 0.258929 0.661232 0.853431
O O9 0.498181 0.724773 0.901373
O O10 0.371367 0.612741 0.989122
O O11 0.155646 0.767800 0.750000
O O12 0.231748 0.817364 0.892541
O O13 0.462351 0.270476 0.750000
O O14 0.499236 0.374257 0.870113
#
# Coordination Sequence:
#
# PCOD8230473 Si02
#       6
#     8   8   8   8   8   8
#     4  10  19  35  54  73  97 133 171 208 250 300
#     4   8  17  32  52  72  96 130 171 205 243 299
#     4  10  19  32  49  73 102 132 163 200 248 305
#     4  10  18  33  53  73  97 134 173 207 245 300
#     4   9  16  31  52  74  97 132 174 211 247 297
#     4  11  20  31  50  79 105 127 163 215 258 291
#
# _framework density 18.815477000000001
#
# number of rings (size 3 to 8) (size 9 to 14) (size 15 to 20)
#    0.000    2.333    0.000    7.500    0.000    0.000 
#    0.000    9.167    0.000    4.000    0.000    0.000 
#    0.000    0.000    0.000    0.000    0.000    0.000 
#
# Total GULP energy -594845.103450 kJ/mol
# GULP energy per Si atom -12392.606322 kJ/mol
# Density = 1.877265 g / cm^3
# Si number density = 18.815477 Si / 1000 Ang^3
#
#
#
# Elastic Constant Matrix: (Units=GPa)
#
#
# Indices 1 2 3 4 5 6 
#
# 1 137.8482 36.6832 11.3904 0.0000 0.0000 0.0000
# 2 36.6832 70.4826 4.2979 0.0000 0.0000 0.0000
# 3 11.3904 4.2979 45.6468 0.0000 0.0000 0.0000
# 4 0.0000 0.0000 0.0000 17.7972 0.0000 0.0000
# 5 0.0000 0.0000 0.0000 0.0000 6.1962 0.0000
# 6 0.0000 0.0000 0.0000 0.0000 0.0000 18.6876
#
#
#
# Elastic Compliance Matrix: (Units=1/GPa)
#
#
# Indices 1 2 3 4 5 6 
#
# 1 0.008554 -0.004347 -0.001725 0.000000 0.000000 0.000000
# 2 -0.004347 0.016479 -0.000467 0.000000 0.000000 0.000000
# 3 -0.001725 -0.000467 0.022382 0.000000 0.000000 0.000000
# 4 0.000000 0.000000 0.000000 0.056189 0.000000 0.000000
# 5 0.000000 0.000000 0.000000 0.000000 0.161390 0.000000
# 6 0.000000 0.000000 0.000000 0.000000 0.000000 0.053512
#
#
# Mechanical properties :
#
#
# Convention : Reuss Voigt Hill
#
# Bulk Modulus (GPa) = 29.12341 39.85785 34.49063
# Shear Modulus (GPa) = 14.57609 21.97658 18.27634
#
# Velocity S-wave (km/s) = 2.78634 3.42132 3.12002
# Velocity P-wave (km/s) = 5.08563 6.06933 5.59912
#
# Compressibility (1/GPa) = 0.03433664
#
# Stress axis : x y z
#
# Youngs Moduli (GPa) = 116.90997 60.68477 44.67916
#
# Poissons Ratio (x) = 0.26377 0.07708
# Poissons Ratio (y) = 0.50816 0.02086
# Poissons Ratio (z) = 0.20169 0.02834
#
# Static dielectric constant tensor:
#      x y z
#    x 3.813070 0.000000 0.000000 
#    y 0.000000 3.379240 0.000000 
#    z 0.000000 0.000000 3.233400 
# 
# 
# High freq. dielectric constant tensor:
#      x y z
#    x 1.727270 0.000000 0.000000 
#    y 0.000000 1.706690 0.000000 
#    z 0.000000 0.000000 1.720770 
# 
# From -- ./inp_files/16325.got.cif
#   From: 2010.03.12/outbox.cif.g09.slc.cpg/sg57_9_cif.got.tgz:16325.got - 2010.04.16 15:48:40.
