data_PCOD8230993
_publ_section_title
;
Structure prediction by ZEFSAII (Michael W. Deem and Ramdas Pophale) SiO2 
 PCOD8230993
Probable space group: P B C M
;
_chemical_formula_sum "Si O2"
_cell_formula_units_Z 48
_cell_length_a 14.836145
_cell_length_b 20.556931
_cell_length_c 8.781705
_cell_angle_alpha 90.000000
_cell_angle_beta 90.000000
_cell_angle_gamma 90.000000
_cell_volume 2678.293648
_symmetry_space_group_name_H-M "P B C M"
_symmetry_group_IT_number 57
_symmetry_cell_setting 'orthorhombic'
loop_
_space_group_symop_operation_xyz
x,y,z
-x,-y,1/2+z
x,1/2-y,-z
-x,1/2+y,1/2-z
-x,-y,-z
x,y,1/2-z
-x,1/2+y,z
x,1/2-y,1/2+z
loop_
_atom_site_type_symbol
_atom_site_label
_atom_site_fract_x
_atom_site_fract_y
_atom_site_fract_z
Si Si1 0.120812 0.814565 0.429956
Si Si2 0.721083 0.014666 0.569987
Si Si3 0.077546 0.957314 0.071615
Si Si4 0.499747 0.184792 0.423664
Si Si5 0.565249 0.945998 0.430133
Si Si6 0.699071 0.351668 0.923272
O O1 0.072667 0.750000 0.500000
O O2 0.119005 0.809303 0.250000
O O3 0.073174 0.881805 0.484747
O O4 0.224131 0.813906 0.484348
O O5 0.707050 0.013775 0.750000
O O6 0.826646 0.011169 0.526119
O O7 0.677756 0.080121 0.503855
O O8 0.667188 0.955508 0.492784
O O9 0.063967 0.958653 0.250000
O O10 0.000000 0.000000 0.000000
O O11 0.460433 0.250000 0.500000
O O12 0.465261 0.178417 0.250000
O O13 0.464585 0.125282 0.522563
O O14 0.607875 0.189448 0.427596
O O15 0.563613 0.953328 0.250000
O O16 0.500000 0.000000 0.500000
O O17 0.731675 0.363171 0.750000
#
# Coordination Sequence:
#
# PCOD8230993 Si02
#       6
#     8   8   8   8   8   8
#     4  10  20  33  50  76 109 142 177 217 268 325
#     4  10  20  35  55  80 110 141 180 227 273 322
#     4   9  20  36  56  82 110 141 177 223 273 324
#     4  11  23  36  51  75 108 146 188 230 276 324
#     4  12  23  36  56  80 108 145 188 229 270 320
#     4  10  19  31  50  76 107 143 180 215 265 323
#
# _framework density 17.921858
#
# number of rings (size 3 to 8) (size 9 to 14) (size 15 to 20)
#    0.000    1.667    1.667    5.000    0.000    7.333 
#    0.000    0.000    0.000    1.000    0.000    2.333 
#    0.000    0.000    0.000    0.000    0.000    0.000 
#
# Total GULP energy -595160.947104 kJ/mol
# GULP energy per Si atom -12399.186398 kJ/mol
# Density = 1.788107 g / cm^3
# Si number density = 17.921858 Si / 1000 Ang^3
#
#
#
# Elastic Constant Matrix: (Units=GPa)
#
#
# Indices 1 2 3 4 5 6 
#
# 1 72.0005 51.6110 32.7557 0.0000 0.0000 0.0000
# 2 51.6110 127.6119 41.1779 0.0000 0.0000 0.0000
# 3 32.7557 41.1779 97.3086 0.0000 0.0000 0.0000
# 4 0.0000 0.0000 0.0000 34.2474 0.0000 0.0000
# 5 0.0000 0.0000 0.0000 0.0000 28.4999 0.0000
# 6 0.0000 0.0000 0.0000 0.0000 0.0000 46.2019
#
#
#
# Elastic Compliance Matrix: (Units=1/GPa)
#
#
# Indices 1 2 3 4 5 6 
#
# 1 0.020815 -0.007131 -0.003989 0.000000 0.000000 0.000000
# 2 -0.007131 0.011519 -0.002474 0.000000 0.000000 0.000000
# 3 -0.003989 -0.002474 0.012666 0.000000 0.000000 0.000000
# 4 0.000000 0.000000 0.000000 0.029199 0.000000 0.000000
# 5 0.000000 0.000000 0.000000 0.000000 0.035088 0.000000
# 6 0.000000 0.000000 0.000000 0.000000 0.000000 0.021644
#
#
# Mechanical properties :
#
#
# Convention : Reuss Voigt Hill
#
# Bulk Modulus (GPa) = 56.14230 60.89003 58.51616
# Shear Modulus (GPa) = 30.47715 33.21492 31.84604
#
# Velocity S-wave (km/s) = 4.12826 4.30969 4.21995
# Velocity P-wave (km/s) = 7.35646 7.66900 7.51436
#
# Compressibility (1/GPa) = 0.01781188
#
# Stress axis : x y z
#
# Youngs Moduli (GPa) = 48.04135 86.81544 78.95018
#
# Poissons Ratio (x) = 0.61911 0.31494
# Poissons Ratio (y) = 0.34260 0.19531
# Poissons Ratio (z) = 0.19164 0.21477
#
# Static dielectric constant tensor:
#      x y z
#    x 3.226340 0.000000 0.000000 
#    y 0.000000 3.502190 0.000000 
#    z 0.000000 0.000000 3.448700 
# 
# 
# High freq. dielectric constant tensor:
#      x y z
#    x 1.658490 0.000000 0.000000 
#    y 0.000000 1.694780 0.000000 
#    z 0.000000 0.000000 1.710360 
# 
# From -- ./inp_files/4901.got.cif
#   From: 2010.03.12/outbox.cif.g09.slc.cpg/sg57_3_cif.got.tgz:4901.got - 2010.04.16 15:48:40.
