data_PCOD8230125
_publ_section_title
;
Structure prediction by ZEFSAII (Michael W. Deem and Ramdas Pophale) SiO2 
 PCOD8230125
Probable space group: P B C M
;
_chemical_formula_sum "Si O2"
_cell_formula_units_Z 64
_cell_length_a 14.150582
_cell_length_b 18.151663
_cell_length_c 14.505692
_cell_angle_alpha 90.000000
_cell_angle_beta 90.000000
_cell_angle_gamma 90.000000
_cell_volume 3725.882666
_symmetry_space_group_name_H-M "P B C M"
_symmetry_group_IT_number 57
_symmetry_cell_setting 'orthorhombic'
loop_
_space_group_symop_operation_xyz
x,y,z
-x,-y,1/2+z
x,1/2-y,-z
-x,1/2+y,1/2-z
-x,-y,-z
x,y,1/2-z
-x,1/2+y,z
x,1/2-y,1/2+z
loop_
_atom_site_type_symbol
_atom_site_label
_atom_site_fract_x
_atom_site_fract_y
_atom_site_fract_z
Si Si1 0.659261 0.725056 0.399902
Si Si2 0.544944 0.635470 0.647288
Si Si3 0.043868 0.363434 0.355641
Si Si4 0.855424 0.436107 0.354836
Si Si5 0.639180 0.925085 0.526919
Si Si6 0.643480 0.065199 0.854800
Si Si7 0.139503 0.425540 0.522713
Si Si8 0.132209 0.210562 0.351789
O O1 0.693592 0.750000 0.500000
O O2 0.580266 0.780489 0.360827
O O3 0.611366 0.644155 0.407262
O O4 0.755045 0.724489 0.341126
O O5 0.570482 0.606562 0.750000
O O6 0.590742 0.580640 0.572954
O O7 0.430818 0.632298 0.633055
O O8 0.075308 0.379396 0.250000
O O9 0.091172 0.424458 0.422190
O O10 0.078653 0.283297 0.387788
O O11 0.929804 0.369246 0.365389
O O12 0.856697 0.466792 0.250000
O O13 0.749610 0.407729 0.379951
O O14 0.888389 0.500933 0.422787
O O15 0.749627 0.921601 0.508058
O O16 0.609667 0.999491 0.578215
O O17 0.642029 0.035142 0.750000
O O18 0.104520 0.355290 0.580774
O O19 0.094854 0.190503 0.250000
#
# Coordination Sequence:
#
# PCOD8230125 Si02
#       8
#     8   8   8   8   8   8   8   8
#     4   9  17  28  43  66  93 118 141 173 219 266
#     4  10  18  28  44  67  93 119 144 176 218 262
#     4  10  19  29  44  66  92 118 144 178 220 262
#     4   9  18  32  47  65  87 115 152 186 214 250
#     4   9  18  30  46  67  92 117 142 178 220 263
#     4   9  18  31  47  65  86 116 153 185 214 249
#     4  10  18  30  47  67  91 117 143 177 220 265
#     4  10  18  28  45  69  93 116 141 175 220 267
#
# _framework density 17.177137999999999
#
# number of rings (size 3 to 8) (size 9 to 14) (size 15 to 20)
#    0.000    2.500    0.000    4.125    0.000    5.000 
#    0.000    0.000    0.000    4.500    0.000    0.000 
#    0.000   14.000    0.000    0.000    0.000    0.000 
#
# Total GULP energy -793223.743165 kJ/mol
# GULP energy per Si atom -12394.120987 kJ/mol
# Density = 1.713804 g / cm^3
# Si number density = 17.177138 Si / 1000 Ang^3
#
#
#
# Elastic Constant Matrix: (Units=GPa)
#
#
# Indices 1 2 3 4 5 6 
#
# 1 73.4761 47.1724 32.6425 0.0000 0.0000 0.0000
# 2 47.1724 62.5332 20.2213 0.0000 0.0000 0.0000
# 3 32.6425 20.2213 76.7224 0.0000 0.0000 0.0000
# 4 0.0000 0.0000 0.0000 19.0514 0.0000 0.0000
# 5 0.0000 0.0000 0.0000 0.0000 22.6381 0.0000
# 6 0.0000 0.0000 0.0000 0.0000 0.0000 24.8732
#
#
#
# Elastic Compliance Matrix: (Units=1/GPa)
#
#
# Indices 1 2 3 4 5 6 
#
# 1 0.029777 -0.020077 -0.007377 0.000000 0.000000 0.000000
# 2 -0.020077 0.031018 0.000367 0.000000 0.000000 0.000000
# 3 -0.007377 0.000367 0.016076 0.000000 0.000000 0.000000
# 4 0.000000 0.000000 0.000000 0.052489 0.000000 0.000000
# 5 0.000000 0.000000 0.000000 0.000000 0.044173 0.000000
# 6 0.000000 0.000000 0.000000 0.000000 0.000000 0.040204
#
#
# Mechanical properties :
#
#
# Convention : Reuss Voigt Hill
#
# Bulk Modulus (GPa) = 44.06062 45.86713 44.96388
# Shear Modulus (GPa) = 18.15024 20.82557 19.48791
#
# Velocity S-wave (km/s) = 3.25414 3.48573 3.37193
# Velocity P-wave (km/s) = 6.31076 6.55445 6.43376
#
# Compressibility (1/GPa) = 0.02269600
#
# Stress axis : x y z
#
# Youngs Moduli (GPa) = 33.58306 32.23924 62.20386
#
# Poissons Ratio (x) = 0.64726 0.45890
# Poissons Ratio (y) = 0.67424 -0.02281
# Poissons Ratio (z) = 0.24776 -0.01182
#
# Static dielectric constant tensor:
#      x y z
#    x 3.180570 0.000000 0.000000 
#    y 0.000000 3.178030 0.000000 
#    z 0.000000 0.000000 3.325540 
# 
# 
# High freq. dielectric constant tensor:
#      x y z
#    x 1.651970 0.000000 0.000000 
#    y 0.000000 1.636060 0.000000 
#    z 0.000000 0.000000 1.674330 
# 
# From -- ./inp_files/18700.got.cif
#   From: 2010.03.12/outbox.cif.g09.slc.cpg/sg57_10_cif.got.tgz:18700.got - 2010.04.16 15:48:40.
