data_PCOD8230904
_publ_section_title
;
Structure prediction by ZEFSAII (Michael W. Deem and Ramdas Pophale) SiO2 
 PCOD8230904
Probable space group: P B C M
;
_chemical_formula_sum "Si O2"
_cell_formula_units_Z 64
_cell_length_a 15.684330
_cell_length_b 24.613303
_cell_length_c 9.067863
_cell_angle_alpha 90.000000
_cell_angle_beta 90.000000
_cell_angle_gamma 90.000000
_cell_volume 3500.586547
_symmetry_space_group_name_H-M "P B C M"
_symmetry_group_IT_number 57
_symmetry_cell_setting 'orthorhombic'
loop_
_space_group_symop_operation_xyz
x,y,z
-x,-y,1/2+z
x,1/2-y,-z
-x,1/2+y,1/2-z
-x,-y,-z
x,y,1/2-z
-x,1/2+y,z
x,1/2-y,1/2+z
loop_
_atom_site_type_symbol
_atom_site_label
_atom_site_fract_x
_atom_site_fract_y
_atom_site_fract_z
Si Si1 0.443763 0.422146 0.077155
Si Si2 0.374073 0.306956 0.424056
Si Si3 0.045607 0.547737 0.418516
Si Si4 0.851650 0.302310 0.924152
Si Si5 0.994080 0.846488 0.421892
Si Si6 0.621718 0.475453 0.077509
Si Si7 0.228855 0.917168 0.915598
Si Si8 0.816834 0.696730 0.580378
O O1 0.424404 0.426061 0.250000
O O2 0.428637 0.359681 0.023406
O O3 0.539793 0.438916 0.036489
O O4 0.380777 0.465378 0.999377
O O5 0.403532 0.250000 0.500000
O O6 0.384086 0.298113 0.250000
O O7 0.277013 0.322124 0.472277
O O8 0.012932 0.555168 0.250000
O O9 0.147905 0.542317 0.418093
O O10 0.000000 0.500000 0.500000
O O11 0.021829 0.595878 0.524011
O O12 0.856547 0.295055 0.750000
O O13 0.798536 0.356429 0.965681
O O14 0.806266 0.250000 0.000000
O O15 0.948315 0.303843 0.987472
O O16 0.013665 0.838037 0.250000
O O17 0.892368 0.845344 0.453769
O O18 0.627898 0.486097 0.250000
O O19 0.702313 0.440771 0.026788
O O20 0.266898 0.915183 0.750000
O O21 0.847609 0.750000 0.500000
O O22 0.810680 0.711376 0.750000
#
# Coordination Sequence:
#
# PCOD8230904 Si02
#       8
#     8   8   8   8   8   8   8   8
#     4   9  19  36  56  78 107 139 168 207 263 317
#     4   9  18  34  53  74 104 139 171 206 252 306
#     4  10  21  36  52  72 100 134 171 210 256 307
#     4  10  20  34  52  74 100 135 177 218 266 318
#     4  10  19  31  48  71  99 132 171 212 253 301
#     4  10  20  34  56  83 105 131 174 220 258 306
#     4   9  20  37  54  74 104 139 171 211 266 319
#     4   9  18  30  46  69  96 128 164 200 240 289
#
# _framework density 18.282651000000001
#
# number of rings (size 3 to 8) (size 9 to 14) (size 15 to 20)
#    0.000    2.500    0.000    2.625    0.000    7.000 
#    0.000    3.125    0.000    3.000    0.000    0.000 
#    0.000    0.000    0.000    0.000    0.000    0.000 
#
# Total GULP energy -793118.042979 kJ/mol
# GULP energy per Si atom -12392.469422 kJ/mol
# Density = 1.824104 g / cm^3
# Si number density = 18.282651 Si / 1000 Ang^3
#
#
#
# Elastic Constant Matrix: (Units=GPa)
#
#
# Indices 1 2 3 4 5 6 
#
# 1 72.2587 53.0766 35.1352 0.0000 0.0000 0.0000
# 2 53.0766 123.0437 44.8295 0.0000 0.0000 0.0000
# 3 35.1352 44.8295 54.1567 0.0000 0.0000 0.0000
# 4 0.0000 0.0000 0.0000 34.9461 0.0000 0.0000
# 5 0.0000 0.0000 0.0000 0.0000 23.1099 0.0000
# 6 0.0000 0.0000 0.0000 0.0000 0.0000 21.0210
#
#
#
# Elastic Compliance Matrix: (Units=1/GPa)
#
#
# Indices 1 2 3 4 5 6 
#
# 1 0.023383 -0.006529 -0.009766 0.000000 0.000000 0.000000
# 2 -0.006529 0.013459 -0.006906 0.000000 0.000000 0.000000
# 3 -0.009766 -0.006906 0.030517 0.000000 0.000000 0.000000
# 4 0.000000 0.000000 0.000000 0.028615 0.000000 0.000000
# 5 0.000000 0.000000 0.000000 0.000000 0.043272 0.000000
# 6 0.000000 0.000000 0.000000 0.000000 0.000000 0.047571
#
#
# Mechanical properties :
#
#
# Convention : Reuss Voigt Hill
#
# Bulk Modulus (GPa) = 47.71222 57.28239 52.49730
# Shear Modulus (GPa) = 20.81544 23.57659 22.19602
#
# Velocity S-wave (km/s) = 3.37788 3.59494 3.48810
# Velocity P-wave (km/s) = 6.43172 6.97360 6.70813
#
# Compressibility (1/GPa) = 0.02095899
#
# Stress axis : x y z
#
# Youngs Moduli (GPa) = 42.76547 74.29731 32.76810
#
# Poissons Ratio (x) = 0.48505 0.32002
# Poissons Ratio (y) = 0.27919 0.22629
# Poissons Ratio (z) = 0.41766 0.51309
#
# Static dielectric constant tensor:
#      x y z
#    x 2.971650 0.000000 0.000000 
#    y 0.000000 3.006240 0.000000 
#    z 0.000000 0.000000 3.391790 
# 
# 
# High freq. dielectric constant tensor:
#      x y z
#    x 1.694560 0.000000 0.000000 
#    y 0.000000 1.709510 0.000000 
#    z 0.000000 0.000000 1.713750 
# 
# From -- ./inp_files/5626.got.cif
#   From: 2010.03.12/outbox.cif.g09.slc.cpg/sg57_3_cif.got.tgz:5626.got - 2010.04.16 15:48:40.
