data_PCOD8230628
_publ_section_title
;
Structure prediction by ZEFSAII (Michael W. Deem and Ramdas Pophale) SiO2 
 PCOD8230628
Probable space group: P B C M
;
_chemical_formula_sum "Si O2"
_cell_formula_units_Z 64
_cell_length_a 22.332493
_cell_length_b 18.383884
_cell_length_c 9.154199
_cell_angle_alpha 90.000000
_cell_angle_beta 90.000000
_cell_angle_gamma 90.000000
_cell_volume 3758.329274
_symmetry_space_group_name_H-M "P B C M"
_symmetry_group_IT_number 57
_symmetry_cell_setting 'orthorhombic'
loop_
_space_group_symop_operation_xyz
x,y,z
-x,-y,1/2+z
x,1/2-y,-z
-x,1/2+y,1/2-z
-x,-y,-z
x,y,1/2-z
-x,1/2+y,z
x,1/2-y,1/2+z
loop_
_atom_site_type_symbol
_atom_site_label
_atom_site_fract_x
_atom_site_fract_y
_atom_site_fract_z
Si Si1 0.229802 0.674157 0.921214
Si Si2 0.896363 0.395370 0.081466
Si Si3 0.584960 0.188400 0.408879
Si Si4 0.980266 0.676611 0.919145
Si Si5 0.060105 0.476644 0.421115
Si Si6 0.594517 0.519797 0.415126
Si Si7 0.503656 0.606725 0.586151
Si Si8 0.317243 0.568611 0.413567
O O1 0.246972 0.680183 0.750000
O O2 0.160339 0.655986 0.943655
O O3 0.244633 0.750000 0.000000
O O4 0.265862 0.608684 0.995714
O O5 0.904179 0.417353 0.250000
O O6 0.954147 0.349949 0.026599
O O7 0.888574 0.471657 0.991561
O O8 0.620860 0.250000 0.500000
O O9 0.567997 0.218943 0.250000
O O10 0.523700 0.173560 0.496176
O O11 0.625633 0.118940 0.392584
O O12 0.983270 0.696560 0.750000
O O13 0.932270 0.610704 0.947314
O O14 0.959740 0.750000 0.000000
O O15 0.055784 0.493182 0.250000
O O16 0.000000 0.500000 0.500000
O O17 0.609111 0.544887 0.250000
O O18 0.565125 0.584678 0.507032
O O19 0.546413 0.455535 0.411536
O O20 0.657631 0.499335 0.493247
O O21 0.519866 0.630571 0.750000
O O22 0.294480 0.546108 0.250000
#
# Coordination Sequence:
#
# PCOD8230628 Si02
#       8
#     8   8   8   8   8   8   8   8
#     4  11  22  34  47  64  88 118 155 195 229 264
#     4   9  19  33  46  63  88 119 156 192 226 266
#     4  10  19  29  41  58  82 112 144 177 214 258
#     4   9  17  28  43  66  92 117 147 182 221 267
#     4   9  17  29  45  65  89 117 150 185 223 268
#     4   9  16  27  43  61  81 105 135 172 214 256
#     4   9  16  26  41  60  81 105 134 169 210 257
#     4  10  20  32  45  61  83 113 149 185 221 260
#
# _framework density 17.028842999999998
#
# number of rings (size 3 to 8) (size 9 to 14) (size 15 to 20)
#    0.000    2.500    0.000    3.750    0.000    9.000 
#    0.000    0.000    0.000    0.000    0.000    0.000 
#    0.000    1.000    0.000    7.000    0.000    6.375 
#
# Total GULP energy -793102.695948 kJ/mol
# GULP energy per Si atom -12392.229624 kJ/mol
# Density = 1.699008 g / cm^3
# Si number density = 17.028843 Si / 1000 Ang^3
#
#
#
# Elastic Constant Matrix: (Units=GPa)
#
#
# Indices 1 2 3 4 5 6 
#
# 1 29.3554 4.0991 17.1245 0.0000 0.0000 0.0000
# 2 4.0991 50.1180 27.7159 0.0000 0.0000 0.0000
# 3 17.1245 27.7159 125.0039 0.0000 0.0000 0.0000
# 4 0.0000 0.0000 0.0000 30.5005 0.0000 0.0000
# 5 0.0000 0.0000 0.0000 0.0000 18.1781 0.0000
# 6 0.0000 0.0000 0.0000 0.0000 0.0000 18.9161
#
#
#
# Elastic Compliance Matrix: (Units=1/GPa)
#
#
# Indices 1 2 3 4 5 6 
#
# 1 0.037027 -0.000254 -0.005016 0.000000 0.000000 0.000000
# 2 -0.000254 0.022743 -0.005008 0.000000 0.000000 0.000000
# 3 -0.005016 -0.005008 0.009797 0.000000 0.000000 0.000000
# 4 0.000000 0.000000 0.000000 0.032786 0.000000 0.000000
# 5 0.000000 0.000000 0.000000 0.000000 0.055011 0.000000
# 6 0.000000 0.000000 0.000000 0.000000 0.000000 0.052865
#
#
# Mechanical properties :
#
#
# Convention : Reuss Voigt Hill
#
# Bulk Modulus (GPa) = 20.40365 33.59514 26.99940
# Shear Modulus (GPa) = 20.23284 23.88814 22.06049
#
# Velocity S-wave (km/s) = 3.45070 3.74947 3.60318
# Velocity P-wave (km/s) = 5.28055 6.20612 5.76195
#
# Compressibility (1/GPa) = 0.04901084
#
# Stress axis : x y z
#
# Youngs Moduli (GPa) = 27.00739 43.96938 102.06987
#
# Poissons Ratio (x) = 0.01119 0.51198
# Poissons Ratio (y) = 0.00687 0.51114
# Poissons Ratio (z) = 0.13547 0.22019
#
# Static dielectric constant tensor:
#      x y z
#    x 2.965520 0.000000 0.000000 
#    y 0.000000 3.301980 0.000000 
#    z 0.000000 0.000000 3.561260 
# 
# 
# High freq. dielectric constant tensor:
#      x y z
#    x 1.610500 0.000000 0.000000 
#    y 0.000000 1.633120 0.000000 
#    z 0.000000 0.000000 1.679070 
# 
# From -- ./inp_files/8753.got.cif
#   From: 2010.03.12/outbox.cif.g09.slc.cpg/sg57_5_cif.got.tgz:8753.got - 2010.04.16 15:48:40.
