data_PCOD8230146
_publ_section_title
;
Structure prediction by ZEFSAII (Michael W. Deem and Ramdas Pophale) SiO2 
 PCOD8230146
Probable space group: P B C M
;
_chemical_formula_sum "Si O2"
_cell_formula_units_Z 64
_cell_length_a 16.668795
_cell_length_b 23.913427
_cell_length_c 8.805893
_cell_angle_alpha 90.000000
_cell_angle_beta 90.000000
_cell_angle_gamma 90.000000
_cell_volume 3510.099506
_symmetry_space_group_name_H-M "P B C M"
_symmetry_group_IT_number 57
_symmetry_cell_setting 'orthorhombic'
loop_
_space_group_symop_operation_xyz
x,y,z
-x,-y,1/2+z
x,1/2-y,-z
-x,1/2+y,1/2-z
-x,-y,-z
x,y,1/2-z
-x,1/2+y,z
x,1/2-y,1/2+z
loop_
_atom_site_type_symbol
_atom_site_label
_atom_site_fract_x
_atom_site_fract_y
_atom_site_fract_z
Si Si1 0.429572 0.189003 0.428803
Si Si2 0.180906 0.472062 0.070100
Si Si3 0.877490 0.693509 0.078426
Si Si4 0.413816 0.810470 0.428244
Si Si5 0.142339 0.917749 0.070393
Si Si6 0.027824 0.414843 0.574876
Si Si7 0.763837 0.189994 0.927527
Si Si8 0.729001 0.623889 0.070457
O O1 0.413899 0.250000 0.500000
O O2 0.436142 0.196610 0.250000
O O3 0.510456 0.158407 0.493156
O O4 0.357518 0.147588 0.473377
O O5 0.172666 0.468836 0.250000
O O6 0.195727 0.535512 0.014689
O O7 0.099027 0.451961 0.991490
O O8 0.256295 0.434928 0.014451
O O9 0.859218 0.709183 0.250000
O O10 0.950474 0.650380 0.061778
O O11 0.795995 0.667425 0.008904
O O12 0.904773 0.750000 0.000000
O O13 0.417927 0.750000 0.500000
O O14 0.429187 0.808232 0.250000
O O15 0.325441 0.834119 0.467371
O O16 0.152434 0.924742 0.250000
O O17 0.173563 0.856784 0.016212
O O18 0.050493 0.925661 0.023796
O O19 0.013032 0.432017 0.750000
O O20 0.770758 0.200311 0.750000
O O21 0.782985 0.250000 0.000000
O O22 0.739904 0.613978 0.250000
#
# Coordination Sequence:
#
# PCOD8230146 Si02
#       8
#     8   8   8   8   8   8   8   8
#     4  10  18  28  47  76 107 138 171 206 248 295
#     4  11  22  36  55  77  99 129 168 210 254 296
#     4   9  18  31  47  67  97 134 166 199 242 292
#     4   9  16  29  48  72 102 134 168 204 245 293
#     4  11  22  37  56  77 100 129 166 207 253 302
#     4  10  21  37  53  73 101 133 169 210 253 296
#     4   9  20  36  55  78 105 136 166 203 252 301
#     4   9  19  34  49  70 102 137 170 207 249 293
#
# _framework density 18.233101000000001
#
# number of rings (size 3 to 8) (size 9 to 14) (size 15 to 20)
#    0.000    2.250    0.000    4.875    0.000    5.500 
#    0.000    2.500    0.000    0.750    0.000    0.000 
#    0.000    0.000    0.000    0.000    0.000    0.000 
#
# Total GULP energy -793357.582595 kJ/mol
# GULP energy per Si atom -12396.212228 kJ/mol
# Density = 1.819160 g / cm^3
# Si number density = 18.233101 Si / 1000 Ang^3
#
#
#
# Elastic Constant Matrix: (Units=GPa)
#
#
# Indices 1 2 3 4 5 6 
#
# 1 72.6964 27.6554 24.7491 0.0000 0.0000 0.0000
# 2 27.6554 99.1176 36.0478 0.0000 0.0000 0.0000
# 3 24.7491 36.0478 72.3405 0.0000 0.0000 0.0000
# 4 0.0000 0.0000 0.0000 28.0391 0.0000 0.0000
# 5 0.0000 0.0000 0.0000 0.0000 27.0208 0.0000
# 6 0.0000 0.0000 0.0000 0.0000 0.0000 18.3887
#
#
#
# Elastic Compliance Matrix: (Units=1/GPa)
#
#
# Indices 1 2 3 4 5 6 
#
# 1 0.016304 -0.003078 -0.004044 0.000000 0.000000 0.000000
# 2 -0.003078 0.012903 -0.005377 0.000000 0.000000 0.000000
# 3 -0.004044 -0.005377 0.017886 0.000000 0.000000 0.000000
# 4 0.000000 0.000000 0.000000 0.035664 0.000000 0.000000
# 5 0.000000 0.000000 0.000000 0.000000 0.037008 0.000000
# 6 0.000000 0.000000 0.000000 0.000000 0.000000 0.054381
#
#
# Mechanical properties :
#
#
# Convention : Reuss Voigt Hill
#
# Bulk Modulus (GPa) = 45.25797 46.78433 46.02115
# Shear Modulus (GPa) = 24.21189 25.06988 24.64089
#
# Velocity S-wave (km/s) = 3.64800 3.71208 3.68018
# Velocity P-wave (km/s) = 6.52837 6.63983 6.58434
#
# Compressibility (1/GPa) = 0.02209556
#
# Stress axis : x y z
#
# Youngs Moduli (GPa) = 61.33615 77.49930 55.90893
#
# Poissons Ratio (x) = 0.23856 0.22609
# Poissons Ratio (y) = 0.18881 0.30060
# Poissons Ratio (z) = 0.24803 0.41669
#
# Static dielectric constant tensor:
#      x y z
#    x 3.898940 0.000000 0.000000 
#    y 0.000000 3.371070 0.000000 
#    z 0.000000 0.000000 3.411760 
# 
# 
# High freq. dielectric constant tensor:
#      x y z
#    x 1.702590 0.000000 0.000000 
#    y 0.000000 1.688230 0.000000 
#    z 0.000000 0.000000 1.713050 
# 
# From -- ./inp_files/7427.got.cif
#   From: 2010.03.12/outbox.cif.g09.slc.cpg/sg57_4_cif.got.tgz:7427.got - 2010.04.16 15:48:40.
