data_PCOD8230909
_publ_section_title
;
Structure prediction by ZEFSAII (Michael W. Deem and Ramdas Pophale) SiO2 
 PCOD8230909
Probable space group: P B C M
;
_chemical_formula_sum "Si O2"
_cell_formula_units_Z 64
_cell_length_a 16.204099
_cell_length_b 24.141104
_cell_length_c 8.991473
_cell_angle_alpha 90.000000
_cell_angle_beta 90.000000
_cell_angle_gamma 90.000000
_cell_volume 3517.327920
_symmetry_space_group_name_H-M "P B C M"
_symmetry_group_IT_number 57
_symmetry_cell_setting 'orthorhombic'
loop_
_space_group_symop_operation_xyz
x,y,z
-x,-y,1/2+z
x,1/2-y,-z
-x,1/2+y,1/2-z
-x,-y,-z
x,y,1/2-z
-x,1/2+y,z
x,1/2-y,1/2+z
loop_
_atom_site_type_symbol
_atom_site_label
_atom_site_fract_x
_atom_site_fract_y
_atom_site_fract_z
Si Si1 0.049335 0.917936 0.074260
Si Si2 0.892296 0.537561 0.075814
Si Si3 0.560672 0.541905 0.924397
Si Si4 0.857505 0.191797 0.923317
Si Si5 0.332529 0.807573 0.424704
Si Si6 0.518348 0.358387 0.920148
Si Si7 0.646106 0.695886 0.416588
Si Si8 0.287086 0.078840 0.425534
O O1 0.042003 0.913970 0.250000
O O2 0.090910 0.860875 0.014029
O O3 0.102013 0.972676 0.028379
O O4 0.958741 0.924059 0.006254
O O5 0.908250 0.543576 0.250000
O O6 0.804561 0.561818 0.028065
O O7 0.563366 0.532151 0.750000
O O8 0.500000 0.500000 0.000000
O O9 0.526293 0.601196 0.966798
O O10 0.652657 0.535609 0.991394
O O11 0.873881 0.200703 0.750000
O O12 0.762200 0.176311 0.953388
O O13 0.882665 0.250000 0.000000
O O14 0.353384 0.750000 0.500000
O O15 0.353639 0.805756 0.250000
O O16 0.391219 0.849674 0.511811
O O17 0.527494 0.380675 0.750000
O O18 0.454480 0.306808 0.921591
O O19 0.677919 0.750000 0.500000
O O20 0.677321 0.703079 0.250000
O O21 0.691670 0.641073 0.481074
O O22 0.302878 0.073218 0.250000
#
# Coordination Sequence:
#
# PCOD8230909 Si02
#       8
#     8   8   8   8   8   8   8   8
#     4   9  18  34  55  79 104 131 169 215 259 309
#     4   9  18  34  57  80 104 135 169 210 261 313
#     4  11  22  36  53  74 102 136 172 210 256 307
#     4   9  19  34  51  74 106 141 176 216 264 317
#     4  10  19  31  48  72 101 135 174 214 258 305
#     4  10  20  34  50  71  99 132 173 218 260 305
#     4   9  18  31  48  69  96 130 168 209 251 301
#     4   9  19  36  54  75 104 136 171 212 259 311
#
# _framework density 18.195632
#
# number of rings (size 3 to 8) (size 9 to 14) (size 15 to 20)
#    0.000    2.500    0.000    3.000    0.000    6.000 
#    0.000    3.125    0.000    3.000    0.000    0.000 
#    0.000    0.000    0.000    0.000    0.000    0.000 
#
# Total GULP energy -793208.304296 kJ/mol
# GULP energy per Si atom -12393.879755 kJ/mol
# Density = 1.815422 g / cm^3
# Si number density = 18.195632 Si / 1000 Ang^3
#
#
#
# Elastic Constant Matrix: (Units=GPa)
#
#
# Indices 1 2 3 4 5 6 
#
# 1 134.9346 72.9151 50.6622 0.0000 0.0000 0.0000
# 2 72.9151 97.2415 37.3907 0.0000 0.0000 0.0000
# 3 50.6622 37.3907 68.3158 0.0000 0.0000 0.0000
# 4 0.0000 0.0000 0.0000 30.4985 0.0000 0.0000
# 5 0.0000 0.0000 0.0000 0.0000 30.7778 0.0000
# 6 0.0000 0.0000 0.0000 0.0000 0.0000 25.8262
#
#
#
# Elastic Compliance Matrix: (Units=1/GPa)
#
#
# Indices 1 2 3 4 5 6 
#
# 1 0.014130 -0.008316 -0.005927 0.000000 0.000000 0.000000
# 2 -0.008316 0.017919 -0.003640 0.000000 0.000000 0.000000
# 3 -0.005927 -0.003640 0.021026 0.000000 0.000000 0.000000
# 4 0.000000 0.000000 0.000000 0.032788 0.000000 0.000000
# 5 0.000000 0.000000 0.000000 0.000000 0.032491 0.000000
# 6 0.000000 0.000000 0.000000 0.000000 0.000000 0.038720
#
#
# Mechanical properties :
#
#
# Convention : Reuss Voigt Hill
#
# Bulk Modulus (GPa) = 57.77736 69.15863 63.46800
# Shear Modulus (GPa) = 25.17470 26.72211 25.94840
#
# Velocity S-wave (km/s) = 3.72366 3.83639 3.78044
# Velocity P-wave (km/s) = 7.09294 7.59702 7.34930
#
# Compressibility (1/GPa) = 0.01730782
#
# Stress axis : x y z
#
# Youngs Moduli (GPa) = 70.76983 55.80578 47.56053
#
# Poissons Ratio (x) = 0.46410 0.28190
# Poissons Ratio (y) = 0.58854 0.17314
# Poissons Ratio (z) = 0.41946 0.20315
#
# Static dielectric constant tensor:
#      x y z
#    x 3.425070 0.000000 0.000000 
#    y 0.000000 3.198790 0.000000 
#    z 0.000000 0.000000 3.269170 
# 
# 
# High freq. dielectric constant tensor:
#      x y z
#    x 1.698990 0.000000 0.000000 
#    y 0.000000 1.698510 0.000000 
#    z 0.000000 0.000000 1.703830 
# 
# From -- ./inp_files/5622.got.cif
#   From: 2010.03.12/outbox.cif.g09.slc.cpg/sg57_3_cif.got.tgz:5622.got - 2010.04.16 15:48:40.
