data_PCOD8230033
_publ_section_title
;
Structure prediction by ZEFSAII (Michael W. Deem and Ramdas Pophale) SiO2 
 PCOD8230033
Probable space group: P B C M
;
_chemical_formula_sum "Si O2"
_cell_formula_units_Z 44
_cell_length_a 6.993411
_cell_length_b 23.555405
_cell_length_c 13.937961
_cell_angle_alpha 90.000000
_cell_angle_beta 90.000000
_cell_angle_gamma 90.000000
_cell_volume 2296.036951
_symmetry_space_group_name_H-M "P B C M"
_symmetry_group_IT_number 57
_symmetry_cell_setting 'orthorhombic'
loop_
_space_group_symop_operation_xyz
x,y,z
-x,-y,1/2+z
x,1/2-y,-z
-x,1/2+y,1/2-z
-x,-y,-z
x,y,1/2-z
-x,1/2+y,z
x,1/2-y,1/2+z
loop_
_atom_site_type_symbol
_atom_site_label
_atom_site_fract_x
_atom_site_fract_y
_atom_site_fract_z
Si Si1 0.204296 0.312896 0.250000
Si Si2 0.828957 0.820378 0.750000
Si Si3 0.037522 0.498180 0.887938
Si Si4 0.599048 0.123114 0.750000
Si Si5 0.428859 0.618265 0.250000
Si Si6 0.893831 0.379158 0.887842
Si Si7 0.060901 0.623360 0.886092
Si Si8 0.375758 0.004134 0.250000
O O1 0.208585 0.245840 0.250000
O O2 0.420378 0.335065 0.250000
O O3 0.094331 0.332614 0.346258
O O4 0.627353 0.850596 0.750000
O O5 0.943355 0.838840 0.655367
O O6 0.917839 0.444397 0.850683
O O7 0.981754 0.561287 0.851585
O O8 0.252625 0.488049 0.848465
O O9 0.000000 0.500000 0.000000
O O10 0.526688 0.057917 0.750000
O O11 0.729882 0.135432 0.657076
O O12 0.312628 0.637836 0.345412
O O13 0.458360 0.550455 0.250000
O O14 0.910712 0.371565 0.000847
#
# Coordination Sequence:
#
# PCOD8230033 Si02
#       8
#     4   4   8   4   4   8   8   4
#     4  11  24  40  62  77 114 165 197 242 290 352
#     4  11  24  41  56  86 115 155 208 237 287 359
#     4   9  17  35  60  88 120 149 187 240 293 362
#     4   9  21  37  57  91 120 150 199 237 290 355
#     4  11  22  34  61  90 120 155 193 248 297 353
#     4  10  21  39  61  88 119 154 190 246 303 345
#     4   9  21  40  60  87 119 151 193 244 295 352
#     4  10  17  34  56  88 125 153 187 242 298 355
#
# _framework density 19.163454999999999
#
# number of rings (size 3 to 8) (size 9 to 14) (size 15 to 20)
#    0.000    2.182    1.818    1.091    2.545    5.091 
#    0.000    2.727    0.000    0.000    0.000    0.000 
#    0.000    0.000    0.000    0.000    0.000    0.000 
#
# Total GULP energy -545085.369778 kJ/mol
# GULP energy per Si atom -12388.303859 kJ/mol
# Density = 1.911984 g / cm^3
# Si number density = 19.163455 Si / 1000 Ang^3
#
#
#
# Elastic Constant Matrix: (Units=GPa)
#
#
# Indices 1 2 3 4 5 6 
#
# 1 132.6872 63.9921 59.1158 0.0000 0.0000 0.0000
# 2 63.9921 122.0903 38.7553 0.0000 0.0000 0.0000
# 3 59.1158 38.7553 150.0902 0.0000 0.0000 0.0000
# 4 0.0000 0.0000 0.0000 19.1521 0.0000 0.0000
# 5 0.0000 0.0000 0.0000 0.0000 9.9019 0.0000
# 6 0.0000 0.0000 0.0000 0.0000 0.0000 12.5274
#
#
#
# Elastic Compliance Matrix: (Units=1/GPa)
#
#
# Indices 1 2 3 4 5 6 
#
# 1 0.011335 -0.004928 -0.003192 0.000000 0.000000 0.000000
# 2 -0.004928 0.011064 -0.000916 0.000000 0.000000 0.000000
# 3 -0.003192 -0.000916 0.008156 0.000000 0.000000 0.000000
# 4 0.000000 0.000000 0.000000 0.052214 0.000000 0.000000
# 5 0.000000 0.000000 0.000000 0.000000 0.100990 0.000000
# 6 0.000000 0.000000 0.000000 0.000000 0.000000 0.079825
#
#
# Mechanical properties :
#
#
# Convention : Reuss Voigt Hill
#
# Bulk Modulus (GPa) = 80.10311 80.95491 80.52901
# Shear Modulus (GPa) = 17.49360 24.51659 21.00510
#
# Velocity S-wave (km/s) = 3.02464 3.58067 3.31433
# Velocity P-wave (km/s) = 7.35450 7.70915 7.53391
#
# Compressibility (1/GPa) = 0.01248391
#
# Stress axis : x y z
#
# Youngs Moduli (GPa) = 88.21932 90.38022 122.60192
#
# Poissons Ratio (x) = 0.44539 0.39137
# Poissons Ratio (y) = 0.43474 0.11230
# Poissons Ratio (z) = 0.28161 0.08279
#
# Static dielectric constant tensor:
#      x y z
#    x 3.358840 0.000000 0.000000 
#    y 0.000000 3.863170 0.000000 
#    z 0.000000 0.000000 2.968220 
# 
# 
# High freq. dielectric constant tensor:
#      x y z
#    x 1.732970 0.000000 0.000000 
#    y 0.000000 1.743480 0.000000 
#    z 0.000000 0.000000 1.750390 
# 
# From -- ./inp_files/15076.got.cif
#   From: 2010.03.12/outbox.cif.g09.slc.cpg/sg57_8_cif.got.tgz:15076.got - 2010.04.16 15:48:40.
