data_PCOD8230524
_publ_section_title
;
Structure prediction by ZEFSAII (Michael W. Deem and Ramdas Pophale) SiO2 
 PCOD8230524
Probable space group: P B C M
;
_chemical_formula_sum "Si O2"
_cell_formula_units_Z 56
_cell_length_a 10.213347
_cell_length_b 20.674114
_cell_length_c 14.039351
_cell_angle_alpha 90.000000
_cell_angle_beta 90.000000
_cell_angle_gamma 90.000000
_cell_volume 2964.435641
_symmetry_space_group_name_H-M "P B C M"
_symmetry_group_IT_number 57
_symmetry_cell_setting 'orthorhombic'
loop_
_space_group_symop_operation_xyz
x,y,z
-x,-y,1/2+z
x,1/2-y,-z
-x,1/2+y,1/2-z
-x,-y,-z
x,y,1/2-z
-x,1/2+y,z
x,1/2-y,1/2+z
loop_
_atom_site_type_symbol
_atom_site_label
_atom_site_fract_x
_atom_site_fract_y
_atom_site_fract_z
Si Si1 0.993919 0.351135 0.452909
Si Si2 0.425141 0.608262 0.143266
Si Si3 0.700690 0.642534 0.355646
Si Si4 0.230109 0.060058 0.971086
Si Si5 0.263164 0.581247 0.522997
Si Si6 0.054634 0.282143 0.858874
Si Si7 0.514337 0.540649 0.860096
O O1 0.852021 0.379468 0.425247
O O2 0.103658 0.404389 0.427206
O O3 0.989400 0.331168 0.564978
O O4 0.021787 0.290894 0.384803
O O5 0.366566 0.612961 0.250000
O O6 0.546532 0.657955 0.128968
O O7 0.480704 0.536152 0.121862
O O8 0.314308 0.624520 0.066327
O O9 0.719189 0.613432 0.250000
O O10 0.749424 0.586161 0.423366
O O11 0.787426 0.707536 0.368364
O O12 0.201779 0.983965 0.978697
O O13 0.358638 0.074169 0.907358
O O14 0.381442 0.568257 0.595148
O O15 0.008143 0.297022 0.750000
O O16 0.514998 0.558974 0.750000
#
# Coordination Sequence:
#
# PCOD8230524 Si02
#       7
#     8   8   8   8   8   8   8
#     4  10  22  35  57  80 107 144 185 223 272 327
#     4   9  16  29  52  81 110 141 177 217 264 320
#     4   9  15  29  57  81  99 135 188 230 261 307
#     4  10  18  34  53  82 114 144 173 217 267 330
#     4  11  19  32  52  85 117 143 170 219 275 333
#     4   9  20  39  57  73 100 143 189 232 268 307
#     4  10  19  31  50  78 116 149 174 210 269 329
#
# _framework density 18.890612000000001
#
# number of rings (size 3 to 8) (size 9 to 14) (size 15 to 20)
#    0.000    2.286    2.857    1.286    0.000    1.714 
#    0.000    0.000    6.286    5.143    0.000    0.000 
#    0.000    0.000    0.000    0.000    0.000    0.000 
#
# Total GULP energy -694090.340052 kJ/mol
# GULP energy per Si atom -12394.470358 kJ/mol
# Density = 1.884762 g / cm^3
# Si number density = 18.890612 Si / 1000 Ang^3
#
#
#
# Elastic Constant Matrix: (Units=GPa)
#
#
# Indices 1 2 3 4 5 6 
#
# 1 130.7646 44.4194 35.9014 0.0000 0.0000 0.0000
# 2 44.4194 52.5771 16.2593 0.0000 0.0000 0.0000
# 3 35.9014 16.2593 79.7295 0.0000 0.0000 0.0000
# 4 0.0000 0.0000 0.0000 18.1065 0.0000 0.0000
# 5 0.0000 0.0000 0.0000 0.0000 19.0602 0.0000
# 6 0.0000 0.0000 0.0000 0.0000 0.0000 29.9748
#
#
#
# Elastic Compliance Matrix: (Units=1/GPa)
#
#
# Indices 1 2 3 4 5 6 
#
# 1 0.011539 -0.008690 -0.003424 0.000000 0.000000 0.000000
# 2 -0.008690 0.026844 -0.001561 0.000000 0.000000 0.000000
# 3 -0.003424 -0.001561 0.014403 0.000000 0.000000 0.000000
# 4 0.000000 0.000000 0.000000 0.055229 0.000000 0.000000
# 5 0.000000 0.000000 0.000000 0.000000 0.052465 0.000000
# 6 0.000000 0.000000 0.000000 0.000000 0.000000 0.033361
#
#
# Mechanical properties :
#
#
# Convention : Reuss Voigt Hill
#
# Bulk Modulus (GPa) = 39.31500 50.69240 45.00370
# Shear Modulus (GPa) = 21.77031 24.52771 23.14901
#
# Velocity S-wave (km/s) = 3.39844 3.60725 3.50440
# Velocity P-wave (km/s) = 6.02132 6.65151 6.34425
#
# Compressibility (1/GPa) = 0.02543558
#
# Stress axis : x y z
#
# Youngs Moduli (GPa) = 86.66059 37.25194 69.43220
#
# Poissons Ratio (x) = 0.32372 0.23773
# Poissons Ratio (y) = 0.75309 0.10841
# Poissons Ratio (z) = 0.29671 0.05816
#
# Static dielectric constant tensor:
#      x y z
#    x 3.529090 0.000000 0.000000 
#    y 0.000000 3.155120 0.000000 
#    z 0.000000 0.000000 3.559410 
# 
# 
# High freq. dielectric constant tensor:
#      x y z
#    x 1.733380 0.000000 0.000000 
#    y 0.000000 1.694460 0.000000 
#    z 0.000000 0.000000 1.738680 
# 
# From -- ./inp_files/16740.got.cif
#   From: 2010.03.12/outbox.cif.g09.slc.cpg/sg57_9_cif.got.tgz:16740.got - 2010.04.16 15:48:40.
