data_PCOD8230365
_publ_section_title
;
Structure prediction by ZEFSAII (Michael W. Deem and Ramdas Pophale) SiO2 
 PCOD8230365
Probable space group: P B C M
;
_chemical_formula_sum "Si O2"
_cell_formula_units_Z 64
_cell_length_a 10.814968
_cell_length_b 33.197137
_cell_length_c 9.228035
_cell_angle_alpha 90.000000
_cell_angle_beta 90.000000
_cell_angle_gamma 90.000000
_cell_volume 3313.104257
_symmetry_space_group_name_H-M "P B C M"
_symmetry_group_IT_number 57
_symmetry_cell_setting 'orthorhombic'
loop_
_space_group_symop_operation_xyz
x,y,z
-x,-y,1/2+z
x,1/2-y,-z
-x,1/2+y,1/2-z
-x,-y,-z
x,y,1/2-z
-x,1/2+y,z
x,1/2-y,1/2+z
loop_
_atom_site_type_symbol
_atom_site_label
_atom_site_fract_x
_atom_site_fract_y
_atom_site_fract_z
Si Si1 0.241639 0.827261 0.077910
Si Si2 0.743992 0.567089 0.911107
Si Si3 0.625712 0.495725 0.079408
Si Si4 0.239206 0.584137 0.920933
Si Si5 0.499562 0.709490 0.578365
Si Si6 0.266555 0.343320 0.078830
Si Si7 0.025644 0.207380 0.923094
Si Si8 0.010379 0.539651 0.909133
O O1 0.241194 0.828075 0.250000
O O2 0.265200 0.871993 0.011595
O O3 0.361676 0.802552 0.023431
O O4 0.108766 0.809863 0.025102
O O5 0.681719 0.561799 0.750000
O O6 0.716635 0.610931 0.980657
O O7 0.889634 0.565892 0.892159
O O8 0.713023 0.530713 0.018622
O O9 0.614543 0.501413 0.250000
O O10 0.664184 0.450420 0.035884
O O11 0.500000 0.500000 0.000000
O O12 0.234455 0.589892 0.750000
O O13 0.108275 0.569362 0.983338
O O14 0.537775 0.750000 0.500000
O O15 0.500864 0.715478 0.750000
O O16 0.607276 0.678636 0.530317
O O17 0.256735 0.346230 0.250000
O O18 0.139739 0.321423 0.024714
O O19 0.028246 0.213140 0.750000
O O20 0.046016 0.250000 0.000000
O O21 0.059777 0.526290 0.750000
O O22 0.000000 0.500000 0.000000
#
# Coordination Sequence:
#
# PCOD8230365 Si02
#       8
#     8   8   8   8   8   8   8   8
#     4   9  18  32  54  80 104 137 181 221 260 315
#     4  10  20  35  57  81 108 142 183 229 271 318
#     4  11  23  37  55  78 109 147 187 228 272 323
#     4   9  18  33  54  78 105 141 182 221 261 317
#     4  10  20  35  56  79 105 136 174 218 267 324
#     4   9  19  34  55  81 107 141 183 221 261 319
#     4  10  19  34  56  81 108 139 177 222 271 326
#     4  10  18  31  52  78 106 136 174 221 268 314
#
# _framework density 19.317231
#
# number of rings (size 3 to 8) (size 9 to 14) (size 15 to 20)
#    0.000    2.250    1.250    1.875    1.750    3.000 
#    0.000    1.250    0.000    4.500    0.000    0.000 
#    0.000    0.000    0.000    0.000    0.000    0.000 
#
# Total GULP energy -792960.490334 kJ/mol
# GULP energy per Si atom -12390.007661 kJ/mol
# Density = 1.927326 g / cm^3
# Si number density = 19.317231 Si / 1000 Ang^3
#
#
#
# Elastic Constant Matrix: (Units=GPa)
#
#
# Indices 1 2 3 4 5 6 
#
# 1 91.3488 6.0570 13.1594 0.0000 0.0000 0.0000
# 2 6.0570 108.6454 23.7819 0.0000 0.0000 0.0000
# 3 13.1594 23.7819 37.1872 0.0000 0.0000 0.0000
# 4 0.0000 0.0000 0.0000 28.0459 0.0000 0.0000
# 5 0.0000 0.0000 0.0000 0.0000 17.1581 0.0000
# 6 0.0000 0.0000 0.0000 0.0000 0.0000 31.8518
#
#
#
# Elastic Compliance Matrix: (Units=1/GPa)
#
#
# Indices 1 2 3 4 5 6 
#
# 1 0.011543 0.000291 -0.004271 0.000000 0.000000 0.000000
# 2 0.000291 0.010710 -0.006952 0.000000 0.000000 0.000000
# 3 -0.004271 -0.006952 0.032849 0.000000 0.000000 0.000000
# 4 0.000000 0.000000 0.000000 0.035656 0.000000 0.000000
# 5 0.000000 0.000000 0.000000 0.000000 0.058282 0.000000
# 6 0.000000 0.000000 0.000000 0.000000 0.000000 0.031395
#
#
# Mechanical properties :
#
#
# Convention : Reuss Voigt Hill
#
# Bulk Modulus (GPa) = 30.08651 35.90865 32.99758
# Shear Modulus (GPa) = 23.43268 28.35669 25.89469
#
# Velocity S-wave (km/s) = 3.48666 3.83554 3.66525
# Velocity P-wave (km/s) = 5.64073 6.18421 5.91871
#
# Compressibility (1/GPa) = 0.03323749
#
# Stress axis : x y z
#
# Youngs Moduli (GPa) = 86.63256 93.37226 30.44279
#
# Poissons Ratio (x) = -0.02721 0.13002
# Poissons Ratio (y) = -0.02524 0.21165
# Poissons Ratio (z) = 0.37001 0.64915
#
# Static dielectric constant tensor:
#      x y z
#    x 4.064610 0.000000 0.000000 
#    y 0.000000 4.228380 0.000000 
#    z 0.000000 0.000000 3.092730 
# 
# 
# High freq. dielectric constant tensor:
#      x y z
#    x 1.768790 0.000000 0.000000 
#    y 0.000000 1.765980 0.000000 
#    z 0.000000 0.000000 1.701180 
# 
# From -- ./inp_files/3730.got.cif
#   From: 2010.03.12/outbox.cif.g09.slc.cpg/sg57_2_cif.got.tgz:3730.got - 2010.04.16 15:48:40.
