data_PCOD8230302
_publ_section_title
;
Structure prediction by ZEFSAII (Michael W. Deem and Ramdas Pophale) SiO2 
 PCOD8230302
Probable space group: P B C M
;
_chemical_formula_sum "Si O2"
_cell_formula_units_Z 64
_cell_length_a 11.277949
_cell_length_b 17.985602
_cell_length_c 15.606191
_cell_angle_alpha 90.000000
_cell_angle_beta 90.000000
_cell_angle_gamma 90.000000
_cell_volume 3165.570739
_symmetry_space_group_name_H-M "P B C M"
_symmetry_group_IT_number 57
_symmetry_cell_setting 'orthorhombic'
loop_
_space_group_symop_operation_xyz
x,y,z
-x,-y,1/2+z
x,1/2-y,-z
-x,1/2+y,1/2-z
-x,-y,-z
x,y,1/2-z
-x,1/2+y,z
x,1/2-y,1/2+z
loop_
_atom_site_type_symbol
_atom_site_label
_atom_site_fract_x
_atom_site_fract_y
_atom_site_fract_z
Si Si1 0.190929 0.727591 0.844979
Si Si2 0.174673 0.076773 0.351885
Si Si3 0.464492 0.439204 0.432550
Si Si4 0.341723 0.182030 0.452357
Si Si5 0.283581 0.922318 0.147595
Si Si6 0.079172 0.625416 0.350676
Si Si7 0.409313 0.708373 0.086733
Si Si8 0.675845 0.060766 0.150999
O O1 0.140930 0.716717 0.750000
O O2 0.199254 0.645332 0.887952
O O3 0.326823 0.758148 0.838650
O O4 0.111439 0.792217 0.891264
O O5 0.179331 0.078404 0.250000
O O6 0.255555 0.142480 0.386885
O O7 0.042339 0.091337 0.388062
O O8 0.224961 0.998536 0.386946
O O9 0.500000 0.500000 0.500000
O O10 0.397592 0.370725 0.475338
O O11 0.582448 0.411079 0.384514
O O12 0.372281 0.478019 0.366611
O O13 0.273689 0.250000 0.500000
O O14 0.450247 0.219318 0.398480
O O15 0.286402 0.921152 0.250000
O O16 0.064492 0.638080 0.250000
O O17 0.183247 0.565868 0.368575
O O18 0.389259 0.618715 0.086591
O O19 0.366997 0.750000 0.000000
O O20 0.649371 0.081379 0.250000
#
# Coordination Sequence:
#
# PCOD8230302 Si02
#       8
#     8   8   8   8   8   8   8   8
#     4   9  18  32  53  81 112 139 183 240 281 329
#     4  10  20  37  59  79 107 150 196 232 277 340
#     4  12  21  36  56  83 116 151 177 235 296 343
#     4  11  23  37  53  78 117 150 184 227 289 347
#     4  10  19  32  56  87 111 143 191 234 279 339
#     4   8  17  36  58  80 108 148 195 239 275 324
#     4  10  18  30  52  81 111 147 178 224 285 343
#     4  10  20  36  58  83 111 149 194 232 282 345
#
# _framework density 20.217524000000001
#
# number of rings (size 3 to 8) (size 9 to 14) (size 15 to 20)
#    0.000    2.000    2.500    3.000    0.000    2.000 
#    0.000    5.625    0.000    3.000    0.000    0.000 
#    0.000    0.000    0.000    0.000    0.000    0.000 
#
# Total GULP energy -792881.030427 kJ/mol
# GULP energy per Si atom -12388.766100 kJ/mol
# Density = 2.017151 g / cm^3
# Si number density = 20.217524 Si / 1000 Ang^3
#
#
#
# Elastic Constant Matrix: (Units=GPa)
#
#
# Indices 1 2 3 4 5 6 
#
# 1 98.2095 37.7561 17.0815 0.0000 0.0000 0.0000
# 2 37.7561 109.4899 12.1209 0.0000 0.0000 0.0000
# 3 17.0815 12.1209 27.6393 0.0000 0.0000 0.0000
# 4 0.0000 0.0000 0.0000 27.2951 0.0000 0.0000
# 5 0.0000 0.0000 0.0000 0.0000 15.6493 0.0000
# 6 0.0000 0.0000 0.0000 0.0000 0.0000 24.4805
#
#
#
# Elastic Compliance Matrix: (Units=1/GPa)
#
#
# Indices 1 2 3 4 5 6 
#
# 1 0.012681 -0.003684 -0.006221 0.000000 0.000000 0.000000
# 2 -0.003684 0.010670 -0.002402 0.000000 0.000000 0.000000
# 3 -0.006221 -0.002402 0.041079 0.000000 0.000000 0.000000
# 4 0.000000 0.000000 0.000000 0.036637 0.000000 0.000000
# 5 0.000000 0.000000 0.000000 0.000000 0.063901 0.000000
# 6 0.000000 0.000000 0.000000 0.000000 0.000000 0.040849
#
#
# Mechanical properties :
#
#
# Convention : Reuss Voigt Hill
#
# Bulk Modulus (GPa) = 25.11687 41.02841 33.07264
# Shear Modulus (GPa) = 20.51692 24.71034 22.61363
#
# Velocity S-wave (km/s) = 3.18906 3.49982 3.34805
# Velocity P-wave (km/s) = 5.10004 6.05551 5.59820
#
# Compressibility (1/GPa) = 0.03981388
#
# Stress axis : x y z
#
# Youngs Moduli (GPa) = 78.86004 93.72429 24.34351
#
# Poissons Ratio (x) = 0.34528 0.15145
# Poissons Ratio (y) = 0.29052 0.05848
# Poissons Ratio (z) = 0.49061 0.22515
#
# Static dielectric constant tensor:
#      x y z
#    x 3.797710 0.000000 0.000000 
#    y 0.000000 4.214090 0.000000 
#    z 0.000000 0.000000 3.481870 
# 
# 
# High freq. dielectric constant tensor:
#      x y z
#    x 1.769040 0.000000 0.000000 
#    y 0.000000 1.803270 0.000000 
#    z 0.000000 0.000000 1.763910 
# 
# From -- ./inp_files/22183.got.cif
#   From: 2010.03.12/outbox.cif.g09.slc.cpg/sg57_12_cif.got.tgz:22183.got - 2010.04.16 15:48:40.
