data_PCOD8230216
_publ_section_title
;
Structure prediction by ZEFSAII (Michael W. Deem and Ramdas Pophale) SiO2 
 PCOD8230216
Probable space group: P B C M
;
_chemical_formula_sum "Si O2"
_cell_formula_units_Z 64
_cell_length_a 15.433296
_cell_length_b 23.861594
_cell_length_c 8.941230
_cell_angle_alpha 90.000000
_cell_angle_beta 90.000000
_cell_angle_gamma 90.000000
_cell_volume 3292.724570
_symmetry_space_group_name_H-M "P B C M"
_symmetry_group_IT_number 57
_symmetry_cell_setting 'orthorhombic'
loop_
_space_group_symop_operation_xyz
x,y,z
-x,-y,1/2+z
x,1/2-y,-z
-x,1/2+y,1/2-z
-x,-y,-z
x,y,1/2-z
-x,1/2+y,z
x,1/2-y,1/2+z
loop_
_atom_site_type_symbol
_atom_site_label
_atom_site_fract_x
_atom_site_fract_y
_atom_site_fract_z
Si Si1 0.039370 0.690221 0.926687
Si Si2 0.450601 0.383291 0.922937
Si Si3 0.132495 0.374233 0.073138
Si Si4 0.354135 0.476376 0.078996
Si Si5 0.822247 0.519431 0.073861
Si Si6 0.813858 0.106650 0.926536
Si Si7 0.360920 0.605618 0.081564
Si Si8 0.711926 0.690221 0.075012
O O1 0.045889 0.696736 0.750000
O O2 0.115068 0.649750 0.988549
O O3 0.947454 0.664700 0.974856
O O4 0.052040 0.750000 0.000000
O O5 0.444696 0.402377 0.750000
O O6 0.549061 0.362582 0.958913
O O7 0.384553 0.332730 0.956420
O O8 0.431905 0.436380 0.028269
O O9 0.143673 0.376141 0.250000
O O10 0.114124 0.437245 0.011565
O O11 0.219126 0.351385 0.997605
O O12 0.327440 0.463143 0.250000
O O13 0.383123 0.540255 0.060786
O O14 0.274850 0.462681 0.968946
O O15 0.836340 0.525256 0.250000
O O16 0.838406 0.455894 0.016036
O O17 0.813255 0.106104 0.750000
O O18 0.718294 0.125531 0.978587
O O19 0.331607 0.618836 0.250000
O O20 0.731918 0.695566 0.250000
O O21 0.721449 0.750000 0.000000
#
# Coordination Sequence:
#
# PCOD8230216 Si02
#       8
#     8   8   8   8   8   8   8   8
#     4  10  23  42  62  85 111 144 188 237 286 335
#     4  10  20  34  52  76 110 148 186 229 278 330
#     4  11  22  37  59  86 116 145 183 233 282 342
#     4  10  18  29  50  80 113 147 186 227 270 326
#     4  10  19  33  55  83 117 153 185 222 280 343
#     4   9  20  39  59  82 115 150 187 233 284 338
#     4   9  19  34  53  81 113 146 186 230 277 327
#     4  11  23  38  56  78 110 151 191 233 283 338
#
# _framework density 19.436789999999998
#
# number of rings (size 3 to 8) (size 9 to 14) (size 15 to 20)
#    0.000    2.000    1.250    2.250    0.000    5.000 
#    0.000    0.625    0.000    3.000    0.000    0.000 
#    0.000    0.000    0.000    0.000    0.000    0.000 
#
# Total GULP energy -793603.808248 kJ/mol
# GULP energy per Si atom -12400.059504 kJ/mol
# Density = 1.939255 g / cm^3
# Si number density = 19.436790 Si / 1000 Ang^3
#
#
#
# Elastic Constant Matrix: (Units=GPa)
#
#
# Indices 1 2 3 4 5 6 
#
# 1 103.8612 71.5351 37.5063 0.0000 0.0000 0.0000
# 2 71.5351 108.8472 38.5388 0.0000 0.0000 0.0000
# 3 37.5063 38.5388 60.9584 0.0000 0.0000 0.0000
# 4 0.0000 0.0000 0.0000 27.1662 0.0000 0.0000
# 5 0.0000 0.0000 0.0000 0.0000 27.6133 0.0000
# 6 0.0000 0.0000 0.0000 0.0000 0.0000 27.8129
#
#
#
# Elastic Compliance Matrix: (Units=1/GPa)
#
#
# Indices 1 2 3 4 5 6 
#
# 1 0.018617 -0.010539 -0.004792 0.000000 0.000000 0.000000
# 2 -0.010539 0.017802 -0.004771 0.000000 0.000000 0.000000
# 3 -0.004792 -0.004771 0.022369 0.000000 0.000000 0.000000
# 4 0.000000 0.000000 0.000000 0.036810 0.000000 0.000000
# 5 0.000000 0.000000 0.000000 0.000000 0.036214 0.000000
# 6 0.000000 0.000000 0.000000 0.000000 0.000000 0.035955
#
#
# Mechanical properties :
#
#
# Convention : Reuss Voigt Hill
#
# Bulk Modulus (GPa) = 53.80420 63.20304 58.50362
# Shear Modulus (GPa) = 23.34626 24.92425 24.13526
#
# Velocity S-wave (km/s) = 3.46950 3.58484 3.52764
# Velocity P-wave (km/s) = 6.61753 7.05142 6.83792
#
# Compressibility (1/GPa) = 0.01858591
#
# Stress axis : x y z
#
# Youngs Moduli (GPa) = 53.71315 56.17196 44.70432
#
# Poissons Ratio (x) = 0.59198 0.21423
# Poissons Ratio (y) = 0.56607 0.21327
# Poissons Ratio (z) = 0.25740 0.26798
#
# Static dielectric constant tensor:
#      x y z
#    x 3.618210 0.000000 0.000000 
#    y 0.000000 3.486740 0.000000 
#    z 0.000000 0.000000 3.498830 
# 
# 
# High freq. dielectric constant tensor:
#      x y z
#    x 1.755550 0.000000 0.000000 
#    y 0.000000 1.745800 0.000000 
#    z 0.000000 0.000000 1.755790 
# 
# From -- ./inp_files/5763.got.cif
#   From: 2010.03.12/outbox.cif.g09.slc.cpg/sg57_3_cif.got.tgz:5763.got - 2010.04.16 15:48:40.
