data_PCOD8230334
_publ_section_title
;
Structure prediction by ZEFSAII (Michael W. Deem and Ramdas Pophale) SiO2 
 PCOD8230334
Probable space group: P B C M
;
_chemical_formula_sum "Si O2"
_cell_formula_units_Z 64
_cell_length_a 14.860155
_cell_length_b 29.445727
_cell_length_c 8.774138
_cell_angle_alpha 90.000000
_cell_angle_beta 90.000000
_cell_angle_gamma 90.000000
_cell_volume 3839.282607
_symmetry_space_group_name_H-M "P B C M"
_symmetry_group_IT_number 57
_symmetry_cell_setting 'orthorhombic'
loop_
_space_group_symop_operation_xyz
x,y,z
-x,-y,1/2+z
x,1/2-y,-z
-x,1/2+y,1/2-z
-x,-y,-z
x,y,1/2-z
-x,1/2+y,z
x,1/2-y,1/2+z
loop_
_atom_site_type_symbol
_atom_site_label
_atom_site_fract_x
_atom_site_fract_y
_atom_site_fract_z
Si Si1 0.179918 0.038856 0.929668
Si Si2 0.794397 0.204444 0.928142
Si Si3 0.440989 0.557386 0.424902
Si Si4 0.706000 0.124900 0.421145
Si Si5 0.870867 0.060190 0.074639
Si Si6 0.633456 0.970085 0.574338
Si Si7 0.965292 0.888657 0.429802
Si Si8 0.011894 0.702462 0.431029
O O1 0.182357 0.035955 0.750000
O O2 0.116543 0.079712 0.986099
O O3 0.139651 0.991014 0.990220
O O4 0.280645 0.048630 0.985062
O O5 0.813341 0.210624 0.750000
O O6 0.752641 0.250000 0.000000
O O7 0.724006 0.164258 0.956989
O O8 0.886981 0.192875 0.013428
O O9 0.428309 0.541220 0.250000
O O10 0.394512 0.606179 0.451166
O O11 0.546956 0.561618 0.464176
O O12 0.391556 0.521345 0.531549
O O13 0.714760 0.144786 0.250000
O O14 0.774014 0.083216 0.442883
O O15 0.903742 0.060814 0.250000
O O16 0.941551 0.087302 0.972867
O O17 0.659124 0.968580 0.750000
O O18 0.963994 0.880660 0.250000
O O19 0.952538 0.839936 0.511692
O O20 0.975411 0.750000 0.500000
O O21 0.009256 0.705386 0.250000
#
# Coordination Sequence:
#
# PCOD8230334 Si02
#       8
#     8   8   8   8   8   8   8   8
#     4  10  21  36  50  67  99 139 171 206 251 293
#     4  11  21  33  50  72  99 127 163 202 244 294
#     4   9  18  33  50  69  98 131 161 199 248 294
#     4  10  18  31  51  71  98 133 167 199 244 295
#     4  10  19  32  49  68  97 138 173 203 241 285
#     4  10  19  30  49  74  96 125 167 209 244 284
#     4  11  22  34  50  72  98 132 171 207 247 294
#     4  11  21  35  53  72  97 127 162 204 250 294
#
# _framework density 16.669782000000001
#
# number of rings (size 3 to 8) (size 9 to 14) (size 15 to 20)
#    0.000    1.750    2.500    4.125    0.000    2.500 
#    0.000    0.000    0.000    0.000    0.000    0.875 
#    0.000    6.000    0.000    0.000    0.000    0.000 
#
# Total GULP energy -793655.476906 kJ/mol
# GULP energy per Si atom -12400.866827 kJ/mol
# Density = 1.663184 g / cm^3
# Si number density = 16.669782 Si / 1000 Ang^3
#
#
#
# Elastic Constant Matrix: (Units=GPa)
#
#
# Indices 1 2 3 4 5 6 
#
# 1 67.9671 42.9437 18.5077 0.0000 0.0000 0.0000
# 2 42.9437 121.7296 40.5668 0.0000 0.0000 0.0000
# 3 18.5077 40.5668 66.5697 0.0000 0.0000 0.0000
# 4 0.0000 0.0000 0.0000 24.7856 0.0000 0.0000
# 5 0.0000 0.0000 0.0000 0.0000 23.3845 0.0000
# 6 0.0000 0.0000 0.0000 0.0000 0.0000 21.0870
#
#
#
# Elastic Compliance Matrix: (Units=1/GPa)
#
#
# Indices 1 2 3 4 5 6 
#
# 1 0.019053 -0.006219 -0.001507 0.000000 0.000000 0.000000
# 2 -0.006219 0.012338 -0.005790 0.000000 0.000000 0.000000
# 3 -0.001507 -0.005790 0.018969 0.000000 0.000000 0.000000
# 4 0.000000 0.000000 0.000000 0.040346 0.000000 0.000000
# 5 0.000000 0.000000 0.000000 0.000000 0.042763 0.000000
# 6 0.000000 0.000000 0.000000 0.000000 0.000000 0.047423
#
#
# Mechanical properties :
#
#
# Convention : Reuss Voigt Hill
#
# Bulk Modulus (GPa) = 42.86685 51.14475 47.00580
# Shear Modulus (GPa) = 23.18026 24.13464 23.65745
#
# Velocity S-wave (km/s) = 3.73306 3.80914 3.77129
# Velocity P-wave (km/s) = 6.65974 7.07769 6.87189
#
# Compressibility (1/GPa) = 0.02332805
#
# Stress axis : x y z
#
# Youngs Moduli (GPa) = 52.48540 81.04760 52.71726
#
# Poissons Ratio (x) = 0.50405 0.07945
# Poissons Ratio (y) = 0.32642 0.30522
# Poissons Ratio (z) = 0.07910 0.46925
#
# Static dielectric constant tensor:
#      x y z
#    x 3.069520 0.000000 0.000000 
#    y 0.000000 3.260980 0.000000 
#    z 0.000000 0.000000 3.162950 
# 
# 
# High freq. dielectric constant tensor:
#      x y z
#    x 1.618460 0.000000 0.000000 
#    y 0.000000 1.631760 0.000000 
#    z 0.000000 0.000000 1.649480 
# 
# From -- ./inp_files/6007.got.cif
#   From: 2010.03.12/outbox.cif.g09.slc.cpg/sg57_4_cif.got.tgz:6007.got - 2010.04.16 15:48:40.
