data_PCOD8230440
_publ_section_title
;
Structure prediction by ZEFSAII (Michael W. Deem and Ramdas Pophale) SiO2 
 PCOD8230440
Probable space group: P B C M
;
_chemical_formula_sum "Si O2"
_cell_formula_units_Z 64
_cell_length_a 8.572413
_cell_length_b 22.007516
_cell_length_c 18.173211
_cell_angle_alpha 90.000000
_cell_angle_beta 90.000000
_cell_angle_gamma 90.000000
_cell_volume 3428.512850
_symmetry_space_group_name_H-M "P B C M"
_symmetry_group_IT_number 57
_symmetry_cell_setting 'orthorhombic'
loop_
_space_group_symop_operation_xyz
x,y,z
-x,-y,1/2+z
x,1/2-y,-z
-x,1/2+y,1/2-z
-x,-y,-z
x,y,1/2-z
-x,1/2+y,z
x,1/2-y,1/2+z
loop_
_atom_site_type_symbol
_atom_site_label
_atom_site_fract_x
_atom_site_fract_y
_atom_site_fract_z
Si Si1 0.338886 0.427616 0.526210
Si Si2 0.171115 0.669692 0.961513
Si Si3 0.692773 0.225782 0.390251
Si Si4 0.702297 0.443019 0.974506
Si Si5 0.803397 0.884595 0.667603
Si Si6 0.837235 0.387168 0.832150
Si Si7 0.194583 0.309239 0.044748
Si Si8 0.351416 0.243785 0.333837
O O1 0.258377 0.487034 0.491060
O O2 0.521829 0.429212 0.513866
O O3 0.298719 0.425729 0.612955
O O4 0.274275 0.368596 0.486730
O O5 0.241644 0.704630 0.889954
O O6 0.989251 0.683085 0.962214
O O7 0.263206 0.695482 0.032060
O O8 0.202809 0.597461 0.965091
O O9 0.774020 0.182409 0.329991
O O10 0.508927 0.227806 0.377300
O O11 0.746076 0.429062 0.890001
O O12 0.775814 0.909747 0.750000
O O13 0.758271 0.814511 0.662571
O O14 0.983083 0.887754 0.643867
O O15 0.814614 0.413919 0.750000
O O16 0.256597 0.299044 0.127948
O O17 0.249632 0.250000 0.000000
O O18 0.389133 0.262871 0.250000
#
# Coordination Sequence:
#
# PCOD8230440 Si02
#       8
#     8   8   8   8   8   8   8   8
#     4  11  22  39  60  85 113 152 196 243 284 343
#     4  10  20  35  56  86 113 147 191 241 290 339
#     4  10  18  32  54  81 116 146 187 236 286 336
#     4  10  23  38  57  85 116 149 198 238 284 342
#     4  10  20  34  55  83 115 145 184 237 292 347
#     4  10  20  34  54  83 116 151 190 235 287 344
#     4  12  22  36  60  87 115 152 194 241 294 341
#     4  11  23  35  53  85 121 155 189 235 297 352
#
# _framework density 18.666985
#
# number of rings (size 3 to 8) (size 9 to 14) (size 15 to 20)
#    0.000    1.500    2.500    4.875    1.750    3.500 
#    0.000    1.250    0.000    6.000    0.000    0.000 
#    0.000    0.000    0.000    0.000    0.000    0.000 
#
# Total GULP energy -793404.870412 kJ/mol
# GULP energy per Si atom -12396.951100 kJ/mol
# Density = 1.862450 g / cm^3
# Si number density = 18.666985 Si / 1000 Ang^3
#
#
#
# Elastic Constant Matrix: (Units=GPa)
#
#
# Indices 1 2 3 4 5 6 
#
# 1 77.5682 40.5333 40.3245 0.0000 0.0000 0.0000
# 2 40.5333 124.6120 46.5523 0.0000 0.0000 0.0000
# 3 40.3245 46.5523 89.0480 0.0000 0.0000 0.0000
# 4 0.0000 0.0000 0.0000 22.4041 0.0000 0.0000
# 5 0.0000 0.0000 0.0000 0.0000 23.2766 0.0000
# 6 0.0000 0.0000 0.0000 0.0000 0.0000 23.5212
#
#
#
# Elastic Compliance Matrix: (Units=1/GPa)
#
#
# Indices 1 2 3 4 5 6 
#
# 1 0.018007 -0.003493 -0.006328 0.000000 0.000000 0.000000
# 2 -0.003493 0.010650 -0.003986 0.000000 0.000000 0.000000
# 3 -0.006328 -0.003986 0.016179 0.000000 0.000000 0.000000
# 4 0.000000 0.000000 0.000000 0.044635 0.000000 0.000000
# 5 0.000000 0.000000 0.000000 0.000000 0.042962 0.000000
# 6 0.000000 0.000000 0.000000 0.000000 0.000000 0.042515
#
#
# Mechanical properties :
#
#
# Convention : Reuss Voigt Hill
#
# Bulk Modulus (GPa) = 58.06488 60.67205 59.36846
# Shear Modulus (GPa) = 24.00355 24.76158 24.38257
#
# Velocity S-wave (km/s) = 3.58981 3.64605 3.61804
# Velocity P-wave (km/s) = 6.95381 7.09210 7.02329
#
# Compressibility (1/GPa) = 0.01722212
#
# Stress axis : x y z
#
# Youngs Moduli (GPa) = 55.53406 93.89514 61.80770
#
# Poissons Ratio (x) = 0.32799 0.39113
# Poissons Ratio (y) = 0.19399 0.24635
# Poissons Ratio (z) = 0.35143 0.37425
#
# Static dielectric constant tensor:
#      x y z
#    x 3.510050 0.000000 0.000000 
#    y 0.000000 3.769720 0.000000 
#    z 0.000000 0.000000 3.630970 
# 
# 
# High freq. dielectric constant tensor:
#      x y z
#    x 1.742570 0.000000 0.000000 
#    y 0.000000 1.706990 0.000000 
#    z 0.000000 0.000000 1.712240 
# 
# From -- ./inp_files/21505.got.cif
#   From: 2010.03.12/outbox.cif.g09.slc.cpg/sg57_11_cif.got.tgz:21505.got - 2010.04.16 15:48:40.
