data_PCOD8230941
_publ_section_title
;
Structure prediction by ZEFSAII (Michael W. Deem and Ramdas Pophale) SiO2 
 PCOD8230941
Probable space group: P B C M
;
_chemical_formula_sum "Si O2"
_cell_formula_units_Z 64
_cell_length_a 14.853937
_cell_length_b 24.609626
_cell_length_c 8.924829
_cell_angle_alpha 90.000000
_cell_angle_beta 90.000000
_cell_angle_gamma 90.000000
_cell_volume 3262.469761
_symmetry_space_group_name_H-M "P B C M"
_symmetry_group_IT_number 57
_symmetry_cell_setting 'orthorhombic'
loop_
_space_group_symop_operation_xyz
x,y,z
-x,-y,1/2+z
x,1/2-y,-z
-x,1/2+y,1/2-z
-x,-y,-z
x,y,1/2-z
-x,1/2+y,z
x,1/2-y,1/2+z
loop_
_atom_site_type_symbol
_atom_site_label
_atom_site_fract_x
_atom_site_fract_y
_atom_site_fract_z
Si Si1 0.243905 0.504661 0.585465
Si Si2 0.776646 0.610827 0.573873
Si Si3 0.928415 0.803715 0.073865
Si Si4 0.712828 0.388497 0.572288
Si Si5 0.628401 0.694777 0.575492
Si Si6 0.089826 0.649404 0.075231
Si Si7 0.047793 0.546585 0.585696
Si Si8 0.421658 0.806441 0.426490
O O1 0.290326 0.497115 0.750000
O O2 0.230681 0.446996 0.506346
O O3 0.296448 0.549086 0.484444
O O4 0.149144 0.531558 0.614819
O O5 0.773669 0.599714 0.750000
O O6 0.867577 0.643684 0.529656
O O7 0.690250 0.645338 0.519855
O O8 0.929548 0.795711 0.250000
O O9 0.884190 0.750000 0.000000
O O10 0.032443 0.805793 0.014970
O O11 0.702559 0.389536 0.750000
O O12 0.805688 0.357226 0.527036
O O13 0.632710 0.355799 0.496841
O O14 0.661550 0.750000 0.500000
O O15 0.641363 0.703941 0.750000
O O16 0.525370 0.681704 0.533960
O O17 0.080715 0.661067 0.250000
O O18 0.036969 0.595406 0.029243
O O19 0.003419 0.559596 0.750000
O O20 0.000000 0.500000 0.500000
O O21 0.389618 0.750000 0.500000
O O22 0.403865 0.803122 0.250000
#
# Coordination Sequence:
#
# PCOD8230941 Si02
#       8
#     8   8   8   8   8   8   8   8
#     4  10  21  35  53  79 109 143 184 228 272 324
#     4  10  21  37  56  80 111 147 185 226 274 326
#     4  11  23  37  55  79 110 147 186 230 277 327
#     4  10  21  38  59  82 111 147 184 227 277 326
#     4   9  19  36  58  84 112 142 179 225 275 327
#     4  10  21  36  53  74 103 139 178 219 265 317
#     4  10  19  31  49  73 101 134 175 221 265 311
#     4  10  20  36  60  87 113 141 177 222 272 328
#
# _framework density 19.617039999999999
#
# number of rings (size 3 to 8) (size 9 to 14) (size 15 to 20)
#    0.000    2.000    0.000    3.375    0.000    7.500 
#    0.000    0.625    0.000    0.000    0.000    0.000 
#    0.000    0.000    0.000    0.000    0.000    0.000 
#
# Total GULP energy -793185.652947 kJ/mol
# GULP energy per Si atom -12393.525827 kJ/mol
# Density = 1.957239 g / cm^3
# Si number density = 19.617040 Si / 1000 Ang^3
#
#
#
# Elastic Constant Matrix: (Units=GPa)
#
#
# Indices 1 2 3 4 5 6 
#
# 1 69.9611 42.6158 40.2870 0.0000 0.0000 0.0000
# 2 42.6158 125.8106 51.7563 0.0000 0.0000 0.0000
# 3 40.2870 51.7563 90.7529 0.0000 0.0000 0.0000
# 4 0.0000 0.0000 0.0000 37.5648 0.0000 0.0000
# 5 0.0000 0.0000 0.0000 0.0000 21.6507 0.0000
# 6 0.0000 0.0000 0.0000 0.0000 0.0000 33.1726
#
#
#
# Elastic Compliance Matrix: (Units=1/GPa)
#
#
# Indices 1 2 3 4 5 6 
#
# 1 0.020803 -0.004243 -0.006815 0.000000 0.000000 0.000000
# 2 -0.004243 0.011250 -0.004532 0.000000 0.000000 0.000000
# 3 -0.006815 -0.004532 0.016629 0.000000 0.000000 0.000000
# 4 0.000000 0.000000 0.000000 0.026621 0.000000 0.000000
# 5 0.000000 0.000000 0.000000 0.000000 0.046188 0.000000
# 6 0.000000 0.000000 0.000000 0.000000 0.000000 0.030145
#
#
# Mechanical properties :
#
#
# Convention : Reuss Voigt Hill
#
# Bulk Modulus (GPa) = 57.13887 61.76030 59.44959
# Shear Modulus (GPa) = 26.50410 28.60199 27.55304
#
# Velocity S-wave (km/s) = 3.67969 3.82254 3.75179
# Velocity P-wave (km/s) = 6.87342 7.14379 7.00991
#
# Compressibility (1/GPa) = 0.01750122
#
# Stress axis : x y z
#
# Youngs Moduli (GPa) = 48.07107 88.88698 60.13563
#
# Poissons Ratio (x) = 0.37714 0.40982
# Poissons Ratio (y) = 0.20396 0.27256
# Poissons Ratio (z) = 0.32760 0.40288
#
# Static dielectric constant tensor:
#      x y z
#    x 3.492560 0.000000 0.000000 
#    y 0.000000 3.627510 0.000000 
#    z 0.000000 0.000000 3.416410 
# 
# 
# High freq. dielectric constant tensor:
#      x y z
#    x 1.750820 0.000000 0.000000 
#    y 0.000000 1.768850 0.000000 
#    z 0.000000 0.000000 1.774130 
# 
# From -- ./inp_files/5743.got.cif
#   From: 2010.03.12/outbox.cif.g09.slc.cpg/sg57_3_cif.got.tgz:5743.got - 2010.04.16 15:48:40.
