data_PCOD8230430
_publ_section_title
;
Structure prediction by ZEFSAII (Michael W. Deem and Ramdas Pophale) SiO2 
 PCOD8230430
Probable space group: P B C M
;
_chemical_formula_sum "Si O2"
_cell_formula_units_Z 48
_cell_length_a 20.562412
_cell_length_b 13.754264
_cell_length_c 8.588542
_cell_angle_alpha 90.000000
_cell_angle_beta 90.000000
_cell_angle_gamma 90.000000
_cell_volume 2429.018690
_symmetry_space_group_name_H-M "P B C M"
_symmetry_group_IT_number 57
_symmetry_cell_setting 'orthorhombic'
loop_
_space_group_symop_operation_xyz
x,y,z
-x,-y,1/2+z
x,1/2-y,-z
-x,1/2+y,1/2-z
-x,-y,-z
x,y,1/2-z
-x,1/2+y,z
x,1/2-y,1/2+z
loop_
_atom_site_type_symbol
_atom_site_label
_atom_site_fract_x
_atom_site_fract_y
_atom_site_fract_z
Si Si1 0.470288 0.648254 0.068047
Si Si2 0.982694 0.895809 0.434870
Si Si3 0.725824 0.855547 0.432507
Si Si4 0.111367 0.846359 0.566529
Si Si5 0.145977 0.446418 0.933164
Si Si6 0.590132 0.949486 0.431179
O O1 0.466565 0.658834 0.250000
O O2 0.424326 0.559436 0.009732
O O3 0.444834 0.750000 0.000000
O O4 0.544527 0.627426 0.019278
O O5 0.989308 0.889143 0.250000
O O6 0.908482 0.875933 0.487895
O O7 0.035899 0.828282 0.517561
O O8 0.000000 0.000000 0.500000
O O9 0.710525 0.750000 0.500000
O O10 0.741803 0.848771 0.250000
O O11 0.784983 0.903027 0.523851
O O12 0.664552 0.924571 0.466355
O O13 0.148192 0.750000 0.500000
O O14 0.119267 0.854191 0.750000
O O15 0.141887 0.942719 0.491795
O O16 0.134943 0.444955 0.750000
O O17 0.573407 0.939802 0.250000
#
# Coordination Sequence:
#
# PCOD8230430 Si02
#       6
#     8   8   8   8   8   8
#     4  10  19  33  56  86 117 149 185 227 274 324
#     4  10  18  32  53  78 106 139 177 223 275 324
#     4  11  23  40  59  81 109 144 185 229 278 332
#     4  11  21  36  57  83 112 145 184 229 279 333
#     4  11  22  38  57  81 111 146 186 229 278 332
#     4   9  20  37  57  82 114 150 188 230 274 323
#
# _framework density 19.761067000000001
#
# number of rings (size 3 to 8) (size 9 to 14) (size 15 to 20)
#    0.000    1.667    0.000    8.000    0.000    4.000 
#    0.000    4.167    0.000    2.000    0.000    0.000 
#    0.000    0.000    0.000    0.000    0.000    0.000 
#
# Total GULP energy -595065.930588 kJ/mol
# GULP energy per Si atom -12397.206887 kJ/mol
# Density = 1.971609 g / cm^3
# Si number density = 19.761067 Si / 1000 Ang^3
#
#
#
# Elastic Constant Matrix: (Units=GPa)
#
#
# Indices 1 2 3 4 5 6 
#
# 1 83.8642 27.1648 20.2763 0.0000 0.0000 0.0000
# 2 27.1648 108.1791 21.3289 0.0000 0.0000 0.0000
# 3 20.2763 21.3289 94.4451 0.0000 0.0000 0.0000
# 4 0.0000 0.0000 0.0000 33.5557 0.0000 0.0000
# 5 0.0000 0.0000 0.0000 0.0000 28.6997 0.0000
# 6 0.0000 0.0000 0.0000 0.0000 0.0000 11.7981
#
#
#
# Elastic Compliance Matrix: (Units=1/GPa)
#
#
# Indices 1 2 3 4 5 6 
#
# 1 0.013409 -0.002930 -0.002217 0.000000 0.000000 0.000000
# 2 -0.002930 0.010315 -0.001700 0.000000 0.000000 0.000000
# 3 -0.002217 -0.001700 0.011448 0.000000 0.000000 0.000000
# 4 0.000000 0.000000 0.000000 0.029801 0.000000 0.000000
# 5 0.000000 0.000000 0.000000 0.000000 0.034844 0.000000
# 6 0.000000 0.000000 0.000000 0.000000 0.000000 0.084759
#
#
# Mechanical properties :
#
#
# Convention : Reuss Voigt Hill
#
# Bulk Modulus (GPa) = 46.56106 47.11425 46.83765
# Shear Modulus (GPa) = 24.33917 29.32528 26.83222
#
# Velocity S-wave (km/s) = 3.51333 3.85644 3.68888
# Velocity P-wave (km/s) = 6.33018 6.61235 6.47280
#
# Compressibility (1/GPa) = 0.02147717
#
# Stress axis : x y z
#
# Youngs Moduli (GPa) = 74.57588 96.94664 87.35025
#
# Poissons Ratio (x) = 0.28406 0.19366
# Poissons Ratio (y) = 0.21851 0.14853
# Poissons Ratio (z) = 0.16534 0.16485
#
# Static dielectric constant tensor:
#      x y z
#    x 3.708400 0.000000 0.000000 
#    y 0.000000 4.078740 0.000000 
#    z 0.000000 0.000000 3.690000 
# 
# 
# High freq. dielectric constant tensor:
#      x y z
#    x 1.749820 0.000000 0.000000 
#    y 0.000000 1.783040 0.000000 
#    z 0.000000 0.000000 1.783720 
# 
# From -- ./inp_files/6527.got.cif
#   From: 2010.03.12/outbox.cif.g09.slc.cpg/sg57_4_cif.got.tgz:6527.got - 2010.04.16 15:48:40.
