data_PCOD8230563
_publ_section_title
;
Structure prediction by ZEFSAII (Michael W. Deem and Ramdas Pophale) SiO2 
 PCOD8230563
Probable space group: P B C M
;
_chemical_formula_sum "Si O2"
_cell_formula_units_Z 48
_cell_length_a 8.633921
_cell_length_b 21.584803
_cell_length_c 13.869211
_cell_angle_alpha 90.000000
_cell_angle_beta 90.000000
_cell_angle_gamma 90.000000
_cell_volume 2584.686743
_symmetry_space_group_name_H-M "P B C M"
_symmetry_group_IT_number 57
_symmetry_cell_setting 'orthorhombic'
loop_
_space_group_symop_operation_xyz
x,y,z
-x,-y,1/2+z
x,1/2-y,-z
-x,1/2+y,1/2-z
-x,-y,-z
x,y,1/2-z
-x,1/2+y,z
x,1/2-y,1/2+z
loop_
_atom_site_type_symbol
_atom_site_label
_atom_site_fract_x
_atom_site_fract_y
_atom_site_fract_z
Si Si1 0.500561 0.706036 0.077874
Si Si2 0.230119 0.628650 0.143513
Si Si3 0.064906 0.154772 0.465847
Si Si4 0.811314 0.764261 0.358617
Si Si5 0.427092 0.991760 0.640070
Si Si6 0.342772 0.419412 0.520345
O O1 0.367722 0.679728 0.147402
O O2 0.627878 0.750649 0.128492
O O3 0.582954 0.648647 0.024760
O O4 0.416590 0.750000 0.000000
O O5 0.151434 0.630872 0.250000
O O6 0.298856 0.560838 0.125415
O O7 0.115729 0.640128 0.052890
O O8 0.110362 0.186501 0.568046
O O9 0.106405 0.198804 0.376267
O O10 0.159534 0.090035 0.459964
O O11 0.842880 0.787513 0.250000
O O12 0.452738 0.010321 0.750000
O O13 0.590681 0.966894 0.599316
O O14 0.372700 0.053574 0.585915
#
# Coordination Sequence:
#
# PCOD8230563 Si02
#       6
#     8   8   8   8   8   8
#     4  10  18  35  55  80 110 140 178 224 274 322
#     4  10  21  34  53  79 109 145 184 224 270 329
#     4  10  20  34  51  81 111 145 178 222 274 326
#     4  10  19  34  53  78 107 144 185 219 266 323
#     4   9  19  35  56  79 103 143 189 227 267 315
#     4   9  18  35  55  78 108 139 180 231 270 314
#
# _framework density 18.570917000000001
#
# number of rings (size 3 to 8) (size 9 to 14) (size 15 to 20)
#    0.000    2.333    3.333    1.000    2.333    6.000 
#    0.000    0.000    0.000    9.000    0.000    0.000 
#    0.000    0.000    0.000    0.000    0.000    0.000 
#
# Total GULP energy -594713.584487 kJ/mol
# GULP energy per Si atom -12389.866343 kJ/mol
# Density = 1.852865 g / cm^3
# Si number density = 18.570917 Si / 1000 Ang^3
#
#
#
# Elastic Constant Matrix: (Units=GPa)
#
#
# Indices 1 2 3 4 5 6 
#
# 1 78.4637 20.9318 55.8713 0.0000 0.0000 0.0000
# 2 20.9318 43.1397 40.1786 0.0000 0.0000 0.0000
# 3 55.8713 40.1786 140.7766 0.0000 0.0000 0.0000
# 4 0.0000 0.0000 0.0000 21.1888 0.0000 0.0000
# 5 0.0000 0.0000 0.0000 0.0000 20.8616 0.0000
# 6 0.0000 0.0000 0.0000 0.0000 0.0000 16.5583
#
#
#
# Elastic Compliance Matrix: (Units=1/GPa)
#
#
# Indices 1 2 3 4 5 6 
#
# 1 0.018016 -0.002836 -0.006341 0.000000 0.000000 0.000000
# 2 -0.002836 0.032020 -0.008013 0.000000 0.000000 0.000000
# 3 -0.006341 -0.008013 0.011907 0.000000 0.000000 0.000000
# 4 0.000000 0.000000 0.000000 0.047195 0.000000 0.000000
# 5 0.000000 0.000000 0.000000 0.000000 0.047935 0.000000
# 6 0.000000 0.000000 0.000000 0.000000 0.000000 0.060393
#
#
# Mechanical properties :
#
#
# Convention : Reuss Voigt Hill
#
# Bulk Modulus (GPa) = 36.28052 55.14926 45.71489
# Shear Modulus (GPa) = 19.15464 21.41495 20.28480
#
# Velocity S-wave (km/s) = 3.21508 3.39948 3.30856
# Velocity P-wave (km/s) = 5.77589 6.72084 6.26620
#
# Compressibility (1/GPa) = 0.02756300
#
# Stress axis : x y z
#
# Youngs Moduli (GPa) = 55.50468 31.23088 83.98416
#
# Poissons Ratio (x) = 0.08857 0.53254
# Poissons Ratio (y) = 0.15742 0.67297
# Poissons Ratio (z) = 0.35195 0.25025
#
# Static dielectric constant tensor:
#      x y z
#    x 3.368120 0.000000 0.000000 
#    y 0.000000 3.358920 0.000000 
#    z 0.000000 0.000000 3.346600 
# 
# 
# High freq. dielectric constant tensor:
#      x y z
#    x 1.706830 0.000000 0.000000 
#    y 0.000000 1.711740 0.000000 
#    z 0.000000 0.000000 1.714090 
# 
# From -- ./inp_files/16557.got.cif
#   From: 2010.03.12/outbox.cif.g09.slc.cpg/sg57_9_cif.got.tgz:16557.got - 2010.04.16 15:48:40.
