data_PCOD8230828
_publ_section_title
;
Structure prediction by ZEFSAII (Michael W. Deem and Ramdas Pophale) SiO2 
 PCOD8230828
Probable space group: P B C M
;
_chemical_formula_sum "Si O2"
_cell_formula_units_Z 64
_cell_length_a 19.838319
_cell_length_b 19.773885
_cell_length_c 9.303780
_cell_angle_alpha 90.000000
_cell_angle_beta 90.000000
_cell_angle_gamma 90.000000
_cell_volume 3649.692759
_symmetry_space_group_name_H-M "P B C M"
_symmetry_group_IT_number 57
_symmetry_cell_setting 'orthorhombic'
loop_
_space_group_symop_operation_xyz
x,y,z
-x,-y,1/2+z
x,1/2-y,-z
-x,1/2+y,1/2-z
-x,-y,-z
x,y,1/2-z
-x,1/2+y,z
x,1/2-y,1/2+z
loop_
_atom_site_type_symbol
_atom_site_label
_atom_site_fract_x
_atom_site_fract_y
_atom_site_fract_z
Si Si1 0.696440 0.583359 0.084878
Si Si2 0.844437 0.557642 0.086573
Si Si3 0.672435 0.449472 0.916092
Si Si4 0.919730 0.181337 0.582232
Si Si5 0.420309 0.181194 0.416676
Si Si6 0.204310 0.907136 0.415742
Si Si7 0.974400 0.933808 0.419571
Si Si8 0.520749 0.433774 0.915652
O O1 0.686412 0.559694 0.250000
O O2 0.775300 0.598620 0.056431
O O3 0.653693 0.650367 0.051586
O O4 0.670056 0.523491 0.985155
O O5 0.869434 0.568721 0.250000
O O6 0.832193 0.478487 0.057918
O O7 0.900081 0.585212 0.976451
O O8 0.691731 0.457297 0.750000
O O9 0.599337 0.415686 0.936881
O O10 0.727897 0.401424 0.990602
O O11 0.934430 0.250000 0.500000
O O12 0.920879 0.197026 0.750000
O O13 0.847079 0.151472 0.536297
O O14 0.977450 0.128226 0.541112
O O15 0.429047 0.250000 0.500000
O O16 0.430074 0.197075 0.250000
O O17 0.477303 0.129382 0.472294
O O18 0.224970 0.899781 0.250000
O O19 0.973023 0.948005 0.250000
O O20 0.000000 0.000000 0.500000
O O21 0.503425 0.447983 0.750000
O O22 0.500000 0.500000 0.000000
#
# Coordination Sequence:
#
# PCOD8230828 Si02
#       8
#     8   8   8   8   8   8   8   8
#     4   9  18  34  54  75 106 143 175 215 270 325
#     4   9  17  32  54  80 107 135 173 221 267 316
#     4  10  19  30  51  84 110 131 174 229 267 310
#     4  10  22  39  56  78 108 144 185 224 270 328
#     4  10  21  37  55  77 107 147 185 223 273 329
#     4   9  18  35  54  75 108 143 173 215 269 325
#     4  11  21  35  55  81 111 142 179 225 271 320
#     4  10  20  34  54  80 110 141 180 228 273 321
#
# _framework density 17.535720999999999
#
# number of rings (size 3 to 8) (size 9 to 14) (size 15 to 20)
#    0.000    2.250    2.500    1.500    0.000    5.000 
#    0.000    1.250    0.000    6.000    0.000    0.000 
#    0.000    0.000    0.000    0.000    0.000    0.000 
#
# Total GULP energy -793649.907943 kJ/mol
# GULP energy per Si atom -12400.779812 kJ/mol
# Density = 1.749581 g / cm^3
# Si number density = 17.535721 Si / 1000 Ang^3
#
#
#
# Elastic Constant Matrix: (Units=GPa)
#
#
# Indices 1 2 3 4 5 6 
#
# 1 138.5653 71.6200 66.5671 0.0000 0.0000 0.0000
# 2 71.6200 118.0189 59.3269 0.0000 0.0000 0.0000
# 3 66.5671 59.3269 83.1150 0.0000 0.0000 0.0000
# 4 0.0000 0.0000 0.0000 30.2903 0.0000 0.0000
# 5 0.0000 0.0000 0.0000 0.0000 32.2275 0.0000
# 6 0.0000 0.0000 0.0000 0.0000 0.0000 24.9813
#
#
#
# Elastic Compliance Matrix: (Units=1/GPa)
#
#
# Indices 1 2 3 4 5 6 
#
# 1 0.012891 -0.004106 -0.007393 0.000000 0.000000 0.000000
# 2 -0.004106 0.014523 -0.007078 0.000000 0.000000 0.000000
# 3 -0.007393 -0.007078 0.023005 0.000000 0.000000 0.000000
# 4 0.000000 0.000000 0.000000 0.033014 0.000000 0.000000
# 5 0.000000 0.000000 0.000000 0.000000 0.031029 0.000000
# 6 0.000000 0.000000 0.000000 0.000000 0.000000 0.040030
#
#
# Mechanical properties :
#
#
# Convention : Reuss Voigt Hill
#
# Bulk Modulus (GPa) = 75.39102 81.63635 78.51369
# Shear Modulus (GPa) = 25.50129 26.97882 26.24005
#
# Velocity S-wave (km/s) = 3.81760 3.92663 3.87250
# Velocity P-wave (km/s) = 7.90685 8.19837 8.05393
#
# Compressibility (1/GPa) = 0.01326418
#
# Stress axis : x y z
#
# Youngs Moduli (GPa) = 77.57301 68.85607 43.46905
#
# Poissons Ratio (x) = 0.28275 0.32138
# Poissons Ratio (y) = 0.31855 0.30766
# Poissons Ratio (z) = 0.57353 0.48734
#
# Static dielectric constant tensor:
#      x y z
#    x 3.643790 0.000000 0.000000 
#    y 0.000000 2.999100 0.000000 
#    z 0.000000 0.000000 3.249940 
# 
# 
# High freq. dielectric constant tensor:
#      x y z
#    x 1.694260 0.000000 0.000000 
#    y 0.000000 1.646510 0.000000 
#    z 0.000000 0.000000 1.679090 
# 
# From -- ./inp_files/8533.got.cif
#   From: 2010.03.12/outbox.cif.g09.slc.cpg/sg57_5_cif.got.tgz:8533.got - 2010.04.16 15:48:40.
