data_PCOD8230610
_publ_section_title
;
Structure prediction by ZEFSAII (Michael W. Deem and Ramdas Pophale) SiO2 
 PCOD8230610
Probable space group: P B C M
;
_chemical_formula_sum "Si O2"
_cell_formula_units_Z 56
_cell_length_a 19.886831
_cell_length_b 5.181709
_cell_length_c 25.455468
_cell_angle_alpha 90.000000
_cell_angle_beta 90.000000
_cell_angle_gamma 90.000000
_cell_volume 2623.129242
_symmetry_space_group_name_H-M "P B C M"
_symmetry_group_IT_number 57
_symmetry_cell_setting 'orthorhombic'
loop_
_space_group_symop_operation_xyz
x,y,z
-x,-y,1/2+z
x,1/2-y,-z
-x,1/2+y,1/2-z
-x,-y,-z
x,y,1/2-z
-x,1/2+y,z
x,1/2-y,1/2+z
loop_
_atom_site_type_symbol
_atom_site_label
_atom_site_fract_x
_atom_site_fract_y
_atom_site_fract_z
Si Si1 0.044651 0.132482 0.636367
Si Si2 0.824785 0.250000 0.500000
Si Si3 0.769299 0.451456 0.190229
Si Si4 0.313917 0.044742 0.661858
Si Si5 0.533471 0.572938 0.810490
Si Si6 0.275600 0.358335 0.448444
Si Si7 0.039962 0.430846 0.250000
Si Si8 0.156479 0.440407 0.907142
O O1 0.107077 0.193150 0.598110
O O2 0.988380 0.354522 0.626364
O O3 0.077046 0.140285 0.695403
O O4 0.778037 0.433872 0.533947
O O5 0.871892 0.387013 0.455673
O O6 0.796795 0.433599 0.250000
O O7 0.734409 0.728800 0.182083
O O8 0.832999 0.418186 0.149714
O O9 0.715229 0.226940 0.180911
O O10 0.386699 0.083853 0.685853
O O11 0.323087 0.039009 0.598056
O O12 0.511650 0.570636 0.750000
O O13 0.501329 0.320482 0.838065
O O14 0.316039 0.250000 0.500000
O O15 0.232129 0.126676 0.423985
O O16 0.024232 0.735964 0.250000
#
# Coordination Sequence:
#
# PCOD8230610 Si02
#       8
#     8   4   8   8   8   8   4   8
#     4  10  22  37  57  80 112 150 192 232 282 351
#     4  10  18  40  60  82 112 146 198 240 294 348
#     4  11  22  35  57  90 121 150 185 244 305 346
#     4  11  21  38  58  88 120 155 197 237 290 342
#     4  10  20  34  54  81 117 162 196 225 273 339
#     4   9  20  37  61  86 110 150 193 249 296 346
#     4   8  16  34  52  74 102 144 186 220 260 328
#     4  10  22  36  60  83 117 147 193 240 298 349
#
# _framework density 21.348547
#
# number of rings (size 3 to 8) (size 9 to 14) (size 15 to 20)
#    0.000    2.000    1.429    2.143    3.000    1.143 
#    0.000    0.714    0.000    0.857    0.000    0.000 
#    0.000    0.000    0.000    0.000    0.000    0.000 
#
# Total GULP energy -693732.070147 kJ/mol
# GULP energy per Si atom -12388.072681 kJ/mol
# Density = 2.129996 g / cm^3
# Si number density = 21.348547 Si / 1000 Ang^3
#
#
#
# Elastic Constant Matrix: (Units=GPa)
#
#
# Indices 1 2 3 4 5 6 
#
# 1 29.1223 -7.6271 3.2809 0.0000 0.0000 0.0000
# 2 -7.6271 68.3379 19.4670 0.0000 0.0000 0.0000
# 3 3.2809 19.4670 102.9485 0.0000 0.0000 0.0000
# 4 0.0000 0.0000 0.0000 23.0526 0.0000 0.0000
# 5 0.0000 0.0000 0.0000 0.0000 20.2167 0.0000
# 6 0.0000 0.0000 0.0000 0.0000 0.0000 26.8539
#
#
#
# Elastic Compliance Matrix: (Units=1/GPa)
#
#
# Indices 1 2 3 4 5 6 
#
# 1 0.035758 0.004561 -0.002002 0.000000 0.000000 0.000000
# 2 0.004561 0.016048 -0.003180 0.000000 0.000000 0.000000
# 3 -0.002002 -0.003180 0.010379 0.000000 0.000000 0.000000
# 4 0.000000 0.000000 0.000000 0.043379 0.000000 0.000000
# 5 0.000000 0.000000 0.000000 0.000000 0.049464 0.000000
# 6 0.000000 0.000000 0.000000 0.000000 0.000000 0.037238
#
#
# Mechanical properties :
#
#
# Convention : Reuss Voigt Hill
#
# Bulk Modulus (GPa) = 16.40873 25.62781 21.01827
# Shear Modulus (GPa) = 23.38387 26.37717 24.88052
#
# Velocity S-wave (km/s) = 3.31318 3.51885 3.41756
# Velocity P-wave (km/s) = 4.72642 5.34231 5.04377
#
# Compressibility (1/GPa) = 0.06094317
#
# Stress axis : x y z
#
# Youngs Moduli (GPa) = 27.96574 62.31269 96.35104
#
# Poissons Ratio (x) = -0.28422 0.19290
# Poissons Ratio (y) = -0.12756 0.30639
# Poissons Ratio (z) = 0.05599 0.19815
#
# Static dielectric constant tensor:
#      x y z
#    x 3.251670 0.000000 0.000000 
#    y 0.000000 2.931780 0.000000 
#    z 0.000000 0.000000 2.786760 
# 
# 
# High freq. dielectric constant tensor:
#      x y z
#    x 1.778620 0.000000 0.000000 
#    y 0.000000 1.856630 0.000000 
#    z 0.000000 0.000000 1.845860 
# 
# From -- ./inp_files/27658.got.cif
#   From: 2010.03.12/outbox.cif.g09.slc.cpg/sg57_14_cif.got.tgz:27658.got - 2010.04.16 15:48:40.
