data_PCOD8230834
_publ_section_title
;
Structure prediction by ZEFSAII (Michael W. Deem and Ramdas Pophale) SiO2 
 PCOD8230834
Probable space group: P B C M
;
_chemical_formula_sum "Si O2"
_cell_formula_units_Z 64
_cell_length_a 21.621909
_cell_length_b 19.473743
_cell_length_c 9.525064
_cell_angle_alpha 90.000000
_cell_angle_beta 90.000000
_cell_angle_gamma 90.000000
_cell_volume 4010.618676
_symmetry_space_group_name_H-M "P B C M"
_symmetry_group_IT_number 57
_symmetry_cell_setting 'orthorhombic'
loop_
_space_group_symop_operation_xyz
x,y,z
-x,-y,1/2+z
x,1/2-y,-z
-x,1/2+y,1/2-z
-x,-y,-z
x,y,1/2-z
-x,1/2+y,z
x,1/2-y,1/2+z
loop_
_atom_site_type_symbol
_atom_site_label
_atom_site_fract_x
_atom_site_fract_y
_atom_site_fract_z
Si Si1 0.084362 0.962079 0.405622
Si Si2 0.806280 0.952543 0.914126
Si Si3 0.447055 0.963328 0.412514
Si Si4 0.126732 0.318127 0.583905
Si Si5 0.475911 0.686601 0.909986
Si Si6 0.007986 0.398599 0.595476
Si Si7 0.333313 0.058224 0.412298
Si Si8 0.379087 0.315807 0.085911
O O1 0.094142 0.931419 0.250000
O O2 0.052164 0.901935 0.495861
O O3 0.149848 0.986631 0.475627
O O4 0.040937 0.028212 0.399232
O O5 0.821661 0.951566 0.750000
O O6 0.825272 0.876863 0.969326
O O7 0.735093 0.969732 0.946097
O O8 0.466517 0.969442 0.250000
O O9 0.441658 0.883384 0.455821
O O10 0.500000 0.000000 0.500000
O O11 0.380725 0.996738 0.442465
O O12 0.144306 0.250000 0.500000
O O13 0.133005 0.304534 0.750000
O O14 0.057087 0.341581 0.543529
O O15 0.462217 0.705639 0.750000
O O16 0.548201 0.674570 0.936586
O O17 0.450034 0.750000 0.000000
O O18 0.984035 0.378870 0.750000
O O19 0.338593 0.083416 0.250000
O O20 0.345635 0.119287 0.519257
O O21 0.361803 0.308618 0.250000
O O22 0.355209 0.250000 0.000000
#
# Coordination Sequence:
#
# PCOD8230834 Si02
#       8
#     8   8   8   8   8   8   8   8
#     4   8  13  24  42  60  80 106 137 173 211 253
#     4   8  16  30  44  61  87 118 150 183 219 263
#     4  10  19  31  48  70  93 117 148 190 238 282
#     4   9  17  29  43  60  88 121 151 182 214 250
#     4   9  18  31  46  66  89 113 143 181 226 278
#     4   8  14  24  39  60  83 106 133 173 217 247
#     4  10  19  31  48  67  90 122 157 191 234 282
#     4  10  19  31  45  62  89 119 152 191 228 274
#
# _framework density 15.957637
#
# number of rings (size 3 to 8) (size 9 to 14) (size 15 to 20)
#    0.000    3.000    1.250    1.875    0.000    2.000 
#    0.000    4.375    0.000    0.000    0.000    0.875 
#    0.000    4.000    0.000    0.000    0.000    0.000 
#
# Total GULP energy -793251.176550 kJ/mol
# GULP energy per Si atom -12394.549634 kJ/mol
# Density = 1.592132 g / cm^3
# Si number density = 15.957637 Si / 1000 Ang^3
#
#
#
# Elastic Constant Matrix: (Units=GPa)
#
#
# Indices 1 2 3 4 5 6 
#
# 1 97.6549 50.4993 42.7204 0.0000 0.0000 0.0000
# 2 50.4993 65.2168 35.3425 0.0000 0.0000 0.0000
# 3 42.7204 35.3425 62.5587 0.0000 0.0000 0.0000
# 4 0.0000 0.0000 0.0000 26.0171 0.0000 0.0000
# 5 0.0000 0.0000 0.0000 0.0000 15.8802 0.0000
# 6 0.0000 0.0000 0.0000 0.0000 0.0000 17.3716
#
#
#
# Elastic Compliance Matrix: (Units=1/GPa)
#
#
# Indices 1 2 3 4 5 6 
#
# 1 0.018825 -0.010968 -0.006659 0.000000 0.000000 0.000000
# 2 -0.010968 0.028490 -0.008605 0.000000 0.000000 0.000000
# 3 -0.006659 -0.008605 0.025394 0.000000 0.000000 0.000000
# 4 0.000000 0.000000 0.000000 0.038436 0.000000 0.000000
# 5 0.000000 0.000000 0.000000 0.000000 0.062972 0.000000
# 6 0.000000 0.000000 0.000000 0.000000 0.000000 0.057565
#
#
# Mechanical properties :
#
#
# Convention : Reuss Voigt Hill
#
# Bulk Modulus (GPa) = 49.39744 53.61719 51.50731
# Shear Modulus (GPa) = 17.18836 18.31164 17.75000
#
# Velocity S-wave (km/s) = 3.28552 3.39118 3.33876
# Velocity P-wave (km/s) = 6.73909 7.00043 6.87101
#
# Compressibility (1/GPa) = 0.02024397
#
# Stress axis : x y z
#
# Youngs Moduli (GPa) = 53.12079 35.10024 39.37969
#
# Poissons Ratio (x) = 0.38499 0.26222
# Poissons Ratio (y) = 0.58264 0.33887
# Poissons Ratio (z) = 0.35373 0.30205
#
# Static dielectric constant tensor:
#      x y z
#    x 3.005020 0.000000 0.000000 
#    y 0.000000 2.953640 0.000000 
#    z 0.000000 0.000000 3.076850 
# 
# 
# High freq. dielectric constant tensor:
#      x y z
#    x 1.594940 0.000000 0.000000 
#    y 0.000000 1.591480 0.000000 
#    z 0.000000 0.000000 1.604840 
# 
# From -- ./inp_files/8702.got.cif
#   From: 2010.03.12/outbox.cif.g09.slc.cpg/sg57_5_cif.got.tgz:8702.got - 2010.04.16 15:48:40.
