data_PCOD8230562
_publ_section_title
;
Structure prediction by ZEFSAII (Michael W. Deem and Ramdas Pophale) SiO2 
 PCOD8230562
Probable space group: P B C M
;
_chemical_formula_sum "Si O2"
_cell_formula_units_Z 64
_cell_length_a 19.057157
_cell_length_b 9.828287
_cell_length_c 17.401193
_cell_angle_alpha 90.000000
_cell_angle_beta 90.000000
_cell_angle_gamma 90.000000
_cell_volume 3259.229674
_symmetry_space_group_name_H-M "P B C M"
_symmetry_group_IT_number 57
_symmetry_cell_setting 'orthorhombic'
loop_
_space_group_symop_operation_xyz
x,y,z
-x,-y,1/2+z
x,1/2-y,-z
-x,1/2+y,1/2-z
-x,-y,-z
x,y,1/2-z
-x,1/2+y,z
x,1/2-y,1/2+z
loop_
_atom_site_type_symbol
_atom_site_label
_atom_site_fract_x
_atom_site_fract_y
_atom_site_fract_z
Si Si1 0.056635 0.284392 0.658674
Si Si2 0.579632 0.374937 0.947495
Si Si3 0.722950 0.461844 0.578874
Si Si4 0.786903 0.218127 0.661818
Si Si5 0.200813 0.231917 0.909606
Si Si6 0.428227 0.373582 0.945799
Si Si7 0.933121 0.091617 0.841098
Si Si8 0.290187 0.018998 0.100677
O O1 0.058098 0.284777 0.750000
O O2 0.125595 0.207759 0.628448
O O3 0.052633 0.439368 0.626508
O O4 0.990913 0.197478 0.627013
O O5 0.644130 0.419079 0.891358
O O6 0.504378 0.338849 0.905825
O O7 0.605595 0.250000 0.000000
O O8 0.560693 0.498076 0.001495
O O9 0.777302 0.349097 0.608149
O O10 0.748114 0.606346 0.611794
O O11 0.719767 0.469072 0.486835
O O12 0.792994 0.265816 0.750000
O O13 0.857024 0.143343 0.631892
O O14 0.721842 0.112552 0.653979
O O15 0.233741 0.368338 0.874287
O O16 0.192102 0.250000 0.000000
O O17 0.366916 0.412374 0.885306
O O18 0.401866 0.250000 0.000000
O O19 0.936665 0.086956 0.750000
#
# Coordination Sequence:
#
# PCOD8230562 Si02
#       8
#     8   8   8   8   8   8   8   8
#     4  10  20  38  59  77 101 136 179 226 267 311
#     4   9  16  28  47  77 109 135 176 218 263 305
#     4  10  20  33  53  80 112 145 174 219 272 320
#     4  11  22  36  54  80 107 138 183 223 264 323
#     4  10  21  35  53  80 113 140 174 215 272 331
#     4   9  16  27  50  80 106 135 174 225 259 304
#     4   9  20  36  57  79 100 132 178 225 265 309
#     4  10  18  35  55  77 109 143 177 219 273 319
#
# _framework density 19.636541999999999
#
# number of rings (size 3 to 8) (size 9 to 14) (size 15 to 20)
#    0.000    2.250    1.250    3.750    1.750    0.500 
#    0.000    1.875    0.000    0.750    0.000    1.750 
#    0.000    0.000    0.000    0.000    0.000    0.000 
#
# Total GULP energy -793056.820524 kJ/mol
# GULP energy per Si atom -12391.512821 kJ/mol
# Density = 1.959185 g / cm^3
# Si number density = 19.636542 Si / 1000 Ang^3
#
#
#
# Elastic Constant Matrix: (Units=GPa)
#
#
# Indices 1 2 3 4 5 6 
#
# 1 145.5277 50.9013 20.0546 0.0000 0.0000 0.0000
# 2 50.9013 126.4783 20.7764 0.0000 0.0000 0.0000
# 3 20.0546 20.7764 17.2335 0.0000 0.0000 0.0000
# 4 0.0000 0.0000 0.0000 19.9070 0.0000 0.0000
# 5 0.0000 0.0000 0.0000 0.0000 18.1328 0.0000
# 6 0.0000 0.0000 0.0000 0.0000 0.0000 36.8421
#
#
#
# Elastic Compliance Matrix: (Units=1/GPa)
#
#
# Indices 1 2 3 4 5 6 
#
# 1 0.008684 -0.002288 -0.007348 0.000000 0.000000 0.000000
# 2 -0.002288 0.010462 -0.009950 0.000000 0.000000 0.000000
# 3 -0.007348 -0.009950 0.078573 0.000000 0.000000 0.000000
# 4 0.000000 0.000000 0.000000 0.050234 0.000000 0.000000
# 5 0.000000 0.000000 0.000000 0.000000 0.055149 0.000000
# 6 0.000000 0.000000 0.000000 0.000000 0.000000 0.027143
#
#
# Mechanical properties :
#
#
# Convention : Reuss Voigt Hill
#
# Bulk Modulus (GPa) = 17.08015 52.52267 34.80141
# Shear Modulus (GPa) = 17.30519 28.14354 22.72436
#
# Velocity S-wave (km/s) = 2.97185 3.78990 3.40553
# Velocity P-wave (km/s) = 4.52690 6.77913 5.76409
#
# Compressibility (1/GPa) = 0.05854750
#
# Stress axis : x y z
#
# Youngs Moduli (GPa) = 115.14926 95.58599 12.72710
#
# Poissons Ratio (x) = 0.21871 0.09351
# Poissons Ratio (y) = 0.26347 0.12663
# Poissons Ratio (z) = 0.84607 0.95108
#
# Static dielectric constant tensor:
#      x y z
#    x 4.103810 0.000000 0.000000 
#    y 0.000000 3.777790 0.000000 
#    z 0.000000 0.000000 2.926490 
# 
# 
# High freq. dielectric constant tensor:
#      x y z
#    x 1.785580 0.000000 0.000000 
#    y 0.000000 1.787660 0.000000 
#    z 0.000000 0.000000 1.687090 
# 
# From -- ./inp_files/25602.got.cif
#   From: 2010.03.12/outbox.cif.g09.slc.cpg/sg57_13_cif.got.tgz:25602.got - 2010.04.16 15:48:40.
