data_PCOD8230494
_publ_section_title
;
Structure prediction by ZEFSAII (Michael W. Deem and Ramdas Pophale) SiO2 
 PCOD8230494
Probable space group: P B C M
;
_chemical_formula_sum "Si O2"
_cell_formula_units_Z 56
_cell_length_a 13.875351
_cell_length_b 10.123975
_cell_length_c 24.163301
_cell_angle_alpha 90.000000
_cell_angle_beta 90.000000
_cell_angle_gamma 90.000000
_cell_volume 3394.308456
_symmetry_space_group_name_H-M "P B C M"
_symmetry_group_IT_number 57
_symmetry_cell_setting 'orthorhombic'
loop_
_space_group_symop_operation_xyz
x,y,z
-x,-y,1/2+z
x,1/2-y,-z
-x,1/2+y,1/2-z
-x,-y,-z
x,y,1/2-z
-x,1/2+y,z
x,1/2-y,1/2+z
loop_
_atom_site_type_symbol
_atom_site_label
_atom_site_fract_x
_atom_site_fract_y
_atom_site_fract_z
Si Si1 0.116526 0.122508 0.534613
Si Si2 0.415005 0.780275 0.185824
Si Si3 0.914214 0.268689 0.250000
Si Si4 0.207224 0.774684 0.142129
Si Si5 0.107650 0.873518 0.037564
Si Si6 0.213330 0.029070 0.858977
Si Si7 0.906390 0.961898 0.250000
Si Si8 0.420371 0.020790 0.685760
O O1 0.145538 0.250000 0.500000
O O2 0.178796 0.119999 0.590514
O O3 0.005038 0.122036 0.552491
O O4 0.141804 0.001330 0.495150
O O5 0.390286 0.803712 0.250000
O O6 0.319314 0.807211 0.150662
O O7 0.495428 0.882638 0.164850
O O8 0.452548 0.630879 0.176541
O O9 0.850823 0.306285 0.302626
O O10 0.943330 0.113688 0.250000
O O11 0.007325 0.359291 0.250000
O O12 0.167190 0.868357 0.094178
O O13 0.192176 0.622478 0.125432
O O14 0.133600 0.750000 0.000000
O O15 0.326285 0.053771 0.849923
O O16 0.157340 0.068285 0.803609
O O17 0.396221 0.046096 0.750000
#
# Coordination Sequence:
#
# PCOD8230494 Si02
#       8
#     8   8   4   8   8   8   4   8
#     4  10  21  35  53  77 105 137 179 224 253 294
#     4   9  17  32  53  77 103 133 170 212 258 313
#     4  10  20  34  49  76 110 140 167 210 263 312
#     4  10  18  33  57  76 102 140 178 210 254 319
#     4  10  19  35  55  75 100 139 184 212 247 303
#     4  10  18  34  56  76 104 140 174 208 261 320
#     4  10  20  34  51  76 108 140 169 206 263 316
#     4   9  17  32  54  77 102 133 170 211 258 314
#
# _framework density 16.498206
#
# number of rings (size 3 to 8) (size 9 to 14) (size 15 to 20)
#    0.000    2.286    2.857    0.857    0.000    0.000 
#    5.143    0.000    0.000    1.714    0.000    0.000 
#    0.000    0.000    0.000    0.000    0.000    0.000 
#
# Total GULP energy -694493.493596 kJ/mol
# GULP energy per Si atom -12401.669529 kJ/mol
# Density = 1.646066 g / cm^3
# Si number density = 16.498206 Si / 1000 Ang^3
#
#
#
# Elastic Constant Matrix: (Units=GPa)
#
#
# Indices 1 2 3 4 5 6 
#
# 1 98.3444 60.4302 59.7604 0.0000 0.0000 0.0000
# 2 60.4302 101.2302 56.6515 0.0000 0.0000 0.0000
# 3 59.7604 56.6515 115.2253 0.0000 0.0000 0.0000
# 4 0.0000 0.0000 0.0000 16.6418 0.0000 0.0000
# 5 0.0000 0.0000 0.0000 0.0000 7.0134 0.0000
# 6 0.0000 0.0000 0.0000 0.0000 0.0000 40.8544
#
#
#
# Elastic Compliance Matrix: (Units=1/GPa)
#
#
# Indices 1 2 3 4 5 6 
#
# 1 0.018446 -0.007805 -0.005729 0.000000 0.000000 0.000000
# 2 -0.007805 0.016931 -0.004276 0.000000 0.000000 0.000000
# 3 -0.005729 -0.004276 0.013753 0.000000 0.000000 0.000000
# 4 0.000000 0.000000 0.000000 0.060090 0.000000 0.000000
# 5 0.000000 0.000000 0.000000 0.000000 0.142584 0.000000
# 6 0.000000 0.000000 0.000000 0.000000 0.000000 0.024477
#
#
# Mechanical properties :
#
#
# Convention : Reuss Voigt Hill
#
# Bulk Modulus (GPa) = 74.02979 74.27602 74.15290
# Shear Modulus (GPa) = 15.80256 22.09912 18.95084
#
# Velocity S-wave (km/s) = 3.09825 3.66387 3.39287
# Velocity P-wave (km/s) = 7.60051 7.93832 7.77125
#
# Compressibility (1/GPa) = 0.01350808
#
# Stress axis : x y z
#
# Youngs Moduli (GPa) = 54.21256 59.06361 72.71398
#
# Poissons Ratio (x) = 0.46100 0.41660
# Poissons Ratio (y) = 0.42314 0.31094
# Poissons Ratio (z) = 0.31060 0.25257
#
# Static dielectric constant tensor:
#      x y z
#    x 3.024730 0.000000 0.000000 
#    y 0.000000 3.052870 0.000000 
#    z 0.000000 0.000000 2.983410 
# 
# 
# High freq. dielectric constant tensor:
#      x y z
#    x 1.626760 0.000000 0.000000 
#    y 0.000000 1.631900 0.000000 
#    z 0.000000 0.000000 1.629280 
# 
# From -- ./inp_files/25077.got.cif
#   From: 2010.03.12/outbox.cif.g09.slc.cpg/sg57_13_cif.got.tgz:25077.got - 2010.04.16 15:48:40.
