data_PCOD8230468
_publ_section_title
;
Structure prediction by ZEFSAII (Michael W. Deem and Ramdas Pophale) SiO2 
 PCOD8230468
Probable space group: P B C M
;
_chemical_formula_sum "Si O2"
_cell_formula_units_Z 64
_cell_length_a 15.642011
_cell_length_b 28.381640
_cell_length_c 8.807681
_cell_angle_alpha 90.000000
_cell_angle_beta 90.000000
_cell_angle_gamma 90.000000
_cell_volume 3910.134089
_symmetry_space_group_name_H-M "P B C M"
_symmetry_group_IT_number 57
_symmetry_cell_setting 'orthorhombic'
loop_
_space_group_symop_operation_xyz
x,y,z
-x,-y,1/2+z
x,1/2-y,-z
-x,1/2+y,1/2-z
-x,-y,-z
x,y,1/2-z
-x,1/2+y,z
x,1/2-y,1/2+z
loop_
_atom_site_type_symbol
_atom_site_label
_atom_site_fract_x
_atom_site_fract_y
_atom_site_fract_z
Si Si1 0.660077 0.109569 0.569312
Si Si2 0.597005 0.299304 0.569472
Si Si3 0.671484 0.893927 0.074516
Si Si4 0.171333 0.058157 0.071144
Si Si5 0.003060 0.050792 0.572775
Si Si6 0.495612 0.050932 0.570981
Si Si7 0.816018 0.048209 0.927325
Si Si8 0.414514 0.297515 0.072895
O O1 0.663076 0.116741 0.750000
O O2 0.660861 0.160182 0.488295
O O3 0.576342 0.081235 0.516568
O O4 0.741926 0.081069 0.504081
O O5 0.629248 0.250000 0.500000
O O6 0.597233 0.296443 0.750000
O O7 0.502233 0.311179 0.509936
O O8 0.689761 0.905085 0.250000
O O9 0.590367 0.923484 0.015267
O O10 0.654140 0.838665 0.049247
O O11 0.753203 0.907221 0.976142
O O12 0.161999 0.057616 0.250000
O O13 0.188542 0.005211 0.006273
O O14 0.081959 0.078831 0.003328
O O15 0.020882 0.046664 0.750000
O O16 0.908651 0.072791 0.541340
O O17 0.000000 0.000000 0.500000
O O18 0.496972 0.045884 0.750000
O O19 0.500000 0.000000 0.500000
O O20 0.798633 0.043451 0.750000
O O21 0.435313 0.289842 0.250000
O O22 0.375610 0.250000 0.000000
#
# Coordination Sequence:
#
# PCOD8230468 Si02
#       8
#     8   8   8   8   8   8   8   8
#     4  10  18  33  50  67  95 129 161 198 238 283
#     4  11  21  33  50  71  93 121 159 201 244 287
#     4  10  20  33  47  67  96 129 160 196 242 286
#     4  10  19  31  48  71  96 129 168 203 239 281
#     4   9  16  29  47  70  97 127 162 200 243 286
#     4  10  20  32  45  64  96 133 165 194 232 278
#     4   8  16  29  48  70  95 128 162 195 236 281
#     4  10  19  34  52  70  93 122 158 199 247 289
#
# _framework density 16.367725
#
# number of rings (size 3 to 8) (size 9 to 14) (size 15 to 20)
#    0.000    2.250    1.250    4.500    0.000    3.000 
#    0.000    3.750    0.000    0.000    0.000    0.875 
#    0.000    4.000    0.000    0.000    0.000    0.000 
#
# Total GULP energy -793401.361822 kJ/mol
# GULP energy per Si atom -12396.896278 kJ/mol
# Density = 1.633047 g / cm^3
# Si number density = 16.367725 Si / 1000 Ang^3
#
#
#
# Elastic Constant Matrix: (Units=GPa)
#
#
# Indices 1 2 3 4 5 6 
#
# 1 115.5910 45.9929 38.4624 0.0000 0.0000 0.0000
# 2 45.9929 92.5837 34.3473 0.0000 0.0000 0.0000
# 3 38.4624 34.3473 72.1092 0.0000 0.0000 0.0000
# 4 0.0000 0.0000 0.0000 26.8188 0.0000 0.0000
# 5 0.0000 0.0000 0.0000 0.0000 21.8631 0.0000
# 6 0.0000 0.0000 0.0000 0.0000 0.0000 12.1535
#
#
#
# Elastic Compliance Matrix: (Units=1/GPa)
#
#
# Indices 1 2 3 4 5 6 
#
# 1 0.011761 -0.004270 -0.004239 0.000000 0.000000 0.000000
# 2 -0.004270 0.014669 -0.004710 0.000000 0.000000 0.000000
# 3 -0.004239 -0.004710 0.018373 0.000000 0.000000 0.000000
# 4 0.000000 0.000000 0.000000 0.037287 0.000000 0.000000
# 5 0.000000 0.000000 0.000000 0.000000 0.045739 0.000000
# 6 0.000000 0.000000 0.000000 0.000000 0.000000 0.082281
#
#
# Mechanical properties :
#
#
# Convention : Reuss Voigt Hill
#
# Bulk Modulus (GPa) = 54.45214 57.54322 55.99768
# Shear Modulus (GPa) = 20.60418 22.93251 21.76835
#
# Velocity S-wave (km/s) = 3.55185 3.74716 3.65081
# Velocity P-wave (km/s) = 7.08245 7.34537 7.21511
#
# Compressibility (1/GPa) = 0.01836475
#
# Stress axis : x y z
#
# Youngs Moduli (GPa) = 85.02923 68.16908 54.42905
#
# Poissons Ratio (x) = 0.29106 0.23074
# Poissons Ratio (y) = 0.36304 0.25636
# Poissons Ratio (z) = 0.36046 0.32108
#
# Static dielectric constant tensor:
#      x y z
#    x 3.360840 0.000000 0.000000 
#    y 0.000000 3.073480 0.000000 
#    z 0.000000 0.000000 3.103770 
# 
# 
# High freq. dielectric constant tensor:
#      x y z
#    x 1.622430 0.000000 0.000000 
#    y 0.000000 1.609110 0.000000 
#    z 0.000000 0.000000 1.628610 
# 
# From -- ./inp_files/6076.got.cif
#   From: 2010.03.12/outbox.cif.g09.slc.cpg/sg57_4_cif.got.tgz:6076.got - 2010.04.16 15:48:40.
