data_PCOD8230342
_publ_section_title
;
Structure prediction by ZEFSAII (Michael W. Deem and Ramdas Pophale) SiO2 
 PCOD8230342
Probable space group: P B C M
;
_chemical_formula_sum "Si O2"
_cell_formula_units_Z 48
_cell_length_a 28.251567
_cell_length_b 9.369970
_cell_length_c 9.939458
_cell_angle_alpha 90.000000
_cell_angle_beta 90.000000
_cell_angle_gamma 90.000000
_cell_volume 2631.136896
_symmetry_space_group_name_H-M "P B C M"
_symmetry_group_IT_number 57
_symmetry_cell_setting 'orthorhombic'
loop_
_space_group_symop_operation_xyz
x,y,z
-x,-y,1/2+z
x,1/2-y,-z
-x,1/2+y,1/2-z
-x,-y,-z
x,y,1/2-z
-x,1/2+y,z
x,1/2-y,1/2+z
loop_
_atom_site_type_symbol
_atom_site_label
_atom_site_fract_x
_atom_site_fract_y
_atom_site_fract_z
Si Si1 0.030891 0.606363 0.911082
Si Si2 0.296297 0.900599 0.250000
Si Si3 0.767558 0.419836 0.491366
Si Si4 0.286834 0.562548 0.250000
Si Si5 0.609271 0.927940 0.750000
Si Si6 0.613766 0.904042 0.250000
Si Si7 0.135481 0.883081 0.403517
Si Si8 0.548293 0.584650 0.997738
O O1 0.015274 0.625462 0.750000
O O2 0.084305 0.540419 0.909006
O O3 0.028617 0.750000 0.000000
O O4 0.000000 0.500000 0.000000
O O5 0.269389 0.963118 0.377814
O O6 0.298523 0.729731 0.250000
O O7 0.348229 0.962333 0.250000
O O8 0.772861 0.250000 0.500000
O O9 0.745873 0.485379 0.626000
O O10 0.820407 0.480515 0.456929
O O11 0.336240 0.481844 0.250000
O O12 0.625897 0.763767 0.750000
O O13 0.577496 0.965594 0.875594
O O14 0.582146 0.952877 0.374407
O O15 0.130852 0.750000 0.500000
O O16 0.146940 0.834256 0.250000
O O17 0.534781 0.750000 0.000000
O O18 0.500000 0.500000 0.000000
#
# Coordination Sequence:
#
# PCOD8230342 Si02
#       8
#     8   4   8   4   4   4   8   8
#     4  10  20  35  55  82 112 149 191 237 289 346
#     4  10  18  31  51  74  98 127 165 204 247 296
#     4   9  17  29  46  74 103 128 163 212 260 295
#     4  10  20  31  49  74 102 129 163 208 249 296
#     4  10  21  35  53  74  98 133 165 196 246 302
#     4  10  21  37  51  72 104 133 163 202 246 300
#     4   9  17  29  49  76 107 139 177 222 273 325
#     4  10  21  36  54  75  99 128 163 203 247 295
#
# _framework density 18.243065000000001
#
# number of rings (size 3 to 8) (size 9 to 14) (size 15 to 20)
#    0.000    2.333    0.833    2.000    3.500    2.000 
#    0.000    0.000    0.000    2.000    0.000    0.000 
#    0.000    0.000    0.000    0.000    0.000    0.000 
#
# Total GULP energy -594640.676220 kJ/mol
# GULP energy per Si atom -12388.347421 kJ/mol
# Density = 1.820154 g / cm^3
# Si number density = 18.243065 Si / 1000 Ang^3
#
#
#
# Elastic Constant Matrix: (Units=GPa)
#
#
# Indices 1 2 3 4 5 6 
#
# 1 174.0692 52.6677 89.4640 0.0000 0.0000 0.0000
# 2 52.6677 40.1321 35.4411 0.0000 0.0000 0.0000
# 3 89.4640 35.4411 182.7780 0.0000 0.0000 0.0000
# 4 0.0000 0.0000 0.0000 18.8841 0.0000 0.0000
# 5 0.0000 0.0000 0.0000 0.0000 59.4730 0.0000
# 6 0.0000 0.0000 0.0000 0.0000 0.0000 23.8147
#
#
#
# Elastic Compliance Matrix: (Units=1/GPa)
#
#
# Indices 1 2 3 4 5 6 
#
# 1 0.010779 -0.011447 -0.003056 0.000000 0.000000 0.000000
# 2 -0.011447 0.042222 -0.002584 0.000000 0.000000 0.000000
# 3 -0.003056 -0.002584 0.007468 0.000000 0.000000 0.000000
# 4 0.000000 0.000000 0.000000 0.052955 0.000000 0.000000
# 5 0.000000 0.000000 0.000000 0.000000 0.016814 0.000000
# 6 0.000000 0.000000 0.000000 0.000000 0.000000 0.041991
#
#
# Mechanical properties :
#
#
# Convention : Reuss Voigt Hill
#
# Bulk Modulus (GPa) = 38.03059 83.56944 60.80002
# Shear Modulus (GPa) = 23.23749 35.06144 29.14946
#
# Velocity S-wave (km/s) = 3.57286 4.38871 4.00163
# Velocity P-wave (km/s) = 6.15730 8.46105 7.39938
#
# Compressibility (1/GPa) = 0.02629462
#
# Stress axis : x y z
#
# Youngs Moduli (GPa) = 92.77100 23.68421 133.90052
#
# Poissons Ratio (x) = 0.27111 0.40927
# Poissons Ratio (y) = 1.06195 0.34601
# Poissons Ratio (z) = 0.28355 0.06120
#
# Static dielectric constant tensor:
#      x y z
#    x 3.735340 0.000000 0.000000 
#    y 0.000000 2.882950 0.000000 
#    z 0.000000 0.000000 3.858830 
# 
# 
# High freq. dielectric constant tensor:
#      x y z
#    x 1.728740 0.000000 0.000000 
#    y 0.000000 1.650250 0.000000 
#    z 0.000000 0.000000 1.735720 
# 
# From -- ./inp_files/10203.got.cif
#   From: 2010.03.12/outbox.cif.g09.slc.cpg/sg57_6_cif.got.tgz:10203.got - 2010.04.16 15:48:40.
