data_PCOD8230009
_publ_section_title
;
Structure prediction by ZEFSAII (Michael W. Deem and Ramdas Pophale) SiO2 
 PCOD8230009
Probable space group: P B C M
;
_chemical_formula_sum "Si O2"
_cell_formula_units_Z 64
_cell_length_a 9.506288
_cell_length_b 26.233975
_cell_length_c 13.602022
_cell_angle_alpha 90.000000
_cell_angle_beta 90.000000
_cell_angle_gamma 90.000000
_cell_volume 3392.177278
_symmetry_space_group_name_H-M "P B C M"
_symmetry_group_IT_number 57
_symmetry_cell_setting 'orthorhombic'
loop_
_space_group_symop_operation_xyz
x,y,z
-x,-y,1/2+z
x,1/2-y,-z
-x,1/2+y,1/2-z
-x,-y,-z
x,y,1/2-z
-x,1/2+y,z
x,1/2-y,1/2+z
loop_
_atom_site_type_symbol
_atom_site_label
_atom_site_fract_x
_atom_site_fract_y
_atom_site_fract_z
Si Si1 0.242447 0.911520 0.043927
Si Si2 0.526816 0.567325 0.862502
Si Si3 0.857445 0.783156 0.140460
Si Si4 0.102729 0.331930 0.638793
Si Si5 0.271300 0.976024 0.639099
Si Si6 0.743090 0.868643 0.464791
Si Si7 0.875850 0.194338 0.986592
Si Si8 0.957851 0.559134 0.863400
O O1 0.360967 0.931621 0.118800
O O2 0.100879 0.940595 0.074900
O O3 0.280393 0.928161 0.933228
O O4 0.231833 0.849729 0.048292
O O5 0.559231 0.584566 0.750000
O O6 0.592147 0.511506 0.879438
O O7 0.594020 0.605365 0.943818
O O8 0.851276 0.804998 0.250000
O O9 0.825358 0.723337 0.139296
O O10 0.739408 0.810145 0.072854
O O11 0.010539 0.795453 0.097523
O O12 0.081991 0.352783 0.750000
O O13 0.208871 0.369919 0.579586
O O14 0.951424 0.327528 0.585161
O O15 0.272865 0.954783 0.750000
O O16 0.127214 0.006918 0.619099
O O17 0.862468 0.894362 0.398121
O O18 0.799655 0.250000 0.000000
O O19 0.995403 0.566891 0.750000
#
# Coordination Sequence:
#
# PCOD8230009 Si02
#       8
#     8   8   8   8   8   8   8   8
#     4  12  20  34  58  83 109 147 186 225 277 330
#     4  10  22  37  55  79 109 141 182 231 279 331
#     4   9  15  27  51  76 102 138 182 229 277 325
#     4   9  17  30  50  77 106 141 187 231 269 325
#     4   9  21  39  56  77 108 146 182 225 279 337
#     4  10  17  32  51  75 105 141 177 224 280 319
#     4   9  19  32  48  79 115 144 176 222 279 328
#     4  10  19  33  55  82 107 133 180 233 275 318
#
# _framework density 18.866938999999999
#
# number of rings (size 3 to 8) (size 9 to 14) (size 15 to 20)
#    0.000    2.250    2.500    4.125    0.000    1.000 
#    0.000    1.875    0.000    3.000    0.000    0.000 
#    0.000    0.000    0.000    0.000    0.000    0.000 
#
# Total GULP energy -793239.937620 kJ/mol
# GULP energy per Si atom -12394.374025 kJ/mol
# Density = 1.882400 g / cm^3
# Si number density = 18.866939 Si / 1000 Ang^3
#
#
#
# Elastic Constant Matrix: (Units=GPa)
#
#
# Indices 1 2 3 4 5 6 
#
# 1 66.8808 16.4289 8.3278 0.0000 0.0000 0.0000
# 2 16.4289 59.9971 20.3325 0.0000 0.0000 0.0000
# 3 8.3278 20.3325 104.5657 0.0000 0.0000 0.0000
# 4 0.0000 0.0000 0.0000 28.5436 0.0000 0.0000
# 5 0.0000 0.0000 0.0000 0.0000 20.3906 0.0000
# 6 0.0000 0.0000 0.0000 0.0000 0.0000 16.2512
#
#
#
# Elastic Compliance Matrix: (Units=1/GPa)
#
#
# Indices 1 2 3 4 5 6 
#
# 1 0.016050 -0.004241 -0.000454 0.000000 0.000000 0.000000
# 2 -0.004241 0.018964 -0.003350 0.000000 0.000000 0.000000
# 3 -0.000454 -0.003350 0.010251 0.000000 0.000000 0.000000
# 4 0.000000 0.000000 0.000000 0.035034 0.000000 0.000000
# 5 0.000000 0.000000 0.000000 0.000000 0.049042 0.000000
# 6 0.000000 0.000000 0.000000 0.000000 0.000000 0.061534
#
#
# Mechanical properties :
#
#
# Convention : Reuss Voigt Hill
#
# Bulk Modulus (GPa) = 34.27477 35.73579 35.00528
# Shear Modulus (GPa) = 23.07442 25.46069 24.26755
#
# Velocity S-wave (km/s) = 3.50095 3.67752 3.59032
# Velocity P-wave (km/s) = 5.87777 6.08394 5.98174
#
# Compressibility (1/GPa) = 0.02917598
#
# Stress axis : x y z
#
# Youngs Moduli (GPa) = 62.30409 52.73135 97.55311
#
# Poissons Ratio (x) = 0.22365 0.04425
# Poissons Ratio (y) = 0.26425 0.32677
# Poissons Ratio (z) = 0.02826 0.17663
#
# Static dielectric constant tensor:
#      x y z
#    x 3.202990 0.000000 0.000000 
#    y 0.000000 3.505430 0.000000 
#    z 0.000000 0.000000 3.603430 
# 
# 
# High freq. dielectric constant tensor:
#      x y z
#    x 1.692710 0.000000 0.000000 
#    y 0.000000 1.724920 0.000000 
#    z 0.000000 0.000000 1.742520 
# 
# From -- ./inp_files/17044.got.cif
#   From: 2010.03.12/outbox.cif.g09.slc.cpg/sg57_9_cif.got.tgz:17044.got - 2010.04.16 15:48:40.
