data_PCOD8230203
_publ_section_title
;
Structure prediction by ZEFSAII (Michael W. Deem and Ramdas Pophale) SiO2 
 PCOD8230203
Probable space group: P B C M
;
_chemical_formula_sum "Si O2"
_cell_formula_units_Z 32
_cell_length_a 15.053234
_cell_length_b 20.385675
_cell_length_c 5.365102
_cell_angle_alpha 90.000000
_cell_angle_beta 90.000000
_cell_angle_gamma 90.000000
_cell_volume 1646.390654
_symmetry_space_group_name_H-M "P B C M"
_symmetry_group_IT_number 57
_symmetry_cell_setting 'orthorhombic'
loop_
_space_group_symop_operation_xyz
x,y,z
-x,-y,1/2+z
x,1/2-y,-z
-x,1/2+y,1/2-z
-x,-y,-z
x,y,1/2-z
-x,1/2+y,z
x,1/2-y,1/2+z
loop_
_atom_site_type_symbol
_atom_site_label
_atom_site_fract_x
_atom_site_fract_y
_atom_site_fract_z
Si Si1 0.096603 0.048292 0.250000
Si Si2 0.694683 0.554257 0.250000
Si Si3 0.004485 0.085051 0.750000
Si Si4 0.962082 0.271195 0.250000
Si Si5 0.234620 0.717655 0.250000
Si Si6 0.629195 0.553574 0.750000
Si Si7 0.424568 0.574283 0.750000
Si Si8 0.349632 0.597000 0.250000
O O1 0.201290 0.045400 0.250000
O O2 0.064236 0.084637 0.500463
O O3 0.064430 0.973747 0.250000
O O4 0.663657 0.591837 0.502853
O O5 0.644477 0.485109 0.250000
O O6 0.945705 0.151017 0.750000
O O7 0.015693 0.250000 0.500000
O O8 0.871348 0.228421 0.250000
O O9 0.275841 0.750000 0.500000
O O10 0.259223 0.640205 0.250000
O O11 0.523637 0.545743 0.750000
O O12 0.673479 0.480540 0.750000
O O13 0.407083 0.615717 0.497392
#
# Coordination Sequence:
#
# PCOD8230203 Si02
#       8
#     4   4   4   4   4   4   4   4
#     4  10  21  35  55  78 107 150 188 227 287 330
#     4  10  18  29  48  75 106 135 177 222 259 326
#     4  10  21  38  53  75 113 148 183 230 279 340
#     4  10  21  35  55  77 104 144 184 224 270 331
#     4  10  21  34  47  72 105 138 186 217 249 307
#     4  10  19  31  50  79 115 144 174 212 267 324
#     4  10  19  32  50  78 113 146 176 211 268 323
#     4  10  18  30  48  68 103 147 180 217 247 303
#
# _framework density 19.436456
#
# number of rings (size 3 to 8) (size 9 to 14) (size 15 to 20)
#    0.000    2.000    0.000    6.000    0.000    8.000 
#    0.000    2.500    0.000    0.000    0.000    0.000 
#    0.000  116.000    0.000    0.000    0.000    0.000 
#
# Total GULP energy -396447.959781 kJ/mol
# GULP energy per Si atom -12388.998743 kJ/mol
# Density = 1.939222 g / cm^3
# Si number density = 19.436456 Si / 1000 Ang^3
#
#
#
# Elastic Constant Matrix: (Units=GPa)
#
#
# Indices 1 2 3 4 5 6 
#
# 1 99.2370 16.0329 39.4889 0.0000 0.0000 0.0000
# 2 16.0329 46.9774 14.8764 0.0000 0.0000 0.0000
# 3 39.4889 14.8764 235.2808 0.0000 0.0000 0.0000
# 4 0.0000 0.0000 0.0000 12.0523 0.0000 0.0000
# 5 0.0000 0.0000 0.0000 0.0000 19.3541 0.0000
# 6 0.0000 0.0000 0.0000 0.0000 0.0000 24.3049
#
#
#
# Elastic Compliance Matrix: (Units=1/GPa)
#
#
# Indices 1 2 3 4 5 6 
#
# 1 0.011283 -0.003318 -0.001684 0.000000 0.000000 0.000000
# 2 -0.003318 0.022697 -0.000878 0.000000 0.000000 0.000000
# 3 -0.001684 -0.000878 0.004588 0.000000 0.000000 0.000000
# 4 0.000000 0.000000 0.000000 0.082972 0.000000 0.000000
# 5 0.000000 0.000000 0.000000 0.000000 0.051669 0.000000
# 6 0.000000 0.000000 0.000000 0.000000 0.000000 0.041144
#
#
# Mechanical properties :
#
#
# Convention : Reuss Voigt Hill
#
# Bulk Modulus (GPa) = 37.30084 58.03240 47.66662
# Shear Modulus (GPa) = 21.27218 31.88206 26.57712
#
# Velocity S-wave (km/s) = 3.31183 4.05448 3.70183
# Velocity P-wave (km/s) = 5.81869 7.20005 6.54591
#
# Compressibility (1/GPa) = 0.02680905
#
# Stress axis : x y z
#
# Youngs Moduli (GPa) = 88.62931 44.05829 217.94079
#
# Poissons Ratio (x) = 0.14616 0.36700
# Poissons Ratio (y) = 0.29403 0.19142
# Poissons Ratio (z) = 0.14925 0.03870
#
# Static dielectric constant tensor:
#      x y z
#    x 3.179350 0.000000 0.000000 
#    y 0.000000 3.033660 0.000000 
#    z 0.000000 0.000000 5.832780 
# 
# 
# High freq. dielectric constant tensor:
#      x y z
#    x 1.724530 0.000000 0.000000 
#    y 0.000000 1.691970 0.000000 
#    z 0.000000 0.000000 1.813410 
# 
# From -- ./inp_files/346.got.cif
#   From: 2010.03.12/outbox.cif.g09.slc.cpg/sg57_1_cif.got.tgz:346.got - 2010.04.16 15:48:40.
