data_PCOD8230162
_publ_section_title
;
Structure prediction by ZEFSAII (Michael W. Deem and Ramdas Pophale) SiO2 
 PCOD8230162
Probable space group: P B C M
;
_chemical_formula_sum "Si O2"
_cell_formula_units_Z 64
_cell_length_a 19.146396
_cell_length_b 21.607644
_cell_length_c 9.018192
_cell_angle_alpha 90.000000
_cell_angle_beta 90.000000
_cell_angle_gamma 90.000000
_cell_volume 3730.902763
_symmetry_space_group_name_H-M "P B C M"
_symmetry_group_IT_number 57
_symmetry_cell_setting 'orthorhombic'
loop_
_space_group_symop_operation_xyz
x,y,z
-x,-y,1/2+z
x,1/2-y,-z
-x,1/2+y,1/2-z
-x,-y,-z
x,y,1/2-z
-x,1/2+y,z
x,1/2-y,1/2+z
loop_
_atom_site_type_symbol
_atom_site_label
_atom_site_fract_x
_atom_site_fract_y
_atom_site_fract_z
Si Si1 0.029720 0.314085 0.421231
Si Si2 0.532337 0.442647 0.419985
Si Si3 0.828078 0.877791 0.079450
Si Si4 0.398119 0.116536 0.576198
Si Si5 0.710254 0.688698 0.423969
Si Si6 0.826222 0.501192 0.419513
Si Si7 0.034575 0.558812 0.921112
Si Si8 0.331301 0.998722 0.077437
O O1 0.008327 0.250000 0.500000
O O2 0.010554 0.305468 0.250000
O O3 0.111944 0.326819 0.443927
O O4 0.988603 0.374212 0.486981
O O5 0.500000 0.500000 0.500000
O O6 0.519589 0.456923 0.250000
O O7 0.482059 0.384451 0.461023
O O8 0.616065 0.439537 0.452796
O O9 0.803851 0.879423 0.250000
O O10 0.762529 0.865552 0.972325
O O11 0.854532 0.945076 0.028370
O O12 0.383659 0.125728 0.750000
O O13 0.367053 0.174453 0.486146
O O14 0.357634 0.055079 0.522743
O O15 0.739860 0.750000 0.500000
O O16 0.708529 0.696917 0.250000
O O17 0.827052 0.525392 0.250000
O O18 0.881045 0.444949 0.437598
O O19 0.747802 0.479112 0.464342
O O20 0.010481 0.556190 0.750000
O O21 0.000000 0.500000 0.000000
O O22 0.335710 0.019041 0.250000
#
# Coordination Sequence:
#
# PCOD8230162 Si02
#       8
#     8   8   8   8   8   8   8   8
#     4  10  22  37  53  74 100 132 172 215 256 303
#     4   8  15  26  42  64  92 120 152 188 230 280
#     4  11  21  34  51  72 100 132 168 207 248 301
#     4  10  18  29  45  66  92 126 160 199 243 287
#     4  12  24  36  48  66  94 130 170 210 248 294
#     4  10  19  30  50  75 102 134 167 204 254 305
#     4  10  20  35  52  75 103 134 171 214 260 310
#     4   9  16  28  45  69  96 125 158 195 239 292
#
# _framework density 17.154024
#
# number of rings (size 3 to 8) (size 9 to 14) (size 15 to 20)
#    0.000    2.000    2.500    2.250    0.000    3.000 
#    0.000    0.000    0.000    0.000    0.000    0.875 
#    0.000    2.000    0.000    0.000    0.000    0.000 
#
# Total GULP energy -792923.597447 kJ/mol
# GULP energy per Si atom -12389.431210 kJ/mol
# Density = 1.711498 g / cm^3
# Si number density = 17.154024 Si / 1000 Ang^3
#
#
#
# Elastic Constant Matrix: (Units=GPa)
#
#
# Indices 1 2 3 4 5 6 
#
# 1 95.0319 42.6930 32.3588 0.0000 0.0000 0.0000
# 2 42.6930 83.9969 35.0883 0.0000 0.0000 0.0000
# 3 32.3588 35.0883 78.7964 0.0000 0.0000 0.0000
# 4 0.0000 0.0000 0.0000 24.6746 0.0000 0.0000
# 5 0.0000 0.0000 0.0000 0.0000 17.7347 0.0000
# 6 0.0000 0.0000 0.0000 0.0000 0.0000 22.7251
#
#
#
# Elastic Compliance Matrix: (Units=1/GPa)
#
#
# Indices 1 2 3 4 5 6 
#
# 1 0.014277 -0.005906 -0.003233 0.000000 0.000000 0.000000
# 2 -0.005906 0.017069 -0.005176 0.000000 0.000000 0.000000
# 3 -0.003233 -0.005176 0.016323 0.000000 0.000000 0.000000
# 4 0.000000 0.000000 0.000000 0.040528 0.000000 0.000000
# 5 0.000000 0.000000 0.000000 0.000000 0.056387 0.000000
# 6 0.000000 0.000000 0.000000 0.000000 0.000000 0.044004
#
#
# Mechanical properties :
#
#
# Convention : Reuss Voigt Hill
#
# Bulk Modulus (GPa) = 52.52062 53.12283 52.82172
# Shear Modulus (GPa) = 22.36503 22.87256 22.61880
#
# Velocity S-wave (km/s) = 3.61470 3.65549 3.63515
# Velocity P-wave (km/s) = 6.93578 6.98943 6.96266
#
# Compressibility (1/GPa) = 0.01904014
#
# Stress axis : x y z
#
# Youngs Moduli (GPa) = 70.04335 58.58578 61.26207
#
# Poissons Ratio (x) = 0.34600 0.19806
# Poissons Ratio (y) = 0.41367 0.31706
# Poissons Ratio (z) = 0.22645 0.30321
#
# Static dielectric constant tensor:
#      x y z
#    x 3.688460 0.000000 0.000000 
#    y 0.000000 3.070760 0.000000 
#    z 0.000000 0.000000 3.186810 
# 
# 
# High freq. dielectric constant tensor:
#      x y z
#    x 1.668590 0.000000 0.000000 
#    y 0.000000 1.619420 0.000000 
#    z 0.000000 0.000000 1.665880 
# 
# From -- ./inp_files/8771.got.cif
#   From: 2010.03.12/outbox.cif.g09.slc.cpg/sg57_5_cif.got.tgz:8771.got - 2010.04.16 15:48:40.
