data_PCOD8230927
_publ_section_title
;
Structure prediction by ZEFSAII (Michael W. Deem and Ramdas Pophale) SiO2 
 PCOD8230927
Probable space group: P B C M
;
_chemical_formula_sum "Si O2"
_cell_formula_units_Z 48
_cell_length_a 18.375305
_cell_length_b 15.414465
_cell_length_c 9.179114
_cell_angle_alpha 90.000000
_cell_angle_beta 90.000000
_cell_angle_gamma 90.000000
_cell_volume 2599.942696
_symmetry_space_group_name_H-M "P B C M"
_symmetry_group_IT_number 57
_symmetry_cell_setting 'orthorhombic'
loop_
_space_group_symop_operation_xyz
x,y,z
-x,-y,1/2+z
x,1/2-y,-z
-x,1/2+y,1/2-z
-x,-y,-z
x,y,1/2-z
-x,1/2+y,z
x,1/2-y,1/2+z
loop_
_atom_site_type_symbol
_atom_site_label
_atom_site_fract_x
_atom_site_fract_y
_atom_site_fract_z
Si Si1 0.172346 0.001986 0.582444
Si Si2 0.031205 0.920557 0.915995
Si Si3 0.431821 0.836237 0.919333
Si Si4 0.108699 0.334533 0.920336
Si Si5 0.600395 0.662130 0.078706
Si Si6 0.662601 0.498303 0.919929
O O1 0.164537 0.032627 0.750000
O O2 0.118546 0.918199 0.552039
O O3 0.151125 0.082049 0.480145
O O4 0.254051 0.971320 0.550533
O O5 0.017349 0.943331 0.750000
O O6 0.979350 0.838702 0.954184
O O7 0.000000 0.000000 0.000000
O O8 0.418098 0.820544 0.750000
O O9 0.515807 0.855074 0.954698
O O10 0.386473 0.918681 0.976151
O O11 0.404310 0.750000 0.000000
O O12 0.125445 0.326439 0.750000
O O13 0.139891 0.250000 0.000000
O O14 0.615961 0.670400 0.250000
O O15 0.626486 0.750000 0.000000
O O16 0.645657 0.583063 0.013417
O O17 0.647346 0.517927 0.750000
#
# Coordination Sequence:
#
# PCOD8230927 Si02
#       6
#     8   8   8   8   8   8
#     4   9  18  33  51  70  96 128 159 196 244 294
#     4   8  15  29  48  67  87 116 153 189 226 271
#     4   9  19  35  54  76 101 132 171 214 257 301
#     4  10  19  31  49  72  97 125 160 200 240 287
#     4  10  20  34  53  76 103 135 172 213 254 301
#     4  10  20  34  53  77 105 136 169 208 257 308
#
# _framework density 18.461946000000001
#
# number of rings (size 3 to 8) (size 9 to 14) (size 15 to 20)
#    0.000    2.667    0.000    1.500    0.000    3.333 
#    0.000    0.833    0.000    0.000    0.000    0.000 
#    0.000    0.000    0.000    0.000    0.000    0.000 
#
# Total GULP energy -594767.792647 kJ/mol
# GULP energy per Si atom -12390.995680 kJ/mol
# Density = 1.841993 g / cm^3
# Si number density = 18.461946 Si / 1000 Ang^3
#
#
#
# Elastic Constant Matrix: (Units=GPa)
#
#
# Indices 1 2 3 4 5 6 
#
# 1 74.7978 18.5754 20.2408 0.0000 0.0000 0.0000
# 2 18.5754 57.8909 23.9890 0.0000 0.0000 0.0000
# 3 20.2408 23.9890 58.6423 0.0000 0.0000 0.0000
# 4 0.0000 0.0000 0.0000 28.9972 0.0000 0.0000
# 5 0.0000 0.0000 0.0000 0.0000 21.9200 0.0000
# 6 0.0000 0.0000 0.0000 0.0000 0.0000 16.5421
#
#
#
# Elastic Compliance Matrix: (Units=1/GPa)
#
#
# Indices 1 2 3 4 5 6 
#
# 1 0.015242 -0.003264 -0.003926 0.000000 0.000000 0.000000
# 2 -0.003264 0.021499 -0.007668 0.000000 0.000000 0.000000
# 3 -0.003926 -0.007668 0.021544 0.000000 0.000000 0.000000
# 4 0.000000 0.000000 0.000000 0.034486 0.000000 0.000000
# 5 0.000000 0.000000 0.000000 0.000000 0.045620 0.000000
# 6 0.000000 0.000000 0.000000 0.000000 0.000000 0.060452
#
#
# Mechanical properties :
#
#
# Convention : Reuss Voigt Hill
#
# Bulk Modulus (GPa) = 35.00196 35.21571 35.10884
# Shear Modulus (GPa) = 21.00113 22.06024 21.53069
#
# Velocity S-wave (km/s) = 3.37640 3.46049 3.41870
# Velocity P-wave (km/s) = 5.84809 5.92307 5.88570
#
# Compressibility (1/GPa) = 0.02856983
#
# Stress axis : x y z
#
# Youngs Moduli (GPa) = 65.60687 46.51453 46.41598
#
# Poissons Ratio (x) = 0.15182 0.18222
# Poissons Ratio (y) = 0.21414 0.35591
# Poissons Ratio (z) = 0.25756 0.35667
#
# Static dielectric constant tensor:
#      x y z
#    x 3.778610 0.000000 0.000000 
#    y 0.000000 3.292900 0.000000 
#    z 0.000000 0.000000 3.386210 
# 
# 
# High freq. dielectric constant tensor:
#      x y z
#    x 1.718760 0.000000 0.000000 
#    y 0.000000 1.694800 0.000000 
#    z 0.000000 0.000000 1.719560 
# 
# From -- ./inp_files/6543.got.cif
#   From: 2010.03.12/outbox.cif.g09.slc.cpg/sg57_4_cif.got.tgz:6543.got - 2010.04.16 15:48:40.
