data_PCOD8230163
_publ_section_title
;
Structure prediction by ZEFSAII (Michael W. Deem and Ramdas Pophale) SiO2 
 PCOD8230163
Probable space group: P B C M
;
_chemical_formula_sum "Si O2"
_cell_formula_units_Z 56
_cell_length_a 20.979950
_cell_length_b 18.327872
_cell_length_c 9.038174
_cell_angle_alpha 90.000000
_cell_angle_beta 90.000000
_cell_angle_gamma 90.000000
_cell_volume 3475.339127
_symmetry_space_group_name_H-M "P B C M"
_symmetry_group_IT_number 57
_symmetry_cell_setting 'orthorhombic'
loop_
_space_group_symop_operation_xyz
x,y,z
-x,-y,1/2+z
x,1/2-y,-z
-x,1/2+y,1/2-z
-x,-y,-z
x,y,1/2-z
-x,1/2+y,z
x,1/2-y,1/2+z
loop_
_atom_site_type_symbol
_atom_site_label
_atom_site_fract_x
_atom_site_fract_y
_atom_site_fract_z
Si Si1 0.252789 0.327404 0.075520
Si Si2 0.061420 0.531313 0.578476
Si Si3 0.500969 0.675662 0.575534
Si Si4 0.441490 0.532740 0.581860
Si Si5 0.000970 0.175428 0.579684
Si Si6 0.624852 0.606014 0.075156
Si Si7 0.875469 0.588318 0.922713
O O1 0.262918 0.317107 0.250000
O O2 0.191147 0.375042 0.038078
O O3 0.243508 0.250000 0.000000
O O4 0.312279 0.368377 0.005922
O O5 0.059640 0.511127 0.750000
O O6 0.058419 0.619147 0.556088
O O7 0.122091 0.490845 0.504475
O O8 0.000000 0.500000 0.500000
O O9 0.478480 0.750000 0.500000
O O10 0.514562 0.686374 0.750000
O O11 0.440901 0.619707 0.548190
O O12 0.565063 0.647958 0.495977
O O13 0.500000 0.500000 0.500000
O O14 0.459249 0.520541 0.750000
O O15 0.379793 0.482391 0.545321
O O16 0.983512 0.250000 0.500000
O O17 0.010458 0.194507 0.750000
O O18 0.067225 0.140523 0.519617
O O19 0.628024 0.624132 0.250000
O O20 0.883822 0.573305 0.750000
#
# Coordination Sequence:
#
# PCOD8230163 Si02
#       7
#     8   8   8   8   8   8   8
#     4  11  22  34  47  66  92 122 155 188 219 259
#     4   9  17  29  45  65  89 116 149 184 222 266
#     4  10  18  29  45  67  92 117 145 181 225 269
#     4   8  16  29  45  63  85 113 146 182 220 263
#     4   9  17  28  43  66  91 115 143 178 218 261
#     4  10  19  32  47  64  88 120 154 186 221 262
#     4   9  19  33  46  63  89 119 153 187 220 260
#
# _framework density 16.113534999999999
#
# number of rings (size 3 to 8) (size 9 to 14) (size 15 to 20)
#    0.000    2.571    0.000    3.429    0.000    5.143 
#    0.000    0.000    0.000    0.000    0.000    1.000 
#    0.000    2.286    0.000    0.000    0.000    0.000 
#
# Total GULP energy -693735.149010 kJ/mol
# GULP energy per Si atom -12388.127661 kJ/mol
# Density = 1.607686 g / cm^3
# Si number density = 16.113535 Si / 1000 Ang^3
#
#
#
# Elastic Constant Matrix: (Units=GPa)
#
#
# Indices 1 2 3 4 5 6 
#
# 1 95.4993 87.7643 55.1322 0.0000 0.0000 0.0000
# 2 87.7643 166.8840 77.4939 0.0000 0.0000 0.0000
# 3 55.1322 77.4939 88.3123 0.0000 0.0000 0.0000
# 4 0.0000 0.0000 0.0000 28.3465 0.0000 0.0000
# 5 0.0000 0.0000 0.0000 0.0000 19.9267 0.0000
# 6 0.0000 0.0000 0.0000 0.0000 0.0000 25.2772
#
#
#
# Elastic Compliance Matrix: (Units=1/GPa)
#
#
# Indices 1 2 3 4 5 6 
#
# 1 0.022030 -0.008775 -0.006053 0.000000 0.000000 0.000000
# 2 -0.008775 0.013608 -0.006463 0.000000 0.000000 0.000000
# 3 -0.006053 -0.006463 0.020774 0.000000 0.000000 0.000000
# 4 0.000000 0.000000 0.000000 0.035278 0.000000 0.000000
# 5 0.000000 0.000000 0.000000 0.000000 0.050184 0.000000
# 6 0.000000 0.000000 0.000000 0.000000 0.000000 0.039561
#
#
# Mechanical properties :
#
#
# Convention : Reuss Voigt Hill
#
# Bulk Modulus (GPa) = 72.30831 87.94183 80.12507
# Shear Modulus (GPa) = 21.86980 23.39709 22.63344
#
# Velocity S-wave (km/s) = 3.68806 3.81467 3.75190
# Velocity P-wave (km/s) = 7.94402 8.60797 8.28265
#
# Compressibility (1/GPa) = 0.01382967
#
# Stress axis : x y z
#
# Youngs Moduli (GPa) = 45.39332 73.48669 48.13782
#
# Poissons Ratio (x) = 0.64481 0.29139
# Poissons Ratio (y) = 0.39831 0.31112
# Poissons Ratio (z) = 0.27477 0.47495
#
# Static dielectric constant tensor:
#      x y z
#    x 2.901220 0.000000 0.000000 
#    y 0.000000 3.808160 0.000000 
#    z 0.000000 0.000000 3.255740 
# 
# 
# High freq. dielectric constant tensor:
#      x y z
#    x 1.575780 0.000000 0.000000 
#    y 0.000000 1.628000 0.000000 
#    z 0.000000 0.000000 1.635200 
# 
# From -- ./inp_files/8305.got.cif
#   From: 2010.03.12/outbox.cif.g09.slc.cpg/sg57_5_cif.got.tgz:8305.got - 2010.04.16 15:48:40.
