data_PCOD8230056
_publ_section_title
;
Structure prediction by ZEFSAII (Michael W. Deem and Ramdas Pophale) SiO2 
 PCOD8230056
Probable space group: P B C M
;
_chemical_formula_sum "Si O2"
_cell_formula_units_Z 56
_cell_length_a 13.478578
_cell_length_b 27.877905
_cell_length_c 9.412486
_cell_angle_alpha 90.000000
_cell_angle_beta 90.000000
_cell_angle_gamma 90.000000
_cell_volume 3536.784131
_symmetry_space_group_name_H-M "P B C M"
_symmetry_group_IT_number 57
_symmetry_cell_setting 'orthorhombic'
loop_
_space_group_symop_operation_xyz
x,y,z
-x,-y,1/2+z
x,1/2-y,-z
-x,1/2+y,1/2-z
-x,-y,-z
x,y,1/2-z
-x,1/2+y,z
x,1/2-y,1/2+z
loop_
_atom_site_type_symbol
_atom_site_label
_atom_site_fract_x
_atom_site_fract_y
_atom_site_fract_z
Si Si1 0.239589 0.205762 0.411108
Si Si2 0.718599 0.897707 0.912328
Si Si3 0.010008 0.202731 0.082583
Si Si4 0.067665 0.615968 0.589713
Si Si5 0.880480 0.948997 0.087110
Si Si6 0.404010 0.012366 0.087714
Si Si7 0.198924 0.967691 0.414666
O O1 0.282843 0.250000 0.500000
O O2 0.245829 0.222790 0.250000
O O3 0.306292 0.158417 0.439852
O O4 0.125683 0.193795 0.451560
O O5 0.757376 0.903899 0.750000
O O6 0.623080 0.931469 0.936792
O O7 0.804654 0.911361 0.019734
O O8 0.989459 0.208175 0.250000
O O9 0.973145 0.250000 0.000000
O O10 0.946885 0.158068 0.023452
O O11 0.063445 0.637344 0.750000
O O12 0.172569 0.588555 0.561347
O O13 0.988593 0.573508 0.572485
O O14 0.850933 0.957758 0.250000
O O15 0.875889 0.999387 0.005067
O O16 0.430264 0.002085 0.250000
O O17 0.312136 0.978729 0.038454
O O18 0.500000 0.000000 0.000000
O O19 0.185203 0.982154 0.250000
#
# Coordination Sequence:
#
# PCOD8230056 Si02
#       7
#     8   8   8   8   8   8   8
#     4   9  17  28  43  63  89 121 154 183 215 259
#     4   9  17  31  46  63  90 126 154 178 224 279
#     4  10  19  30  45  64  90 125 160 192 223 261
#     4  10  19  30  44  64  91 122 156 188 222 263
#     4  10  18  26  41  66  92 118 151 189 218 253
#     4   9  18  32  50  67  88 116 149 188 232 278
#     4   9  19  33  46  62  89 123 151 181 225 276
#
# _framework density 15.833593
#
# number of rings (size 3 to 8) (size 9 to 14) (size 15 to 20)
#    0.000    2.571    1.429    2.143    0.000    4.571 
#    0.000    0.000    0.000    0.000    0.000    1.000 
#    0.000    4.571    0.000    0.000    0.000    0.000 
#
# Total GULP energy -694173.264133 kJ/mol
# GULP energy per Si atom -12395.951145 kJ/mol
# Density = 1.579756 g / cm^3
# Si number density = 15.833593 Si / 1000 Ang^3
#
#
#
# Elastic Constant Matrix: (Units=GPa)
#
#
# Indices 1 2 3 4 5 6 
#
# 1 59.7802 41.9251 33.3889 0.0000 0.0000 0.0000
# 2 41.9251 112.1190 54.9240 0.0000 0.0000 0.0000
# 3 33.3889 54.9240 81.9606 0.0000 0.0000 0.0000
# 4 0.0000 0.0000 0.0000 31.8694 0.0000 0.0000
# 5 0.0000 0.0000 0.0000 0.0000 20.5286 0.0000
# 6 0.0000 0.0000 0.0000 0.0000 0.0000 15.6488
#
#
#
# Elastic Compliance Matrix: (Units=1/GPa)
#
#
# Indices 1 2 3 4 5 6 
#
# 1 0.024329 -0.006315 -0.005679 0.000000 0.000000 0.000000
# 2 -0.006315 0.014917 -0.007424 0.000000 0.000000 0.000000
# 3 -0.005679 -0.007424 0.019489 0.000000 0.000000 0.000000
# 4 0.000000 0.000000 0.000000 0.031378 0.000000 0.000000
# 5 0.000000 0.000000 0.000000 0.000000 0.048713 0.000000
# 6 0.000000 0.000000 0.000000 0.000000 0.000000 0.063903
#
#
# Mechanical properties :
#
#
# Convention : Reuss Voigt Hill
#
# Bulk Modulus (GPa) = 50.25287 57.14842 53.70065
# Shear Modulus (GPa) = 20.14518 21.85080 20.99799
#
# Velocity S-wave (km/s) = 3.57081 3.71890 3.64561
# Velocity P-wave (km/s) = 6.98627 7.38998 7.19096
#
# Compressibility (1/GPa) = 0.01989936
#
# Stress axis : x y z
#
# Youngs Moduli (GPa) = 41.10328 67.03601 51.31031
#
# Poissons Ratio (x) = 0.42337 0.29139
# Poissons Ratio (y) = 0.25959 0.38091
# Poissons Ratio (z) = 0.23342 0.49766
#
# Static dielectric constant tensor:
#      x y z
#    x 2.658910 0.000000 0.000000 
#    y 0.000000 3.108090 0.000000 
#    z 0.000000 0.000000 3.070420 
# 
# 
# High freq. dielectric constant tensor:
#      x y z
#    x 1.557870 0.000000 0.000000 
#    y 0.000000 1.608560 0.000000 
#    z 0.000000 0.000000 1.616750 
# 
# From -- ./inp_files/5902.got.cif
#   From: 2010.03.12/outbox.cif.g09.slc.cpg/sg57_3_cif.got.tgz:5902.got - 2010.04.16 15:48:40.
