data_PCOD8230396
_publ_section_title
;
Structure prediction by ZEFSAII (Michael W. Deem and Ramdas Pophale) SiO2 
 PCOD8230396
Probable space group: P B C M
;
_chemical_formula_sum "Si O2"
_cell_formula_units_Z 40
_cell_length_a 8.816420
_cell_length_b 12.118688
_cell_length_c 18.593304
_cell_angle_alpha 90.000000
_cell_angle_beta 90.000000
_cell_angle_gamma 90.000000
_cell_volume 1986.572621
_symmetry_space_group_name_H-M "P B C M"
_symmetry_group_IT_number 57
_symmetry_cell_setting 'orthorhombic'
loop_
_space_group_symop_operation_xyz
x,y,z
-x,-y,1/2+z
x,1/2-y,-z
-x,1/2+y,1/2-z
-x,-y,-z
x,y,1/2-z
-x,1/2+y,z
x,1/2-y,1/2+z
loop_
_atom_site_type_symbol
_atom_site_label
_atom_site_fract_x
_atom_site_fract_y
_atom_site_fract_z
Si Si1 0.654693 0.367294 0.991927
Si Si2 0.052043 0.584336 0.560349
Si Si3 0.246038 0.219756 0.582150
Si Si4 0.467469 0.473840 0.391705
Si Si5 0.755017 0.946070 0.668634
O O1 0.639841 0.420077 0.911714
O O2 0.567115 0.250000 0.000000
O O3 0.824436 0.342500 0.018512
O O4 0.586689 0.460066 0.043471
O O5 0.122568 0.524585 0.630036
O O6 0.000000 0.500000 0.500000
O O7 0.918279 0.663531 0.586637
O O8 0.287514 0.250000 0.500000
O O9 0.366933 0.135437 0.618445
O O10 0.249228 0.329006 0.629046
O O11 0.582634 0.502974 0.326898
O O12 0.811308 0.929817 0.750000
#
# Coordination Sequence:
#
# PCOD8230396 Si02
#       5
#     8   8   8   8   8
#     4  10  18  31  57  91 120 151 195 258 310 361
#     4  11  21  38  63  95 125 157 208 267 316 378
#     4  12  21  38  71  97 123 165 220 269 322 379
#     4  10  20  36  57  86 126 159 204 256 313 369
#     4  11  26  43  59  90 133 173 214 264 323 391
#
# _framework density 20.135179999999998
#
# number of rings (size 3 to 8) (size 9 to 14) (size 15 to 20)
#    0.000    1.200    4.000    4.800    0.000    1.600 
#    0.000    0.000    0.000    0.000    0.000    0.000 
#    0.000    0.000    0.000    0.000    0.000    0.000 
#
# Total GULP energy -495571.571041 kJ/mol
# GULP energy per Si atom -12389.289276 kJ/mol
# Density = 2.008935 g / cm^3
# Si number density = 20.135180 Si / 1000 Ang^3
#
#
#
# Elastic Constant Matrix: (Units=GPa)
#
#
# Indices 1 2 3 4 5 6 
#
# 1 121.3153 40.1290 30.4497 0.0000 0.0000 0.0000
# 2 40.1290 116.6255 33.7732 0.0000 0.0000 0.0000
# 3 30.4497 33.7732 104.5208 0.0000 0.0000 0.0000
# 4 0.0000 0.0000 0.0000 22.2052 0.0000 0.0000
# 5 0.0000 0.0000 0.0000 0.0000 20.2920 0.0000
# 6 0.0000 0.0000 0.0000 0.0000 0.0000 39.5462
#
#
#
# Elastic Compliance Matrix: (Units=1/GPa)
#
#
# Indices 1 2 3 4 5 6 
#
# 1 0.009637 -0.002761 -0.001915 0.000000 0.000000 0.000000
# 2 -0.002761 0.010251 -0.002508 0.000000 0.000000 0.000000
# 3 -0.001915 -0.002508 0.010936 0.000000 0.000000 0.000000
# 4 0.000000 0.000000 0.000000 0.045034 0.000000 0.000000
# 5 0.000000 0.000000 0.000000 0.000000 0.049281 0.000000
# 6 0.000000 0.000000 0.000000 0.000000 0.000000 0.025287
#
#
# Mechanical properties :
#
#
# Convention : Reuss Voigt Hill
#
# Bulk Modulus (GPa) = 60.77255 61.24060 61.00657
# Shear Modulus (GPa) = 29.36348 32.28266 30.82307
#
# Velocity S-wave (km/s) = 3.82293 4.00846 3.91680
# Velocity P-wave (km/s) = 7.05225 7.20447 7.12877
#
# Compressibility (1/GPa) = 0.01645480
#
# Stress axis : x y z
#
# Youngs Moduli (GPa) = 103.76545 97.55318 91.44285
#
# Poissons Ratio (x) = 0.26938 0.17514
# Poissons Ratio (y) = 0.28653 0.22932
# Poissons Ratio (z) = 0.19874 0.24465
#
# Static dielectric constant tensor:
#      x y z
#    x 7.999530 0.000000 0.000000 
#    y 0.000000 3.781730 0.000000 
#    z 0.000000 0.000000 5.077930 
# 
# 
# High freq. dielectric constant tensor:
#      x y z
#    x 1.802740 0.000000 0.000000 
#    y 0.000000 1.803400 0.000000 
#    z 0.000000 0.000000 1.736790 
# 
# From -- ./inp_files/20523.got.cif
#   From: 2010.03.12/outbox.cif.g09.slc.cpg/sg57_11_cif.got.tgz:20523.got - 2010.04.16 15:48:40.
