data_PCOD8230070
_publ_section_title
;
Structure prediction by ZEFSAII (Michael W. Deem and Ramdas Pophale) SiO2 
 PCOD8230070
Probable space group: P B C M
;
_chemical_formula_sum "Si O2"
_cell_formula_units_Z 56
_cell_length_a 17.695431
_cell_length_b 21.587767
_cell_length_c 9.104886
_cell_angle_alpha 90.000000
_cell_angle_beta 90.000000
_cell_angle_gamma 90.000000
_cell_volume 3478.110532
_symmetry_space_group_name_H-M "P B C M"
_symmetry_group_IT_number 57
_symmetry_cell_setting 'orthorhombic'
loop_
_space_group_symop_operation_xyz
x,y,z
-x,-y,1/2+z
x,1/2-y,-z
-x,1/2+y,1/2-z
-x,-y,-z
x,y,1/2-z
-x,1/2+y,z
x,1/2-y,1/2+z
loop_
_atom_site_type_symbol
_atom_site_label
_atom_site_fract_x
_atom_site_fract_y
_atom_site_fract_z
Si Si1 0.781948 0.893447 0.915892
Si Si2 0.538366 0.913834 0.420113
Si Si3 0.337059 0.185206 0.922002
Si Si4 0.603505 0.453319 0.921664
Si Si5 0.100917 0.553343 0.417603
Si Si6 0.754959 0.037755 0.579650
Si Si7 0.060656 0.432805 0.917213
O O1 0.756017 0.878205 0.750000
O O2 0.872463 0.881991 0.935766
O O3 0.763805 0.964899 0.953529
O O4 0.739131 0.848218 0.025683
O O5 0.515394 0.914056 0.250000
O O6 0.590444 0.856060 0.462363
O O7 0.462355 0.909235 0.515551
O O8 0.584526 0.975657 0.460268
O O9 0.329561 0.195967 0.750000
O O10 0.348465 0.250000 0.000000
O O11 0.611197 0.441422 0.750000
O O12 0.681828 0.435477 0.998222
O O13 0.129055 0.553836 0.250000
O O14 0.171271 0.574341 0.518365
O O15 0.074217 0.484684 0.460546
O O16 0.024417 0.595488 0.437834
O O17 0.746798 0.052402 0.750000
O O18 0.067778 0.460530 0.750000
#
# Coordination Sequence:
#
# PCOD8230070 Si02
#       7
#     8   8   8   8   8   8   8
#     4   9  17  29  44  61  84 116 152 186 224 265
#     4   9  19  33  46  64  89 115 147 186 231 276
#     4  11  22  35  49  66  89 117 153 192 230 272
#     4  10  18  29  47  68  89 115 151 187 225 276
#     4   9  15  23  37  57  84 115 148 180 212 253
#     4  10  18  27  41  62  91 121 150 183 223 268
#     4   8  15  26  38  56  82 114 147 180 216 256
#
# _framework density 16.100697
#
# number of rings (size 3 to 8) (size 9 to 14) (size 15 to 20)
#    0.000    2.571    1.429    2.571    0.000    4.571 
#    0.000    0.000    0.000    0.000    0.000    0.000 
#    0.000    1.143    0.000    8.286    0.000    4.429 
#
# Total GULP energy -694080.373592 kJ/mol
# GULP energy per Si atom -12394.292386 kJ/mol
# Density = 1.606405 g / cm^3
# Si number density = 16.100697 Si / 1000 Ang^3
#
#
#
# Elastic Constant Matrix: (Units=GPa)
#
#
# Indices 1 2 3 4 5 6 
#
# 1 159.3786 34.6649 72.5016 0.0000 0.0000 0.0000
# 2 34.6649 44.1792 29.1588 0.0000 0.0000 0.0000
# 3 72.5016 29.1588 88.2508 0.0000 0.0000 0.0000
# 4 0.0000 0.0000 0.0000 15.9571 0.0000 0.0000
# 5 0.0000 0.0000 0.0000 0.0000 33.0677 0.0000
# 6 0.0000 0.0000 0.0000 0.0000 0.0000 10.8762
#
#
#
# Elastic Compliance Matrix: (Units=1/GPa)
#
#
# Indices 1 2 3 4 5 6 
#
# 1 0.010363 -0.003213 -0.007452 0.000000 0.000000 0.000000
# 2 -0.003213 0.029944 -0.007254 0.000000 0.000000 0.000000
# 3 -0.007452 -0.007254 0.019851 0.000000 0.000000 0.000000
# 4 0.000000 0.000000 0.000000 0.062668 0.000000 0.000000
# 5 0.000000 0.000000 0.000000 0.000000 0.030241 0.000000
# 6 0.000000 0.000000 0.000000 0.000000 0.000000 0.091944
#
#
# Mechanical properties :
#
#
# Convention : Reuss Voigt Hill
#
# Bulk Modulus (GPa) = 41.12013 62.71768 51.91891
# Shear Modulus (GPa) = 17.30371 22.34576 19.82474
#
# Velocity S-wave (km/s) = 3.28185 3.72946 3.51279
# Velocity P-wave (km/s) = 6.32103 7.58836 6.98350
#
# Compressibility (1/GPa) = 0.02431899
#
# Stress axis : x y z
#
# Youngs Moduli (GPa) = 96.49532 33.39582 50.37654
#
# Poissons Ratio (x) = 0.10730 0.37542
# Poissons Ratio (y) = 0.31002 0.36544
# Poissons Ratio (z) = 0.71911 0.24226
#
# Static dielectric constant tensor:
#      x y z
#    x 3.435140 0.000000 0.000000 
#    y 0.000000 2.493690 0.000000 
#    z 0.000000 0.000000 3.129130 
# 
# 
# High freq. dielectric constant tensor:
#      x y z
#    x 1.641450 0.000000 0.000000 
#    y 0.000000 1.535140 0.000000 
#    z 0.000000 0.000000 1.633970 
# 
# From -- ./inp_files/7072.got.cif
#   From: 2010.03.12/outbox.cif.g09.slc.cpg/sg57_4_cif.got.tgz:7072.got - 2010.04.16 15:48:40.
