data_PCOD8230803
_publ_section_title
;
Structure prediction by ZEFSAII (Michael W. Deem and Ramdas Pophale) SiO2 
 PCOD8230803
Probable space group: P B C M
;
_chemical_formula_sum "Si O2"
_cell_formula_units_Z 56
_cell_length_a 13.986890
_cell_length_b 20.507778
_cell_length_c 9.173713
_cell_angle_alpha 90.000000
_cell_angle_beta 90.000000
_cell_angle_gamma 90.000000
_cell_volume 2631.388158
_symmetry_space_group_name_H-M "P B C M"
_symmetry_group_IT_number 57
_symmetry_cell_setting 'orthorhombic'
loop_
_space_group_symop_operation_xyz
x,y,z
-x,-y,1/2+z
x,1/2-y,-z
-x,1/2+y,1/2-z
-x,-y,-z
x,y,1/2-z
-x,1/2+y,z
x,1/2-y,1/2+z
loop_
_atom_site_type_symbol
_atom_site_label
_atom_site_fract_x
_atom_site_fract_y
_atom_site_fract_z
Si Si1 0.431297 0.816265 0.582756
Si Si2 0.961744 0.183343 0.419041
Si Si3 0.444884 0.082460 0.586411
Si Si4 0.707227 0.505977 0.421956
Si Si5 0.298137 0.304352 0.407172
Si Si6 0.156021 0.377448 0.917203
Si Si7 0.234873 0.621848 0.415785
O O1 0.460539 0.750000 0.500000
O O2 0.469085 0.812354 0.750000
O O3 0.472712 0.881062 0.504156
O O4 0.317094 0.823416 0.579598
O O5 0.987590 0.250000 0.500000
O O6 0.953718 0.200990 0.250000
O O7 0.861849 0.154307 0.476035
O O8 0.042155 0.127011 0.445969
O O9 0.480315 0.061320 0.750000
O O10 0.396722 0.022589 0.496379
O O11 0.358601 0.131493 0.606850
O O12 0.689368 0.504879 0.250000
O O13 0.794719 0.554396 0.464721
O O14 0.739311 0.436157 0.476542
O O15 0.356002 0.250000 0.500000
O O16 0.272958 0.275295 0.250000
O O17 0.200060 0.318495 0.490869
O O18 0.180852 0.364531 0.750000
O O19 0.222201 0.595538 0.250000
#
# Coordination Sequence:
#
# PCOD8230803 Si02
#       7
#     8   8   8   8   8   8   8
#     4  11  23  39  60  86 115 149 191 238 287 338
#     4  10  21  38  59  84 115 150 190 236 285 337
#     4  10  21  37  58  83 113 149 187 231 285 342
#     4  10  21  38  60  87 117 150 191 235 282 340
#     4  10  19  30  48  76 109 145 182 223 275 334
#     4   9  19  35  55  81 113 146 183 231 282 333
#     4  10  23  41  59  81 114 154 193 237 285 335
#
# _framework density 21.281542000000002
#
# number of rings (size 3 to 8) (size 9 to 14) (size 15 to 20)
#    0.000    2.000    0.000    3.000    0.000    8.000 
#    0.000    0.000    0.000    0.000    0.000    0.000 
#    0.000    0.000    0.000    0.000    0.000    0.000 
#
# Total GULP energy -694193.558684 kJ/mol
# GULP energy per Si atom -12396.313548 kJ/mol
# Density = 2.123310 g / cm^3
# Si number density = 21.281542 Si / 1000 Ang^3
#
#
#
# Elastic Constant Matrix: (Units=GPa)
#
#
# Indices 1 2 3 4 5 6 
#
# 1 95.8163 0.2699 17.5487 0.0000 0.0000 0.0000
# 2 0.2699 54.9156 20.9042 0.0000 0.0000 0.0000
# 3 17.5487 20.9042 110.0353 0.0000 0.0000 0.0000
# 4 0.0000 0.0000 0.0000 34.4434 0.0000 0.0000
# 5 0.0000 0.0000 0.0000 0.0000 79.9900 0.0000
# 6 0.0000 0.0000 0.0000 0.0000 0.0000 18.4866
#
#
#
# Elastic Compliance Matrix: (Units=1/GPa)
#
#
# Indices 1 2 3 4 5 6 
#
# 1 0.010772 0.000648 -0.001841 0.000000 0.000000 0.000000
# 2 0.000648 0.019668 -0.003840 0.000000 0.000000 0.000000
# 3 -0.001841 -0.003840 0.010111 0.000000 0.000000 0.000000
# 4 0.000000 0.000000 0.000000 0.029033 0.000000 0.000000
# 5 0.000000 0.000000 0.000000 0.000000 0.012502 0.000000
# 6 0.000000 0.000000 0.000000 0.000000 0.000000 0.054093
#
#
# Mechanical properties :
#
#
# Convention : Reuss Voigt Hill
#
# Bulk Modulus (GPa) = 32.80267 37.57920 35.19094
# Shear Modulus (GPa) = 31.96786 41.38695 36.67740
#
# Velocity S-wave (km/s) = 3.87995 4.41470 4.15593
# Velocity P-wave (km/s) = 5.95979 6.60928 6.29292
#
# Compressibility (1/GPa) = 0.03048532
#
# Stress axis : x y z
#
# Youngs Moduli (GPa) = 92.83330 50.84340 98.90131
#
# Poissons Ratio (x) = -0.03294 0.18208
# Poissons Ratio (y) = -0.06014 0.37977
# Poissons Ratio (z) = 0.17091 0.19523
#
# Static dielectric constant tensor:
#      x y z
#    x 3.960090 0.000000 0.000000 
#    y 0.000000 3.742530 0.000000 
#    z 0.000000 0.000000 4.158840 
# 
# 
# High freq. dielectric constant tensor:
#      x y z
#    x 1.838550 0.000000 0.000000 
#    y 0.000000 1.826210 0.000000 
#    z 0.000000 0.000000 1.840440 
# 
# From -- ./inp_files/5099.got.cif
#   From: 2010.03.12/outbox.cif.g09.slc.cpg/sg57_3_cif.got.tgz:5099.got - 2010.04.16 15:48:40.
