data_PCOD8230386
_publ_section_title
;
Structure prediction by ZEFSAII (Michael W. Deem and Ramdas Pophale) SiO2 
 PCOD8230386
Probable space group: P B C M
;
_chemical_formula_sum "Si O2"
_cell_formula_units_Z 64
_cell_length_a 9.552013
_cell_length_b 21.514721
_cell_length_c 17.104627
_cell_angle_alpha 90.000000
_cell_angle_beta 90.000000
_cell_angle_gamma 90.000000
_cell_volume 3515.152989
_symmetry_space_group_name_H-M "P B C M"
_symmetry_group_IT_number 57
_symmetry_cell_setting 'orthorhombic'
loop_
_space_group_symop_operation_xyz
x,y,z
-x,-y,1/2+z
x,1/2-y,-z
-x,1/2+y,1/2-z
-x,-y,-z
x,y,1/2-z
-x,1/2+y,z
x,1/2-y,1/2+z
loop_
_atom_site_type_symbol
_atom_site_label
_atom_site_fract_x
_atom_site_fract_y
_atom_site_fract_z
Si Si1 0.014973 0.005868 0.835740
Si Si2 0.442750 0.057514 0.611914
Si Si3 0.651865 0.907021 0.556189
Si Si4 0.893920 0.676923 0.994057
Si Si5 0.603248 0.416151 0.658078
Si Si6 0.864897 0.404967 0.939537
Si Si7 0.192544 0.377026 0.335703
Si Si8 0.747846 0.037441 0.594304
O O1 0.011176 0.974522 0.750000
O O2 0.027157 0.954199 0.902537
O O3 0.878377 0.049344 0.848423
O O4 0.145362 0.051671 0.842448
O O5 0.418799 0.061991 0.519429
O O6 0.359909 0.114629 0.652610
O O7 0.607339 0.068437 0.628660
O O8 0.396272 0.990060 0.643109
O O9 0.758254 0.850955 0.538006
O O10 0.529147 0.883709 0.614695
O O11 0.735971 0.962768 0.595916
O O12 0.883957 0.663012 0.901595
O O13 0.891777 0.750000 0.000000
O O14 0.039992 0.652175 0.030247
O O15 0.594576 0.401669 0.750000
O O16 0.747976 0.385922 0.624865
O O17 0.779885 0.435907 0.009407
O O18 0.160618 0.348025 0.250000
#
# Coordination Sequence:
#
# PCOD8230386 Si02
#       8
#     8   8   8   8   8   8   8   8
#     4  11  21  31  50  86 121 149 173 221 293 350
#     4  10  18  31  53  83 116 146 179 212 282 361
#     4  10  19  36  54  80 115 146 189 231 285 347
#     4  11  24  41  61  81 104 158 211 241 277 331
#     4  11  20  32  55  88 122 150 176 223 291 357
#     4  12  19  36  55  81 118 149 189 231 283 348
#     4  10  20  36  59  85 116 147 184 236 290 344
#     4  11  18  31  56  84 112 148 177 228 287 351
#
# _framework density 18.206889
#
# number of rings (size 3 to 8) (size 9 to 14) (size 15 to 20)
#    0.000    1.250    6.250    2.625    0.000    2.500 
#    0.000    2.500    0.000    0.000    0.000    0.000 
#    0.000    0.000    0.000    0.000    0.000    0.000 
#
# Total GULP energy -793272.030207 kJ/mol
# GULP energy per Si atom -12394.875472 kJ/mol
# Density = 1.816545 g / cm^3
# Si number density = 18.206889 Si / 1000 Ang^3
#
#
#
# Elastic Constant Matrix: (Units=GPa)
#
#
# Indices 1 2 3 4 5 6 
#
# 1 124.6937 33.4977 45.9232 0.0000 0.0000 0.0000
# 2 33.4977 60.5493 37.3323 0.0000 0.0000 0.0000
# 3 45.9232 37.3323 118.0954 0.0000 0.0000 0.0000
# 4 0.0000 0.0000 0.0000 7.9944 0.0000 0.0000
# 5 0.0000 0.0000 0.0000 0.0000 24.9659 0.0000
# 6 0.0000 0.0000 0.0000 0.0000 0.0000 12.9683
#
#
#
# Elastic Compliance Matrix: (Units=1/GPa)
#
#
# Indices 1 2 3 4 5 6 
#
# 1 0.010056 -0.003915 -0.002673 0.000000 0.000000 0.000000
# 2 -0.003915 0.022038 -0.005444 0.000000 0.000000 0.000000
# 3 -0.002673 -0.005444 0.011228 0.000000 0.000000 0.000000
# 4 0.000000 0.000000 0.000000 0.125087 0.000000 0.000000
# 5 0.000000 0.000000 0.000000 0.000000 0.040055 0.000000
# 6 0.000000 0.000000 0.000000 0.000000 0.000000 0.077111
#
#
# Mechanical properties :
#
#
# Convention : Reuss Voigt Hill
#
# Bulk Modulus (GPa) = 51.92714 59.64943 55.78828
# Shear Modulus (GPa) = 15.81987 21.62474 18.72231
#
# Velocity S-wave (km/s) = 2.95090 3.45007 3.21020
# Velocity P-wave (km/s) = 6.33979 6.97881 6.66696
#
# Compressibility (1/GPa) = 0.01925775
#
# Stress axis : x y z
#
# Youngs Moduli (GPa) = 99.44557 45.37578 89.06279
#
# Poissons Ratio (x) = 0.17766 0.23803
# Poissons Ratio (y) = 0.38936 0.48487
# Poissons Ratio (z) = 0.26578 0.24703
#
# Static dielectric constant tensor:
#      x y z
#    x 3.673560 0.000000 0.000000 
#    y 0.000000 2.726860 0.000000 
#    z 0.000000 0.000000 3.569380 
# 
# 
# High freq. dielectric constant tensor:
#      x y z
#    x 1.731210 0.000000 0.000000 
#    y 0.000000 1.630290 0.000000 
#    z 0.000000 0.000000 1.712310 
# 
# From -- ./inp_files/21424.got.cif
#   From: 2010.03.12/outbox.cif.g09.slc.cpg/sg57_11_cif.got.tgz:21424.got - 2010.04.16 15:48:40.
