data_PCOD8230774
_publ_section_title
;
Structure prediction by ZEFSAII (Michael W. Deem and Ramdas Pophale) SiO2 
 PCOD8230774
Probable space group: P B C M
;
_chemical_formula_sum "Si O2"
_cell_formula_units_Z 64
_cell_length_a 30.039725
_cell_length_b 13.603363
_cell_length_c 8.978578
_cell_angle_alpha 90.000000
_cell_angle_beta 90.000000
_cell_angle_gamma 90.000000
_cell_volume 3669.017639
_symmetry_space_group_name_H-M "P B C M"
_symmetry_group_IT_number 57
_symmetry_cell_setting 'orthorhombic'
loop_
_space_group_symop_operation_xyz
x,y,z
-x,-y,1/2+z
x,1/2-y,-z
-x,1/2+y,1/2-z
-x,-y,-z
x,y,1/2-z
-x,1/2+y,z
x,1/2-y,1/2+z
loop_
_atom_site_type_symbol
_atom_site_label
_atom_site_fract_x
_atom_site_fract_y
_atom_site_fract_z
Si Si1 0.251394 0.146853 0.925877
Si Si2 0.047232 0.489992 0.075507
Si Si3 0.353451 0.348987 0.422863
Si Si4 0.106963 0.345262 0.584128
Si Si5 0.123906 0.855634 0.926098
Si Si6 0.814060 0.502753 0.417689
Si Si7 0.481454 0.853450 0.076698
Si Si8 0.433460 0.479839 0.076521
O O1 0.242158 0.154489 0.750000
O O2 0.302786 0.125593 0.964506
O O3 0.236138 0.250000 0.000000
O O4 0.226064 0.052955 0.992567
O O5 0.040718 0.478263 0.250000
O O6 0.079604 0.581408 0.037366
O O7 0.066789 0.389313 0.011133
O O8 0.000000 0.500000 0.000000
O O9 0.369868 0.250000 0.500000
O O10 0.359014 0.328823 0.250000
O O11 0.385345 0.438153 0.472471
O O12 0.125089 0.250000 0.500000
O O13 0.090028 0.319277 0.750000
O O14 0.146964 0.419762 0.592517
O O15 0.131101 0.844994 0.750000
O O16 0.117108 0.750000 0.000000
O O17 0.167902 0.906870 0.995330
O O18 0.798768 0.473264 0.250000
O O19 0.474742 0.838887 0.250000
O O20 0.529278 0.899143 0.036694
O O21 0.477165 0.750000 0.000000
O O22 0.441786 0.922222 0.017179
O O23 0.435116 0.506990 0.250000
#
# Coordination Sequence:
#
# PCOD8230774 Si02
#       8
#     8   8   8   8   8   8   8   8
#     4  10  19  31  49  75 105 135 166 200 245 299
#     4  10  21  36  53  74 102 133 166 203 242 286
#     4   9  18  31  48  71 100 133 165 201 244 293
#     4  10  20  33  50  72  98 128 161 196 237 284
#     4  10  21  37  57  79 102 132 169 209 251 294
#     4  10  20  34  53  76 102 131 163 202 245 290
#     4  10  19  30  47  70  95 126 164 206 250 295
#     4   9  18  32  48  68  96 129 165 204 247 295
#
# _framework density 17.443362
#
# number of rings (size 3 to 8) (size 9 to 14) (size 15 to 20)
#    0.000    2.250    0.000    3.000    0.000    6.000 
#    0.000    1.250    0.000    0.750    0.000    3.500 
#    0.000    0.000    0.000    0.000    0.000    0.000 
#
# Total GULP energy -793642.712943 kJ/mol
# GULP energy per Si atom -12400.667390 kJ/mol
# Density = 1.740366 g / cm^3
# Si number density = 17.443362 Si / 1000 Ang^3
#
#
#
# Elastic Constant Matrix: (Units=GPa)
#
#
# Indices 1 2 3 4 5 6 
#
# 1 78.4474 35.6843 43.5265 0.0000 0.0000 0.0000
# 2 35.6843 102.8091 61.7105 0.0000 0.0000 0.0000
# 3 43.5265 61.7105 108.7691 0.0000 0.0000 0.0000
# 4 0.0000 0.0000 0.0000 34.6420 0.0000 0.0000
# 5 0.0000 0.0000 0.0000 0.0000 26.2652 0.0000
# 6 0.0000 0.0000 0.0000 0.0000 0.0000 18.3394
#
#
#
# Elastic Compliance Matrix: (Units=1/GPa)
#
#
# Indices 1 2 3 4 5 6 
#
# 1 0.016878 -0.002736 -0.005202 0.000000 0.000000 0.000000
# 2 -0.002736 0.015193 -0.007525 0.000000 0.000000 0.000000
# 3 -0.005202 -0.007525 0.015545 0.000000 0.000000 0.000000
# 4 0.000000 0.000000 0.000000 0.028867 0.000000 0.000000
# 5 0.000000 0.000000 0.000000 0.000000 0.038073 0.000000
# 6 0.000000 0.000000 0.000000 0.000000 0.000000 0.054527
#
#
# Mechanical properties :
#
#
# Convention : Reuss Voigt Hill
#
# Bulk Modulus (GPa) = 59.91467 63.54090 61.72778
# Shear Modulus (GPa) = 24.32226 25.78963 25.05595
#
# Velocity S-wave (km/s) = 3.73816 3.84927 3.79412
# Velocity P-wave (km/s) = 7.28385 7.50079 7.39312
#
# Compressibility (1/GPa) = 0.01669040
#
# Stress axis : x y z
#
# Youngs Moduli (GPa) = 59.24797 65.81869 64.32981
#
# Poissons Ratio (x) = 0.18007 0.33465
# Poissons Ratio (y) = 0.16209 0.48409
# Poissons Ratio (z) = 0.30821 0.49529
#
# Static dielectric constant tensor:
#      x y z
#    x 3.324110 0.000000 0.000000 
#    y 0.000000 3.290680 0.000000 
#    z 0.000000 0.000000 3.477090 
# 
# 
# High freq. dielectric constant tensor:
#      x y z
#    x 1.662960 0.000000 0.000000 
#    y 0.000000 1.663970 0.000000 
#    z 0.000000 0.000000 1.690630 
# 
# From -- ./inp_files/10329.got.cif
#   From: 2010.03.12/outbox.cif.g09.slc.cpg/sg57_6_cif.got.tgz:10329.got - 2010.04.16 15:48:40.
