data_PCOD8230330
_publ_section_title
;
Structure prediction by ZEFSAII (Michael W. Deem and Ramdas Pophale) SiO2 
 PCOD8230330
Probable space group: P B C M
;
_chemical_formula_sum "Si O2"
_cell_formula_units_Z 40
_cell_length_a 11.804914
_cell_length_b 21.291385
_cell_length_c 8.867038
_cell_angle_alpha 90.000000
_cell_angle_beta 90.000000
_cell_angle_gamma 90.000000
_cell_volume 2228.667656
_symmetry_space_group_name_H-M "P B C M"
_symmetry_group_IT_number 57
_symmetry_cell_setting 'orthorhombic'
loop_
_space_group_symop_operation_xyz
x,y,z
-x,-y,1/2+z
x,1/2-y,-z
-x,1/2+y,1/2-z
-x,-y,-z
x,y,1/2-z
-x,1/2+y,z
x,1/2-y,1/2+z
loop_
_atom_site_type_symbol
_atom_site_label
_atom_site_fract_x
_atom_site_fract_y
_atom_site_fract_z
Si Si1 0.018364 0.910446 0.415674
Si Si2 0.821782 0.010204 0.083780
Si Si3 0.635934 0.814783 0.428923
Si Si4 0.121247 0.311932 0.926583
Si Si5 0.411796 0.452445 0.427647
O O1 0.032943 0.878894 0.250000
O O2 0.142198 0.934156 0.470089
O O3 0.972233 0.864273 0.543396
O O4 0.929479 0.966021 0.400679
O O5 0.792355 0.037453 0.250000
O O6 0.713491 0.973139 0.017788
O O7 0.584205 0.750000 0.500000
O O8 0.639769 0.806175 0.250000
O O9 0.762065 0.826521 0.488160
O O10 0.567055 0.878728 0.473329
O O11 0.145017 0.304648 0.750000
O O12 0.068055 0.250000 0.000000
O O13 0.500000 0.500000 0.500000
O O14 0.422714 0.458494 0.250000
#
# Coordination Sequence:
#
# PCOD8230330 Si02
#       5
#     8   8   8   8   8
#     4  10  18  31  50  73 103 133 167 208 253 308
#     4   9  18  33  49  71 103 135 166 207 258 306
#     4  10  19  34  52  76 106 137 172 220 268 316
#     4  11  20  30  48  74 104 138 172 210 259 314
#     4  10  21  36  54  77 109 140 177 225 268 314
#
# _framework density 17.947942999999999
#
# number of rings (size 3 to 8) (size 9 to 14) (size 15 to 20)
#    0.000    2.000    2.000    4.200    0.000    3.200 
#    0.000    0.000    0.000    1.200    0.000    2.800 
#    0.000    0.000    0.000    0.000    0.000    0.000 
#
# Total GULP energy -495630.801151 kJ/mol
# GULP energy per Si atom -12390.770029 kJ/mol
# Density = 1.790709 g / cm^3
# Si number density = 17.947943 Si / 1000 Ang^3
#
#
#
# Elastic Constant Matrix: (Units=GPa)
#
#
# Indices 1 2 3 4 5 6 
#
# 1 55.4294 41.9333 24.7410 0.0000 0.0000 0.0000
# 2 41.9333 123.9104 49.4027 0.0000 0.0000 0.0000
# 3 24.7410 49.4027 90.3699 0.0000 0.0000 0.0000
# 4 0.0000 0.0000 0.0000 32.5445 0.0000 0.0000
# 5 0.0000 0.0000 0.0000 0.0000 19.8235 0.0000
# 6 0.0000 0.0000 0.0000 0.0000 0.0000 35.5947
#
#
#
# Elastic Compliance Matrix: (Units=1/GPa)
#
#
# Indices 1 2 3 4 5 6 
#
# 1 0.024797 -0.007269 -0.002815 0.000000 0.000000 0.000000
# 2 -0.007269 0.012451 -0.004816 0.000000 0.000000 0.000000
# 3 -0.002815 -0.004816 0.014469 0.000000 0.000000 0.000000
# 4 0.000000 0.000000 0.000000 0.030727 0.000000 0.000000
# 5 0.000000 0.000000 0.000000 0.000000 0.050445 0.000000
# 6 0.000000 0.000000 0.000000 0.000000 0.000000 0.028094
#
#
# Mechanical properties :
#
#
# Convention : Reuss Voigt Hill
#
# Bulk Modulus (GPa) = 45.62925 55.76263 50.69594
# Shear Modulus (GPa) = 25.24119 27.83472 26.53795
#
# Velocity S-wave (km/s) = 3.75421 3.94237 3.84944
# Velocity P-wave (km/s) = 6.65360 7.20136 6.93289
#
# Compressibility (1/GPa) = 0.02191577
#
# Stress axis : x y z
#
# Youngs Moduli (GPa) = 40.32792 80.31716 69.11256
#
# Poissons Ratio (x) = 0.58386 0.19453
# Poissons Ratio (y) = 0.29316 0.33286
# Poissons Ratio (z) = 0.11351 0.38683
#
# Static dielectric constant tensor:
#      x y z
#    x 3.017960 0.000000 0.000000 
#    y 0.000000 3.490300 0.000000 
#    z 0.000000 0.000000 3.578670 
# 
# 
# High freq. dielectric constant tensor:
#      x y z
#    x 1.649200 0.000000 0.000000 
#    y 0.000000 1.692790 0.000000 
#    z 0.000000 0.000000 1.705600 
# 
# From -- ./inp_files/2875.got.cif
#   From: 2010.03.12/outbox.cif.g09.slc.cpg/sg57_2_cif.got.tgz:2875.got - 2010.04.16 15:48:40.
