data_PCOD8230492
_publ_section_title
;
Structure prediction by ZEFSAII (Michael W. Deem and Ramdas Pophale) SiO2 
 PCOD8230492
Probable space group: P B C M
;
_chemical_formula_sum "Si O2"
_cell_formula_units_Z 64
_cell_length_a 15.384399
_cell_length_b 23.742373
_cell_length_c 8.571232
_cell_angle_alpha 90.000000
_cell_angle_beta 90.000000
_cell_angle_gamma 90.000000
_cell_volume 3130.746538
_symmetry_space_group_name_H-M "P B C M"
_symmetry_group_IT_number 57
_symmetry_cell_setting 'orthorhombic'
loop_
_space_group_symop_operation_xyz
x,y,z
-x,-y,1/2+z
x,1/2-y,-z
-x,1/2+y,1/2-z
-x,-y,-z
x,y,1/2-z
-x,1/2+y,z
x,1/2-y,1/2+z
loop_
_atom_site_type_symbol
_atom_site_label
_atom_site_fract_x
_atom_site_fract_y
_atom_site_fract_z
Si Si1 0.062247 0.373505 0.066595
Si Si2 0.885553 0.108819 0.065746
Si Si3 0.874148 0.512972 0.427616
Si Si4 0.701584 0.122086 0.564084
Si Si5 0.386041 0.115412 0.436267
Si Si6 0.453295 0.689221 0.435123
Si Si7 0.325929 0.499533 0.925174
Si Si8 0.225433 0.311174 0.934769
O O1 0.064231 0.365315 0.250000
O O2 0.079600 0.438000 0.022341
O O3 0.132387 0.332465 0.991076
O O4 0.967514 0.356149 0.000344
O O5 0.882442 0.112848 0.250000
O O6 0.797718 0.135839 0.996872
O O7 0.897034 0.044732 0.012114
O O8 0.909133 0.511580 0.250000
O O9 0.771668 0.524028 0.427688
O O10 0.705287 0.119439 0.750000
O O11 0.638792 0.171009 0.505561
O O12 0.669386 0.061189 0.493314
O O13 0.382243 0.113719 0.250000
O O14 0.473851 0.145309 0.494316
O O15 0.383652 0.050664 0.502933
O O16 0.302434 0.149049 0.499806
O O17 0.478881 0.750000 0.500000
O O18 0.447599 0.691434 0.250000
O O19 0.358985 0.508382 0.750000
O O20 0.225761 0.309583 0.750000
O O21 0.244927 0.250000 0.000000
#
# Coordination Sequence:
#
# PCOD8230492 Si02
#       8
#     8   8   8   8   8   8   8   8
#     4  12  23  36  55  84 118 157 204 247 293 352
#     4  11  22  37  58  86 119 155 198 245 297 353
#     4  10  18  33  56  84 121 161 198 241 293 349
#     4  10  21  39  62  88 121 157 198 247 303 360
#     4   9  18  35  61  90 120 156 196 242 297 357
#     4  11  23  40  63  88 117 154 202 251 299 354
#     4   8  15  31  57  87 120 157 192 233 294 357
#     4  11  22  39  60  84 118 160 203 250 303 357
#
# _framework density 20.442406999999999
#
# number of rings (size 3 to 8) (size 9 to 14) (size 15 to 20)
#    0.000    1.750    1.250    5.250    0.000    0.500 
#    0.000    2.500    0.000    0.000    0.000    0.000 
#    0.000    0.000    0.000    0.000    0.000    0.000 
#
# Total GULP energy -793537.231487 kJ/mol
# GULP energy per Si atom -12399.019242 kJ/mol
# Density = 2.039588 g / cm^3
# Si number density = 20.442407 Si / 1000 Ang^3
#
#
#
# Elastic Constant Matrix: (Units=GPa)
#
#
# Indices 1 2 3 4 5 6 
#
# 1 87.3030 19.0037 22.0986 0.0000 0.0000 0.0000
# 2 19.0037 40.3338 10.0967 0.0000 0.0000 0.0000
# 3 22.0986 10.0967 89.2507 0.0000 0.0000 0.0000
# 4 0.0000 0.0000 0.0000 29.4172 0.0000 0.0000
# 5 0.0000 0.0000 0.0000 0.0000 24.4400 0.0000
# 6 0.0000 0.0000 0.0000 0.0000 0.0000 36.4313
#
#
#
# Elastic Compliance Matrix: (Units=1/GPa)
#
#
# Indices 1 2 3 4 5 6 
#
# 1 0.013354 -0.005624 -0.002670 0.000000 0.000000 0.000000
# 2 -0.005624 0.027884 -0.001762 0.000000 0.000000 0.000000
# 3 -0.002670 -0.001762 0.012065 0.000000 0.000000 0.000000
# 4 0.000000 0.000000 0.000000 0.033994 0.000000 0.000000
# 5 0.000000 0.000000 0.000000 0.000000 0.040917 0.000000
# 6 0.000000 0.000000 0.000000 0.000000 0.000000 0.027449
#
#
# Mechanical properties :
#
#
# Convention : Reuss Voigt Hill
#
# Bulk Modulus (GPa) = 30.12852 35.47616 32.80234
# Shear Modulus (GPa) = 26.76115 29.10360 27.93237
#
# Velocity S-wave (km/s) = 3.62207 3.77727 3.70049
# Velocity P-wave (km/s) = 5.68003 6.03453 5.85996
#
# Compressibility (1/GPa) = 0.03319114
#
# Stress axis : x y z
#
# Youngs Moduli (GPa) = 74.88152 35.86314 82.88492
#
# Poissons Ratio (x) = 0.20168 0.22134
# Poissons Ratio (y) = 0.42110 0.14604
# Poissons Ratio (z) = 0.19996 0.06319
#
# Static dielectric constant tensor:
#      x y z
#    x 4.075600 0.000000 0.000000 
#    y 0.000000 3.703130 0.000000 
#    z 0.000000 0.000000 3.514840 
# 
# 
# High freq. dielectric constant tensor:
#      x y z
#    x 1.806520 0.000000 0.000000 
#    y 0.000000 1.789710 0.000000 
#    z 0.000000 0.000000 1.784180 
# 
# From -- ./inp_files/5563.got.cif
#   From: 2010.03.12/outbox.cif.g09.slc.cpg/sg57_3_cif.got.tgz:5563.got - 2010.04.16 15:48:40.
