data_PCOD8230108
_publ_section_title
;
Structure prediction by ZEFSAII (Michael W. Deem and Ramdas Pophale) SiO2 
 PCOD8230108
Probable space group: P B C M
;
_chemical_formula_sum "Si O2"
_cell_formula_units_Z 64
_cell_length_a 18.442180
_cell_length_b 26.171179
_cell_length_c 8.946971
_cell_angle_alpha 90.000000
_cell_angle_beta 90.000000
_cell_angle_gamma 90.000000
_cell_volume 4318.287708
_symmetry_space_group_name_H-M "P B C M"
_symmetry_group_IT_number 57
_symmetry_cell_setting 'orthorhombic'
loop_
_space_group_symop_operation_xyz
x,y,z
-x,-y,1/2+z
x,1/2-y,-z
-x,1/2+y,1/2-z
-x,-y,-z
x,y,1/2-z
-x,1/2+y,z
x,1/2-y,1/2+z
loop_
_atom_site_type_symbol
_atom_site_label
_atom_site_fract_x
_atom_site_fract_y
_atom_site_fract_z
Si Si1 0.543580 0.544557 0.423020
Si Si2 0.828014 0.301641 0.073794
Si Si3 0.827324 0.996826 0.572163
Si Si4 0.905009 0.099171 0.576098
Si Si5 0.956212 0.954755 0.425117
Si Si6 0.338336 0.698273 0.575224
Si Si7 0.672228 0.997477 0.074072
Si Si8 0.406171 0.896490 0.579703
O O1 0.500000 0.500000 0.500000
O O2 0.557071 0.531410 0.250000
O O3 0.620614 0.547726 0.508392
O O4 0.493089 0.594867 0.438793
O O5 0.837440 0.296347 0.250000
O O6 0.874832 0.348448 0.005097
O O7 0.744777 0.311394 0.028031
O O8 0.857785 0.250000 0.000000
O O9 0.825430 0.992756 0.750000
O O10 0.861036 0.050322 0.512551
O O11 0.748206 0.990704 0.506346
O O12 0.878173 0.950942 0.506642
O O13 0.886899 0.100532 0.750000
O O14 0.992119 0.094930 0.548903
O O15 0.945151 0.965251 0.250000
O O16 0.000000 0.000000 0.500000
O O17 0.368079 0.750000 0.500000
O O18 0.346832 0.705291 0.750000
O O19 0.385291 0.650008 0.525876
O O20 0.680633 0.989683 0.250000
O O21 0.638724 0.052809 0.033991
O O22 0.387458 0.882120 0.750000
#
# Coordination Sequence:
#
# PCOD8230108 Si02
#       8
#     8   8   8   8   8   8   8   8
#     4   9  17  29  43  60  83 110 138 172 208 246
#     4   9  17  29  41  57  79 105 137 171 204 238
#     4  10  18  28  42  60  82 110 141 173 206 245
#     4   8  15  27  42  57  78 108 139 167 202 246
#     4   9  16  27  41  58  80 107 136 169 206 245
#     4  10  19  29  43  60  82 111 142 176 211 245
#     4  10  19  29  42  62  86 112 141 174 207 247
#     4   9  18  30  43  60  83 109 140 174 208 244
#
# _framework density 14.820689
#
# number of rings (size 3 to 8) (size 9 to 14) (size 15 to 20)
#    0.000    2.750    0.000    4.125    0.000    4.500 
#    0.000    3.750    0.000    0.000    0.000    0.000 
#    0.000    1.000    0.000    9.250    0.000    3.875 
#
# Total GULP energy -793146.516684 kJ/mol
# GULP energy per Si atom -12392.914323 kJ/mol
# Density = 1.478696 g / cm^3
# Si number density = 14.820689 Si / 1000 Ang^3
#
#
#
# Elastic Constant Matrix: (Units=GPa)
#
#
# Indices 1 2 3 4 5 6 
#
# 1 114.8666 44.8702 46.1569 0.0000 0.0000 0.0000
# 2 44.8702 65.9845 32.4181 0.0000 0.0000 0.0000
# 3 46.1569 32.4181 74.2265 0.0000 0.0000 0.0000
# 4 0.0000 0.0000 0.0000 20.9410 0.0000 0.0000
# 5 0.0000 0.0000 0.0000 0.0000 26.7481 0.0000
# 6 0.0000 0.0000 0.0000 0.0000 0.0000 21.5034
#
#
#
# Elastic Compliance Matrix: (Units=1/GPa)
#
#
# Indices 1 2 3 4 5 6 
#
# 1 0.013444 -0.006410 -0.005560 0.000000 0.000000 0.000000
# 2 -0.006410 0.022352 -0.005776 0.000000 0.000000 0.000000
# 3 -0.005560 -0.005776 0.019453 0.000000 0.000000 0.000000
# 4 0.000000 0.000000 0.000000 0.047753 0.000000 0.000000
# 5 0.000000 0.000000 0.000000 0.000000 0.037386 0.000000
# 6 0.000000 0.000000 0.000000 0.000000 0.000000 0.046504
#
#
# Mechanical properties :
#
#
# Convention : Reuss Voigt Hill
#
# Bulk Modulus (GPa) = 50.61934 55.77422 53.19678
# Shear Modulus (GPa) = 21.83692 22.61401 22.22546
#
# Velocity S-wave (km/s) = 3.84266 3.91044 3.87670
# Velocity P-wave (km/s) = 7.34280 7.62254 7.48398
#
# Compressibility (1/GPa) = 0.01975530
#
# Stress axis : x y z
#
# Youngs Moduli (GPa) = 74.38173 44.73901 51.40723
#
# Poissons Ratio (x) = 0.28679 0.28584
# Poissons Ratio (y) = 0.47681 0.29692
# Poissons Ratio (z) = 0.41359 0.25841
#
# Static dielectric constant tensor:
#      x y z
#    x 3.152340 0.000000 0.000000 
#    y 0.000000 2.802850 0.000000 
#    z 0.000000 0.000000 3.004040 
# 
# 
# High freq. dielectric constant tensor:
#      x y z
#    x 1.562080 0.000000 0.000000 
#    y 0.000000 1.528130 0.000000 
#    z 0.000000 0.000000 1.574860 
# 
# From -- ./inp_files/7447.got.cif
#   From: 2010.03.12/outbox.cif.g09.slc.cpg/sg57_4_cif.got.tgz:7447.got - 2010.04.16 15:48:40.
