data_PCOD8230787
_publ_section_title
;
Structure prediction by ZEFSAII (Michael W. Deem and Ramdas Pophale) SiO2 
 PCOD8230787
Probable space group: P B C M
;
_chemical_formula_sum "Si O2"
_cell_formula_units_Z 64
_cell_length_a 14.973815
_cell_length_b 29.176814
_cell_length_c 8.928331
_cell_angle_alpha 90.000000
_cell_angle_beta 90.000000
_cell_angle_gamma 90.000000
_cell_volume 3900.682595
_symmetry_space_group_name_H-M "P B C M"
_symmetry_group_IT_number 57
_symmetry_cell_setting 'orthorhombic'
loop_
_space_group_symop_operation_xyz
x,y,z
-x,-y,1/2+z
x,1/2-y,-z
-x,1/2+y,1/2-z
-x,-y,-z
x,y,1/2-z
-x,1/2+y,z
x,1/2-y,1/2+z
loop_
_atom_site_type_symbol
_atom_site_label
_atom_site_fract_x
_atom_site_fract_y
_atom_site_fract_z
Si Si1 0.800706 0.887459 0.078089
Si Si2 0.537538 0.113070 0.575251
Si Si3 0.120587 0.533492 0.574632
Si Si4 0.678369 0.462962 0.075712
Si Si5 0.046548 0.065277 0.075330
Si Si6 0.486212 0.202495 0.071446
Si Si7 0.297077 0.294988 0.076033
Si Si8 0.367797 0.445024 0.072495
O O1 0.818976 0.899774 0.250000
O O2 0.774627 0.834772 0.057859
O O3 0.721520 0.919647 0.014882
O O4 0.891545 0.894182 0.986434
O O5 0.525818 0.124989 0.750000
O O6 0.627056 0.084238 0.544714
O O7 0.547404 0.160144 0.482411
O O8 0.453135 0.083724 0.516599
O O9 0.112667 0.541822 0.750000
O O10 0.220560 0.543028 0.515778
O O11 0.094604 0.481958 0.529082
O O12 0.052179 0.568367 0.495387
O O13 0.679148 0.475718 0.250000
O O14 0.627586 0.504085 0.993167
O O15 0.035719 0.071144 0.250000
O O16 0.487176 0.206284 0.250000
O O17 0.522314 0.250000 0.000000
O O18 0.387160 0.192081 0.011064
O O19 0.320885 0.286324 0.250000
O O20 0.254369 0.250000 0.000000
O O21 0.369571 0.448261 0.250000
#
# Coordination Sequence:
#
# PCOD8230787 Si02
#       8
#     8   8   8   8   8   8   8   8
#     4  10  19  31  48  69  98 133 161 195 243 290
#     4  10  20  35  50  69  99 133 167 202 245 292
#     4   9  18  32  46  67  95 124 160 200 245 287
#     4  10  20  33  50  70  97 132 169 209 243 284
#     4  10  19  30  48  70  93 123 162 203 238 284
#     4  11  21  33  51  72  96 126 163 205 247 289
#     4  10  19  33  50  71  99 129 163 199 245 292
#     4  10  19  31  46  67 100 136 167 199 236 286
#
# _framework density 16.407384
#
# number of rings (size 3 to 8) (size 9 to 14) (size 15 to 20)
#    0.000    2.000    2.500    3.000    0.000    3.000 
#    0.000    0.000    0.000    0.000    0.000    0.875 
#    0.000    4.000    0.000    0.000    0.000    0.000 
#
# Total GULP energy -793708.949651 kJ/mol
# GULP energy per Si atom -12401.702338 kJ/mol
# Density = 1.637004 g / cm^3
# Si number density = 16.407384 Si / 1000 Ang^3
#
#
#
# Elastic Constant Matrix: (Units=GPa)
#
#
# Indices 1 2 3 4 5 6 
#
# 1 92.1327 46.4147 33.7503 0.0000 0.0000 0.0000
# 2 46.4147 96.5498 45.2566 0.0000 0.0000 0.0000
# 3 33.7503 45.2566 69.1432 0.0000 0.0000 0.0000
# 4 0.0000 0.0000 0.0000 29.2769 0.0000 0.0000
# 5 0.0000 0.0000 0.0000 0.0000 20.2400 0.0000
# 6 0.0000 0.0000 0.0000 0.0000 0.0000 20.1425
#
#
#
# Elastic Compliance Matrix: (Units=1/GPa)
#
#
# Indices 1 2 3 4 5 6 
#
# 1 0.014966 -0.005439 -0.003745 0.000000 0.000000 0.000000
# 2 -0.005439 0.016918 -0.008419 0.000000 0.000000 0.000000
# 3 -0.003745 -0.008419 0.021801 0.000000 0.000000 0.000000
# 4 0.000000 0.000000 0.000000 0.034157 0.000000 0.000000
# 5 0.000000 0.000000 0.000000 0.000000 0.049407 0.000000
# 6 0.000000 0.000000 0.000000 0.000000 0.000000 0.049646
#
#
# Mechanical properties :
#
#
# Convention : Reuss Voigt Hill
#
# Bulk Modulus (GPa) = 54.11386 56.51879 55.31632
# Shear Modulus (GPa) = 21.90475 22.75881 22.33178
#
# Velocity S-wave (km/s) = 3.65780 3.72843 3.69329
# Velocity P-wave (km/s) = 7.13389 7.28401 7.20934
#
# Compressibility (1/GPa) = 0.01847955
#
# Stress axis : x y z
#
# Youngs Moduli (GPa) = 66.81818 59.10773 45.86934
#
# Poissons Ratio (x) = 0.32150 0.17179
# Poissons Ratio (y) = 0.36344 0.38616
# Poissons Ratio (z) = 0.25024 0.49760
#
# Static dielectric constant tensor:
#      x y z
#    x 3.053720 0.000000 0.000000 
#    y 0.000000 3.067420 0.000000 
#    z 0.000000 0.000000 3.062940 
# 
# 
# High freq. dielectric constant tensor:
#      x y z
#    x 1.612800 0.000000 0.000000 
#    y 0.000000 1.617560 0.000000 
#    z 0.000000 0.000000 1.634380 
# 
# From -- ./inp_files/5992.got.cif
#   From: 2010.03.12/outbox.cif.g09.slc.cpg/sg57_3_cif.got.tgz:5992.got - 2010.04.16 15:48:40.
