data_PCOD8230578
_publ_section_title
;
Structure prediction by ZEFSAII (Michael W. Deem and Ramdas Pophale) SiO2 
 PCOD8230578
Probable space group: P B C M
;
_chemical_formula_sum "Si O2"
_cell_formula_units_Z 44
_cell_length_a 11.772419
_cell_length_b 10.982863
_cell_length_c 18.293407
_cell_angle_alpha 90.000000
_cell_angle_beta 90.000000
_cell_angle_gamma 90.000000
_cell_volume 2365.243589
_symmetry_space_group_name_H-M "P B C M"
_symmetry_group_IT_number 57
_symmetry_cell_setting 'orthorhombic'
loop_
_space_group_symop_operation_xyz
x,y,z
-x,-y,1/2+z
x,1/2-y,-z
-x,1/2+y,1/2-z
-x,-y,-z
x,y,1/2-z
-x,1/2+y,z
x,1/2-y,1/2+z
loop_
_atom_site_type_symbol
_atom_site_label
_atom_site_fract_x
_atom_site_fract_y
_atom_site_fract_z
Si Si1 0.202727 0.808884 0.080294
Si Si2 0.150664 0.586501 0.335499
Si Si3 0.436624 0.858176 0.049358
Si Si4 0.940502 0.958882 0.572857
Si Si5 0.665078 0.540718 0.932833
Si Si6 0.815286 0.750000 0.500000
O O1 0.142622 0.727774 0.141854
O O2 0.337439 0.805082 0.100615
O O3 0.160114 0.946625 0.088436
O O4 0.179314 0.750000 0.000000
O O5 0.161398 0.567666 0.250000
O O6 0.263705 0.529119 0.371617
O O7 0.031780 0.529535 0.362106
O O8 0.540742 0.914351 0.096105
O O9 0.489250 0.750000 0.000000
O O10 0.365247 0.955570 0.001240
O O11 0.892046 0.822322 0.559852
O O12 0.000000 0.000000 0.500000
O O13 0.739198 0.655129 0.956493
#
# Coordination Sequence:
#
# PCOD8230578 Si02
#       6
#     8   8   8   8   8   4
#     4  11  19  39  63  90 118 160 214 252 292 365
#     4  12  26  41  59  88 129 166 199 258 326 365
#     4  10  18  35  65  94 118 149 208 259 289 353
#     4  12  21  36  61  88 121 158 207 252 299 363
#     4  11  21  35  61  96 122 152 196 258 306 357
#     4  12  20  34  60  98 118 148 208 260 302 346
#
# _framework density 18.602734999999999
#
# number of rings (size 3 to 8) (size 9 to 14) (size 15 to 20)
#    0.000    0.727   10.000    1.091    0.000    0.727 
#    0.000    0.909    0.000    0.000    0.000    0.000 
#    0.000    0.000    0.000    0.000    0.000    0.000 
#
# Total GULP energy -545263.260288 kJ/mol
# GULP energy per Si atom -12392.346825 kJ/mol
# Density = 1.856039 g / cm^3
# Si number density = 18.602735 Si / 1000 Ang^3
#
#
#
# Elastic Constant Matrix: (Units=GPa)
#
#
# Indices 1 2 3 4 5 6 
#
# 1 129.4982 43.9637 49.6764 0.0000 0.0000 0.0000
# 2 43.9637 109.5175 27.7311 0.0000 0.0000 0.0000
# 3 49.6764 27.7311 85.5935 0.0000 0.0000 0.0000
# 4 0.0000 0.0000 0.0000 16.9882 0.0000 0.0000
# 5 0.0000 0.0000 0.0000 0.0000 19.7678 0.0000
# 6 0.0000 0.0000 0.0000 0.0000 0.0000 33.9813
#
#
#
# Elastic Compliance Matrix: (Units=1/GPa)
#
#
# Indices 1 2 3 4 5 6 
#
# 1 0.010759 -0.002983 -0.005278 0.000000 0.000000 0.000000
# 2 -0.002983 0.010774 -0.001759 0.000000 0.000000 0.000000
# 3 -0.005278 -0.001759 0.015317 0.000000 0.000000 0.000000
# 4 0.000000 0.000000 0.000000 0.058864 0.000000 0.000000
# 5 0.000000 0.000000 0.000000 0.000000 0.050587 0.000000
# 6 0.000000 0.000000 0.000000 0.000000 0.000000 0.029428
#
#
# Mechanical properties :
#
#
# Convention : Reuss Voigt Hill
#
# Bulk Modulus (GPa) = 59.49166 63.03908 61.26537
# Shear Modulus (GPa) = 24.82951 27.69665 26.26308
#
# Velocity S-wave (km/s) = 3.65735 3.86275 3.76145
# Velocity P-wave (km/s) = 7.06289 7.33859 7.20206
#
# Compressibility (1/GPa) = 0.01680908
#
# Stress axis : x y z
#
# Youngs Moduli (GPa) = 92.94140 92.81748 65.28902
#
# Poissons Ratio (x) = 0.27685 0.34461
# Poissons Ratio (y) = 0.27722 0.11488
# Poissons Ratio (z) = 0.49056 0.16331
#
# Static dielectric constant tensor:
#      x y z
#    x 4.232310 0.000000 0.000000 
#    y 0.000000 3.382880 0.000000 
#    z 0.000000 0.000000 2.635880 
# 
# 
# High freq. dielectric constant tensor:
#      x y z
#    x 1.750190 0.000000 0.000000 
#    y 0.000000 1.745230 0.000000 
#    z 0.000000 0.000000 1.645740 
# 
# From -- ./inp_files/21740.got.cif
#   From: 2010.03.12/outbox.cif.g09.slc.cpg/sg57_11_cif.got.tgz:21740.got - 2010.04.16 15:48:40.
