data_PCOD8230393
_publ_section_title
;
Structure prediction by ZEFSAII (Michael W. Deem and Ramdas Pophale) SiO2 
 PCOD8230393
Probable space group: P B C M
;
_chemical_formula_sum "Si O2"
_cell_formula_units_Z 64
_cell_length_a 11.090521
_cell_length_b 17.584985
_cell_length_c 17.836472
_cell_angle_alpha 90.000000
_cell_angle_beta 90.000000
_cell_angle_gamma 90.000000
_cell_volume 3478.587300
_symmetry_space_group_name_H-M "P B C M"
_symmetry_group_IT_number 57
_symmetry_cell_setting 'orthorhombic'
loop_
_space_group_symop_operation_xyz
x,y,z
-x,-y,1/2+z
x,1/2-y,-z
-x,1/2+y,1/2-z
-x,-y,-z
x,y,1/2-z
-x,1/2+y,z
x,1/2-y,1/2+z
loop_
_atom_site_type_symbol
_atom_site_label
_atom_site_fract_x
_atom_site_fract_y
_atom_site_fract_z
Si Si1 0.381107 0.845657 0.338097
Si Si2 0.981442 0.679987 0.949292
Si Si3 0.333578 0.179541 0.057369
Si Si4 0.651416 0.894948 0.167655
Si Si5 0.215447 0.444238 0.032148
Si Si6 0.595136 0.201428 0.426857
Si Si7 0.172914 0.245585 0.667479
Si Si8 0.232462 0.891747 0.475000
O O1 0.347273 0.857400 0.250000
O O2 0.516226 0.873003 0.356224
O O3 0.359771 0.756513 0.359669
O O4 0.301072 0.895994 0.395108
O O5 0.908298 0.603135 0.966413
O O6 0.949961 0.708457 0.865286
O O7 0.121679 0.665377 0.961879
O O8 0.936494 0.750000 0.000000
O O9 0.464419 0.168927 0.096503
O O10 0.227734 0.185308 0.119396
O O11 0.323356 0.250000 0.000000
O O12 0.314857 0.100558 0.015212
O O13 0.651993 0.932755 0.250000
O O14 0.719992 0.954111 0.113283
O O15 0.721542 0.816009 0.167574
O O16 0.185522 0.524976 0.995729
O O17 0.569662 0.250000 0.500000
O O18 0.691094 0.137477 0.452660
O O19 0.141431 0.275669 0.750000
#
# Coordination Sequence:
#
# PCOD8230393 Si02
#       8
#     8   8   8   8   8   8   8   8
#     4  10  19  35  56  79 112 152 188 234 281 331
#     4  11  20  38  60  78 103 144 199 244 272 322
#     4  11  16  32  56  83 108 138 188 234 278 322
#     4   9  17  31  56  83 107 142 191 232 276 329
#     4  11  20  35  56  82 114 151 179 237 292 333
#     4   9  18  32  53  80 108 141 186 229 263 329
#     4  10  18  31  56  85 104 131 185 247 282 311
#     4  11  24  35  52  84 117 151 188 222 287 360
#
# _framework density 18.398274000000001
#
# number of rings (size 3 to 8) (size 9 to 14) (size 15 to 20)
#    0.000    1.750    5.000    3.000    0.000    2.500 
#    0.000    1.250    0.000    0.750    0.000    0.000 
#    0.000    0.000    0.000    0.000    0.000    0.000 
#
# Total GULP energy -793087.179979 kJ/mol
# GULP energy per Si atom -12391.987187 kJ/mol
# Density = 1.835640 g / cm^3
# Si number density = 18.398274 Si / 1000 Ang^3
#
#
#
# Elastic Constant Matrix: (Units=GPa)
#
#
# Indices 1 2 3 4 5 6 
#
# 1 85.1348 26.6089 33.4201 0.0000 0.0000 0.0000
# 2 26.6089 58.5266 32.3308 0.0000 0.0000 0.0000
# 3 33.4201 32.3308 106.4218 0.0000 0.0000 0.0000
# 4 0.0000 0.0000 0.0000 18.9584 0.0000 0.0000
# 5 0.0000 0.0000 0.0000 0.0000 16.3655 0.0000
# 6 0.0000 0.0000 0.0000 0.0000 0.0000 13.0111
#
#
#
# Elastic Compliance Matrix: (Units=1/GPa)
#
#
# Indices 1 2 3 4 5 6 
#
# 1 0.014476 -0.004891 -0.003060 0.000000 0.000000 0.000000
# 2 -0.004891 0.022185 -0.005204 0.000000 0.000000 0.000000
# 3 -0.003060 -0.005204 0.011938 0.000000 0.000000 0.000000
# 4 0.000000 0.000000 0.000000 0.052747 0.000000 0.000000
# 5 0.000000 0.000000 0.000000 0.000000 0.061104 0.000000
# 6 0.000000 0.000000 0.000000 0.000000 0.000000 0.076858
#
#
# Mechanical properties :
#
#
# Convention : Reuss Voigt Hill
#
# Bulk Modulus (GPa) = 44.86445 48.31143 46.58794
# Shear Modulus (GPa) = 18.31184 20.18187 19.24686
#
# Velocity S-wave (km/s) = 3.15826 3.31561 3.23789
# Velocity P-wave (km/s) = 6.14309 6.40104 6.27339
#
# Compressibility (1/GPa) = 0.02228936
#
# Stress axis : x y z
#
# Youngs Moduli (GPa) = 69.07973 45.07651 83.76323
#
# Poissons Ratio (x) = 0.22047 0.25632
# Poissons Ratio (y) = 0.33787 0.43588
# Poissons Ratio (z) = 0.21139 0.23456
#
# Static dielectric constant tensor:
#      x y z
#    x 3.368940 0.000000 0.000000 
#    y 0.000000 3.106100 0.000000 
#    z 0.000000 0.000000 3.773010 
# 
# 
# High freq. dielectric constant tensor:
#      x y z
#    x 1.716500 0.000000 0.000000 
#    y 0.000000 1.677380 0.000000 
#    z 0.000000 0.000000 1.705960 
# 
# From -- ./inp_files/22153.got.cif
#   From: 2010.03.12/outbox.cif.g09.slc.cpg/sg57_12_cif.got.tgz:22153.got - 2010.04.16 15:48:40.
