data_PCOD8230038
_publ_section_title
;
Structure prediction by ZEFSAII (Michael W. Deem and Ramdas Pophale) SiO2 
 PCOD8230038
Probable space group: P B C M
;
_chemical_formula_sum "Si O2"
_cell_formula_units_Z 44
_cell_length_a 8.968085
_cell_length_b 16.878679
_cell_length_c 14.530800
_cell_angle_alpha 90.000000
_cell_angle_beta 90.000000
_cell_angle_gamma 90.000000
_cell_volume 2199.518884
_symmetry_space_group_name_H-M "P B C M"
_symmetry_group_IT_number 57
_symmetry_cell_setting 'orthorhombic'
loop_
_space_group_symop_operation_xyz
x,y,z
-x,-y,1/2+z
x,1/2-y,-z
-x,1/2+y,1/2-z
-x,-y,-z
x,y,1/2-z
-x,1/2+y,z
x,1/2-y,1/2+z
loop_
_atom_site_type_symbol
_atom_site_label
_atom_site_fract_x
_atom_site_fract_y
_atom_site_fract_z
Si Si1 0.090553 0.214013 0.401363
Si Si2 0.768332 0.165508 0.408593
Si Si3 0.695462 0.154121 0.609843
Si Si4 0.884797 0.833846 0.250000
Si Si5 0.872836 0.053864 0.750000
Si Si6 0.246719 0.384999 0.750000
Si Si7 0.568416 0.366330 0.750000
Si Si8 0.537760 0.686422 0.750000
O O1 0.145660 0.250000 0.500000
O O2 0.049714 0.289799 0.339715
O O3 0.217000 0.165862 0.343859
O O4 0.947931 0.154898 0.413575
O O5 0.689169 0.136764 0.501795
O O6 0.754268 0.256787 0.379845
O O7 0.677611 0.114383 0.334721
O O8 0.800750 0.090621 0.658482
O O9 0.533374 0.148896 0.657522
O O10 0.707992 0.837803 0.250000
O O11 0.952076 0.922495 0.250000
O O12 0.863310 0.959579 0.750000
O O13 0.417277 0.419163 0.750000
O O14 0.490905 0.280040 0.750000
#
# Coordination Sequence:
#
# PCOD8230038 Si02
#       8
#     8   8   8   4   4   4   4   4
#     4  11  20  37  58  86 111 151 201 246 275 347
#     4  10  17  34  63  87 105 147 209 244 279 329
#     4   9  18  33  59  87 108 149 198 243 286 346
#     4  11  19  35  58  85 114 152 200 235 293 341
#     4  11  20  40  59  82 125 163 187 237 300 365
#     4  11  26  38  55  91 127 154 185 242 315 344
#     4  10  19  34  52  86 122 142 190 255 287 332
#     4   9  18  31  52  86 114 139 196 253 289 324
#
# _framework density 20.004377000000002
#
# number of rings (size 3 to 8) (size 9 to 14) (size 15 to 20)
#    0.000    1.818    5.455    1.636    0.000    1.455 
#    0.000    8.182    0.000    0.000    0.000    0.000 
#    0.000    0.000    0.000    0.000    0.000    0.000 
#
# Total GULP energy -545079.659077 kJ/mol
# GULP energy per Si atom -12388.174070 kJ/mol
# Density = 1.995885 g / cm^3
# Si number density = 20.004377 Si / 1000 Ang^3
#
#
#
# Elastic Constant Matrix: (Units=GPa)
#
#
# Indices 1 2 3 4 5 6 
#
# 1 105.8755 -2.7743 39.9936 0.0000 0.0000 0.0000
# 2 -2.7743 42.9096 19.6010 0.0000 0.0000 0.0000
# 3 39.9936 19.6010 156.6547 0.0000 0.0000 0.0000
# 4 0.0000 0.0000 0.0000 12.2561 0.0000 0.0000
# 5 0.0000 0.0000 0.0000 0.0000 15.7988 0.0000
# 6 0.0000 0.0000 0.0000 0.0000 0.0000 18.0146
#
#
#
# Elastic Compliance Matrix: (Units=1/GPa)
#
#
# Indices 1 2 3 4 5 6 
#
# 1 0.010619 0.002042 -0.002966 0.000000 0.000000 0.000000
# 2 0.002042 0.025110 -0.003663 0.000000 0.000000 0.000000
# 3 -0.002966 -0.003663 0.007599 0.000000 0.000000 0.000000
# 4 0.000000 0.000000 0.000000 0.081592 0.000000 0.000000
# 5 0.000000 0.000000 0.000000 0.000000 0.063296 0.000000
# 6 0.000000 0.000000 0.000000 0.000000 0.000000 0.055510
#
#
# Mechanical properties :
#
#
# Convention : Reuss Voigt Hill
#
# Bulk Modulus (GPa) = 29.28040 46.56448 37.92244
# Shear Modulus (GPa) = 18.91884 25.78854 22.35369
#
# Velocity S-wave (km/s) = 3.07862 3.59436 3.34644
# Velocity P-wave (km/s) = 5.22551 6.36817 5.82493
#
# Compressibility (1/GPa) = 0.03415254
#
# Stress axis : x y z
#
# Youngs Moduli (GPa) = 94.16972 39.82468 131.59386
#
# Poissons Ratio (x) = -0.08131 0.39037
# Poissons Ratio (y) = -0.19226 0.48204
# Poissons Ratio (z) = 0.27935 0.14588
#
# Static dielectric constant tensor:
#      x y z
#    x 3.809950 0.000000 0.000000 
#    y 0.000000 3.137060 0.000000 
#    z 0.000000 0.000000 3.845490 
# 
# 
# High freq. dielectric constant tensor:
#      x y z
#    x 1.783570 0.000000 0.000000 
#    y 0.000000 1.723080 0.000000 
#    z 0.000000 0.000000 1.789850 
# 
# From -- ./inp_files/16267.got.cif
#   From: 2010.03.12/outbox.cif.g09.slc.cpg/sg57_9_cif.got.tgz:16267.got - 2010.04.16 15:48:40.
