data_PCOD8230407
_publ_section_title
;
Structure prediction by ZEFSAII (Michael W. Deem and Ramdas Pophale) SiO2 
 PCOD8230407
Probable space group: P B C M
;
_chemical_formula_sum "Si O2"
_cell_formula_units_Z 64
_cell_length_a 15.029379
_cell_length_b 29.758072
_cell_length_c 8.801149
_cell_angle_alpha 90.000000
_cell_angle_beta 90.000000
_cell_angle_gamma 90.000000
_cell_volume 3936.272898
_symmetry_space_group_name_H-M "P B C M"
_symmetry_group_IT_number 57
_symmetry_cell_setting 'orthorhombic'
loop_
_space_group_symop_operation_xyz
x,y,z
-x,-y,1/2+z
x,1/2-y,-z
-x,1/2+y,1/2-z
-x,-y,-z
x,y,1/2-z
-x,1/2+y,z
x,1/2-y,1/2+z
loop_
_atom_site_type_symbol
_atom_site_label
_atom_site_fract_x
_atom_site_fract_y
_atom_site_fract_z
Si Si1 0.683946 0.460764 0.929040
Si Si2 0.868973 0.031757 0.925270
Si Si3 0.364661 0.445706 0.928815
Si Si4 0.940713 0.554930 0.576847
Si Si5 0.486788 0.204200 0.430101
Si Si6 0.536229 0.392757 0.929699
Si Si7 0.781545 0.612670 0.577310
Si Si8 0.705510 0.793942 0.072315
O O1 0.681425 0.466508 0.750000
O O2 0.625586 0.418001 0.983130
O O3 0.784923 0.451497 0.979267
O O4 0.640919 0.505227 0.998817
O O5 0.841199 0.033326 0.750000
O O6 0.955045 0.063187 0.961591
O O7 0.896055 0.981181 0.966493
O O8 0.371486 0.452137 0.750000
O O9 0.450218 0.419193 0.995584
O O10 0.276598 0.417801 0.966657
O O11 0.933147 0.536835 0.750000
O O12 0.885945 0.601043 0.555783
O O13 0.529191 0.250000 0.500000
O O14 0.487550 0.208996 0.250000
O O15 0.539533 0.159359 0.484981
O O16 0.386714 0.197697 0.486884
O O17 0.527044 0.393032 0.750000
O O18 0.750577 0.602718 0.750000
O O19 0.771191 0.664915 0.538367
O O20 0.686864 0.787024 0.250000
O O21 0.751993 0.750000 0.000000
#
# Coordination Sequence:
#
# PCOD8230407 Si02
#       8
#     8   8   8   8   8   8   8   8
#     4  11  21  34  48  65  94 132 164 196 236 280
#     4  10  19  31  47  70  93 119 157 198 236 274
#     4  11  20  32  47  68  95 127 163 200 230 270
#     4   9  18  32  49  67  93 123 152 191 238 281
#     4  10  18  32  49  68  92 120 155 195 238 279
#     4   9  20  34  48  66  94 129 161 193 238 283
#     4  10  19  31  48  70  94 126 159 189 231 287
#     4  10  19  30  46  69  95 123 156 189 231 280
#
# _framework density 16.259035000000001
#
# number of rings (size 3 to 8) (size 9 to 14) (size 15 to 20)
#    0.000    2.000    2.500    3.000    0.000    1.000 
#    0.000    4.375    0.000    0.000    0.000    0.875 
#    0.000    6.000    0.000    0.000    0.000    0.000 
#
# Total GULP energy -793380.587117 kJ/mol
# GULP energy per Si atom -12396.571674 kJ/mol
# Density = 1.622203 g / cm^3
# Si number density = 16.259035 Si / 1000 Ang^3
#
#
#
# Elastic Constant Matrix: (Units=GPa)
#
#
# Indices 1 2 3 4 5 6 
#
# 1 98.7254 67.4827 27.2998 0.0000 0.0000 0.0000
# 2 67.4827 140.5878 41.0636 0.0000 0.0000 0.0000
# 3 27.2998 41.0636 63.1575 0.0000 0.0000 0.0000
# 4 0.0000 0.0000 0.0000 19.6815 0.0000 0.0000
# 5 0.0000 0.0000 0.0000 0.0000 18.7146 0.0000
# 6 0.0000 0.0000 0.0000 0.0000 0.0000 24.5284
#
#
#
# Elastic Compliance Matrix: (Units=1/GPa)
#
#
# Indices 1 2 3 4 5 6 
#
# 1 0.015336 -0.006697 -0.002275 0.000000 0.000000 0.000000
# 2 -0.006697 0.011705 -0.004716 0.000000 0.000000 0.000000
# 3 -0.002275 -0.004716 0.019883 0.000000 0.000000 0.000000
# 4 0.000000 0.000000 0.000000 0.050809 0.000000 0.000000
# 5 0.000000 0.000000 0.000000 0.000000 0.053434 0.000000
# 6 0.000000 0.000000 0.000000 0.000000 0.000000 0.040769
#
#
# Mechanical properties :
#
#
# Convention : Reuss Voigt Hill
#
# Bulk Modulus (GPa) = 51.15353 63.79588 57.47470
# Shear Modulus (GPa) = 22.14095 23.69320 22.91707
#
# Velocity S-wave (km/s) = 3.69421 3.82151 3.75840
# Velocity P-wave (km/s) = 7.05168 7.66775 7.36615
#
# Compressibility (1/GPa) = 0.01954899
#
# Stress axis : x y z
#
# Youngs Moduli (GPa) = 65.20774 85.43521 50.29520
#
# Poissons Ratio (x) = 0.57214 0.11441
# Poissons Ratio (y) = 0.43668 0.23717
# Poissons Ratio (z) = 0.14833 0.40287
#
# Static dielectric constant tensor:
#      x y z
#    x 3.097160 0.000000 0.000000 
#    y 0.000000 3.601090 0.000000 
#    z 0.000000 0.000000 3.102530 
# 
# 
# High freq. dielectric constant tensor:
#      x y z
#    x 1.605890 0.000000 0.000000 
#    y 0.000000 1.613620 0.000000 
#    z 0.000000 0.000000 1.630200 
# 
# From -- ./inp_files/5990.got.cif
#   From: 2010.03.12/outbox.cif.g09.slc.cpg/sg57_3_cif.got.tgz:5990.got - 2010.04.16 15:48:40.
