data_PCOD8230666
_publ_section_title
;
Structure prediction by ZEFSAII (Michael W. Deem and Ramdas Pophale) SiO2 
 PCOD8230666
Probable space group: P B C M
;
_chemical_formula_sum "Si O2"
_cell_formula_units_Z 52
_cell_length_a 14.410972
_cell_length_b 23.198431
_cell_length_c 9.051836
_cell_angle_alpha 90.000000
_cell_angle_beta 90.000000
_cell_angle_gamma 90.000000
_cell_volume 3026.136850
_symmetry_space_group_name_H-M "P B C M"
_symmetry_group_IT_number 57
_symmetry_cell_setting 'orthorhombic'
loop_
_space_group_symop_operation_xyz
x,y,z
-x,-y,1/2+z
x,1/2-y,-z
-x,1/2+y,1/2-z
-x,-y,-z
x,y,1/2-z
-x,1/2+y,z
x,1/2-y,1/2+z
loop_
_atom_site_type_symbol
_atom_site_label
_atom_site_fract_x
_atom_site_fract_y
_atom_site_fract_z
Si Si1 0.640248 0.347043 0.909909
Si Si2 0.509989 0.560576 0.078727
Si Si3 0.990114 0.811491 0.423275
Si Si4 0.501861 0.250000 0.000000
Si Si5 0.367824 0.348332 0.416542
Si Si6 0.807688 0.189970 0.580628
Si Si7 0.814086 0.812379 0.926479
O O1 0.688187 0.345664 0.750000
O O2 0.587491 0.406828 0.932661
O O3 0.568985 0.292748 0.910018
O O4 0.721984 0.349132 0.029554
O O5 0.541063 0.554031 0.250000
O O6 0.500000 0.500000 0.000000
O O7 0.583544 0.596593 0.985690
O O8 0.001047 0.750000 0.500000
O O9 0.965556 0.805115 0.250000
O O10 0.906444 0.845131 0.508662
O O11 0.091796 0.841141 0.444973
O O12 0.433497 0.291520 0.093516
O O13 0.335897 0.362070 0.250000
O O14 0.279385 0.342140 0.521726
O O15 0.798667 0.250000 0.500000
O O16 0.793374 0.204060 0.750000
O O17 0.816847 0.809232 0.750000
O O18 0.816894 0.750000 0.000000
#
# Coordination Sequence:
#
# PCOD8230666 Si02
#       7
#     8   8   8   4   8   8   8
#     4  10  20  32  49  73 101 130 165 205 246 295
#     4  10  22  39  55  74  99 130 172 213 253 299
#     4   9  17  29  43  63  94 132 168 201 239 289
#     4  10  20  30  48  72 102 132 166 200 246 300
#     4  11  21  33  52  74 102 135 167 207 254 298
#     4  10  19  29  45  69  99 133 168 202 243 294
#     4  11  20  30  46  70 100 133 169 205 246 297
#
# _framework density 17.183624999999999
#
# number of rings (size 3 to 8) (size 9 to 14) (size 15 to 20)
#    0.000    1.846    1.538    4.615    0.000    6.154 
#    0.000    0.000    0.000    0.000    0.000    1.077 
#    0.000    0.000    0.000    0.000    0.000    0.000 
#
# Total GULP energy -644208.604891 kJ/mol
# GULP energy per Si atom -12388.627017 kJ/mol
# Density = 1.714451 g / cm^3
# Si number density = 17.183625 Si / 1000 Ang^3
#
#
#
# Elastic Constant Matrix: (Units=GPa)
#
#
# Indices 1 2 3 4 5 6 
#
# 1 126.3166 30.2767 63.4204 0.0000 0.0000 0.0000
# 2 30.2767 76.5907 35.1015 0.0000 0.0000 0.0000
# 3 63.4204 35.1015 151.5067 0.0000 0.0000 0.0000
# 4 0.0000 0.0000 0.0000 18.7939 0.0000 0.0000
# 5 0.0000 0.0000 0.0000 0.0000 29.4960 0.0000
# 6 0.0000 0.0000 0.0000 0.0000 0.0000 10.1658
#
#
#
# Elastic Compliance Matrix: (Units=1/GPa)
#
#
# Indices 1 2 3 4 5 6 
#
# 1 0.010393 -0.002366 -0.003802 0.000000 0.000000 0.000000
# 2 -0.002366 0.015146 -0.002519 0.000000 0.000000 0.000000
# 3 -0.003802 -0.002519 0.008776 0.000000 0.000000 0.000000
# 4 0.000000 0.000000 0.000000 0.053209 0.000000 0.000000
# 5 0.000000 0.000000 0.000000 0.000000 0.033903 0.000000
# 6 0.000000 0.000000 0.000000 0.000000 0.000000 0.098369
#
#
# Mechanical properties :
#
#
# Convention : Reuss Voigt Hill
#
# Bulk Modulus (GPa) = 59.02952 68.00125 63.51539
# Shear Modulus (GPa) = 20.59181 26.73217 23.66199
#
# Velocity S-wave (km/s) = 3.46546 3.94849 3.71483
# Velocity P-wave (km/s) = 7.10206 7.77474 7.44600
#
# Compressibility (1/GPa) = 0.01694068
#
# Stress axis : x y z
#
# Youngs Moduli (GPa) = 96.22164 66.02432 113.95309
#
# Poissons Ratio (x) = 0.15619 0.43328
# Poissons Ratio (y) = 0.22763 0.28702
# Poissons Ratio (z) = 0.36586 0.16630
#
# Static dielectric constant tensor:
#      x y z
#    x 4.298360 0.000000 0.000000 
#    y 0.000000 2.756290 0.000000 
#    z 0.000000 0.000000 3.440800 
# 
# 
# High freq. dielectric constant tensor:
#      x y z
#    x 1.681660 0.000000 0.000000 
#    y 0.000000 1.599110 0.000000 
#    z 0.000000 0.000000 1.683400 
# 
# From -- ./inp_files/5018.got.cif
#   From: 2010.03.12/outbox.cif.g09.slc.cpg/sg57_3_cif.got.tgz:5018.got - 2010.04.16 15:48:40.
