data_PCOD8230983
_publ_section_title
;
Structure prediction by ZEFSAII (Michael W. Deem and Ramdas Pophale) SiO2 
 PCOD8230983
Probable space group: P B C M
;
_chemical_formula_sum "Si O2"
_cell_formula_units_Z 48
_cell_length_a 14.790909
_cell_length_b 20.612531
_cell_length_c 8.775384
_cell_angle_alpha 90.000000
_cell_angle_beta 90.000000
_cell_angle_gamma 90.000000
_cell_volume 2675.422140
_symmetry_space_group_name_H-M "P B C M"
_symmetry_group_IT_number 57
_symmetry_cell_setting 'orthorhombic'
loop_
_space_group_symop_operation_xyz
x,y,z
-x,-y,1/2+z
x,1/2-y,-z
-x,1/2+y,1/2-z
-x,-y,-z
x,y,1/2-z
-x,1/2+y,z
x,1/2-y,1/2+z
loop_
_atom_site_type_symbol
_atom_site_label
_atom_site_fract_x
_atom_site_fract_y
_atom_site_fract_z
Si Si1 0.688123 0.354084 0.426770
Si Si2 0.926782 0.047751 0.430624
Si Si3 0.890662 0.182964 0.927214
Si Si4 0.487976 0.812354 0.929779
Si Si5 0.568621 0.551116 0.071498
Si Si6 0.726125 0.485268 0.927852
O O1 0.676427 0.372451 0.250000
O O2 0.783501 0.319363 0.456114
O O3 0.608895 0.308481 0.485981
O O4 0.678559 0.418140 0.528757
O O5 0.936815 0.051545 0.250000
O O6 0.938216 0.120489 0.496015
O O7 0.830451 0.017284 0.479794
O O8 0.000000 0.000000 0.500000
O O9 0.915577 0.182262 0.750000
O O10 0.927722 0.250000 0.000000
O O11 0.475247 0.806376 0.750000
O O12 0.541906 0.876478 0.976979
O O13 0.540958 0.750000 0.000000
O O14 0.564571 0.541145 0.250000
O O15 0.500000 0.500000 0.000000
O O16 0.671564 0.541836 0.013797
O O17 0.716717 0.497306 0.750000
#
# Coordination Sequence:
#
# PCOD8230983 Si02
#       6
#     8   8   8   8   8   8
#     4  10  19  31  50  75 106 143 178 216 264 319
#     4  10  21  37  58  83 111 142 179 226 277 330
#     4  10  20  33  51  78 110 144 179 217 268 328
#     4  11  23  35  49  72 104 142 183 226 270 319
#     4  11  22  35  54  78 106 142 184 224 266 318
#     4  10  20  34  54  80 108 140 179 223 269 320
#
# _framework density 17.941094
#
# number of rings (size 3 to 8) (size 9 to 14) (size 15 to 20)
#    0.000    1.667    1.667    3.500    0.000    7.333 
#    0.000    0.000    0.000    1.000    0.000    2.333 
#    0.000    0.000    0.000    0.000    0.000    0.000 
#
# Total GULP energy -595223.309551 kJ/mol
# GULP energy per Si atom -12400.485616 kJ/mol
# Density = 1.790026 g / cm^3
# Si number density = 17.941094 Si / 1000 Ang^3
#
#
#
# Elastic Constant Matrix: (Units=GPa)
#
#
# Indices 1 2 3 4 5 6 
#
# 1 71.5658 65.8098 36.1215 0.0000 0.0000 0.0000
# 2 65.8098 153.4619 62.0249 0.0000 0.0000 0.0000
# 3 36.1215 62.0249 79.2931 0.0000 0.0000 0.0000
# 4 0.0000 0.0000 0.0000 35.4511 0.0000 0.0000
# 5 0.0000 0.0000 0.0000 0.0000 27.6636 0.0000
# 6 0.0000 0.0000 0.0000 0.0000 0.0000 20.5847
#
#
#
# Elastic Compliance Matrix: (Units=1/GPa)
#
#
# Indices 1 2 3 4 5 6 
#
# 1 0.023997 -0.008587 -0.004214 0.000000 0.000000 0.000000
# 2 -0.008587 0.012602 -0.005946 0.000000 0.000000 0.000000
# 3 -0.004214 -0.005946 0.019182 0.000000 0.000000 0.000000
# 4 0.000000 0.000000 0.000000 0.028208 0.000000 0.000000
# 5 0.000000 0.000000 0.000000 0.000000 0.036149 0.000000
# 6 0.000000 0.000000 0.000000 0.000000 0.000000 0.048580
#
#
# Mechanical properties :
#
#
# Convention : Reuss Voigt Hill
#
# Bulk Modulus (GPa) = 54.68611 70.24812 62.46712
# Shear Modulus (GPa) = 23.55077 26.09753 24.82415
#
# Velocity S-wave (km/s) = 3.62701 3.81809 3.72378
# Velocity P-wave (km/s) = 6.93451 7.66009 7.30631
#
# Compressibility (1/GPa) = 0.01828618
#
# Stress axis : x y z
#
# Youngs Moduli (GPa) = 41.67180 79.35346 52.13210
#
# Poissons Ratio (x) = 0.68144 0.21971
# Poissons Ratio (y) = 0.35785 0.30995
# Poissons Ratio (z) = 0.17562 0.47180
#
# Static dielectric constant tensor:
#      x y z
#    x 3.221060 0.000000 0.000000 
#    y 0.000000 3.566740 0.000000 
#    z 0.000000 0.000000 3.442630 
# 
# 
# High freq. dielectric constant tensor:
#      x y z
#    x 1.661310 0.000000 0.000000 
#    y 0.000000 1.698120 0.000000 
#    z 0.000000 0.000000 1.712120 
# 
# From -- ./inp_files/4857.got.cif
#   From: 2010.03.12/outbox.cif.g09.slc.cpg/sg57_3_cif.got.tgz:4857.got - 2010.04.16 15:48:40.
