data_PCOD8230470
_publ_section_title
;
Structure prediction by ZEFSAII (Michael W. Deem and Ramdas Pophale) SiO2 
 PCOD8230470
Probable space group: P B C M
;
_chemical_formula_sum "Si O2"
_cell_formula_units_Z 64
_cell_length_a 19.775613
_cell_length_b 19.778499
_cell_length_c 8.859954
_cell_angle_alpha 90.000000
_cell_angle_beta 90.000000
_cell_angle_gamma 90.000000
_cell_volume 3465.411014
_symmetry_space_group_name_H-M "P B C M"
_symmetry_group_IT_number 57
_symmetry_cell_setting 'orthorhombic'
loop_
_space_group_symop_operation_xyz
x,y,z
-x,-y,1/2+z
x,1/2-y,-z
-x,1/2+y,1/2-z
-x,-y,-z
x,y,1/2-z
-x,1/2+y,z
x,1/2-y,1/2+z
loop_
_atom_site_type_symbol
_atom_site_label
_atom_site_fract_x
_atom_site_fract_y
_atom_site_fract_z
Si Si1 0.338916 0.912279 0.575568
Si Si2 0.110914 0.884408 0.570712
Si Si3 0.014767 0.071573 0.927072
Si Si4 0.612009 0.680244 0.427989
Si Si5 0.540528 0.181297 0.426477
Si Si6 0.156621 0.031381 0.925696
Si Si7 0.766913 0.181599 0.571668
Si Si8 0.303671 0.436926 0.425718
O O1 0.321478 0.896568 0.750000
O O2 0.411198 0.881017 0.527987
O O3 0.280149 0.880932 0.473901
O O4 0.341973 0.992238 0.547069
O O5 0.111015 0.877064 0.750000
O O6 0.158135 0.827912 0.496529
O O7 0.033903 0.873903 0.508812
O O8 0.137662 0.957245 0.511043
O O9 0.998812 0.069578 0.750000
O O10 0.095250 0.084830 0.955495
O O11 0.000000 0.000000 0.000000
O O12 0.638296 0.750000 0.500000
O O13 0.616196 0.687310 0.250000
O O14 0.535312 0.665144 0.483391
O O15 0.658861 0.619552 0.479726
O O16 0.568601 0.250000 0.500000
O O17 0.540924 0.193759 0.250000
O O18 0.169116 0.020215 0.750000
O O19 0.227144 0.058691 0.992719
O O20 0.736280 0.250000 0.500000
O O21 0.770512 0.188274 0.750000
O O22 0.304378 0.416787 0.250000
#
# Coordination Sequence:
#
# PCOD8230470 Si02
#       8
#     8   8   8   8   8   8   8   8
#     4  10  20  36  56  79 110 145 181 222 271 326
#     4  10  18  33  52  73 103 140 180 225 270 318
#     4   9  16  27  46  74 103 136 176 219 264 314
#     4  10  21  38  57  80 106 136 179 226 273 329
#     4   9  19  35  55  77 105 143 184 226 269 319
#     4   8  15  29  50  75 106 140 172 210 263 320
#     4  12  24  36  52  76 108 148 189 229 273 326
#     4  10  19  34  56  81 111 147 177 215 274 328
#
# _framework density 18.468229000000001
#
# number of rings (size 3 to 8) (size 9 to 14) (size 15 to 20)
#    0.000    2.250    1.250    3.375    0.000    3.000 
#    0.000    1.250    0.000    0.750    0.000    3.500 
#    0.000    0.000    0.000    0.000    0.000    0.000 
#
# Total GULP energy -793416.769039 kJ/mol
# GULP energy per Si atom -12397.137016 kJ/mol
# Density = 1.842619 g / cm^3
# Si number density = 18.468229 Si / 1000 Ang^3
#
#
#
# Elastic Constant Matrix: (Units=GPa)
#
#
# Indices 1 2 3 4 5 6 
#
# 1 114.3468 52.2924 37.8401 0.0000 0.0000 0.0000
# 2 52.2924 85.0567 37.3018 0.0000 0.0000 0.0000
# 3 37.8401 37.3018 84.4224 0.0000 0.0000 0.0000
# 4 0.0000 0.0000 0.0000 27.9835 0.0000 0.0000
# 5 0.0000 0.0000 0.0000 0.0000 27.9704 0.0000
# 6 0.0000 0.0000 0.0000 0.0000 0.0000 23.9440
#
#
#
# Elastic Compliance Matrix: (Units=1/GPa)
#
#
# Indices 1 2 3 4 5 6 
#
# 1 0.012669 -0.006572 -0.002775 0.000000 0.000000 0.000000
# 2 -0.006572 0.017992 -0.005004 0.000000 0.000000 0.000000
# 3 -0.002775 -0.005004 0.015300 0.000000 0.000000 0.000000
# 4 0.000000 0.000000 0.000000 0.035735 0.000000 0.000000
# 5 0.000000 0.000000 0.000000 0.000000 0.035752 0.000000
# 6 0.000000 0.000000 0.000000 0.000000 0.000000 0.041764
#
#
# Mechanical properties :
#
#
# Convention : Reuss Voigt Hill
#
# Bulk Modulus (GPa) = 57.93943 59.85495 58.89719
# Shear Modulus (GPa) = 25.81756 26.40567 26.11161
#
# Velocity S-wave (km/s) = 3.74297 3.78536 3.76422
# Velocity P-wave (km/s) = 7.07957 7.18229 7.13111
#
# Compressibility (1/GPa) = 0.01725940
#
# Stress axis : x y z
#
# Youngs Moduli (GPa) = 78.93283 55.58106 65.36002
#
# Poissons Ratio (x) = 0.36528 0.18136
# Poissons Ratio (y) = 0.51874 0.32706
# Poissons Ratio (z) = 0.21902 0.27812
#
# Static dielectric constant tensor:
#      x y z
#    x 3.901050 0.000000 0.000000 
#    y 0.000000 3.191190 0.000000 
#    z 0.000000 0.000000 3.308630 
# 
# 
# High freq. dielectric constant tensor:
#      x y z
#    x 1.727080 0.000000 0.000000 
#    y 0.000000 1.685550 0.000000 
#    z 0.000000 0.000000 1.708910 
# 
# From -- ./inp_files/7125.got.cif
#   From: 2010.03.12/outbox.cif.g09.slc.cpg/sg57_4_cif.got.tgz:7125.got - 2010.04.16 15:48:40.
