data_PCOD8230630
_publ_section_title
;
Structure prediction by ZEFSAII (Michael W. Deem and Ramdas Pophale) SiO2 
 PCOD8230630
Probable space group: P B C M
;
_chemical_formula_sum "Si O2"
_cell_formula_units_Z 64
_cell_length_a 18.338996
_cell_length_b 24.543730
_cell_length_c 9.013446
_cell_angle_alpha 90.000000
_cell_angle_beta 90.000000
_cell_angle_gamma 90.000000
_cell_volume 4057.018440
_symmetry_space_group_name_H-M "P B C M"
_symmetry_group_IT_number 57
_symmetry_cell_setting 'orthorhombic'
loop_
_space_group_symop_operation_xyz
x,y,z
-x,-y,1/2+z
x,1/2-y,-z
-x,1/2+y,1/2-z
-x,-y,-z
x,y,1/2-z
-x,1/2+y,z
x,1/2-y,1/2+z
loop_
_atom_site_type_symbol
_atom_site_label
_atom_site_fract_x
_atom_site_fract_y
_atom_site_fract_z
Si Si1 0.245713 0.511117 0.085222
Si Si2 0.813874 0.610590 0.917056
Si Si3 0.482393 0.414600 0.077322
Si Si4 0.908329 0.467264 0.920717
Si Si5 0.945142 0.924681 0.919334
Si Si6 0.390265 0.501898 0.578736
Si Si7 0.282663 0.195899 0.422096
Si Si8 0.547627 0.805381 0.576174
O O1 0.277630 0.521232 0.250000
O O2 0.212768 0.450996 0.072262
O O3 0.176282 0.551285 0.053347
O O4 0.309824 0.521113 0.968287
O O5 0.812447 0.633088 0.750000
O O6 0.896906 0.615541 0.978603
O O7 0.759472 0.644247 0.017839
O O8 0.467383 0.404243 0.250000
O O9 0.556151 0.447887 0.047985
O O10 0.414067 0.448605 0.013205
O O11 0.492809 0.357175 0.995041
O O12 0.914910 0.489755 0.750000
O O13 0.966703 0.417597 0.941996
O O14 0.927669 0.513018 0.040506
O O15 0.922612 0.913620 0.750000
O O16 0.390315 0.484945 0.750000
O O17 0.252569 0.250000 0.500000
O O18 0.267742 0.202249 0.250000
O O19 0.367312 0.187286 0.458237
O O20 0.518396 0.750000 0.500000
O O21 0.530363 0.802637 0.750000
#
# Coordination Sequence:
#
# PCOD8230630 Si02
#       8
#     8   8   8   8   8   8   8   8
#     4   9  17  28  42  60  84 114 144 175 213 255
#     4  10  19  29  41  59  84 113 144 176 210 250
#     4  10  20  33  47  63  87 117 148 183 221 262
#     4   8  15  26  38  55  80 108 137 169 204 241
#     4   9  15  24  39  57  78 106 139 171 202 238
#     4  10  20  31  44  64  88 116 150 185 221 262
#     4  10  20  32  45  62  83 108 139 175 213 250
#     4  10  20  33  50  69  88 112 144 181 220 262
#
# _framework density 15.775131999999999
#
# number of rings (size 3 to 8) (size 9 to 14) (size 15 to 20)
#    0.000    2.500    0.000    3.750    0.000    8.000 
#    0.000    0.000    0.000    0.000    0.000    0.000 
#    0.000    1.000    0.000    5.250    0.000    4.625 
#
# Total GULP energy -793308.955191 kJ/mol
# GULP energy per Si atom -12395.452425 kJ/mol
# Density = 1.573923 g / cm^3
# Si number density = 15.775132 Si / 1000 Ang^3
#
#
#
# Elastic Constant Matrix: (Units=GPa)
#
#
# Indices 1 2 3 4 5 6 
#
# 1 80.1569 18.0123 37.9096 0.0000 0.0000 0.0000
# 2 18.0123 56.0247 34.5108 0.0000 0.0000 0.0000
# 3 37.9096 34.5108 74.0855 0.0000 0.0000 0.0000
# 4 0.0000 0.0000 0.0000 24.9760 0.0000 0.0000
# 5 0.0000 0.0000 0.0000 0.0000 24.5917 0.0000
# 6 0.0000 0.0000 0.0000 0.0000 0.0000 15.2493
#
#
#
# Elastic Compliance Matrix: (Units=1/GPa)
#
#
# Indices 1 2 3 4 5 6 
#
# 1 0.016459 -0.000146 -0.008355 0.000000 0.000000 0.000000
# 2 -0.000146 0.025033 -0.011587 0.000000 0.000000 0.000000
# 3 -0.008355 -0.011587 0.023170 0.000000 0.000000 0.000000
# 4 0.000000 0.000000 0.000000 0.040038 0.000000 0.000000
# 5 0.000000 0.000000 0.000000 0.000000 0.040664 0.000000
# 6 0.000000 0.000000 0.000000 0.000000 0.000000 0.065577
#
#
# Mechanical properties :
#
#
# Convention : Reuss Voigt Hill
#
# Bulk Modulus (GPa) = 40.83353 43.45915 42.14634
# Shear Modulus (GPa) = 19.28424 20.95236 20.11830
#
# Velocity S-wave (km/s) = 3.50014 3.64839 3.57503
# Velocity P-wave (km/s) = 6.50197 6.73473 6.61937
#
# Compressibility (1/GPa) = 0.02448968
#
# Stress axis : x y z
#
# Youngs Moduli (GPa) = 60.75540 39.94670 43.15875
#
# Poissons Ratio (x) = 0.00581 0.36057
# Poissons Ratio (y) = 0.00884 0.50007
# Poissons Ratio (z) = 0.50758 0.46285
#
# Static dielectric constant tensor:
#      x y z
#    x 3.194150 0.000000 0.000000 
#    y 0.000000 2.718500 0.000000 
#    z 0.000000 0.000000 3.152460 
# 
# 
# High freq. dielectric constant tensor:
#      x y z
#    x 1.601490 0.000000 0.000000 
#    y 0.000000 1.555560 0.000000 
#    z 0.000000 0.000000 1.623910 
# 
# From -- ./inp_files/7275.got.cif
#   From: 2010.03.12/outbox.cif.g09.slc.cpg/sg57_4_cif.got.tgz:7275.got - 2010.04.16 15:48:40.
