data_PCOD8230715
_publ_section_title
;
Structure prediction by ZEFSAII (Michael W. Deem and Ramdas Pophale) SiO2 
 PCOD8230715
Probable space group: P B C M
;
_chemical_formula_sum "Si O2"
_cell_formula_units_Z 64
_cell_length_a 28.888509
_cell_length_b 13.900477
_cell_length_c 9.212781
_cell_angle_alpha 90.000000
_cell_angle_beta 90.000000
_cell_angle_gamma 90.000000
_cell_volume 3699.521695
_symmetry_space_group_name_H-M "P B C M"
_symmetry_group_IT_number 57
_symmetry_cell_setting 'orthorhombic'
loop_
_space_group_symop_operation_xyz
x,y,z
-x,-y,1/2+z
x,1/2-y,-z
-x,1/2+y,1/2-z
-x,-y,-z
x,y,1/2-z
-x,1/2+y,z
x,1/2-y,1/2+z
loop_
_atom_site_type_symbol
_atom_site_label
_atom_site_fract_x
_atom_site_fract_y
_atom_site_fract_z
Si Si1 0.848445 0.654953 0.082328
Si Si2 0.578477 0.850687 0.580509
Si Si3 0.984363 0.348329 0.420405
Si Si4 0.662294 0.982091 0.920525
Si Si5 0.478828 0.652364 0.083939
Si Si6 0.621705 0.148851 0.079693
Si Si7 0.744535 0.653909 0.080601
Si Si8 0.063013 0.457253 0.582680
O O1 0.848927 0.682726 0.250000
O O2 0.796699 0.624140 0.033916
O O3 0.883298 0.566730 0.049921
O O4 0.865423 0.750000 0.000000
O O5 0.582369 0.750000 0.500000
O O6 0.585282 0.830120 0.750000
O O7 0.619409 0.918072 0.524154
O O8 0.527759 0.902173 0.549877
O O9 0.969399 0.250000 0.500000
O O10 0.989944 0.327535 0.250000
O O11 0.945453 0.430010 0.451565
O O12 0.032723 0.387662 0.481900
O O13 0.658967 0.004107 0.750000
O O14 0.710525 0.932198 0.963211
O O15 0.660472 0.080734 0.009947
O O16 0.478278 0.683070 0.250000
O O17 0.429632 0.600905 0.049073
O O18 0.480735 0.750000 0.000000
O O19 0.631473 0.161992 0.250000
O O20 0.625458 0.250000 0.000000
O O21 0.740782 0.675928 0.250000
O O22 0.728423 0.750000 0.000000
O O23 0.049973 0.435393 0.750000
#
# Coordination Sequence:
#
# PCOD8230715 Si02
#       8
#     8   8   8   8   8   8   8   8
#     4   9  17  30  48  70  95 124 157 192 231 272
#     4   9  17  29  45  66  94 123 149 179 217 266
#     4  10  19  30  45  67  97 130 162 198 239 281
#     4  10  20  32  47  69  95 122 150 183 227 274
#     4   8  15  28  44  63  87 115 146 180 219 262
#     4  10  20  34  51  68  87 114 150 190 229 270
#     4   9  18  32  50  72  98 125 152 187 230 275
#     4   9  18  31  47  68  94 127 166 202 236 277
#
# _framework density 17.299534999999999
#
# number of rings (size 3 to 8) (size 9 to 14) (size 15 to 20)
#    0.000    2.750    0.000    1.500    0.000    4.000 
#    0.000    0.000    0.000    0.750    0.000    1.750 
#    0.000    0.000    0.000    0.000    0.000    0.000 
#
# Total GULP energy -793081.676025 kJ/mol
# GULP energy per Si atom -12391.901188 kJ/mol
# Density = 1.726016 g / cm^3
# Si number density = 17.299535 Si / 1000 Ang^3
#
#
#
# Elastic Constant Matrix: (Units=GPa)
#
#
# Indices 1 2 3 4 5 6 
#
# 1 109.6521 65.7433 42.9046 0.0000 0.0000 0.0000
# 2 65.7433 100.7690 46.8786 0.0000 0.0000 0.0000
# 3 42.9046 46.8786 57.9229 0.0000 0.0000 0.0000
# 4 0.0000 0.0000 0.0000 29.1036 0.0000 0.0000
# 5 0.0000 0.0000 0.0000 0.0000 19.5074 0.0000
# 6 0.0000 0.0000 0.0000 0.0000 0.0000 26.4023
#
#
#
# Elastic Compliance Matrix: (Units=1/GPa)
#
#
# Indices 1 2 3 4 5 6 
#
# 1 0.015985 -0.007892 -0.005453 0.000000 0.000000 0.000000
# 2 -0.007892 0.019813 -0.010189 0.000000 0.000000 0.000000
# 3 -0.005453 -0.010189 0.029550 0.000000 0.000000 0.000000
# 4 0.000000 0.000000 0.000000 0.034360 0.000000 0.000000
# 5 0.000000 0.000000 0.000000 0.000000 0.051263 0.000000
# 6 0.000000 0.000000 0.000000 0.000000 0.000000 0.037875
#
#
# Mechanical properties :
#
#
# Convention : Reuss Voigt Hill
#
# Bulk Modulus (GPa) = 54.70776 64.37745 59.54261
# Shear Modulus (GPa) = 20.66044 22.52383 21.59213
#
# Velocity S-wave (km/s) = 3.45958 3.61223 3.53673
# Velocity P-wave (km/s) = 6.90295 7.39539 7.15341
#
# Compressibility (1/GPa) = 0.01827894
#
# Stress axis : x y z
#
# Youngs Moduli (GPa) = 62.55712 50.47258 33.84090
#
# Poissons Ratio (x) = 0.39834 0.18454
# Poissons Ratio (y) = 0.49371 0.34481
# Poissons Ratio (z) = 0.34114 0.51427
#
# Static dielectric constant tensor:
#      x y z
#    x 3.457360 0.000000 0.000000 
#    y 0.000000 2.994320 0.000000 
#    z 0.000000 0.000000 3.190370 
# 
# 
# High freq. dielectric constant tensor:
#      x y z
#    x 1.661290 0.000000 0.000000 
#    y 0.000000 1.646460 0.000000 
#    z 0.000000 0.000000 1.672490 
# 
# From -- ./inp_files/10348.got.cif
#   From: 2010.03.12/outbox.cif.g09.slc.cpg/sg57_6_cif.got.tgz:10348.got - 2010.04.16 15:48:40.
