data_PCOD8230116
_publ_section_title
;
Structure prediction by ZEFSAII (Michael W. Deem and Ramdas Pophale) SiO2 
 PCOD8230116
Probable space group: P B C M
;
_chemical_formula_sum "Si O2"
_cell_formula_units_Z 56
_cell_length_a 16.367850
_cell_length_b 21.490608
_cell_length_c 9.530613
_cell_angle_alpha 90.000000
_cell_angle_beta 90.000000
_cell_angle_gamma 90.000000
_cell_volume 3352.441235
_symmetry_space_group_name_H-M "P B C M"
_symmetry_group_IT_number 57
_symmetry_cell_setting 'orthorhombic'
loop_
_space_group_symop_operation_xyz
x,y,z
-x,-y,1/2+z
x,1/2-y,-z
-x,1/2+y,1/2-z
-x,-y,-z
x,y,1/2-z
-x,1/2+y,z
x,1/2-y,1/2+z
loop_
_atom_site_type_symbol
_atom_site_label
_atom_site_fract_x
_atom_site_fract_y
_atom_site_fract_z
Si Si1 0.549443 0.580865 0.907179
Si Si2 0.948614 0.447705 0.585562
Si Si3 0.997532 0.689831 0.084646
Si Si4 0.592898 0.435825 0.903774
Si Si5 0.695608 0.587019 0.405869
Si Si6 0.236928 0.520348 0.089410
Si Si7 0.186278 0.299765 0.901121
O O1 0.550493 0.608918 0.750000
O O2 0.569032 0.508184 0.904164
O O3 0.461139 0.596879 0.975890
O O4 0.618705 0.611713 0.004504
O O5 0.969937 0.456713 0.750000
O O6 0.852070 0.453224 0.556580
O O7 0.000000 0.500000 0.500000
O O8 0.966117 0.376870 0.536523
O O9 0.012907 0.700658 0.250000
O O10 0.902976 0.682596 0.041850
O O11 0.034363 0.750000 0.000000
O O12 0.572224 0.407637 0.750000
O O13 0.690291 0.428587 0.933783
O O14 0.666477 0.564939 0.250000
O O15 0.746768 0.534190 0.481656
O O16 0.759029 0.640994 0.389038
O O17 0.242425 0.495645 0.250000
O O18 0.176120 0.267835 0.750000
O O19 0.230189 0.250000 0.000000
#
# Coordination Sequence:
#
# PCOD8230116 Si02
#       7
#     8   8   8   8   8   8   8
#     4   9  16  25  39  60  85 114 145 176 214 261
#     4  10  20  33  49  71  99 127 157 196 241 286
#     4   9  18  33  50  68  92 123 159 196 232 275
#     4   8  14  25  39  57  83 113 146 179 212 257
#     4  10  18  28  43  64  90 118 147 180 221 269
#     4   9  18  30  44  64  90 120 150 183 226 272
#     4   9  18  30  44  62  84 113 148 183 219 261
#
# _framework density 16.704243999999999
#
# number of rings (size 3 to 8) (size 9 to 14) (size 15 to 20)
#    0.000    2.857    0.000    2.571    0.000    6.857 
#    0.000    2.857    0.000    0.000    0.000    1.000 
#    0.000    2.286    0.000    0.000    0.000    0.000 
#
# Total GULP energy -693765.940659 kJ/mol
# GULP energy per Si atom -12388.677512 kJ/mol
# Density = 1.666622 g / cm^3
# Si number density = 16.704244 Si / 1000 Ang^3
#
#
#
# Elastic Constant Matrix: (Units=GPa)
#
#
# Indices 1 2 3 4 5 6 
#
# 1 110.5749 33.2180 56.9759 0.0000 0.0000 0.0000
# 2 33.2180 70.8875 44.7085 0.0000 0.0000 0.0000
# 3 56.9759 44.7085 111.8113 0.0000 0.0000 0.0000
# 4 0.0000 0.0000 0.0000 21.4943 0.0000 0.0000
# 5 0.0000 0.0000 0.0000 0.0000 24.4572 0.0000
# 6 0.0000 0.0000 0.0000 0.0000 0.0000 10.1787
#
#
#
# Elastic Compliance Matrix: (Units=1/GPa)
#
#
# Indices 1 2 3 4 5 6 
#
# 1 0.012581 -0.002477 -0.005420 0.000000 0.000000 0.000000
# 2 -0.002477 0.019352 -0.006476 0.000000 0.000000 0.000000
# 3 -0.005420 -0.006476 0.014295 0.000000 0.000000 0.000000
# 4 0.000000 0.000000 0.000000 0.046524 0.000000 0.000000
# 5 0.000000 0.000000 0.000000 0.000000 0.040888 0.000000
# 6 0.000000 0.000000 0.000000 0.000000 0.000000 0.098244
#
#
# Mechanical properties :
#
#
# Convention : Reuss Voigt Hill
#
# Bulk Modulus (GPa) = 57.20301 62.56426 59.88364
# Shear Modulus (GPa) = 18.76478 21.78413 20.27446
#
# Velocity S-wave (km/s) = 3.35528 3.61516 3.48764
# Velocity P-wave (km/s) = 7.02350 7.41359 7.22118
#
# Compressibility (1/GPa) = 0.01748160
#
# Stress axis : x y z
#
# Youngs Moduli (GPa) = 79.48717 51.67497 69.95369
#
# Poissons Ratio (x) = 0.12798 0.37918
# Poissons Ratio (y) = 0.19686 0.45301
# Poissons Ratio (z) = 0.43086 0.33464
#
# Static dielectric constant tensor:
#      x y z
#    x 3.324790 0.000000 0.000000 
#    y 0.000000 2.782870 0.000000 
#    z 0.000000 0.000000 3.641890 
# 
# 
# High freq. dielectric constant tensor:
#      x y z
#    x 1.647600 0.000000 0.000000 
#    y 0.000000 1.588220 0.000000 
#    z 0.000000 0.000000 1.657080 
# 
# From -- ./inp_files/7077.got.cif
#   From: 2010.03.12/outbox.cif.g09.slc.cpg/sg57_4_cif.got.tgz:7077.got - 2010.04.16 15:48:40.
