data_PCOD8230982
_publ_section_title
;
Structure prediction by ZEFSAII (Michael W. Deem and Ramdas Pophale) SiO2 
 PCOD8230982
Probable space group: P B C M
;
_chemical_formula_sum "Si O2"
_cell_formula_units_Z 48
_cell_length_a 9.542117
_cell_length_b 30.772283
_cell_length_c 9.126803
_cell_angle_alpha 90.000000
_cell_angle_beta 90.000000
_cell_angle_gamma 90.000000
_cell_volume 2679.928033
_symmetry_space_group_name_H-M "P B C M"
_symmetry_group_IT_number 57
_symmetry_cell_setting 'orthorhombic'
loop_
_space_group_symop_operation_xyz
x,y,z
-x,-y,1/2+z
x,1/2-y,-z
-x,1/2+y,1/2-z
-x,-y,-z
x,y,1/2-z
-x,1/2+y,z
x,1/2-y,1/2+z
loop_
_atom_site_type_symbol
_atom_site_label
_atom_site_fract_x
_atom_site_fract_y
_atom_site_fract_z
Si Si1 0.361216 0.484699 0.580129
Si Si2 0.725538 0.610295 0.079950
Si Si3 0.000282 0.637037 0.923431
Si Si4 0.234954 0.927699 0.418019
Si Si5 0.577993 0.364499 0.582858
Si Si6 0.804462 0.296012 0.576380
O O1 0.500000 0.500000 0.500000
O O2 0.400173 0.480465 0.750000
O O3 0.304716 0.438574 0.522929
O O4 0.238389 0.520514 0.552682
O O5 0.772337 0.610103 0.250000
O O6 0.587997 0.640198 0.055831
O O7 0.843410 0.631261 0.979311
O O8 0.000008 0.645722 0.750000
O O9 0.087623 0.593571 0.967558
O O10 0.065805 0.678154 0.006498
O O11 0.259667 0.916754 0.250000
O O12 0.366528 0.906246 0.497780
O O13 0.610210 0.375393 0.750000
O O14 0.659054 0.320622 0.537458
O O15 0.794046 0.250000 0.500000
O O16 0.827780 0.290999 0.750000
#
# Coordination Sequence:
#
# PCOD8230982 Si02
#       6
#     8   8   8   8   8   8
#     4  10  19  31  50  75 105 142 185 229 269 311
#     4  10  20  34  51  76 110 145 180 221 270 317
#     4  10  21  36  53  77 109 144 180 219 267 318
#     4   9  18  32  50  74 104 139 182 227 264 306
#     4   9  18  33  54  78 104 136 173 214 263 317
#     4  10  20  37  61  84 105 132 169 212 262 321
#
# _framework density 17.910928999999999
#
# number of rings (size 3 to 8) (size 9 to 14) (size 15 to 20)
#    0.000    2.333    1.667    1.000    0.000    3.333 
#    0.000    0.833    0.000    2.000    0.000    0.000 
#    0.000    0.000    0.000    0.000    0.000    0.000 
#
# Total GULP energy -595116.842798 kJ/mol
# GULP energy per Si atom -12398.267558 kJ/mol
# Density = 1.787016 g / cm^3
# Si number density = 17.910929 Si / 1000 Ang^3
#
#
#
# Elastic Constant Matrix: (Units=GPa)
#
#
# Indices 1 2 3 4 5 6 
#
# 1 106.3871 58.0014 43.8121 0.0000 0.0000 0.0000
# 2 58.0014 127.4758 47.4597 0.0000 0.0000 0.0000
# 3 43.8121 47.4597 67.2995 0.0000 0.0000 0.0000
# 4 0.0000 0.0000 0.0000 26.6100 0.0000 0.0000
# 5 0.0000 0.0000 0.0000 0.0000 30.6382 0.0000
# 6 0.0000 0.0000 0.0000 0.0000 0.0000 20.0568
#
#
#
# Elastic Compliance Matrix: (Units=1/GPa)
#
#
# Indices 1 2 3 4 5 6 
#
# 1 0.014275 -0.004116 -0.006391 0.000000 0.000000 0.000000
# 2 -0.004116 0.011824 -0.005659 0.000000 0.000000 0.000000
# 3 -0.006391 -0.005659 0.023010 0.000000 0.000000 0.000000
# 4 0.000000 0.000000 0.000000 0.037580 0.000000 0.000000
# 5 0.000000 0.000000 0.000000 0.000000 0.032639 0.000000
# 6 0.000000 0.000000 0.000000 0.000000 0.000000 0.049858
#
#
# Mechanical properties :
#
#
# Convention : Reuss Voigt Hill
#
# Bulk Modulus (GPa) = 59.60062 66.63430 63.11746
# Shear Modulus (GPa) = 24.14163 25.58696 24.86430
#
# Velocity S-wave (km/s) = 3.67532 3.78374 3.72992
# Velocity P-wave (km/s) = 7.16652 7.50818 7.33934
#
# Compressibility (1/GPa) = 0.01677835
#
# Stress axis : x y z
#
# Youngs Moduli (GPa) = 70.05016 84.57179 43.45933
#
# Poissons Ratio (x) = 0.34810 0.27774
# Poissons Ratio (y) = 0.28833 0.24593
# Poissons Ratio (z) = 0.44767 0.47859
#
# Static dielectric constant tensor:
#      x y z
#    x 3.296320 0.000000 0.000000 
#    y 0.000000 3.439110 0.000000 
#    z 0.000000 0.000000 3.318350 
# 
# 
# High freq. dielectric constant tensor:
#      x y z
#    x 1.686080 0.000000 0.000000 
#    y 0.000000 1.686170 0.000000 
#    z 0.000000 0.000000 1.696670 
# 
# From -- ./inp_files/2029.got.cif
#   From: 2010.03.12/outbox.cif.g09.slc.cpg/sg57_2_cif.got.tgz:2029.got - 2010.04.16 15:48:40.
