data_PCOD8230654
_publ_section_title
;
Structure prediction by ZEFSAII (Michael W. Deem and Ramdas Pophale) SiO2 
 PCOD8230654
Probable space group: P B C M
;
_chemical_formula_sum "Si O2"
_cell_formula_units_Z 64
_cell_length_a 13.903365
_cell_length_b 27.291372
_cell_length_c 9.210332
_cell_angle_alpha 90.000000
_cell_angle_beta 90.000000
_cell_angle_gamma 90.000000
_cell_volume 3494.785931
_symmetry_space_group_name_H-M "P B C M"
_symmetry_group_IT_number 57
_symmetry_cell_setting 'orthorhombic'
loop_
_space_group_symop_operation_xyz
x,y,z
-x,-y,1/2+z
x,1/2-y,-z
-x,1/2+y,1/2-z
-x,-y,-z
x,y,1/2-z
-x,1/2+y,z
x,1/2-y,1/2+z
loop_
_atom_site_type_symbol
_atom_site_label
_atom_site_fract_x
_atom_site_fract_y
_atom_site_fract_z
Si Si1 0.582994 0.347126 0.912507
Si Si2 0.022139 0.299052 0.080974
Si Si3 0.730035 0.436261 0.584702
Si Si4 0.600810 0.989193 0.579303
Si Si5 0.721594 0.291862 0.407477
Si Si6 0.372606 0.376472 0.918129
Si Si7 0.754209 0.700447 0.580116
Si Si8 0.871902 0.122999 0.588933
O O1 0.577266 0.326536 0.750000
O O2 0.652466 0.393510 0.918166
O O3 0.478857 0.362011 0.969475
O O4 0.620831 0.304190 0.015250
O O5 0.998433 0.291032 0.250000
O O6 0.133547 0.308641 0.050777
O O7 0.964303 0.347430 0.025705
O O8 0.986959 0.250000 0.000000
O O9 0.747559 0.454081 0.750000
O O10 0.687671 0.479373 0.486446
O O11 0.834002 0.419455 0.519089
O O12 0.586691 0.000617 0.750000
O O13 0.636801 0.934098 0.554262
O O14 0.500000 0.000000 0.500000
O O15 0.775738 0.250000 0.500000
O O16 0.698065 0.270327 0.250000
O O17 0.785959 0.339103 0.395808
O O18 0.353973 0.363567 0.750000
O O19 0.297968 0.347063 0.016712
O O20 0.719361 0.750000 0.500000
O O21 0.731542 0.706035 0.750000
O O22 0.894565 0.101216 0.750000
#
# Coordination Sequence:
#
# PCOD8230654 Si02
#       8
#     8   8   8   8   8   8   8   8
#     4   9  18  33  48  65  95 132 168 207 253 304
#     4   9  18  33  54  79 107 136 176 223 272 323
#     4  10  19  33  51  77 108 138 173 215 261 313
#     4  11  21  35  56  81 109 142 180 222 267 313
#     4  10  19  29  43  66  95 130 168 204 249 304
#     4  10  21  37  55  77 105 139 177 220 265 313
#     4  10  21  37  57  81 107 140 178 224 271 317
#     4   9  18  32  50  74 103 136 171 212 263 319
#
# _framework density 18.312995999999998
#
# number of rings (size 3 to 8) (size 9 to 14) (size 15 to 20)
#    0.000    2.250    1.250    1.875    0.000    4.000 
#    0.000    0.000    0.000    0.750    0.000    0.000 
#    0.000    0.000    0.000    0.000    0.000    0.000 
#
# Total GULP energy -793380.339012 kJ/mol
# GULP energy per Si atom -12396.567797 kJ/mol
# Density = 1.827131 g / cm^3
# Si number density = 18.312996 Si / 1000 Ang^3
#
#
#
# Elastic Constant Matrix: (Units=GPa)
#
#
# Indices 1 2 3 4 5 6 
#
# 1 63.8004 29.1157 33.7637 0.0000 0.0000 0.0000
# 2 29.1157 71.2029 48.2704 0.0000 0.0000 0.0000
# 3 33.7637 48.2704 114.2858 0.0000 0.0000 0.0000
# 4 0.0000 0.0000 0.0000 33.1299 0.0000 0.0000
# 5 0.0000 0.0000 0.0000 0.0000 22.6566 0.0000
# 6 0.0000 0.0000 0.0000 0.0000 0.0000 25.3377
#
#
#
# Elastic Compliance Matrix: (Units=1/GPa)
#
#
# Indices 1 2 3 4 5 6 
#
# 1 0.020209 -0.005908 -0.003475 0.000000 0.000000 0.000000
# 2 -0.005908 0.021406 -0.007296 0.000000 0.000000 0.000000
# 3 -0.003475 -0.007296 0.012858 0.000000 0.000000 0.000000
# 4 0.000000 0.000000 0.000000 0.030184 0.000000 0.000000
# 5 0.000000 0.000000 0.000000 0.000000 0.044137 0.000000
# 6 0.000000 0.000000 0.000000 0.000000 0.000000 0.039467
#
#
# Mechanical properties :
#
#
# Convention : Reuss Voigt Hill
#
# Bulk Modulus (GPa) = 47.35800 52.39874 49.87837
# Shear Modulus (GPa) = 23.96266 25.43413 24.69839
#
# Velocity S-wave (km/s) = 3.62125 3.73078 3.67642
# Velocity P-wave (km/s) = 6.58795 6.87265 6.73180
#
# Compressibility (1/GPa) = 0.02111576
#
# Stress axis : x y z
#
# Youngs Moduli (GPa) = 49.48290 46.71540 77.77137
#
# Poissons Ratio (x) = 0.27598 0.27027
# Poissons Ratio (y) = 0.29233 0.56741
# Poissons Ratio (z) = 0.17196 0.34083
#
# Static dielectric constant tensor:
#      x y z
#    x 3.306720 0.000000 0.000000 
#    y 0.000000 3.328290 0.000000 
#    z 0.000000 0.000000 3.678410 
# 
# 
# High freq. dielectric constant tensor:
#      x y z
#    x 1.695530 0.000000 0.000000 
#    y 0.000000 1.695090 0.000000 
#    z 0.000000 0.000000 1.719000 
# 
# From -- ./inp_files/5586.got.cif
#   From: 2010.03.12/outbox.cif.g09.slc.cpg/sg57_3_cif.got.tgz:5586.got - 2010.04.16 15:48:40.
