data_PCOD8230861
_publ_section_title
;
Structure prediction by ZEFSAII (Michael W. Deem and Ramdas Pophale) SiO2 
 PCOD8230861
Probable space group: P B C M
;
_chemical_formula_sum "Si O2"
_cell_formula_units_Z 56
_cell_length_a 20.636741
_cell_length_b 16.841688
_cell_length_c 9.160162
_cell_angle_alpha 90.000000
_cell_angle_beta 90.000000
_cell_angle_gamma 90.000000
_cell_volume 3183.683492
_symmetry_space_group_name_H-M "P B C M"
_symmetry_group_IT_number 57
_symmetry_cell_setting 'orthorhombic'
loop_
_space_group_symop_operation_xyz
x,y,z
-x,-y,1/2+z
x,1/2-y,-z
-x,1/2+y,1/2-z
-x,-y,-z
x,y,1/2-z
-x,1/2+y,z
x,1/2-y,1/2+z
loop_
_atom_site_type_symbol
_atom_site_label
_atom_site_fract_x
_atom_site_fract_y
_atom_site_fract_z
Si Si1 0.912974 0.440672 0.413738
Si Si2 0.796245 0.995074 0.080549
Si Si3 0.851794 0.674268 0.921302
Si Si4 0.351585 0.515609 0.421144
Si Si5 0.456370 0.063430 0.419516
Si Si6 0.569886 0.170040 0.082635
Si Si7 0.027825 0.385441 0.914418
O O1 0.904651 0.406748 0.250000
O O2 0.842648 0.447949 0.487668
O O3 0.947633 0.524999 0.408312
O O4 0.957368 0.381302 0.508999
O O5 0.810494 0.011519 0.250000
O O6 0.808459 0.902669 0.044114
O O7 0.723442 0.016641 0.036104
O O8 0.857947 0.689878 0.750000
O O9 0.818248 0.750000 0.000000
O O10 0.923345 0.666109 0.988988
O O11 0.362153 0.501297 0.250000
O O12 0.385567 0.441292 0.505425
O O13 0.383663 0.598588 0.472476
O O14 0.450306 0.041535 0.250000
O O15 0.493616 0.147535 0.439588
O O16 0.500000 0.000000 0.500000
O O17 0.585261 0.186527 0.250000
O O18 0.587467 0.250000 0.000000
O O19 0.022979 0.350913 0.750000
#
# Coordination Sequence:
#
# PCOD8230861 Si02
#       7
#     8   8   8   8   8   8   8
#     4   9  16  26  43  68  93 115 148 193 234 277
#     4   9  18  32  49  68  94 129 165 199 239 288
#     4  10  19  31  47  67  92 124 161 202 249 298
#     4   9  18  33  51  72  98 129 164 200 239 286
#     4   9  17  30  48  71  96 123 156 194 234 279
#     4   9  18  31  49  73  98 123 155 195 239 285
#     4   9  16  27  44  65  89 117 149 190 238 282
#
# _framework density 17.589689
#
# number of rings (size 3 to 8) (size 9 to 14) (size 15 to 20)
#    0.000    2.857    0.000    2.571    0.000    7.429 
#    0.000    0.714    0.000    4.286    0.000    4.000 
#    0.000    0.000    0.000    0.000    0.000    0.000 
#
# Total GULP energy -694145.233295 kJ/mol
# GULP energy per Si atom -12395.450595 kJ/mol
# Density = 1.754965 g / cm^3
# Si number density = 17.589689 Si / 1000 Ang^3
#
#
#
# Elastic Constant Matrix: (Units=GPa)
#
#
# Indices 1 2 3 4 5 6 
#
# 1 127.5048 35.4011 54.8032 0.0000 0.0000 0.0000
# 2 35.4011 59.3957 31.3522 0.0000 0.0000 0.0000
# 3 54.8032 31.3522 96.4240 0.0000 0.0000 0.0000
# 4 0.0000 0.0000 0.0000 26.3814 0.0000 0.0000
# 5 0.0000 0.0000 0.0000 0.0000 28.6616 0.0000
# 6 0.0000 0.0000 0.0000 0.0000 0.0000 14.7966
#
#
#
# Elastic Compliance Matrix: (Units=1/GPa)
#
#
# Indices 1 2 3 4 5 6 
#
# 1 0.011102 -0.003967 -0.005020 0.000000 0.000000 0.000000
# 2 -0.003967 0.021742 -0.004815 0.000000 0.000000 0.000000
# 3 -0.005020 -0.004815 0.014789 0.000000 0.000000 0.000000
# 4 0.000000 0.000000 0.000000 0.037906 0.000000 0.000000
# 5 0.000000 0.000000 0.000000 0.000000 0.034890 0.000000
# 6 0.000000 0.000000 0.000000 0.000000 0.000000 0.067583
#
#
# Mechanical properties :
#
#
# Convention : Reuss Voigt Hill
#
# Bulk Modulus (GPa) = 49.92509 58.49302 54.20906
# Shear Modulus (GPa) = 22.49291 24.75246 23.62269
#
# Velocity S-wave (km/s) = 3.57985 3.75535 3.66865
# Velocity P-wave (km/s) = 6.74773 7.22011 6.98791
#
# Compressibility (1/GPa) = 0.02003001
#
# Stress axis : x y z
#
# Youngs Moduli (GPa) = 90.07426 45.99343 67.61573
#
# Poissons Ratio (x) = 0.18247 0.33943
# Poissons Ratio (y) = 0.35734 0.32555
# Poissons Ratio (z) = 0.45217 0.22144
#
# Static dielectric constant tensor:
#      x y z
#    x 4.218220 0.000000 0.000000 
#    y 0.000000 3.085110 0.000000 
#    z 0.000000 0.000000 3.463000 
# 
# 
# High freq. dielectric constant tensor:
#      x y z
#    x 1.668770 0.000000 0.000000 
#    y 0.000000 1.645230 0.000000 
#    z 0.000000 0.000000 1.691220 
# 
# From -- ./inp_files/8351.got.cif
#   From: 2010.03.12/outbox.cif.g09.slc.cpg/sg57_5_cif.got.tgz:8351.got - 2010.04.16 15:48:40.
