data_PCOD8230998
_publ_section_title
;
Structure prediction by ZEFSAII (Michael W. Deem and Ramdas Pophale) SiO2 
 PCOD8230998
Probable space group: P B C M
;
_chemical_formula_sum "Si O2"
_cell_formula_units_Z 56
_cell_length_a 21.061918
_cell_length_b 15.400249
_cell_length_c 9.196990
_cell_angle_alpha 90.000000
_cell_angle_beta 90.000000
_cell_angle_gamma 90.000000
_cell_volume 2983.124471
_symmetry_space_group_name_H-M "P B C M"
_symmetry_group_IT_number 57
_symmetry_cell_setting 'orthorhombic'
loop_
_space_group_symop_operation_xyz
x,y,z
-x,-y,1/2+z
x,1/2-y,-z
-x,1/2+y,1/2-z
-x,-y,-z
x,y,1/2-z
-x,1/2+y,z
x,1/2-y,1/2+z
loop_
_atom_site_type_symbol
_atom_site_label
_atom_site_fract_x
_atom_site_fract_y
_atom_site_fract_z
Si Si1 0.906345 0.834209 0.080255
Si Si2 0.374447 0.664447 0.918986
Si Si3 0.294971 0.498732 0.580119
Si Si4 0.492398 0.410460 0.418275
Si Si5 0.643590 0.660431 0.923009
Si Si6 0.150616 0.496215 0.917198
Si Si7 0.027939 0.578806 0.915431
O O1 0.891426 0.825732 0.250000
O O2 0.983219 0.838578 0.047333
O O3 0.879143 0.750000 0.000000
O O4 0.869185 0.917349 0.020356
O O5 0.361414 0.678655 0.750000
O O6 0.336809 0.579733 0.974581
O O7 0.448688 0.651925 0.954675
O O8 0.349395 0.750000 0.000000
O O9 0.308050 0.478616 0.750000
O O10 0.311357 0.414751 0.484899
O O11 0.222179 0.524875 0.549995
O O12 0.500000 0.500000 0.500000
O O13 0.490552 0.434847 0.250000
O O14 0.428815 0.361194 0.466610
O O15 0.652861 0.668485 0.750000
O O16 0.663239 0.750000 0.000000
O O17 0.143877 0.465363 0.750000
O O18 0.104220 0.580806 0.946614
O O19 0.015642 0.555342 0.750000
O O20 0.000000 0.500000 0.000000
#
# Coordination Sequence:
#
# PCOD8230998 Si02
#       7
#     8   8   8   8   8   8   8
#     4  10  19  31  50  77 107 136 168 212 260 310
#     4  10  21  37  57  81 108 140 179 223 273 325
#     4  10  21  38  58  79 109 147 185 228 273 323
#     4  10  20  35  57  83 109 139 177 225 278 327
#     4  11  23  37  56  82 111 146 184 226 276 329
#     4   9  18  34  55  75  99 136 176 214 261 312
#     4   8  15  29  49  72  96 124 162 203 246 296
#
# _framework density 18.772264
#
# number of rings (size 3 to 8) (size 9 to 14) (size 15 to 20)
#    0.000    2.286    1.429    1.286    0.000    3.429 
#    0.000    0.714    0.000    0.000    0.000    0.000 
#    0.000    0.000    0.000    0.000    0.000    0.000 
#
# Total GULP energy -693993.236941 kJ/mol
# GULP energy per Si atom -12392.736374 kJ/mol
# Density = 1.872954 g / cm^3
# Si number density = 18.772264 Si / 1000 Ang^3
#
#
#
# Elastic Constant Matrix: (Units=GPa)
#
#
# Indices 1 2 3 4 5 6 
#
# 1 88.5249 8.1910 17.3859 0.0000 0.0000 0.0000
# 2 8.1910 79.7657 32.1070 0.0000 0.0000 0.0000
# 3 17.3859 32.1070 57.7673 0.0000 0.0000 0.0000
# 4 0.0000 0.0000 0.0000 32.2548 0.0000 0.0000
# 5 0.0000 0.0000 0.0000 0.0000 23.4515 0.0000
# 6 0.0000 0.0000 0.0000 0.0000 0.0000 16.8356
#
#
#
# Elastic Compliance Matrix: (Units=1/GPa)
#
#
# Indices 1 2 3 4 5 6 
#
# 1 0.012011 0.000286 -0.003774 0.000000 0.000000 0.000000
# 2 0.000286 0.016157 -0.009066 0.000000 0.000000 0.000000
# 3 -0.003774 -0.009066 0.023485 0.000000 0.000000 0.000000
# 4 0.000000 0.000000 0.000000 0.031003 0.000000 0.000000
# 5 0.000000 0.000000 0.000000 0.000000 0.042641 0.000000
# 6 0.000000 0.000000 0.000000 0.000000 0.000000 0.059398
#
#
# Mechanical properties :
#
#
# Convention : Reuss Voigt Hill
#
# Bulk Modulus (GPa) = 37.67154 37.93618 37.80386
# Shear Modulus (GPa) = 22.86753 25.73333 24.30043
#
# Velocity S-wave (km/s) = 3.49399 3.70647 3.60180
# Velocity P-wave (km/s) = 6.03229 6.21045 6.12202
#
# Compressibility (1/GPa) = 0.02654524
#
# Stress axis : x y z
#
# Youngs Moduli (GPa) = 83.25742 61.89458 42.57989
#
# Poissons Ratio (x) = -0.01767 0.16068
# Poissons Ratio (y) = -0.02377 0.38602
# Poissons Ratio (z) = 0.31418 0.56112
#
# Static dielectric constant tensor:
#      x y z
#    x 3.932970 0.000000 0.000000 
#    y 0.000000 3.353260 0.000000 
#    z 0.000000 0.000000 3.449840 
# 
# 
# High freq. dielectric constant tensor:
#      x y z
#    x 1.733980 0.000000 0.000000 
#    y 0.000000 1.710510 0.000000 
#    z 0.000000 0.000000 1.730300 
# 
# From -- ./inp_files/8154.got.cif
#   From: 2010.03.12/outbox.cif.g09.slc.cpg/sg57_5_cif.got.tgz:8154.got - 2010.04.16 15:48:40.
