data_PCOD8230792
_publ_section_title
;
Structure prediction by ZEFSAII (Michael W. Deem and Ramdas Pophale) SiO2 
 PCOD8230792
Probable space group: P B C M
;
_chemical_formula_sum "Si O2"
_cell_formula_units_Z 64
_cell_length_a 12.667801
_cell_length_b 12.236158
_cell_length_c 21.376649
_cell_angle_alpha 90.000000
_cell_angle_beta 90.000000
_cell_angle_gamma 90.000000
_cell_volume 3313.492065
_symmetry_space_group_name_H-M "P B C M"
_symmetry_group_IT_number 57
_symmetry_cell_setting 'orthorhombic'
loop_
_space_group_symop_operation_xyz
x,y,z
-x,-y,1/2+z
x,1/2-y,-z
-x,1/2+y,1/2-z
-x,-y,-z
x,y,1/2-z
-x,1/2+y,z
x,1/2-y,1/2+z
loop_
_atom_site_type_symbol
_atom_site_label
_atom_site_fract_x
_atom_site_fract_y
_atom_site_fract_z
Si Si1 0.080182 0.384086 0.104880
Si Si2 0.001179 0.804862 0.820455
Si Si3 0.204034 0.561230 0.322090
Si Si4 0.394399 0.797713 0.823968
Si Si5 0.887709 0.982567 0.598454
Si Si6 0.630060 0.842972 0.677908
Si Si7 0.284199 0.580817 0.678699
Si Si8 0.231347 0.290987 0.561504
O O1 0.015071 0.319278 0.157879
O O2 0.169380 0.459554 0.135969
O O3 0.134982 0.296455 0.060250
O O4 0.990673 0.457353 0.068894
O O5 0.964190 0.812872 0.750000
O O6 0.922898 0.888478 0.853906
O O7 0.122876 0.838041 0.829536
O O8 0.210342 0.522868 0.250000
O O9 0.316464 0.605673 0.347450
O O10 0.392104 0.798824 0.750000
O O11 0.512761 0.818552 0.847112
O O12 0.355104 0.679748 0.847994
O O13 0.818264 0.071487 0.635163
O O14 0.814901 0.914479 0.549281
O O15 0.649129 0.800697 0.750000
O O16 0.706291 0.783450 0.627487
O O17 0.645016 0.972377 0.675252
O O18 0.247518 0.603947 0.750000
O O19 0.298016 0.250000 0.500000
#
# Coordination Sequence:
#
# PCOD8230792 Si02
#       8
#     8   8   8   8   8   8   8   8
#     4  10  19  30  48  72 100 134 169 208 248 293
#     4   9  16  26  42  71 110 143 169 202 249 303
#     4   9  17  27  43  73 108 137 168 207 253 303
#     4   9  17  29  48  75 104 134 171 215 258 298
#     4   9  18  31  48  71  99 135 174 204 244 307
#     4   9  19  35  54  76 100 130 173 216 253 300
#     4   9  16  28  48  73 104 139 169 205 254 302
#     4  10  22  38  55  75 100 133 171 208 251 306
#
# _framework density 19.314969999999999
#
# number of rings (size 3 to 8) (size 9 to 14) (size 15 to 20)
#    0.000    2.750    0.000    1.500    0.000    7.500 
#    0.000    2.500    0.000    6.750    0.000    3.500 
#    0.000    0.000    0.000    0.000    0.000    0.000 
#
# Total GULP energy -793035.504244 kJ/mol
# GULP energy per Si atom -12391.179754 kJ/mol
# Density = 1.927101 g / cm^3
# Si number density = 19.314970 Si / 1000 Ang^3
#
#
#
# Elastic Constant Matrix: (Units=GPa)
#
#
# Indices 1 2 3 4 5 6 
#
# 1 93.9216 32.1236 12.0809 0.0000 0.0000 0.0000
# 2 32.1236 78.2472 14.6161 0.0000 0.0000 0.0000
# 3 12.0809 14.6161 36.1244 0.0000 0.0000 0.0000
# 4 0.0000 0.0000 0.0000 10.8695 0.0000 0.0000
# 5 0.0000 0.0000 0.0000 0.0000 8.8762 0.0000
# 6 0.0000 0.0000 0.0000 0.0000 0.0000 28.9742
#
#
#
# Elastic Compliance Matrix: (Units=1/GPa)
#
#
# Indices 1 2 3 4 5 6 
#
# 1 0.012559 -0.004729 -0.002287 0.000000 0.000000 0.000000
# 2 -0.004729 0.015605 -0.004733 0.000000 0.000000 0.000000
# 3 -0.002287 -0.004733 0.030362 0.000000 0.000000 0.000000
# 4 0.000000 0.000000 0.000000 0.092000 0.000000 0.000000
# 5 0.000000 0.000000 0.000000 0.000000 0.112661 0.000000
# 6 0.000000 0.000000 0.000000 0.000000 0.000000 0.034513
#
#
# Mechanical properties :
#
#
# Convention : Reuss Voigt Hill
#
# Bulk Modulus (GPa) = 28.54715 36.21492 32.38104
# Shear Modulus (GPa) = 15.02072 19.70881 17.36477
#
# Velocity S-wave (km/s) = 2.79170 3.19782 3.00164
# Velocity P-wave (km/s) = 5.02030 5.69431 5.36789
#
# Compressibility (1/GPa) = 0.03502976
#
# Stress axis : x y z
#
# Youngs Moduli (GPa) = 79.62651 64.08066 32.93621
#
# Poissons Ratio (x) = 0.30302 0.07531
# Poissons Ratio (y) = 0.37653 0.15587
# Poissons Ratio (z) = 0.18208 0.30327
#
# Static dielectric constant tensor:
#      x y z
#    x 3.707300 0.000000 0.000000 
#    y 0.000000 3.595320 0.000000 
#    z 0.000000 0.000000 3.179610 
# 
# 
# High freq. dielectric constant tensor:
#      x y z
#    x 1.747090 0.000000 0.000000 
#    y 0.000000 1.759470 0.000000 
#    z 0.000000 0.000000 1.707650 
# 
# From -- ./inp_files/27278.got.cif
#   From: 2010.03.12/outbox.cif.g09.slc.cpg/sg57_14_cif.got.tgz:27278.got - 2010.04.16 15:48:40.
