data_PCOD8230665
_publ_section_title
;
Structure prediction by ZEFSAII (Michael W. Deem and Ramdas Pophale) SiO2 
 PCOD8230665
Probable space group: P B C M
;
_chemical_formula_sum "Si O2"
_cell_formula_units_Z 56
_cell_length_a 17.728716
_cell_length_b 21.822597
_cell_length_c 9.007235
_cell_angle_alpha 90.000000
_cell_angle_beta 90.000000
_cell_angle_gamma 90.000000
_cell_volume 3484.778746
_symmetry_space_group_name_H-M "P B C M"
_symmetry_group_IT_number 57
_symmetry_cell_setting 'orthorhombic'
loop_
_space_group_symop_operation_xyz
x,y,z
-x,-y,1/2+z
x,1/2-y,-z
-x,1/2+y,1/2-z
-x,-y,-z
x,y,1/2-z
-x,1/2+y,z
x,1/2-y,1/2+z
loop_
_atom_site_type_symbol
_atom_site_label
_atom_site_fract_x
_atom_site_fract_y
_atom_site_fract_z
Si Si1 0.541087 0.409398 0.422823
Si Si2 0.399251 0.456158 0.578192
Si Si3 0.350740 0.815594 0.927003
Si Si4 0.067859 0.919348 0.419438
Si Si5 0.209208 0.892096 0.577266
Si Si6 0.087798 0.455663 0.079980
Si Si7 0.250754 0.030735 0.580492
O O1 0.539615 0.391823 0.250000
O O2 0.455965 0.415048 0.482232
O O3 0.585410 0.472389 0.451560
O O4 0.580511 0.356613 0.516629
O O5 0.408727 0.439046 0.750000
O O6 0.314549 0.441084 0.525202
O O7 0.354732 0.811090 0.750000
O O8 0.271905 0.845021 0.982577
O O9 0.358751 0.750000 0.000000
O O10 0.090426 0.910771 0.250000
O O11 0.126684 0.876732 0.508660
O O12 0.978083 0.904314 0.446544
O O13 0.076679 0.990010 0.463897
O O14 0.199814 0.884163 0.750000
O O15 0.234093 0.960631 0.534100
O O16 0.080857 0.481114 0.250000
O O17 0.173181 0.429892 0.059223
O O18 0.279683 0.033368 0.750000
#
# Coordination Sequence:
#
# PCOD8230665 Si02
#       7
#     8   8   8   8   8   8   8
#     4  10  20  33  48  66  89 118 152 188 232 280
#     4  10  19  29  45  68  92 117 151 191 228 274
#     4  11  22  36  51  67  90 119 154 195 235 276
#     4   9  15  23  38  57  80 111 149 184 211 251
#     4   9  18  30  43  59  85 118 149 183 227 270
#     4   8  15  25  35  54  84 117 146 176 216 257
#     4   9  15  26  42  60  87 120 151 181 222 272
#
# _framework density 16.069886
#
# number of rings (size 3 to 8) (size 9 to 14) (size 15 to 20)
#    0.000    2.571    1.429    2.571    0.000    5.143 
#    0.000    0.000    0.000    0.000    0.000    0.000 
#    0.000    1.143    0.000    7.429    0.000    6.571 
#
# Total GULP energy -693985.313942 kJ/mol
# GULP energy per Si atom -12392.594892 kJ/mol
# Density = 1.603331 g / cm^3
# Si number density = 16.069886 Si / 1000 Ang^3
#
#
#
# Elastic Constant Matrix: (Units=GPa)
#
#
# Indices 1 2 3 4 5 6 
#
# 1 142.2793 36.1620 46.8050 0.0000 0.0000 0.0000
# 2 36.1620 45.0887 23.4969 0.0000 0.0000 0.0000
# 3 46.8050 23.4969 58.2482 0.0000 0.0000 0.0000
# 4 0.0000 0.0000 0.0000 16.6915 0.0000 0.0000
# 5 0.0000 0.0000 0.0000 0.0000 31.7279 0.0000
# 6 0.0000 0.0000 0.0000 0.0000 0.0000 10.3800
#
#
#
# Elastic Compliance Matrix: (Units=1/GPa)
#
#
# Indices 1 2 3 4 5 6 
#
# 1 0.010386 -0.005040 -0.006312 0.000000 0.000000 0.000000
# 2 -0.005040 0.030528 -0.008265 0.000000 0.000000 0.000000
# 3 -0.006312 -0.008265 0.025574 0.000000 0.000000 0.000000
# 4 0.000000 0.000000 0.000000 0.059911 0.000000 0.000000
# 5 0.000000 0.000000 0.000000 0.000000 0.031518 0.000000
# 6 0.000000 0.000000 0.000000 0.000000 0.000000 0.096339
#
#
# Mechanical properties :
#
#
# Convention : Reuss Voigt Hill
#
# Bulk Modulus (GPa) = 36.69272 50.94931 43.82102
# Shear Modulus (GPa) = 16.52483 21.03670 18.78077
#
# Velocity S-wave (km/s) = 3.21021 3.62204 3.42232
# Velocity P-wave (km/s) = 6.05172 7.01897 6.55322
#
# Compressibility (1/GPa) = 0.02725336
#
# Stress axis : x y z
#
# Youngs Moduli (GPa) = 96.28305 32.75705 39.10198
#
# Poissons Ratio (x) = 0.16510 0.24683
# Poissons Ratio (y) = 0.48529 0.32316
# Poissons Ratio (z) = 0.60778 0.27072
#
# Static dielectric constant tensor:
#      x y z
#    x 3.483270 0.000000 0.000000 
#    y 0.000000 2.560890 0.000000 
#    z 0.000000 0.000000 3.083560 
# 
# 
# High freq. dielectric constant tensor:
#      x y z
#    x 1.639630 0.000000 0.000000 
#    y 0.000000 1.537070 0.000000 
#    z 0.000000 0.000000 1.629000 
# 
# From -- ./inp_files/7029.got.cif
#   From: 2010.03.12/outbox.cif.g09.slc.cpg/sg57_4_cif.got.tgz:7029.got - 2010.04.16 15:48:40.
