data_PCOD8230007
_publ_section_title
;
Structure prediction by ZEFSAII (Michael W. Deem and Ramdas Pophale) SiO2 
 PCOD8230007
Probable space group: P B C M
;
_chemical_formula_sum "Si O2"
_cell_formula_units_Z 64
_cell_length_a 10.048174
_cell_length_b 19.941924
_cell_length_c 17.510810
_cell_angle_alpha 90.000000
_cell_angle_beta 90.000000
_cell_angle_gamma 90.000000
_cell_volume 3508.814746
_symmetry_space_group_name_H-M "P B C M"
_symmetry_group_IT_number 57
_symmetry_cell_setting 'orthorhombic'
loop_
_space_group_symop_operation_xyz
x,y,z
-x,-y,1/2+z
x,1/2-y,-z
-x,1/2+y,1/2-z
-x,-y,-z
x,y,1/2-z
-x,1/2+y,z
x,1/2-y,1/2+z
loop_
_atom_site_type_symbol
_atom_site_label
_atom_site_fract_x
_atom_site_fract_y
_atom_site_fract_z
Si Si1 0.451427 0.295825 0.840793
Si Si2 0.661383 0.401757 0.839548
Si Si3 0.845395 0.789625 0.661788
Si Si4 0.339276 0.448709 0.340784
Si Si5 0.564557 0.346394 0.340742
Si Si6 0.887017 0.180281 0.407303
Si Si7 0.162743 0.831209 0.084617
Si Si8 0.905773 0.864578 0.162178
O O1 0.454447 0.294336 0.750000
O O2 0.547392 0.353534 0.874986
O O3 0.300780 0.311490 0.867686
O O4 0.502683 0.223771 0.869996
O O5 0.639835 0.406050 0.750000
O O6 0.648161 0.476250 0.874745
O O7 0.807006 0.372064 0.855722
O O8 0.869334 0.809511 0.750000
O O9 0.851139 0.710117 0.651061
O O10 0.955280 0.827450 0.609803
O O11 0.330258 0.449005 0.250000
O O12 0.466394 0.405718 0.366003
O O13 0.204215 0.414931 0.372508
O O14 0.591464 0.345438 0.250000
O O15 0.699549 0.362077 0.386313
O O16 0.850236 0.166156 0.494117
O O17 0.845694 0.255438 0.383284
O O18 0.043310 0.875902 0.117815
O O19 0.934021 0.880508 0.250000
#
# Coordination Sequence:
#
# PCOD8230007 Si02
#       8
#     8   8   8   8   8   8   8   8
#     4   9  16  28  51  79 101 124 165 212 255 303
#     4  10  19  33  53  77 105 136 165 206 266 315
#     4   9  16  29  52  77  99 128 169 214 254 298
#     4   9  18  32  52  77 104 131 168 215 259 307
#     4  10  17  31  54  79 101 130 171 216 258 301
#     4  10  20  33  48  73 108 136 169 212 258 304
#     4  10  20  32  50  74 105 134 175 218 252 293
#     4   9  16  30  51  74  98 129 171 214 252 298
#
# _framework density 18.239777
#
# number of rings (size 3 to 8) (size 9 to 14) (size 15 to 20)
#    0.000    2.500    2.500    0.750    0.000    1.000 
#    0.000    3.750    2.750    4.500    0.000    0.000 
#    0.000    0.000    0.000    0.000    0.000    0.000 
#
# Total GULP energy -793522.853367 kJ/mol
# GULP energy per Si atom -12398.794584 kJ/mol
# Density = 1.819826 g / cm^3
# Si number density = 18.239777 Si / 1000 Ang^3
#
#
#
# Elastic Constant Matrix: (Units=GPa)
#
#
# Indices 1 2 3 4 5 6 
#
# 1 167.5517 69.0900 27.2857 0.0000 0.0000 0.0000
# 2 69.0900 109.2995 18.9947 0.0000 0.0000 0.0000
# 3 27.2857 18.9947 27.0591 0.0000 0.0000 0.0000
# 4 0.0000 0.0000 0.0000 10.2365 0.0000 0.0000
# 5 0.0000 0.0000 0.0000 0.0000 11.8807 0.0000
# 6 0.0000 0.0000 0.0000 0.0000 0.0000 26.4785
#
#
#
# Elastic Compliance Matrix: (Units=1/GPa)
#
#
# Indices 1 2 3 4 5 6 
#
# 1 0.008768 -0.004562 -0.005639 0.000000 0.000000 0.000000
# 2 -0.004562 0.012794 -0.004381 0.000000 0.000000 0.000000
# 3 -0.005639 -0.004381 0.045717 0.000000 0.000000 0.000000
# 4 0.000000 0.000000 0.000000 0.097690 0.000000 0.000000
# 5 0.000000 0.000000 0.000000 0.000000 0.084170 0.000000
# 6 0.000000 0.000000 0.000000 0.000000 0.000000 0.037766
#
#
# Mechanical properties :
#
#
# Convention : Reuss Voigt Hill
#
# Bulk Modulus (GPa) = 26.23571 59.40567 42.82069
# Shear Modulus (GPa) = 15.20798 22.28846 18.74822
#
# Velocity S-wave (km/s) = 2.89066 3.49946 3.20953
# Velocity P-wave (km/s) = 5.05532 6.99774 6.10428
#
# Compressibility (1/GPa) = 0.03811599
#
# Stress axis : x y z
#
# Youngs Moduli (GPa) = 114.05294 78.15892 21.87362
#
# Poissons Ratio (x) = 0.35659 0.12334
# Poissons Ratio (y) = 0.52035 0.09582
# Poissons Ratio (z) = 0.64310 0.34239
#
# Static dielectric constant tensor:
#      x y z
#    x 3.566610 0.000000 0.000000 
#    y 0.000000 3.386380 0.000000 
#    z 0.000000 0.000000 2.950460 
# 
# 
# High freq. dielectric constant tensor:
#      x y z
#    x 1.722610 0.000000 0.000000 
#    y 0.000000 1.681860 0.000000 
#    z 0.000000 0.000000 1.669160 
# 
# From -- ./inp_files/21387.got.cif
#   From: 2010.03.12/outbox.cif.g09.slc.cpg/sg57_11_cif.got.tgz:21387.got - 2010.04.16 15:48:40.
