data_PCOD8230883
_publ_section_title
;
Structure prediction by ZEFSAII (Michael W. Deem and Ramdas Pophale) SiO2 
 PCOD8230883
Probable space group: P B C M
;
_chemical_formula_sum "Si O2"
_cell_formula_units_Z 64
_cell_length_a 35.732673
_cell_length_b 5.198164
_cell_length_c 18.588025
_cell_angle_alpha 90.000000
_cell_angle_beta 90.000000
_cell_angle_gamma 90.000000
_cell_volume 3452.619588
_symmetry_space_group_name_H-M "P B C M"
_symmetry_group_IT_number 57
_symmetry_cell_setting 'orthorhombic'
loop_
_space_group_symop_operation_xyz
x,y,z
-x,-y,1/2+z
x,1/2-y,-z
-x,1/2+y,1/2-z
-x,-y,-z
x,y,1/2-z
-x,1/2+y,z
x,1/2-y,1/2+z
loop_
_atom_site_type_symbol
_atom_site_label
_atom_site_fract_x
_atom_site_fract_y
_atom_site_fract_z
Si Si1 0.900807 0.261207 0.416837
Si Si2 0.977484 0.249939 0.165213
Si Si3 0.605951 0.771137 0.664223
Si Si4 0.521450 0.730103 0.164206
Si Si5 0.853956 0.738759 0.916700
Si Si6 0.222967 0.262550 0.835525
Si Si7 0.733158 0.236569 0.335460
Si Si8 0.648908 0.228877 0.164153
O O1 0.912299 0.250000 0.500000
O O2 0.937483 0.221122 0.370503
O O3 0.882831 0.535056 0.397276
O O4 0.871976 0.034986 0.397231
O O5 0.971284 0.243411 0.250000
O O6 0.996732 0.513473 0.139745
O O7 0.605584 0.770892 0.750000
O O8 0.563703 0.769931 0.634281
O O9 0.627579 0.521765 0.634726
O O10 0.627229 0.021848 0.634726
O O11 0.521780 0.730017 0.250000
O O12 0.499982 0.480167 0.134648
O O13 0.817883 0.776698 0.868366
O O14 0.842214 0.750000 0.000000
O O15 0.219045 0.261442 0.750000
O O16 0.246426 0.507232 0.863004
O O17 0.244188 0.009711 0.864117
O O18 0.731558 0.231917 0.250000
O O19 0.691085 0.229987 0.366493
O O20 0.649436 0.229292 0.250000
#
# Coordination Sequence:
#
# PCOD8230883 Si02
#       8
#     8   8   8   8   8   8   8   8
#     4  10  21  36  54  75  99 129 163 196 231 273
#     4  10  21  36  54  78 106 133 162 198 238 277
#     4   9  15  21  30  43  59  86 122 158 209 268
#     4   9  15  21  27  36  53  78 113 160 208 252
#     4  10  21  36  52  73 100 127 158 196 234 271
#     4  10  19  31  48  69  91 118 151 184 227 278
#     4   9  17  28  42  62  86 109 138 180 226 272
#     4   9  15  23  34  48  68  92 120 160 211 263
#
# _framework density 18.536648
#
# number of rings (size 3 to 8) (size 9 to 14) (size 15 to 20)
#    0.000    2.500    0.000    3.000    0.000    7.500 
#    0.000    0.000    0.000    0.000    0.000    0.000 
#    0.000    0.000    0.000    0.000    0.000    0.000 
#
# Total GULP energy -793697.131230 kJ/mol
# GULP energy per Si atom -12401.517675 kJ/mol
# Density = 1.849446 g / cm^3
# Si number density = 18.536648 Si / 1000 Ang^3
#
#
#
# Elastic Constant Matrix: (Units=GPa)
#
#
# Indices 1 2 3 4 5 6 
#
# 1 130.4746 48.8570 27.9700 0.0000 0.0000 0.0000
# 2 48.8570 147.0369 19.3370 0.0000 0.0000 0.0000
# 3 27.9700 19.3370 14.0394 0.0000 0.0000 0.0000
# 4 0.0000 0.0000 0.0000 7.7933 0.0000 0.0000
# 5 0.0000 0.0000 0.0000 0.0000 -7.3404 0.0000
# 6 0.0000 0.0000 0.0000 0.0000 0.0000 35.1388
#
#
#
# Elastic Compliance Matrix: (Units=1/GPa)
#
#
# Indices 1 2 3 4 5 6 
#
# 1 0.013538 -0.001162 -0.025371 0.000000 0.000000 0.000000
# 2 -0.001162 0.008405 -0.009262 0.000000 0.000000 0.000000
# 3 -0.025371 -0.009262 0.134531 0.000000 0.000000 0.000000
# 4 0.000000 0.000000 0.000000 0.128315 0.000000 0.000000
# 5 0.000000 0.000000 0.000000 0.000000 -0.136233 0.000000
# 6 0.000000 0.000000 0.000000 0.000000 0.000000 0.028459
#
#
# Mechanical properties :
#
#
# Convention : Reuss Voigt Hill
#
# Bulk Modulus (GPa) = 11.78081 53.76433 32.77257
# Shear Modulus (GPa) = 18.05708 20.14414 19.10061
#
# Velocity S-wave (km/s) = 3.12449 3.30012 3.21350
# Velocity P-wave (km/s) = 4.40293 6.60215 5.61133
#
# Compressibility (1/GPa) = 0.08488380
#
# Stress axis : x y z
#
# Youngs Moduli (GPa) = 73.86467 118.97503 7.43324
#
# Poissons Ratio (x) = 0.13823 0.18859
# Poissons Ratio (y) = 0.08582 0.06885
# Poissons Ratio (z) = 1.87404 1.10195
#
# Static dielectric constant tensor:
#      x y z
#    x 3.495850 0.000000 0.000000 
#    y 0.000000 3.788920 0.000000 
#    z 0.000000 0.000000 2.766520 
# 
# 
# High freq. dielectric constant tensor:
#      x y z
#    x 1.735710 0.000000 0.000000 
#    y 0.000000 1.743770 0.000000 
#    z 0.000000 0.000000 1.647140 
# 
# From -- ./inp_files/23200.got.cif
#   From: 2010.03.12/outbox.cif.g09.slc.cpg/sg57_12_cif.got.tgz:23200.got - 2010.04.16 15:48:40.
