data_PCOD8230928
_publ_section_title
;
Structure prediction by ZEFSAII (Michael W. Deem and Ramdas Pophale) SiO2 
 PCOD8230928
Probable space group: P B C M
;
_chemical_formula_sum "Si O2"
_cell_formula_units_Z 48
_cell_length_a 13.542946
_cell_length_b 23.790831
_cell_length_c 8.833646
_cell_angle_alpha 90.000000
_cell_angle_beta 90.000000
_cell_angle_gamma 90.000000
_cell_volume 2846.182540
_symmetry_space_group_name_H-M "P B C M"
_symmetry_group_IT_number 57
_symmetry_cell_setting 'orthorhombic'
loop_
_space_group_symop_operation_xyz
x,y,z
-x,-y,1/2+z
x,1/2-y,-z
-x,1/2+y,1/2-z
-x,-y,-z
x,y,1/2-z
-x,1/2+y,z
x,1/2-y,1/2+z
loop_
_atom_site_type_symbol
_atom_site_label
_atom_site_fract_x
_atom_site_fract_y
_atom_site_fract_z
Si Si1 0.350313 0.026887 0.425271
Si Si2 0.966691 0.086816 0.426753
Si Si3 0.132847 0.807758 0.428723
Si Si4 0.357246 0.692731 0.571546
Si Si5 0.527719 0.083323 0.573700
Si Si6 0.858032 0.526425 0.926769
O O1 0.323902 0.035387 0.250000
O O2 0.429987 0.073296 0.475468
O O3 0.254169 0.035430 0.525926
O O4 0.392267 0.965004 0.457385
O O5 0.968323 0.100135 0.250000
O O6 0.934860 0.141864 0.515758
O O7 0.075988 0.070346 0.480364
O O8 0.890695 0.036922 0.467201
O O9 0.092606 0.750000 0.500000
O O10 0.125655 0.803284 0.250000
O O11 0.245302 0.818384 0.483393
O O12 0.399279 0.750000 0.500000
O O13 0.360905 0.698640 0.750000
O O14 0.425212 0.641479 0.516485
O O15 0.498806 0.084858 0.750000
O O16 0.871527 0.538717 0.750000
#
# Coordination Sequence:
#
# PCOD8230928 Si02
#       6
#     8   8   8   8   8   8
#     4  10  19  31  49  72  97 126 161 199 238 285
#     4  10  20  33  50  73  99 128 163 200 240 288
#     4  10  19  32  50  73 101 131 163 199 241 286
#     4   9  18  31  48  70  97 128 160 196 236 281
#     4   9  18  32  48  69  98 129 159 194 240 287
#     4  10  20  33  50  72  99 130 161 197 243 292
#
# _framework density 16.864695999999999
#
# number of rings (size 3 to 8) (size 9 to 14) (size 15 to 20)
#    0.000    2.333    0.000    3.000    0.000    5.333 
#    0.000    0.000    0.000    1.000    0.000    4.667 
#    0.000    0.000    0.000    0.000    0.000    0.000 
#
# Total GULP energy -595381.184533 kJ/mol
# GULP energy per Si atom -12403.774678 kJ/mol
# Density = 1.682631 g / cm^3
# Si number density = 16.864696 Si / 1000 Ang^3
#
#
#
# Elastic Constant Matrix: (Units=GPa)
#
#
# Indices 1 2 3 4 5 6 
#
# 1 81.9532 47.7487 24.6448 0.0000 0.0000 0.0000
# 2 47.7487 122.6478 35.0777 0.0000 0.0000 0.0000
# 3 24.6448 35.0777 52.2812 0.0000 0.0000 0.0000
# 4 0.0000 0.0000 0.0000 30.3890 0.0000 0.0000
# 5 0.0000 0.0000 0.0000 0.0000 29.6995 0.0000
# 6 0.0000 0.0000 0.0000 0.0000 0.0000 19.6036
#
#
#
# Elastic Compliance Matrix: (Units=1/GPa)
#
#
# Indices 1 2 3 4 5 6 
#
# 1 0.016527 -0.005205 -0.004299 0.000000 0.000000 0.000000
# 2 -0.005205 0.011729 -0.005416 0.000000 0.000000 0.000000
# 3 -0.004299 -0.005416 0.024787 0.000000 0.000000 0.000000
# 4 0.000000 0.000000 0.000000 0.032907 0.000000 0.000000
# 5 0.000000 0.000000 0.000000 0.000000 0.033671 0.000000
# 6 0.000000 0.000000 0.000000 0.000000 0.000000 0.051011
#
#
# Mechanical properties :
#
#
# Convention : Reuss Voigt Hill
#
# Bulk Modulus (GPa) = 43.09453 52.42495 47.75974
# Shear Modulus (GPa) = 24.01479 25.89916 24.95697
#
# Velocity S-wave (km/s) = 3.77764 3.92306 3.85104
# Velocity P-wave (km/s) = 6.68102 7.18843 6.93937
#
# Compressibility (1/GPa) = 0.02320480
#
# Stress axis : x y z
#
# Youngs Moduli (GPa) = 60.50592 85.26084 40.34320
#
# Poissons Ratio (x) = 0.44378 0.17342
# Poissons Ratio (y) = 0.31493 0.21849
# Poissons Ratio (z) = 0.26009 0.46175
#
# Static dielectric constant tensor:
#      x y z
#    x 3.054850 0.000000 0.000000 
#    y 0.000000 3.159790 0.000000 
#    z 0.000000 0.000000 3.180250 
# 
# 
# High freq. dielectric constant tensor:
#      x y z
#    x 1.638470 0.000000 0.000000 
#    y 0.000000 1.642160 0.000000 
#    z 0.000000 0.000000 1.660530 
# 
# From -- ./inp_files/3091.got.cif
#   From: 2010.03.12/outbox.cif.g09.slc.cpg/sg57_2_cif.got.tgz:3091.got - 2010.04.16 15:48:40.
