data_PCOD8230182
_publ_section_title
;
Structure prediction by ZEFSAII (Michael W. Deem and Ramdas Pophale) SiO2 
 PCOD8230182
Probable space group: P B C M
;
_chemical_formula_sum "Si O2"
_cell_formula_units_Z 64
_cell_length_a 14.955681
_cell_length_b 29.418833
_cell_length_c 9.116490
_cell_angle_alpha 90.000000
_cell_angle_beta 90.000000
_cell_angle_gamma 90.000000
_cell_volume 4011.061252
_symmetry_space_group_name_H-M "P B C M"
_symmetry_group_IT_number 57
_symmetry_cell_setting 'orthorhombic'
loop_
_space_group_symop_operation_xyz
x,y,z
-x,-y,1/2+z
x,1/2-y,-z
-x,1/2+y,1/2-z
-x,-y,-z
x,y,1/2-z
-x,1/2+y,z
x,1/2-y,1/2+z
loop_
_atom_site_type_symbol
_atom_site_label
_atom_site_fract_x
_atom_site_fract_y
_atom_site_fract_z
Si Si1 0.327778 0.546010 0.421620
Si Si2 0.781138 0.613015 0.080406
Si Si3 0.130133 0.971053 0.579411
Si Si4 0.461086 0.611317 0.924632
Si Si5 0.709768 0.706124 0.081477
Si Si6 0.636832 0.943160 0.079964
Si Si7 0.942797 0.556914 0.082699
Si Si8 0.499937 0.796051 0.578181
O O1 0.335288 0.558982 0.250000
O O2 0.224947 0.547020 0.479556
O O3 0.376300 0.583191 0.520259
O O4 0.372718 0.496856 0.450917
O O5 0.752720 0.612654 0.250000
O O6 0.759898 0.662420 0.013604
O O7 0.887054 0.603339 0.058808
O O8 0.723836 0.574133 0.003584
O O9 0.143327 0.979683 0.750000
O O10 0.048124 0.936048 0.543807
O O11 0.104177 0.019212 0.514220
O O12 0.457488 0.617235 0.750000
O O13 0.549310 0.583724 0.975389
O O14 0.455760 0.660523 0.000598
O O15 0.733172 0.712916 0.250000
O O16 0.605283 0.699529 0.053732
O O17 0.747701 0.750000 0.000000
O O18 0.652871 0.933708 0.250000
O O19 0.935034 0.540180 0.250000
O O20 0.464679 0.750000 0.500000
O O21 0.474564 0.794788 0.750000
#
# Coordination Sequence:
#
# PCOD8230182 Si02
#       8
#     8   8   8   8   8   8   8   8
#     4  10  20  33  47  64  93 130 165 200 237 279
#     4  10  18  29  46  69  95 123 155 189 232 281
#     4   9  17  30  46  66  92 121 155 193 233 277
#     4  11  22  33  47  69  94 125 164 200 238 281
#     4   9  18  30  45  66  91 121 152 187 227 274
#     4  10  20  32  45  65  94 128 163 196 229 275
#     4   9  17  28  46  69  92 119 152 191 232 277
#     4  10  19  33  51  70  94 122 155 194 237 282
#
# _framework density 15.955876
#
# number of rings (size 3 to 8) (size 9 to 14) (size 15 to 20)
#    0.000    2.250    2.500    1.125    0.000    2.500 
#    0.000    0.000    0.000    0.000    0.000    0.875 
#    0.000    2.000    0.000    0.000    0.000    0.000 
#
# Total GULP energy -793390.996496 kJ/mol
# GULP energy per Si atom -12396.734320 kJ/mol
# Density = 1.591956 g / cm^3
# Si number density = 15.955876 Si / 1000 Ang^3
#
#
#
# Elastic Constant Matrix: (Units=GPa)
#
#
# Indices 1 2 3 4 5 6 
#
# 1 90.5626 46.2898 29.7442 0.0000 0.0000 0.0000
# 2 46.2898 110.1370 40.8935 0.0000 0.0000 0.0000
# 3 29.7442 40.8935 48.8696 0.0000 0.0000 0.0000
# 4 0.0000 0.0000 0.0000 26.7394 0.0000 0.0000
# 5 0.0000 0.0000 0.0000 0.0000 16.9064 0.0000
# 6 0.0000 0.0000 0.0000 0.0000 0.0000 19.7675
#
#
#
# Elastic Compliance Matrix: (Units=1/GPa)
#
#
# Indices 1 2 3 4 5 6 
#
# 1 0.015054 -0.004244 -0.005612 0.000000 0.000000 0.000000
# 2 -0.004244 0.014368 -0.009440 0.000000 0.000000 0.000000
# 3 -0.005612 -0.009440 0.031778 0.000000 0.000000 0.000000
# 4 0.000000 0.000000 0.000000 0.037398 0.000000 0.000000
# 5 0.000000 0.000000 0.000000 0.000000 0.059149 0.000000
# 6 0.000000 0.000000 0.000000 0.000000 0.000000 0.050588
#
#
# Mechanical properties :
#
#
# Convention : Reuss Voigt Hill
#
# Bulk Modulus (GPa) = 44.23028 53.71382 48.97205
# Shear Modulus (GPa) = 19.64920 21.52545 20.58733
#
# Velocity S-wave (km/s) = 3.51304 3.67694 3.59592
# Velocity P-wave (km/s) = 6.65100 7.19469 6.92818
#
# Compressibility (1/GPa) = 0.02260894
#
# Stress axis : x y z
#
# Youngs Moduli (GPa) = 66.42655 69.59735 31.46852
#
# Poissons Ratio (x) = 0.29534 0.17659
# Poissons Ratio (y) = 0.28189 0.29708
# Poissons Ratio (z) = 0.37276 0.65703
#
# Static dielectric constant tensor:
#      x y z
#    x 3.110620 0.000000 0.000000 
#    y 0.000000 3.038390 0.000000 
#    z 0.000000 0.000000 2.860090 
# 
# 
# High freq. dielectric constant tensor:
#      x y z
#    x 1.597390 0.000000 0.000000 
#    y 0.000000 1.599090 0.000000 
#    z 0.000000 0.000000 1.616050 
# 
# From -- ./inp_files/5984.got.cif
#   From: 2010.03.12/outbox.cif.g09.slc.cpg/sg57_3_cif.got.tgz:5984.got - 2010.04.16 15:48:40.
