data_PCOD8230196
_publ_section_title
;
Structure prediction by ZEFSAII (Michael W. Deem and Ramdas Pophale) SiO2 
 PCOD8230196
Probable space group: P B C M
;
_chemical_formula_sum "Si O2"
_cell_formula_units_Z 64
_cell_length_a 15.872372
_cell_length_b 8.872560
_cell_length_c 25.682101
_cell_angle_alpha 90.000000
_cell_angle_beta 90.000000
_cell_angle_gamma 90.000000
_cell_volume 3616.773633
_symmetry_space_group_name_H-M "P B C M"
_symmetry_group_IT_number 57
_symmetry_cell_setting 'orthorhombic'
loop_
_space_group_symop_operation_xyz
x,y,z
-x,-y,1/2+z
x,1/2-y,-z
-x,1/2+y,1/2-z
-x,-y,-z
x,y,1/2-z
-x,1/2+y,z
x,1/2-y,1/2+z
loop_
_atom_site_type_symbol
_atom_site_label
_atom_site_fract_x
_atom_site_fract_y
_atom_site_fract_z
Si Si1 0.530181 0.538101 0.611780
Si Si2 0.950648 0.692589 0.810789
Si Si3 0.604189 0.497062 0.306612
Si Si4 0.395427 0.746521 0.939217
Si Si5 0.114032 0.516343 0.811689
Si Si6 0.809165 0.479548 0.690841
Si Si7 0.348960 0.317917 0.306903
Si Si8 0.736657 0.314550 0.357397
O O1 0.469494 0.460573 0.653625
O O2 0.582865 0.413541 0.580870
O O3 0.474499 0.637349 0.572233
O O4 0.593696 0.640436 0.644338
O O5 0.931977 0.695235 0.750000
O O6 0.893272 0.555706 0.833093
O O7 0.047552 0.652040 0.822320
O O8 0.925738 0.858379 0.831915
O O9 0.563523 0.472366 0.250000
O O10 0.667266 0.638808 0.307977
O O11 0.656208 0.345804 0.320054
O O12 0.306323 0.688838 0.914616
O O13 0.379146 0.750000 0.000000
O O14 0.137542 0.512660 0.750000
O O15 0.194420 0.554028 0.848132
O O16 0.822661 0.419276 0.750000
O O17 0.741897 0.611356 0.688138
O O18 0.779466 0.343577 0.654963
O O19 0.388918 0.362099 0.250000
#
# Coordination Sequence:
#
# PCOD8230196 Si02
#       8
#     8   8   8   8   8   8   8   8
#     4  11  20  38  54  74 100 131 176 218 271 326
#     4   9  18  30  49  77 116 152 181 204 239 304
#     4  10  20  32  48  74 107 140 168 203 255 321
#     4  11  24  40  58  75  97 133 182 240 287 319
#     4  10  18  31  49  77 112 148 177 207 247 306
#     4  10  18  29  47  74 106 141 173 209 251 306
#     4  10  19  31  48  73 108 140 168 204 255 319
#     4  11  21  33  52  74 105 137 181 222 269 317
#
# _framework density 17.695329000000001
#
# number of rings (size 3 to 8) (size 9 to 14) (size 15 to 20)
#    0.000    1.750    2.500    3.375    0.000    4.000 
#    0.000    0.000    0.000    0.000    0.000    3.500 
#    0.000    0.000    0.000    0.000    0.000    0.000 
#
# Total GULP energy -793158.697380 kJ/mol
# GULP energy per Si atom -12393.104647 kJ/mol
# Density = 1.765505 g / cm^3
# Si number density = 17.695329 Si / 1000 Ang^3
#
#
#
# Elastic Constant Matrix: (Units=GPa)
#
#
# Indices 1 2 3 4 5 6 
#
# 1 84.3174 22.5876 41.3064 0.0000 0.0000 0.0000
# 2 22.5876 66.9042 32.4549 0.0000 0.0000 0.0000
# 3 41.3064 32.4549 100.0376 0.0000 0.0000 0.0000
# 4 0.0000 0.0000 0.0000 9.3004 0.0000 0.0000
# 5 0.0000 0.0000 0.0000 0.0000 17.6915 0.0000
# 6 0.0000 0.0000 0.0000 0.0000 0.0000 37.3678
#
#
#
# Elastic Compliance Matrix: (Units=1/GPa)
#
#
# Indices 1 2 3 4 5 6 
#
# 1 0.015206 -0.002478 -0.005475 0.000000 0.000000 0.000000
# 2 -0.002478 0.018142 -0.004863 0.000000 0.000000 0.000000
# 3 -0.005475 -0.004863 0.013834 0.000000 0.000000 0.000000
# 4 0.000000 0.000000 0.000000 0.107523 0.000000 0.000000
# 5 0.000000 0.000000 0.000000 0.000000 0.056524 0.000000
# 6 0.000000 0.000000 0.000000 0.000000 0.000000 0.026761
#
#
# Mechanical properties :
#
#
# Convention : Reuss Voigt Hill
#
# Bulk Modulus (GPa) = 46.39985 49.32856 47.86420
# Shear Modulus (GPa) = 18.46349 23.19928 20.83138
#
# Velocity S-wave (km/s) = 3.23369 3.62476 3.43479
# Velocity P-wave (km/s) = 6.34199 6.74208 6.54509
#
# Compressibility (1/GPa) = 0.02155180
#
# Stress axis : x y z
#
# Youngs Moduli (GPa) = 65.76458 55.12023 72.28365
#
# Poissons Ratio (x) = 0.13658 0.39573
# Poissons Ratio (y) = 0.16296 0.35149
# Poissons Ratio (z) = 0.36004 0.26803
#
# Static dielectric constant tensor:
#      x y z
#    x 3.362640 0.000000 0.000000 
#    y 0.000000 3.397220 0.000000 
#    z 0.000000 0.000000 2.893660 
# 
# 
# High freq. dielectric constant tensor:
#      x y z
#    x 1.689750 0.000000 0.000000 
#    y 0.000000 1.701210 0.000000 
#    z 0.000000 0.000000 1.623550 
# 
# From -- ./inp_files/27452.got.cif
#   From: 2010.03.12/outbox.cif.g09.slc.cpg/sg57_14_cif.got.tgz:27452.got - 2010.04.16 15:48:40.
