data_PCOD8230614
_publ_section_title
;
Structure prediction by ZEFSAII (Michael W. Deem and Ramdas Pophale) SiO2 
 PCOD8230614
Probable space group: P B C M
;
_chemical_formula_sum "Si O2"
_cell_formula_units_Z 56
_cell_length_a 14.469917
_cell_length_b 26.724431
_cell_length_c 9.039494
_cell_angle_alpha 90.000000
_cell_angle_beta 90.000000
_cell_angle_gamma 90.000000
_cell_volume 3495.575028
_symmetry_space_group_name_H-M "P B C M"
_symmetry_group_IT_number 57
_symmetry_cell_setting 'orthorhombic'
loop_
_space_group_symop_operation_xyz
x,y,z
-x,-y,1/2+z
x,1/2-y,-z
-x,1/2+y,1/2-z
-x,-y,-z
x,y,1/2-z
-x,1/2+y,z
x,1/2-y,1/2+z
loop_
_atom_site_type_symbol
_atom_site_label
_atom_site_fract_x
_atom_site_fract_y
_atom_site_fract_z
Si Si1 0.114280 0.302160 0.076719
Si Si2 0.576823 0.560530 0.578521
Si Si3 0.029750 0.611872 0.922729
Si Si4 0.191123 0.567906 0.425416
Si Si5 0.741585 0.622083 0.923593
Si Si6 0.627566 0.459523 0.077186
Si Si7 0.874852 0.538405 0.924777
O O1 0.118496 0.292178 0.250000
O O2 0.211879 0.326431 0.016693
O O3 0.030325 0.339419 0.036398
O O4 0.095681 0.250000 0.000000
O O5 0.592646 0.545766 0.750000
O O6 0.632896 0.612264 0.540730
O O7 0.468967 0.569502 0.545804
O O8 0.618757 0.515800 0.482167
O O9 0.053057 0.611341 0.750000
O O10 0.973813 0.561519 0.970245
O O11 0.125953 0.612567 0.013704
O O12 0.198478 0.571445 0.250000
O O13 0.293766 0.571736 0.492772
O O14 0.143656 0.516921 0.486584
O O15 0.761031 0.623482 0.750000
O O16 0.795789 0.574564 0.990615
O O17 0.650810 0.461464 0.250000
O O18 0.866380 0.536327 0.750000
#
# Coordination Sequence:
#
# PCOD8230614 Si02
#       7
#     8   8   8   8   8   8   8
#     4   9  18  32  51  70  91 115 142 182 230 276
#     4   9  16  29  46  62  86 121 158 188 219 264
#     4   9  18  31  45  63  87 116 149 187 225 265
#     4  11  19  28  43  62  88 125 157 187 219 260
#     4   8  13  26  47  66  86 118 152 180 217 269
#     4  10  19  27  40  64  92 122 155 191 223 257
#     4   8  14  25  42  61  85 117 151 181 214 254
#
# _framework density 16.020254999999999
#
# number of rings (size 3 to 8) (size 9 to 14) (size 15 to 20)
#    0.000    2.857    1.429    3.000    0.000    1.143 
#    0.000    1.429    0.000    0.000    0.000    1.000 
#    0.000    2.286    0.000    0.000    0.000    0.000 
#
# Total GULP energy -693805.469727 kJ/mol
# GULP energy per Si atom -12389.383388 kJ/mol
# Density = 1.598379 g / cm^3
# Si number density = 16.020255 Si / 1000 Ang^3
#
#
#
# Elastic Constant Matrix: (Units=GPa)
#
#
# Indices 1 2 3 4 5 6 
#
# 1 129.8046 50.6726 49.6317 0.0000 0.0000 0.0000
# 2 50.6726 69.1429 30.5485 0.0000 0.0000 0.0000
# 3 49.6317 30.5485 54.1300 0.0000 0.0000 0.0000
# 4 0.0000 0.0000 0.0000 19.3782 0.0000 0.0000
# 5 0.0000 0.0000 0.0000 0.0000 22.9392 0.0000
# 6 0.0000 0.0000 0.0000 0.0000 0.0000 15.4104
#
#
#
# Elastic Compliance Matrix: (Units=1/GPa)
#
#
# Indices 1 2 3 4 5 6 
#
# 1 0.013441 -0.005869 -0.009012 0.000000 0.000000 0.000000
# 2 -0.005869 0.021829 -0.006939 0.000000 0.000000 0.000000
# 3 -0.009012 -0.006939 0.030653 0.000000 0.000000 0.000000
# 4 0.000000 0.000000 0.000000 0.051604 0.000000 0.000000
# 5 0.000000 0.000000 0.000000 0.000000 0.043594 0.000000
# 6 0.000000 0.000000 0.000000 0.000000 0.000000 0.064891
#
#
# Mechanical properties :
#
#
# Convention : Reuss Voigt Hill
#
# Bulk Modulus (GPa) = 44.87355 57.19816 51.03586
# Shear Modulus (GPa) = 18.04551 19.69387 18.86969
#
# Velocity S-wave (km/s) = 3.35986 3.50996 3.43573
# Velocity P-wave (km/s) = 6.56680 7.22548 6.90400
#
# Compressibility (1/GPa) = 0.02228484
#
# Stress axis : x y z
#
# Youngs Moduli (GPa) = 74.40193 45.81002 32.62372
#
# Poissons Ratio (x) = 0.26884 0.29399
# Poissons Ratio (y) = 0.43664 0.22636
# Poissons Ratio (z) = 0.67048 0.31785
#
# Static dielectric constant tensor:
#      x y z
#    x 3.223960 0.000000 0.000000 
#    y 0.000000 2.816370 0.000000 
#    z 0.000000 0.000000 2.805290 
# 
# 
# High freq. dielectric constant tensor:
#      x y z
#    x 1.623390 0.000000 0.000000 
#    y 0.000000 1.569740 0.000000 
#    z 0.000000 0.000000 1.597910 
# 
# From -- ./inp_files/5901.got.cif
#   From: 2010.03.12/outbox.cif.g09.slc.cpg/sg57_3_cif.got.tgz:5901.got - 2010.04.16 15:48:40.
