data_PCOD8230574
_publ_section_title
;
Structure prediction by ZEFSAII (Michael W. Deem and Ramdas Pophale) SiO2 
 PCOD8230574
Probable space group: P B C M
;
_chemical_formula_sum "Si O2"
_cell_formula_units_Z 64
_cell_length_a 11.950313
_cell_length_b 30.975218
_cell_length_c 8.870005
_cell_angle_alpha 90.000000
_cell_angle_beta 90.000000
_cell_angle_gamma 90.000000
_cell_volume 3283.352542
_symmetry_space_group_name_H-M "P B C M"
_symmetry_group_IT_number 57
_symmetry_cell_setting 'orthorhombic'
loop_
_space_group_symop_operation_xyz
x,y,z
-x,-y,1/2+z
x,1/2-y,-z
-x,1/2+y,1/2-z
-x,-y,-z
x,y,1/2-z
-x,1/2+y,z
x,1/2-y,1/2+z
loop_
_atom_site_type_symbol
_atom_site_label
_atom_site_fract_x
_atom_site_fract_y
_atom_site_fract_z
Si Si1 0.503343 0.078291 0.071142
Si Si2 0.268727 0.043596 0.427256
Si Si3 0.260630 0.544793 0.429097
Si Si4 0.506749 0.676270 0.427480
Si Si5 0.271077 0.206111 0.571533
Si Si6 0.880278 0.125332 0.428908
Si Si7 0.739676 0.205850 0.073244
Si Si8 0.864414 0.871169 0.572242
O O1 0.507060 0.079635 0.250000
O O2 0.394588 0.052613 0.013184
O O3 0.614935 0.055462 0.008630
O O4 0.497186 0.127258 0.012952
O O5 0.267685 0.035983 0.250000
O O6 0.190238 0.083374 0.472591
O O7 0.220814 0.001046 0.506843
O O8 0.259433 0.542902 0.250000
O O9 0.176119 0.581405 0.490209
O O10 0.534470 0.678288 0.250000
O O11 0.601057 0.701382 0.519017
O O12 0.389583 0.698455 0.466821
O O13 0.221579 0.250000 0.500000
O O14 0.265545 0.209312 0.750000
O O15 0.197446 0.166373 0.516068
O O16 0.871643 0.125162 0.250000
O O17 0.813195 0.166527 0.493459
O O18 0.007844 0.127626 0.482867
O O19 0.758426 0.209154 0.250000
O O20 0.782737 0.250000 0.000000
O O21 0.852675 0.862423 0.750000
#
# Coordination Sequence:
#
# PCOD8230574 Si02
#       8
#     8   8   8   8   8   8   8   8
#     4   9  16  31  56  81 110 149 187 225 281 340
#     4  10  20  34  54  81 113 150 188 232 286 336
#     4  10  19  34  57  83 112 148 190 233 278 338
#     4  10  18  35  61  85 114 151 185 226 280 340
#     4  12  25  40  60  87 117 148 187 233 283 338
#     4   9  19  37  60  83 108 149 196 235 279 335
#     4  10  20  35  58  85 114 145 184 228 279 337
#     4  10  21  40  62  81 110 152 196 237 283 335
#
# _framework density 19.492272
#
# number of rings (size 3 to 8) (size 9 to 14) (size 15 to 20)
#    0.000    2.000    2.500    1.875    0.000    3.000 
#    0.000    3.750    0.000    0.000    0.000    0.000 
#    0.000    0.000    0.000    0.000    0.000    0.000 
#
# Total GULP energy -793735.274105 kJ/mol
# GULP energy per Si atom -12402.113658 kJ/mol
# Density = 1.944791 g / cm^3
# Si number density = 19.492272 Si / 1000 Ang^3
#
#
#
# Elastic Constant Matrix: (Units=GPa)
#
#
# Indices 1 2 3 4 5 6 
#
# 1 141.9769 73.2689 42.7356 0.0000 0.0000 0.0000
# 2 73.2689 177.5066 49.6328 0.0000 0.0000 0.0000
# 3 42.7356 49.6328 49.0860 0.0000 0.0000 0.0000
# 4 0.0000 0.0000 0.0000 32.9168 0.0000 0.0000
# 5 0.0000 0.0000 0.0000 0.0000 12.0393 0.0000
# 6 0.0000 0.0000 0.0000 0.0000 0.0000 8.1092
#
#
#
# Elastic Compliance Matrix: (Units=1/GPa)
#
#
# Indices 1 2 3 4 5 6 
#
# 1 0.010238 -0.002417 -0.006470 0.000000 0.000000 0.000000
# 2 -0.002417 0.008425 -0.006414 0.000000 0.000000 0.000000
# 3 -0.006470 -0.006414 0.032491 0.000000 0.000000 0.000000
# 4 0.000000 0.000000 0.000000 0.030380 0.000000 0.000000
# 5 0.000000 0.000000 0.000000 0.000000 0.083061 0.000000
# 6 0.000000 0.000000 0.000000 0.000000 0.000000 0.123317
#
#
# Mechanical properties :
#
#
# Convention : Reuss Voigt Hill
#
# Bulk Modulus (GPa) = 48.65760 77.76046 63.20903
# Shear Modulus (GPa) = 15.36741 24.14187 19.75464
#
# Velocity S-wave (km/s) = 2.81086 3.52310 3.18694
# Velocity P-wave (km/s) = 5.96249 7.51859 6.78530
#
# Compressibility (1/GPa) = 0.02055177
#
# Stress axis : x y z
#
# Youngs Moduli (GPa) = 97.67438 118.69786 30.77785
#
# Poissons Ratio (x) = 0.28689 0.19912
# Poissons Ratio (y) = 0.23607 0.19742
# Poissons Ratio (z) = 0.63192 0.76137
#
# Static dielectric constant tensor:
#      x y z
#    x 3.703180 0.000000 0.000000 
#    y 0.000000 3.722650 0.000000 
#    z 0.000000 0.000000 3.130280 
# 
# 
# High freq. dielectric constant tensor:
#      x y z
#    x 1.760070 0.000000 0.000000 
#    y 0.000000 1.777480 0.000000 
#    z 0.000000 0.000000 1.719440 
# 
# From -- ./inp_files/3777.got.cif
#   From: 2010.03.12/outbox.cif.g09.slc.cpg/sg57_2_cif.got.tgz:3777.got - 2010.04.16 15:48:40.
