data_PCOD8230159
_publ_section_title
;
Structure prediction by ZEFSAII (Michael W. Deem and Ramdas Pophale) SiO2 
 PCOD8230159
Probable space group: P B C M
;
_chemical_formula_sum "Si O2"
_cell_formula_units_Z 64
_cell_length_a 14.834386
_cell_length_b 29.435989
_cell_length_c 9.408927
_cell_angle_alpha 90.000000
_cell_angle_beta 90.000000
_cell_angle_gamma 90.000000
_cell_volume 4108.547444
_symmetry_space_group_name_H-M "P B C M"
_symmetry_group_IT_number 57
_symmetry_cell_setting 'orthorhombic'
loop_
_space_group_symop_operation_xyz
x,y,z
-x,-y,1/2+z
x,1/2-y,-z
-x,1/2+y,1/2-z
-x,-y,-z
x,y,1/2-z
-x,1/2+y,z
x,1/2-y,1/2+z
loop_
_atom_site_type_symbol
_atom_site_label
_atom_site_fract_x
_atom_site_fract_y
_atom_site_fract_z
Si Si1 0.032142 0.608559 0.083598
Si Si2 0.135922 0.051047 0.417336
Si Si3 0.547330 0.565406 0.585566
Si Si4 0.694994 0.887003 0.583982
Si Si5 0.990604 0.706578 0.414582
Si Si6 0.384833 0.964626 0.586995
Si Si7 0.779680 0.707568 0.087194
Si Si8 0.179474 0.962761 0.915715
O O1 0.013544 0.612923 0.250000
O O2 0.125544 0.583353 0.048570
O O3 0.947750 0.580232 0.021219
O O4 0.036549 0.660292 0.024885
O O5 0.125783 0.042130 0.250000
O O6 0.227837 0.076922 0.453924
O O7 0.134937 0.003029 0.495711
O O8 0.536147 0.578104 0.750000
O O9 0.606517 0.603370 0.508001
O O10 0.448853 0.564933 0.514163
O O11 0.596947 0.517648 0.563463
O O12 0.670716 0.889643 0.750000
O O13 0.727964 0.837378 0.538428
O O14 0.028434 0.750000 0.500000
O O15 0.013078 0.714961 0.250000
O O16 0.884828 0.700083 0.441456
O O17 0.403148 0.950784 0.750000
O O18 0.282736 0.954248 0.540653
O O19 0.760709 0.718373 0.250000
O O20 0.741122 0.750000 0.000000
O O21 0.172001 0.975610 0.750000
#
# Coordination Sequence:
#
# PCOD8230159 Si02
#       8
#     8   8   8   8   8   8   8   8
#     4   9  17  30  47  65  90 125 157 183 221 270
#     4  10  18  29  44  64  92 127 158 182 213 263
#     4  10  19  30  46  66  88 115 149 190 229 266
#     4  10  18  29  46  66  92 124 153 181 221 272
#     4   9  16  29  46  65  88 117 152 187 223 264
#     4   9  18  31  44  63  89 116 150 190 228 266
#     4   9  17  29  45  65  90 120 152 185 221 265
#     4  10  19  31  46  65  91 122 156 194 226 260
#
# _framework density 15.577280999999999
#
# number of rings (size 3 to 8) (size 9 to 14) (size 15 to 20)
#    0.000    2.500    2.500    0.750    0.000    1.500 
#    0.000    1.250    0.000    0.000    0.000    0.875 
#    0.000    2.000    0.000    0.000    0.000    0.000 
#
# Total GULP energy -793600.173872 kJ/mol
# GULP energy per Si atom -12400.002717 kJ/mol
# Density = 1.554183 g / cm^3
# Si number density = 15.577281 Si / 1000 Ang^3
#
#
#
# Elastic Constant Matrix: (Units=GPa)
#
#
# Indices 1 2 3 4 5 6 
#
# 1 84.2351 52.0716 35.1318 0.0000 0.0000 0.0000
# 2 52.0716 122.6210 48.1617 0.0000 0.0000 0.0000
# 3 35.1318 48.1617 51.7866 0.0000 0.0000 0.0000
# 4 0.0000 0.0000 0.0000 26.1962 0.0000 0.0000
# 5 0.0000 0.0000 0.0000 0.0000 17.1804 0.0000
# 6 0.0000 0.0000 0.0000 0.0000 0.0000 21.8244
#
#
#
# Elastic Compliance Matrix: (Units=1/GPa)
#
#
# Indices 1 2 3 4 5 6 
#
# 1 0.017996 -0.004486 -0.008037 0.000000 0.000000 0.000000
# 2 -0.004486 0.013966 -0.009946 0.000000 0.000000 0.000000
# 3 -0.008037 -0.009946 0.034012 0.000000 0.000000 0.000000
# 4 0.000000 0.000000 0.000000 0.038173 0.000000 0.000000
# 5 0.000000 0.000000 0.000000 0.000000 0.058206 0.000000
# 6 0.000000 0.000000 0.000000 0.000000 0.000000 0.045820
#
#
# Mechanical properties :
#
#
# Convention : Reuss Voigt Hill
#
# Bulk Modulus (GPa) = 47.53340 58.81920 53.17630
# Shear Modulus (GPa) = 19.22161 21.25872 20.24017
#
# Velocity S-wave (km/s) = 3.51658 3.69823 3.60854
# Velocity P-wave (km/s) = 6.86070 7.48849 7.18146
#
# Compressibility (1/GPa) = 0.02103784
#
# Stress axis : x y z
#
# Youngs Moduli (GPa) = 55.56673 71.60026 29.40137
#
# Poissons Ratio (x) = 0.32116 0.23630
# Poissons Ratio (y) = 0.24925 0.29242
# Poissons Ratio (z) = 0.44660 0.71213
#
# Static dielectric constant tensor:
#      x y z
#    x 2.874820 0.000000 0.000000 
#    y 0.000000 2.992090 0.000000 
#    z 0.000000 0.000000 2.885450 
# 
# 
# High freq. dielectric constant tensor:
#      x y z
#    x 1.581540 0.000000 0.000000 
#    y 0.000000 1.585840 0.000000 
#    z 0.000000 0.000000 1.588020 
# 
# From -- ./inp_files/5968.got.cif
#   From: 2010.03.12/outbox.cif.g09.slc.cpg/sg57_3_cif.got.tgz:5968.got - 2010.04.16 15:48:40.
