data_PCOD8230482
_publ_section_title
;
Structure prediction by ZEFSAII (Michael W. Deem and Ramdas Pophale) SiO2 
 PCOD8230482
Probable space group: P B C M
;
_chemical_formula_sum "Si O2"
_cell_formula_units_Z 40
_cell_length_a 7.844192
_cell_length_b 29.247880
_cell_length_c 8.677121
_cell_angle_alpha 90.000000
_cell_angle_beta 90.000000
_cell_angle_gamma 90.000000
_cell_volume 1990.757044
_symmetry_space_group_name_H-M "P B C M"
_symmetry_group_IT_number 57
_symmetry_cell_setting 'orthorhombic'
loop_
_space_group_symop_operation_xyz
x,y,z
-x,-y,1/2+z
x,1/2-y,-z
-x,1/2+y,1/2-z
-x,-y,-z
x,y,1/2-z
-x,1/2+y,z
x,1/2-y,1/2+z
loop_
_atom_site_type_symbol
_atom_site_label
_atom_site_fract_x
_atom_site_fract_y
_atom_site_fract_z
Si Si1 0.825474 0.607989 0.069734
Si Si2 0.303785 0.203477 0.067613
Si Si3 0.487473 0.450044 0.567321
Si Si4 0.202548 0.613334 0.069338
Si Si5 0.322933 0.703662 0.931891
O O1 0.789129 0.609192 0.250000
O O2 0.802917 0.659797 0.007726
O O3 0.683852 0.573759 0.998856
O O4 0.017192 0.590937 0.033005
O O5 0.305491 0.207447 0.250000
O O6 0.221878 0.250000 0.000000
O O7 0.494409 0.196527 0.008915
O O8 0.500000 0.500000 0.500000
O O9 0.483609 0.453509 0.750000
O O10 0.651808 0.421223 0.511759
O O11 0.222495 0.624204 0.250000
O O12 0.207815 0.660544 0.976238
O O13 0.341979 0.708084 0.750000
O O14 0.238526 0.750000 0.000000
#
# Coordination Sequence:
#
# PCOD8230482 Si02
#       5
#     8   8   8   8   8
#     4   9  19  36  59  84 112 149 188 228 280 338
#     4  10  18  33  55  82 114 151 190 227 273 329
#     4  10  21  39  60  83 112 147 186 232 287 340
#     4  10  20  38  61  83 113 150 188 232 282 334
#     4  11  21  34  55  84 117 153 192 231 274 330
#
# _framework density 20.092860000000002
#
# number of rings (size 3 to 8) (size 9 to 14) (size 15 to 20)
#    0.000    2.000    2.000    3.600    0.000    2.400 
#    0.000    5.000    0.000    0.000    0.000    0.000 
#    0.000    0.000    0.000    0.000    0.000    0.000 
#
# Total GULP energy -495917.184947 kJ/mol
# GULP energy per Si atom -12397.929624 kJ/mol
# Density = 2.004713 g / cm^3
# Si number density = 20.092860 Si / 1000 Ang^3
#
#
#
# Elastic Constant Matrix: (Units=GPa)
#
#
# Indices 1 2 3 4 5 6 
#
# 1 133.3556 79.2490 22.1607 0.0000 0.0000 0.0000
# 2 79.2490 162.7461 34.3166 0.0000 0.0000 0.0000
# 3 22.1607 34.3166 60.3197 0.0000 0.0000 0.0000
# 4 0.0000 0.0000 0.0000 34.8907 0.0000 0.0000
# 5 0.0000 0.0000 0.0000 0.0000 12.4433 0.0000
# 6 0.0000 0.0000 0.0000 0.0000 0.0000 16.1783
#
#
#
# Elastic Compliance Matrix: (Units=1/GPa)
#
#
# Indices 1 2 3 4 5 6 
#
# 1 0.010615 -0.004939 -0.001090 0.000000 0.000000 0.000000
# 2 -0.004939 0.009280 -0.003465 0.000000 0.000000 0.000000
# 3 -0.001090 -0.003465 0.018950 0.000000 0.000000 0.000000
# 4 0.000000 0.000000 0.000000 0.028661 0.000000 0.000000
# 5 0.000000 0.000000 0.000000 0.000000 0.080364 0.000000
# 6 0.000000 0.000000 0.000000 0.000000 0.000000 0.061811
#
#
# Mechanical properties :
#
#
# Convention : Reuss Voigt Hill
#
# Bulk Modulus (GPa) = 50.35971 69.76379 60.06175
# Shear Modulus (GPa) = 21.25043 27.41548 24.33295
#
# Velocity S-wave (km/s) = 3.25562 3.69784 3.48375
# Velocity P-wave (km/s) = 6.26498 7.28204 6.79257
#
# Compressibility (1/GPa) = 0.01985714
#
# Stress axis : x y z
#
# Youngs Moduli (GPa) = 94.20578 107.75489 52.77027
#
# Poissons Ratio (x) = 0.53222 0.05751
# Poissons Ratio (y) = 0.46530 0.18285
# Poissons Ratio (z) = 0.10267 0.37338
#
# Static dielectric constant tensor:
#      x y z
#    x 3.726090 0.000000 0.000000 
#    y 0.000000 3.917180 0.000000 
#    z 0.000000 0.000000 3.443570 
# 
# 
# High freq. dielectric constant tensor:
#      x y z
#    x 1.784370 0.000000 0.000000 
#    y 0.000000 1.786590 0.000000 
#    z 0.000000 0.000000 1.759470 
# 
# From -- ./inp_files/1807.got.cif
#   From: 2010.03.12/outbox.cif.g09.slc.cpg/sg57_1_cif.got.tgz:1807.got - 2010.04.16 15:48:40.
