data_PCOD8230925
_publ_section_title
;
Structure prediction by ZEFSAII (Michael W. Deem and Ramdas Pophale) SiO2 
 PCOD8230925
Probable space group: P B C M
;
_chemical_formula_sum "Si O2"
_cell_formula_units_Z 64
_cell_length_a 14.257983
_cell_length_b 30.155273
_cell_length_c 9.106771
_cell_angle_alpha 90.000000
_cell_angle_beta 90.000000
_cell_angle_gamma 90.000000
_cell_volume 3915.486879
_symmetry_space_group_name_H-M "P B C M"
_symmetry_group_IT_number 57
_symmetry_cell_setting 'orthorhombic'
loop_
_space_group_symop_operation_xyz
x,y,z
-x,-y,1/2+z
x,1/2-y,-z
-x,1/2+y,1/2-z
-x,-y,-z
x,y,1/2-z
-x,1/2+y,z
x,1/2-y,1/2+z
loop_
_atom_site_type_symbol
_atom_site_label
_atom_site_fract_x
_atom_site_fract_y
_atom_site_fract_z
Si Si1 0.956885 0.542269 0.920175
Si Si2 0.437616 0.462808 0.919706
Si Si3 0.750460 0.519689 0.580126
Si Si4 0.144287 0.705299 0.077617
Si Si5 0.924880 0.375680 0.415881
Si Si6 0.256097 0.932081 0.085100
Si Si7 0.640257 0.206332 0.080737
Si Si8 0.420262 0.888547 0.582466
O O1 0.983606 0.536280 0.750000
O O2 0.845300 0.547868 0.942822
O O3 0.003502 0.587571 0.979739
O O4 0.000000 0.500000 0.000000
O O5 0.430255 0.476895 0.750000
O O6 0.480242 0.413247 0.934105
O O7 0.500000 0.500000 0.000000
O O8 0.334716 0.459281 0.989446
O O9 0.720958 0.517206 0.750000
O O10 0.775356 0.470963 0.522899
O O11 0.130965 0.710178 0.250000
O O12 0.252586 0.695219 0.034770
O O13 0.110738 0.750000 0.000000
O O14 0.074941 0.666978 0.020223
O O15 0.953054 0.362039 0.250000
O O16 0.820134 0.394048 0.418982
O O17 0.269469 0.950680 0.250000
O O18 0.353586 0.912769 0.031092
O O19 0.635519 0.218408 0.250000
O O20 0.574700 0.163820 0.042517
O O21 0.601420 0.250000 0.000000
O O22 0.382038 0.893299 0.750000
#
# Coordination Sequence:
#
# PCOD8230925 Si02
#       8
#     8   8   8   8   8   8   8   8
#     4  10  21  35  51  72  99 133 170 211 253 297
#     4  11  22  34  51  73  99 132 170 210 250 293
#     4  11  22  35  50  69 100 136 170 209 252 294
#     4  10  19  31  49  72 100 133 164 200 246 299
#     4  10  20  33  48  72 101 131 169 209 249 296
#     4  11  20  29  48  72  99 132 169 207 244 289
#     4   9  18  31  47  69  97 127 159 195 239 292
#     4  10  20  34  49  69  99 133 167 203 247 294
#
# _framework density 16.34535
#
# number of rings (size 3 to 8) (size 9 to 14) (size 15 to 20)
#    0.000    1.750    3.750    1.500    0.000    3.000 
#    0.000    0.000    0.000    0.000    0.000    0.875 
#    0.000    4.000    0.000    0.000    0.000    0.000 
#
# Total GULP energy -793514.525223 kJ/mol
# GULP energy per Si atom -12398.664457 kJ/mol
# Density = 1.630815 g / cm^3
# Si number density = 16.345350 Si / 1000 Ang^3
#
#
#
# Elastic Constant Matrix: (Units=GPa)
#
#
# Indices 1 2 3 4 5 6 
#
# 1 69.8435 42.1000 41.0435 0.0000 0.0000 0.0000
# 2 42.1000 126.8331 52.4506 0.0000 0.0000 0.0000
# 3 41.0435 52.4506 87.8772 0.0000 0.0000 0.0000
# 4 0.0000 0.0000 0.0000 29.2655 0.0000 0.0000
# 5 0.0000 0.0000 0.0000 0.0000 21.6082 0.0000
# 6 0.0000 0.0000 0.0000 0.0000 0.0000 25.8426
#
#
#
# Elastic Compliance Matrix: (Units=1/GPa)
#
#
# Indices 1 2 3 4 5 6 
#
# 1 0.021084 -0.003885 -0.007528 0.000000 0.000000 0.000000
# 2 -0.003885 0.011184 -0.004861 0.000000 0.000000 0.000000
# 3 -0.007528 -0.004861 0.017797 0.000000 0.000000 0.000000
# 4 0.000000 0.000000 0.000000 0.034170 0.000000 0.000000
# 5 0.000000 0.000000 0.000000 0.000000 0.046279 0.000000
# 6 0.000000 0.000000 0.000000 0.000000 0.000000 0.038696
#
#
# Mechanical properties :
#
#
# Convention : Reuss Voigt Hill
#
# Bulk Modulus (GPa) = 57.09025 61.74911 59.41968
# Shear Modulus (GPa) = 24.08519 25.27388 24.67954
#
# Velocity S-wave (km/s) = 3.84281 3.93650 3.88993
# Velocity P-wave (km/s) = 7.39547 7.64991 7.52376
#
# Compressibility (1/GPa) = 0.01751613
#
# Stress axis : x y z
#
# Youngs Moduli (GPa) = 47.43026 89.41261 56.18943
#
# Poissons Ratio (x) = 0.34737 0.42302
# Poissons Ratio (y) = 0.18427 0.27313
# Poissons Ratio (z) = 0.35707 0.43462
#
# Static dielectric constant tensor:
#      x y z
#    x 2.954530 0.000000 0.000000 
#    y 0.000000 3.229740 0.000000 
#    z 0.000000 0.000000 3.222950 
# 
# 
# High freq. dielectric constant tensor:
#      x y z
#    x 1.598990 0.000000 0.000000 
#    y 0.000000 1.620950 0.000000 
#    z 0.000000 0.000000 1.640730 
# 
# From -- ./inp_files/6045.got.cif
#   From: 2010.03.12/outbox.cif.g09.slc.cpg/sg57_4_cif.got.tgz:6045.got - 2010.04.16 15:48:40.
