data_PCOD8230971
_publ_section_title
;
Structure prediction by ZEFSAII (Michael W. Deem and Ramdas Pophale) SiO2 
 PCOD8230971
Probable space group: P B C M
;
_chemical_formula_sum "Si O2"
_cell_formula_units_Z 60
_cell_length_a 20.839302
_cell_length_b 8.862952
_cell_length_c 17.030329
_cell_angle_alpha 90.000000
_cell_angle_beta 90.000000
_cell_angle_gamma 90.000000
_cell_volume 3145.463164
_symmetry_space_group_name_H-M "P B C M"
_symmetry_group_IT_number 57
_symmetry_cell_setting 'orthorhombic'
loop_
_space_group_symop_operation_xyz
x,y,z
-x,-y,1/2+z
x,1/2-y,-z
-x,1/2+y,1/2-z
-x,-y,-z
x,y,1/2-z
-x,1/2+y,z
x,1/2-y,1/2+z
loop_
_atom_site_type_symbol
_atom_site_label
_atom_site_fract_x
_atom_site_fract_y
_atom_site_fract_z
Si Si1 0.315465 0.590119 0.342712
Si Si2 0.197679 0.369206 0.933839
Si Si3 0.192738 0.086659 0.840701
Si Si4 0.432175 0.092887 0.157447
Si Si5 0.441667 0.069023 0.843935
Si Si6 0.298965 0.936468 0.343099
Si Si7 0.090698 0.485739 0.454802
Si Si8 0.004162 0.750000 0.000000
O O1 0.318777 0.576526 0.250000
O O2 0.259589 0.479900 0.374815
O O3 0.383313 0.532958 0.377113
O O4 0.302131 0.761721 0.366984
O O5 0.183264 0.263902 0.858592
O O6 0.247661 0.492312 0.902831
O O7 0.223553 0.250000 0.000000
O O8 0.134213 0.454438 0.966924
O O9 0.188200 0.055080 0.750000
O O10 0.135541 0.993910 0.880011
O O11 0.440267 0.101106 0.250000
O O12 0.432939 0.261903 0.122831
O O13 0.491925 0.998610 0.122621
O O14 0.366394 0.011553 0.135186
O O15 0.441767 0.070086 0.750000
O O16 0.282294 0.959065 0.250000
O O17 0.041595 0.346410 0.442316
O O18 0.050379 0.638062 0.453761
#
# Coordination Sequence:
#
# PCOD8230971 Si02
#       8
#     8   8   8   8   8   8   8   4
#     4   9  18  29  46  74 109 141 174 220 272 317
#     4  10  20  36  53  82 104 141 184 214 262 320
#     4  10  19  35  55  81 115 144 175 222 272 316
#     4   9  16  25  42  67 100 139 178 220 268 316
#     4   9  15  25  40  65 100 139 177 215 264 322
#     4  10  19  31  49  76 107 138 175 227 275 315
#     4  10  21  38  62  85 106 144 180 218 257 319
#     4  10  20  40  64  80 110 138 180 216 254 310
#
# _framework density 19.075092000000001
#
# number of rings (size 3 to 8) (size 9 to 14) (size 15 to 20)
#    0.000    2.400    2.000    2.000    1.867    5.333 
#    0.000    0.667    0.000    0.000    0.000   14.933 
#    0.000    0.000    0.000    0.000    0.000    0.000 
#
# Total GULP energy -743527.865040 kJ/mol
# GULP energy per Si atom -12392.131084 kJ/mol
# Density = 1.903168 g / cm^3
# Si number density = 19.075092 Si / 1000 Ang^3
#
#
#
# Elastic Constant Matrix: (Units=GPa)
#
#
# Indices 1 2 3 4 5 6 
#
# 1 147.4376 64.6021 36.2773 0.0000 0.0000 0.0000
# 2 64.6021 116.1233 23.6242 0.0000 0.0000 0.0000
# 3 36.2773 23.6242 33.2891 0.0000 0.0000 0.0000
# 4 0.0000 0.0000 0.0000 13.8575 0.0000 0.0000
# 5 0.0000 0.0000 0.0000 0.0000 20.0683 0.0000
# 6 0.0000 0.0000 0.0000 0.0000 0.0000 254.8796
#
#
#
# Elastic Compliance Matrix: (Units=1/GPa)
#
#
# Indices 1 2 3 4 5 6 
#
# 1 0.010787 -0.004218 -0.008761 0.000000 0.000000 0.000000
# 2 -0.004218 0.011714 -0.003716 0.000000 0.000000 0.000000
# 3 -0.008761 -0.003716 0.042225 0.000000 0.000000 0.000000
# 4 0.000000 0.000000 0.000000 0.072163 0.000000 0.000000
# 5 0.000000 0.000000 0.000000 0.000000 0.049830 0.000000
# 6 0.000000 0.000000 0.000000 0.000000 0.000000 0.003923
#
#
# Mechanical properties :
#
#
# Convention : Reuss Voigt Hill
#
# Bulk Modulus (GPa) = 31.91408 60.65080 46.28244
# Shear Modulus (GPa) = 21.32391 69.25084 45.28738
#
# Velocity S-wave (km/s) = 3.34712 6.03184 4.87782
# Velocity P-wave (km/s) = 5.63069 8.96525 7.48600
#
# Compressibility (1/GPa) = 0.03133413
#
# Stress axis : x y z
#
# Youngs Moduli (GPa) = 92.70735 85.36510 23.68278
#
# Poissons Ratio (x) = 0.36011 0.20749
# Poissons Ratio (y) = 0.39108 0.08801
# Poissons Ratio (z) = 0.81223 0.31723
#
# Static dielectric constant tensor:
#      x y z
#    x 3.738440 0.000000 0.000000 
#    y 0.000000 3.729470 0.000000 
#    z 0.000000 0.000000 3.031200 
# 
# 
# High freq. dielectric constant tensor:
#      x y z
#    x 1.752580 0.000000 0.000000 
#    y 0.000000 1.756140 0.000000 
#    z 0.000000 0.000000 1.688150 
# 
# From -- ./inp_files/25593.got.cif
#   From: 2010.03.12/outbox.cif.g09.slc.cpg/sg57_13_cif.got.tgz:25593.got - 2010.04.16 15:48:40.
