data_PCOD8230694
_publ_section_title
;
Structure prediction by ZEFSAII (Michael W. Deem and Ramdas Pophale) SiO2 
 PCOD8230694
Probable space group: P B C M
;
_chemical_formula_sum "Si O2"
_cell_formula_units_Z 64
_cell_length_a 31.353565
_cell_length_b 14.094333
_cell_length_c 8.800825
_cell_angle_alpha 90.000000
_cell_angle_beta 90.000000
_cell_angle_gamma 90.000000
_cell_volume 3889.151329
_symmetry_space_group_name_H-M "P B C M"
_symmetry_group_IT_number 57
_symmetry_cell_setting 'orthorhombic'
loop_
_space_group_symop_operation_xyz
x,y,z
-x,-y,1/2+z
x,1/2-y,-z
-x,1/2+y,1/2-z
-x,-y,-z
x,y,1/2-z
-x,1/2+y,z
x,1/2-y,1/2+z
loop_
_atom_site_type_symbol
_atom_site_label
_atom_site_fract_x
_atom_site_fract_y
_atom_site_fract_z
Si Si1 0.482687 0.649406 0.928704
Si Si2 0.559617 0.956501 0.571571
Si Si3 0.642914 0.852013 0.573020
Si Si4 0.104145 0.470939 0.928883
Si Si5 0.928926 0.349540 0.930575
Si Si6 0.179877 0.354228 0.070069
Si Si7 0.025080 0.346549 0.573293
Si Si8 0.736296 0.646965 0.428733
O O1 0.484626 0.663797 0.750000
O O2 0.449056 0.566217 0.974856
O O3 0.468645 0.750000 0.000000
O O4 0.528893 0.616924 0.986237
O O5 0.551681 0.942979 0.750000
O O6 0.607637 0.928986 0.521963
O O7 0.634598 0.750000 0.500000
O O8 0.639674 0.831989 0.750000
O O9 0.689611 0.897517 0.534675
O O10 0.113353 0.467902 0.750000
O O11 0.058072 0.428015 0.971991
O O12 0.103360 0.577114 0.991964
O O13 0.140464 0.416114 0.017524
O O14 0.923514 0.350325 0.750000
O O15 0.977525 0.373337 0.982251
O O16 0.914940 0.250000 0.000000
O O17 0.180609 0.346718 0.250000
O O18 0.175166 0.250000 0.000000
O O19 0.223717 0.405087 0.010154
O O20 0.041758 0.250000 0.500000
O O21 0.024372 0.327234 0.750000
O O22 0.734749 0.750000 0.500000
O O23 0.745376 0.651509 0.250000
#
# Coordination Sequence:
#
# PCOD8230694 Si02
#       8
#     8   8   8   8   8   8   8   8
#     4  10  19  30  44  62  89 123 157 193 231 271
#     4   9  18  31  45  64  89 119 156 194 231 272
#     4   9  17  28  44  66  91 118 149 185 225 269
#     4  11  21  33  49  71  95 123 157 191 227 270
#     4  10  20  35  51  69  92 121 155 193 232 269
#     4  11  21  33  48  69  97 126 153 185 225 274
#     4   9  19  32  48  69  95 124 154 187 224 266
#     4   9  16  28  45  65  90 119 148 180 222 273
#
# _framework density 16.456032
#
# number of rings (size 3 to 8) (size 9 to 14) (size 15 to 20)
#    0.000    2.250    0.000    4.500    0.000    5.000 
#    0.000    0.000    0.000    0.000    0.000    0.875 
#    0.000    4.000    0.000    0.000    0.000    0.000 
#
# Total GULP energy -793305.130387 kJ/mol
# GULP energy per Si atom -12395.392662 kJ/mol
# Density = 1.641858 g / cm^3
# Si number density = 16.456032 Si / 1000 Ang^3
#
#
#
# Elastic Constant Matrix: (Units=GPa)
#
#
# Indices 1 2 3 4 5 6 
#
# 1 105.5554 56.5282 47.3732 0.0000 0.0000 0.0000
# 2 56.5282 96.4551 39.8905 0.0000 0.0000 0.0000
# 3 47.3732 39.8905 76.6096 0.0000 0.0000 0.0000
# 4 0.0000 0.0000 0.0000 25.6863 0.0000 0.0000
# 5 0.0000 0.0000 0.0000 0.0000 23.2636 0.0000
# 6 0.0000 0.0000 0.0000 0.0000 0.0000 23.8119
#
#
#
# Elastic Compliance Matrix: (Units=1/GPa)
#
#
# Indices 1 2 3 4 5 6 
#
# 1 0.015911 -0.006698 -0.006351 0.000000 0.000000 0.000000
# 2 -0.006698 0.016033 -0.004206 0.000000 0.000000 0.000000
# 3 -0.006351 -0.004206 0.019171 0.000000 0.000000 0.000000
# 4 0.000000 0.000000 0.000000 0.038931 0.000000 0.000000
# 5 0.000000 0.000000 0.000000 0.000000 0.042986 0.000000
# 6 0.000000 0.000000 0.000000 0.000000 0.000000 0.041996
#
#
# Mechanical properties :
#
#
# Convention : Reuss Voigt Hill
#
# Bulk Modulus (GPa) = 60.22912 62.91155 61.57034
# Shear Modulus (GPa) = 23.24791 23.54091 23.39441
#
# Velocity S-wave (km/s) = 3.76271 3.78634 3.77454
# Velocity P-wave (km/s) = 7.45364 7.57814 7.51615
#
# Compressibility (1/GPa) = 0.01660326
#
# Stress axis : x y z
#
# Youngs Moduli (GPa) = 62.84856 62.37302 52.16267
#
# Poissons Ratio (x) = 0.41779 0.33130
# Poissons Ratio (y) = 0.42097 0.21940
# Poissons Ratio (z) = 0.39917 0.26235
#
# Static dielectric constant tensor:
#      x y z
#    x 3.739110 0.000000 0.000000 
#    y 0.000000 2.948260 0.000000 
#    z 0.000000 0.000000 3.064590 
# 
# 
# High freq. dielectric constant tensor:
#      x y z
#    x 1.628660 0.000000 0.000000 
#    y 0.000000 1.606280 0.000000 
#    z 0.000000 0.000000 1.646220 
# 
# From -- ./inp_files/10345.got.cif
#   From: 2010.03.12/outbox.cif.g09.slc.cpg/sg57_6_cif.got.tgz:10345.got - 2010.04.16 15:48:40.
