data_PCOD8230061
_publ_section_title
;
Structure prediction by ZEFSAII (Michael W. Deem and Ramdas Pophale) SiO2 
 PCOD8230061
Probable space group: P B C M
;
_chemical_formula_sum "Si O2"
_cell_formula_units_Z 64
_cell_length_a 26.617580
_cell_length_b 18.419316
_cell_length_c 9.036881
_cell_angle_alpha 90.000000
_cell_angle_beta 90.000000
_cell_angle_gamma 90.000000
_cell_volume 4430.580483
_symmetry_space_group_name_H-M "P B C M"
_symmetry_group_IT_number 57
_symmetry_cell_setting 'orthorhombic'
loop_
_space_group_symop_operation_xyz
x,y,z
-x,-y,1/2+z
x,1/2-y,-z
-x,1/2+y,1/2-z
-x,-y,-z
x,y,1/2-z
-x,1/2+y,z
x,1/2-y,1/2+z
loop_
_atom_site_type_symbol
_atom_site_label
_atom_site_fract_x
_atom_site_fract_y
_atom_site_fract_z
Si Si1 0.100837 0.412444 0.077468
Si Si2 0.492583 0.174800 0.920332
Si Si3 0.601732 0.579723 0.575892
Si Si4 0.452962 0.964544 0.421786
Si Si5 0.997414 0.672353 0.926734
Si Si6 0.693514 0.824510 0.076682
Si Si7 0.806217 0.825096 0.075062
Si Si8 0.956983 0.453402 0.575092
O O1 0.100543 0.397738 0.250000
O O2 0.154527 0.385532 0.014120
O O3 0.093660 0.498807 0.045891
O O4 0.054554 0.364055 0.015796
O O5 0.484971 0.193412 0.750000
O O6 0.441973 0.134986 0.978248
O O7 0.541404 0.122492 0.944864
O O8 0.502843 0.250000 0.000000
O O9 0.597573 0.566347 0.750000
O O10 0.596321 0.500976 0.495981
O O11 0.655482 0.612115 0.528226
O O12 0.453762 0.984364 0.250000
O O13 0.500000 0.000000 0.500000
O O14 0.001804 0.676951 0.750000
O O15 0.002100 0.750000 0.000000
O O16 0.043833 0.624209 0.992300
O O17 0.689734 0.810146 0.250000
O O18 0.749763 0.848429 0.029030
O O19 0.677358 0.750000 0.000000
O O20 0.809899 0.814660 0.250000
O O21 0.821498 0.750000 0.000000
O O22 0.966719 0.443694 0.750000
O O23 0.000000 0.500000 0.500000
#
# Coordination Sequence:
#
# PCOD8230061 Si02
#       8
#     8   8   8   8   8   8   8   8
#     4   8  15  26  40  56  76 103 134 162 193 231
#     4   9  17  26  37  54  76  98 125 154 183 219
#     4   9  17  28  39  55  77 103 133 161 187 222
#     4   9  17  28  40  56  76 100 128 159 190 225
#     4  10  18  27  39  57  79 104 133 164 196 235
#     4   9  17  27  40  57  79 104 133 166 196 225
#     4   9  16  27  40  56  78 104 132 164 196 226
#     4   9  16  27  40  55  76 102 131 164 198 235
#
# _framework density 14.44506
#
# number of rings (size 3 to 8) (size 9 to 14) (size 15 to 20)
#    0.000    3.000    0.000    3.375    0.000    3.000 
#    0.000    3.125    0.000    0.000    0.000    0.000 
#    0.000    1.000    0.000    4.250    0.000    2.750 
#
# Total GULP energy -792930.190865 kJ/mol
# GULP energy per Si atom -12389.534232 kJ/mol
# Density = 1.441218 g / cm^3
# Si number density = 14.445060 Si / 1000 Ang^3
#
#
#
# Elastic Constant Matrix: (Units=GPa)
#
#
# Indices 1 2 3 4 5 6 
#
# 1 78.9891 55.1996 26.2381 0.0000 0.0000 0.0000
# 2 55.1996 107.9803 40.2492 0.0000 0.0000 0.0000
# 3 26.2381 40.2492 51.3455 0.0000 0.0000 0.0000
# 4 0.0000 0.0000 0.0000 27.5799 0.0000 0.0000
# 5 0.0000 0.0000 0.0000 0.0000 13.5375 0.0000
# 6 0.0000 0.0000 0.0000 0.0000 0.0000 25.8591
#
#
#
# Elastic Compliance Matrix: (Units=1/GPa)
#
#
# Indices 1 2 3 4 5 6 
#
# 1 0.020045 -0.009083 -0.003123 0.000000 0.000000 0.000000
# 2 -0.009083 0.017200 -0.008841 0.000000 0.000000 0.000000
# 3 -0.003123 -0.008841 0.028002 0.000000 0.000000 0.000000
# 4 0.000000 0.000000 0.000000 0.036258 0.000000 0.000000
# 5 0.000000 0.000000 0.000000 0.000000 0.073869 0.000000
# 6 0.000000 0.000000 0.000000 0.000000 0.000000 0.038671
#
#
# Mechanical properties :
#
#
# Convention : Reuss Voigt Hill
#
# Bulk Modulus (GPa) = 43.19197 53.52096 48.35647
# Shear Modulus (GPa) = 18.94969 21.17050 20.06009
#
# Velocity S-wave (km/s) = 3.62587 3.83245 3.73059
# Velocity P-wave (km/s) = 6.89166 7.53096 7.21839
#
# Compressibility (1/GPa) = 0.02315245
#
# Stress axis : x y z
#
# Youngs Moduli (GPa) = 49.88877 58.14114 35.71116
#
# Poissons Ratio (x) = 0.52808 0.11153
# Poissons Ratio (y) = 0.45312 0.31573
# Poissons Ratio (z) = 0.15581 0.51404
#
# Static dielectric constant tensor:
#      x y z
#    x 2.911500 0.000000 0.000000 
#    y 0.000000 3.038200 0.000000 
#    z 0.000000 0.000000 2.878860 
# 
# 
# High freq. dielectric constant tensor:
#      x y z
#    x 1.519840 0.000000 0.000000 
#    y 0.000000 1.542870 0.000000 
#    z 0.000000 0.000000 1.553170 
# 
# From -- ./inp_files/9816.got.cif
#   From: 2010.03.12/outbox.cif.g09.slc.cpg/sg57_5_cif.got.tgz:9816.got - 2010.04.16 15:48:40.
