data_PCOD8230752
_publ_section_title
;
Structure prediction by ZEFSAII (Michael W. Deem and Ramdas Pophale) SiO2 
 PCOD8230752
Probable space group: P B C M
;
_chemical_formula_sum "Si O2"
_cell_formula_units_Z 56
_cell_length_a 14.352666
_cell_length_b 22.550523
_cell_length_c 9.018577
_cell_angle_alpha 90.000000
_cell_angle_beta 90.000000
_cell_angle_gamma 90.000000
_cell_volume 2918.953757
_symmetry_space_group_name_H-M "P B C M"
_symmetry_group_IT_number 57
_symmetry_cell_setting 'orthorhombic'
loop_
_space_group_symop_operation_xyz
x,y,z
-x,-y,1/2+z
x,1/2-y,-z
-x,1/2+y,1/2-z
-x,-y,-z
x,y,1/2-z
-x,1/2+y,z
x,1/2-y,1/2+z
loop_
_atom_site_type_symbol
_atom_site_label
_atom_site_fract_x
_atom_site_fract_y
_atom_site_fract_z
Si Si1 0.497754 0.115859 0.914058
Si Si2 0.269517 0.931299 0.920001
Si Si3 0.318142 0.193107 0.914162
Si Si4 0.782676 0.898847 0.582422
Si Si5 0.350544 0.689227 0.079917
Si Si6 0.602759 0.981448 0.581615
Si Si7 0.098088 0.490688 0.075355
O O1 0.542830 0.109503 0.750000
O O2 0.397472 0.144538 0.899567
O O3 0.556213 0.160019 0.016288
O O4 0.481788 0.048969 0.983236
O O5 0.288506 0.950253 0.750000
O O6 0.268252 0.859732 0.937486
O O7 0.169428 0.956430 0.971040
O O8 0.356345 0.956297 0.016895
O O9 0.283048 0.210934 0.750000
O O10 0.357249 0.250000 0.000000
O O11 0.233635 0.165393 0.009200
O O12 0.818929 0.891024 0.750000
O O13 0.688209 0.936160 0.578761
O O14 0.861859 0.929161 0.483999
O O15 0.370047 0.705083 0.250000
O O16 0.321542 0.750000 0.000000
O O17 0.567606 0.990186 0.750000
O O18 0.084193 0.487341 0.250000
O O19 0.000000 0.500000 0.000000
#
# Coordination Sequence:
#
# PCOD8230752 Si02
#       7
#     8   8   8   8   8   8   8
#     4  10  20  33  50  73 103 140 181 223 263 302
#     4   9  20  37  55  76 105 138 170 209 262 320
#     4  10  19  30  46  69  99 137 176 212 251 295
#     4   9  17  30  48  73 103 132 163 202 249 299
#     4  11  23  38  54  73 100 138 182 223 260 300
#     4   9  17  30  51  77 104 134 171 216 262 307
#     4  10  19  34  57  83 106 127 157 200 254 315
#
# _framework density 19.184954999999999
#
# number of rings (size 3 to 8) (size 9 to 14) (size 15 to 20)
#    0.000    2.286    0.000    3.000    0.000    8.571 
#    0.000    0.000    0.000    0.857    0.000    4.000 
#    0.000    0.000    0.000    0.000    0.000    0.000 
#
# Total GULP energy -694406.439473 kJ/mol
# GULP energy per Si atom -12400.114991 kJ/mol
# Density = 1.914129 g / cm^3
# Si number density = 19.184955 Si / 1000 Ang^3
#
#
#
# Elastic Constant Matrix: (Units=GPa)
#
#
# Indices 1 2 3 4 5 6 
#
# 1 83.5194 24.4986 40.9492 0.0000 0.0000 0.0000
# 2 24.4986 116.9963 53.9783 0.0000 0.0000 0.0000
# 3 40.9492 53.9783 141.2375 0.0000 0.0000 0.0000
# 4 0.0000 0.0000 0.0000 32.0495 0.0000 0.0000
# 5 0.0000 0.0000 0.0000 0.0000 28.4168 0.0000
# 6 0.0000 0.0000 0.0000 0.0000 0.0000 16.3489
#
#
#
# Elastic Compliance Matrix: (Units=1/GPa)
#
#
# Indices 1 2 3 4 5 6 
#
# 1 0.014117 -0.001296 -0.003598 0.000000 0.000000 0.000000
# 2 -0.001296 0.010496 -0.003636 0.000000 0.000000 0.000000
# 3 -0.003598 -0.003636 0.009513 0.000000 0.000000 0.000000
# 4 0.000000 0.000000 0.000000 0.031202 0.000000 0.000000
# 5 0.000000 0.000000 0.000000 0.000000 0.035190 0.000000
# 6 0.000000 0.000000 0.000000 0.000000 0.000000 0.061166
#
#
# Mechanical properties :
#
#
# Convention : Reuss Voigt Hill
#
# Bulk Modulus (GPa) = 58.59178 64.51169 61.55174
# Shear Modulus (GPa) = 27.11018 30.18485 28.64751
#
# Velocity S-wave (km/s) = 3.76319 3.97086 3.86842
# Velocity P-wave (km/s) = 7.03484 7.39749 7.21844
#
# Compressibility (1/GPa) = 0.01706724
#
# Stress axis : x y z
#
# Youngs Moduli (GPa) = 70.83444 95.27395 105.12165
#
# Poissons Ratio (x) = 0.12350 0.37819
# Poissons Ratio (y) = 0.09182 0.38218
# Poissons Ratio (z) = 0.25484 0.34637
#
# Static dielectric constant tensor:
#      x y z
#    x 3.250640 0.000000 0.000000 
#    y 0.000000 3.672760 0.000000 
#    z 0.000000 0.000000 3.827940 
# 
# 
# High freq. dielectric constant tensor:
#      x y z
#    x 1.709500 0.000000 0.000000 
#    y 0.000000 1.752200 0.000000 
#    z 0.000000 0.000000 1.765660 
# 
# From -- ./inp_files/5130.got.cif
#   From: 2010.03.12/outbox.cif.g09.slc.cpg/sg57_3_cif.got.tgz:5130.got - 2010.04.16 15:48:40.
