data_PCOD8230178
_publ_section_title
;
Structure prediction by ZEFSAII (Michael W. Deem and Ramdas Pophale) SiO2 
 PCOD8230178
Probable space group: P B C M
;
_chemical_formula_sum "Si O2"
_cell_formula_units_Z 56
_cell_length_a 11.787610
_cell_length_b 28.463184
_cell_length_c 9.476095
_cell_angle_alpha 90.000000
_cell_angle_beta 90.000000
_cell_angle_gamma 90.000000
_cell_volume 3179.352231
_symmetry_space_group_name_H-M "P B C M"
_symmetry_group_IT_number 57
_symmetry_cell_setting 'orthorhombic'
loop_
_space_group_symop_operation_xyz
x,y,z
-x,-y,1/2+z
x,1/2-y,-z
-x,1/2+y,1/2-z
-x,-y,-z
x,y,1/2-z
-x,1/2+y,z
x,1/2-y,1/2+z
loop_
_atom_site_type_symbol
_atom_site_label
_atom_site_fract_x
_atom_site_fract_y
_atom_site_fract_z
Si Si1 0.174795 0.479971 0.083329
Si Si2 0.548305 0.704105 0.584285
Si Si3 0.429655 0.034346 0.592710
Si Si4 0.819914 0.074056 0.584911
Si Si5 0.190921 0.297247 0.415967
Si Si6 0.409279 0.881659 0.410178
Si Si7 0.055036 0.112845 0.587194
O O1 0.156437 0.489198 0.250000
O O2 0.300980 0.464055 0.043639
O O3 0.099846 0.436670 0.024540
O O4 0.144975 0.527176 0.998614
O O5 0.515902 0.750000 0.500000
O O6 0.531601 0.712508 0.750000
O O7 0.678251 0.688872 0.554445
O O8 0.456857 0.666521 0.524079
O O9 0.438479 0.014544 0.750000
O O10 0.481327 0.085635 0.579293
O O11 0.500000 0.000000 0.500000
O O12 0.805208 0.060655 0.750000
O O13 0.703815 0.096165 0.518218
O O14 0.918963 0.112995 0.565060
O O15 0.157547 0.250000 0.500000
O O16 0.169405 0.288099 0.250000
O O17 0.112898 0.340101 0.476627
O O18 0.373086 0.872416 0.250000
O O19 0.090548 0.112724 0.750000
#
# Coordination Sequence:
#
# PCOD8230178 Si02
#       7
#     8   8   8   8   8   8   8
#     4  10  19  31  48  70  97 128 161 198 238 278
#     4   9  17  31  51  72  93 119 153 195 239 286
#     4  10  18  29  46  68  94 123 156 192 232 280
#     4  10  19  32  49  68  95 130 165 196 227 277
#     4   9  17  32  53  73  93 118 153 197 241 283
#     4   9  17  30  48  68  93 126 158 188 232 284
#     4   9  18  32  50  71  94 127 165 195 232 284
#
# _framework density 17.613651999999998
#
# number of rings (size 3 to 8) (size 9 to 14) (size 15 to 20)
#    0.000    2.571    1.429    1.286    0.000    3.429 
#    0.000    3.571    0.000    3.429    0.000    0.000 
#    0.000    0.000    0.000    0.000    0.000    0.000 
#
# Total GULP energy -694013.286762 kJ/mol
# GULP energy per Si atom -12393.094406 kJ/mol
# Density = 1.757356 g / cm^3
# Si number density = 17.613652 Si / 1000 Ang^3
#
#
#
# Elastic Constant Matrix: (Units=GPa)
#
#
# Indices 1 2 3 4 5 6 
#
# 1 86.3833 52.5190 19.4412 0.0000 0.0000 0.0000
# 2 52.5190 122.3074 31.1170 0.0000 0.0000 0.0000
# 3 19.4412 31.1170 30.6312 0.0000 0.0000 0.0000
# 4 0.0000 0.0000 0.0000 27.2509 0.0000 0.0000
# 5 0.0000 0.0000 0.0000 0.0000 17.2357 0.0000
# 6 0.0000 0.0000 0.0000 0.0000 0.0000 30.9086
#
#
#
# Elastic Compliance Matrix: (Units=1/GPa)
#
#
# Indices 1 2 3 4 5 6 
#
# 1 0.016076 -0.005808 -0.004303 0.000000 0.000000 0.000000
# 2 -0.005808 0.013124 -0.009646 0.000000 0.000000 0.000000
# 3 -0.004303 -0.009646 0.045176 0.000000 0.000000 0.000000
# 4 0.000000 0.000000 0.000000 0.036696 0.000000 0.000000
# 5 0.000000 0.000000 0.000000 0.000000 0.058019 0.000000
# 6 0.000000 0.000000 0.000000 0.000000 0.000000 0.032353
#
#
# Mechanical properties :
#
#
# Convention : Reuss Voigt Hill
#
# Bulk Modulus (GPa) = 28.68419 49.49738 39.09078
# Shear Modulus (GPa) = 19.79569 24.16202 21.97885
#
# Velocity S-wave (km/s) = 3.35607 3.70777 3.53630
# Velocity P-wave (km/s) = 5.59805 6.81856 6.23823
#
# Compressibility (1/GPa) = 0.03486242
#
# Stress axis : x y z
#
# Youngs Moduli (GPa) = 62.20438 76.19423 22.13553
#
# Poissons Ratio (x) = 0.44257 0.09524
# Poissons Ratio (y) = 0.36131 0.21352
# Poissons Ratio (z) = 0.26765 0.73497
#
# Static dielectric constant tensor:
#      x y z
#    x 3.397260 0.000000 0.000000 
#    y 0.000000 3.138250 0.000000 
#    z 0.000000 0.000000 3.000610 
# 
# 
# High freq. dielectric constant tensor:
#      x y z
#    x 1.689620 0.000000 0.000000 
#    y 0.000000 1.678210 0.000000 
#    z 0.000000 0.000000 1.643690 
# 
# From -- ./inp_files/13114.got.cif
#   From: 2010.03.12/outbox.cif.g09.slc.cpg/sg57_7_cif.got.tgz:13114.got - 2010.04.16 15:48:40.
