data_PCOD8230728
_publ_section_title
;
Structure prediction by ZEFSAII (Michael W. Deem and Ramdas Pophale) SiO2 
 PCOD8230728
Probable space group: P B C M
;
_chemical_formula_sum "Si O2"
_cell_formula_units_Z 64
_cell_length_a 17.583405
_cell_length_b 9.100876
_cell_length_c 19.243342
_cell_angle_alpha 90.000000
_cell_angle_beta 90.000000
_cell_angle_gamma 90.000000
_cell_volume 3079.404037
_symmetry_space_group_name_H-M "P B C M"
_symmetry_group_IT_number 57
_symmetry_cell_setting 'orthorhombic'
loop_
_space_group_symop_operation_xyz
x,y,z
-x,-y,1/2+z
x,1/2-y,-z
-x,1/2+y,1/2-z
-x,-y,-z
x,y,1/2-z
-x,1/2+y,z
x,1/2-y,1/2+z
loop_
_atom_site_type_symbol
_atom_site_label
_atom_site_fract_x
_atom_site_fract_y
_atom_site_fract_z
Si Si1 0.870101 0.612838 0.328199
Si Si2 0.996599 0.865892 0.049883
Si Si3 0.270822 0.212428 0.667355
Si Si4 0.433414 0.710060 0.667947
Si Si5 0.138756 0.712372 0.632799
Si Si6 0.280743 0.626515 0.167538
Si Si7 0.967659 0.046486 0.173001
Si Si8 0.419362 0.120877 0.333060
O O1 0.875448 0.670007 0.250000
O O2 0.805858 0.713217 0.365289
O O3 0.846730 0.441322 0.328789
O O4 0.955867 0.624291 0.360017
O O5 0.083082 0.809520 0.066780
O O6 0.949928 0.910062 0.120740
O O7 0.953428 0.750000 0.000000
O O8 0.000000 0.000000 0.000000
O O9 0.269741 0.227548 0.750000
O O10 0.275810 0.043262 0.645193
O O11 0.343211 0.301431 0.638111
O O12 0.440593 0.698289 0.750000
O O13 0.363146 0.813153 0.647096
O O14 0.509262 0.786157 0.637853
O O15 0.423590 0.545559 0.637566
O O16 0.098195 0.834946 0.681173
O O17 0.221490 0.782580 0.619414
O O18 0.264244 0.648027 0.250000
O O19 0.984255 0.980288 0.250000
O O20 0.419796 0.119737 0.250000
#
# Coordination Sequence:
#
# PCOD8230728 Si02
#       8
#     8   8   8   8   8   8   8   8
#     4   9  18  31  46  70 103 138 176 232 288 335
#     4  11  23  45  63  83 113 153 195 240 301 362
#     4   9  17  28  42  64 102 141 183 231 289 350
#     4   9  16  25  40  61  94 137 187 234 282 343
#     4  11  21  35  57  75 105 143 191 236 291 352
#     4  10  19  30  45  70 104 140 179 237 296 344
#     4  10  21  36  61  89 115 147 198 247 290 350
#     4   9  15  24  39  60  88 137 190 227 270 345
#
# _framework density 20.783242000000001
#
# number of rings (size 3 to 8) (size 9 to 14) (size 15 to 20)
#    0.000    2.250    1.250    2.625    0.000    8.000 
#    0.000    3.750    0.000    0.000    0.000    0.000 
#    0.000    0.000    0.000   18.000    0.000    7.750 
#
# Total GULP energy -792897.367933 kJ/mol
# GULP energy per Si atom -12389.021374 kJ/mol
# Density = 2.073594 g / cm^3
# Si number density = 20.783242 Si / 1000 Ang^3
#
#
#
# Elastic Constant Matrix: (Units=GPa)
#
#
# Indices 1 2 3 4 5 6 
#
# 1 111.1903 16.3101 -8.9385 0.0000 0.0000 0.0000
# 2 16.3101 88.0999 -2.2944 0.0000 0.0000 0.0000
# 3 -8.9385 -2.2944 48.6961 0.0000 0.0000 0.0000
# 4 0.0000 0.0000 0.0000 16.4039 0.0000 0.0000
# 5 0.0000 0.0000 0.0000 0.0000 12.0112 0.0000
# 6 0.0000 0.0000 0.0000 0.0000 0.0000 46.6782
#
#
#
# Elastic Compliance Matrix: (Units=1/GPa)
#
#
# Indices 1 2 3 4 5 6 
#
# 1 0.009374 -0.001693 0.001641 0.000000 0.000000 0.000000
# 2 -0.001693 0.011670 0.000239 0.000000 0.000000 0.000000
# 3 0.001641 0.000239 0.020848 0.000000 0.000000 0.000000
# 4 0.000000 0.000000 0.000000 0.060961 0.000000 0.000000
# 5 0.000000 0.000000 0.000000 0.000000 0.083255 0.000000
# 6 0.000000 0.000000 0.000000 0.000000 0.000000 0.021423
#
#
# Mechanical properties :
#
#
# Convention : Reuss Voigt Hill
#
# Bulk Modulus (GPa) = 23.65919 28.68230 26.17075
# Shear Modulus (GPa) = 22.59929 31.21262 26.90595
#
# Velocity S-wave (km/s) = 3.30112 3.87953 3.60196
# Velocity P-wave (km/s) = 5.09297 5.82223 5.46977
#
# Compressibility (1/GPa) = 0.04226688
#
# Stress axis : x y z
#
# Youngs Moduli (GPa) = 106.68047 85.68732 47.96630
#
# Poissons Ratio (x) = 0.14504 -0.07871
# Poissons Ratio (y) = 0.18057 -0.01147
# Poissons Ratio (z) = -0.17505 -0.02049
#
# Static dielectric constant tensor:
#      x y z
#    x 3.932740 0.000000 0.000000 
#    y 0.000000 4.143110 0.000000 
#    z 0.000000 0.000000 2.883910 
# 
# 
# High freq. dielectric constant tensor:
#      x y z
#    x 1.810920 0.000000 0.000000 
#    y 0.000000 1.840760 0.000000 
#    z 0.000000 0.000000 1.731360 
# 
# From -- ./inp_files/25628.got.cif
#   From: 2010.03.12/outbox.cif.g09.slc.cpg/sg57_13_cif.got.tgz:25628.got - 2010.04.16 15:48:40.
