data_PCOD8230858
_publ_section_title
;
Structure prediction by ZEFSAII (Michael W. Deem and Ramdas Pophale) SiO2 
 PCOD8230858
Probable space group: P B C M
;
_chemical_formula_sum "Si O2"
_cell_formula_units_Z 56
_cell_length_a 15.348674
_cell_length_b 20.739427
_cell_length_c 9.097554
_cell_angle_alpha 90.000000
_cell_angle_beta 90.000000
_cell_angle_gamma 90.000000
_cell_volume 2895.957989
_symmetry_space_group_name_H-M "P B C M"
_symmetry_group_IT_number 57
_symmetry_cell_setting 'orthorhombic'
loop_
_space_group_symop_operation_xyz
x,y,z
-x,-y,1/2+z
x,1/2-y,-z
-x,1/2+y,1/2-z
-x,-y,-z
x,y,1/2-z
-x,1/2+y,z
x,1/2-y,1/2+z
loop_
_atom_site_type_symbol
_atom_site_label
_atom_site_fract_x
_atom_site_fract_y
_atom_site_fract_z
Si Si1 0.552296 0.442215 0.075335
Si Si2 0.551118 0.815153 0.076269
Si Si3 0.156936 0.311150 0.085479
Si Si4 0.951305 0.312368 0.413651
Si Si5 0.923904 0.457034 0.073407
Si Si6 0.732915 0.018330 0.585479
Si Si7 0.289456 0.373660 0.584505
O O1 0.548912 0.454147 0.250000
O O2 0.512811 0.373308 0.032031
O O3 0.653801 0.438955 0.018577
O O4 0.500000 0.500000 0.000000
O O5 0.556314 0.804951 0.250000
O O6 0.515996 0.750000 0.000000
O O7 0.646017 0.831865 0.014380
O O8 0.194196 0.313248 0.250000
O O9 0.054392 0.310006 0.086409
O O10 0.195807 0.250000 0.000000
O O11 0.193587 0.370736 0.990607
O O12 0.913375 0.250000 0.500000
O O13 0.913179 0.306468 0.250000
O O14 0.927668 0.382303 0.479921
O O15 0.935234 0.463208 0.250000
O O16 0.828707 0.479287 0.010811
O O17 0.000000 0.500000 0.000000
O O18 0.752014 0.042201 0.750000
O O19 0.687752 0.948472 0.583433
O O20 0.288499 0.346174 0.750000
#
# Coordination Sequence:
#
# PCOD8230858 Si02
#       7
#     8   8   8   8   8   8   8
#     4  10  20  38  61  84 109 145 188 230 277 332
#     4  11  23  37  56  81 112 148 185 230 282 333
#     4  10  19  31  46  69 102 138 179 223 272 330
#     4   9  19  34  53  75 104 145 188 232 280 332
#     4  10  20  36  57  84 116 149 187 234 285 337
#     4   9  19  35  57  82 109 144 183 225 282 341
#     4  11  20  32  52  77 107 141 179 224 278 340
#
# _framework density 19.337298000000001
#
# number of rings (size 3 to 8) (size 9 to 14) (size 15 to 20)
#    0.000    2.000    1.429    2.571    0.000    1.714 
#    0.000    2.143    0.000    0.000    0.000    0.000 
#    0.000    0.000    0.000    0.000    0.000    0.000 
#
# Total GULP energy -693857.629726 kJ/mol
# GULP energy per Si atom -12390.314817 kJ/mol
# Density = 1.929329 g / cm^3
# Si number density = 19.337298 Si / 1000 Ang^3
#
#
#
# Elastic Constant Matrix: (Units=GPa)
#
#
# Indices 1 2 3 4 5 6 
#
# 1 96.6737 50.7506 34.7472 0.0000 0.0000 0.0000
# 2 50.7506 133.3139 48.2164 0.0000 0.0000 0.0000
# 3 34.7472 48.2164 81.2732 0.0000 0.0000 0.0000
# 4 0.0000 0.0000 0.0000 28.1624 0.0000 0.0000
# 5 0.0000 0.0000 0.0000 0.0000 19.8132 0.0000
# 6 0.0000 0.0000 0.0000 0.0000 0.0000 33.1565
#
#
#
# Elastic Compliance Matrix: (Units=1/GPa)
#
#
# Indices 1 2 3 4 5 6 
#
# 1 0.013672 -0.003935 -0.003511 0.000000 0.000000 0.000000
# 2 -0.003935 0.010683 -0.004655 0.000000 0.000000 0.000000
# 3 -0.003511 -0.004655 0.016567 0.000000 0.000000 0.000000
# 4 0.000000 0.000000 0.000000 0.035508 0.000000 0.000000
# 5 0.000000 0.000000 0.000000 0.000000 0.050471 0.000000
# 6 0.000000 0.000000 0.000000 0.000000 0.000000 0.030160
#
#
# Mechanical properties :
#
#
# Convention : Reuss Voigt Hill
#
# Bulk Modulus (GPa) = 59.81050 64.29882 62.05466
# Shear Modulus (GPa) = 26.76140 28.06284 27.41212
#
# Velocity S-wave (km/s) = 3.72415 3.81363 3.76916
# Velocity P-wave (km/s) = 7.03489 7.26052 7.14859
#
# Compressibility (1/GPa) = 0.01671947
#
# Stress axis : x y z
#
# Youngs Moduli (GPa) = 73.14440 93.60864 60.36088
#
# Poissons Ratio (x) = 0.36833 0.21191
# Poissons Ratio (y) = 0.28781 0.28100
# Poissons Ratio (z) = 0.25679 0.43579
#
# Static dielectric constant tensor:
#      x y z
#    x 3.534930 0.000000 0.000000 
#    y 0.000000 3.708120 0.000000 
#    z 0.000000 0.000000 3.564550 
# 
# 
# High freq. dielectric constant tensor:
#      x y z
#    x 1.745360 0.000000 0.000000 
#    y 0.000000 1.756020 0.000000 
#    z 0.000000 0.000000 1.737860 
# 
# From -- ./inp_files/5268.got.cif
#   From: 2010.03.12/outbox.cif.g09.slc.cpg/sg57_3_cif.got.tgz:5268.got - 2010.04.16 15:48:40.
