data_PCOD8230232
_publ_section_title
;
Structure prediction by ZEFSAII (Michael W. Deem and Ramdas Pophale) SiO2 
 PCOD8230232
Probable space group: P B C M
;
_chemical_formula_sum "Si O2"
_cell_formula_units_Z 56
_cell_length_a 21.023628
_cell_length_b 18.348275
_cell_length_c 8.706837
_cell_angle_alpha 90.000000
_cell_angle_beta 90.000000
_cell_angle_gamma 90.000000
_cell_volume 3358.638934
_symmetry_space_group_name_H-M "P B C M"
_symmetry_group_IT_number 57
_symmetry_cell_setting 'orthorhombic'
loop_
_space_group_symop_operation_xyz
x,y,z
-x,-y,1/2+z
x,1/2-y,-z
-x,1/2+y,1/2-z
-x,-y,-z
x,y,1/2-z
-x,1/2+y,z
x,1/2-y,1/2+z
loop_
_atom_site_type_symbol
_atom_site_label
_atom_site_fract_x
_atom_site_fract_y
_atom_site_fract_z
Si Si1 0.435807 0.529052 0.928977
Si Si2 0.877762 0.912744 0.431385
Si Si3 0.505490 0.326299 0.071555
Si Si4 0.939284 0.458881 0.066581
Si Si5 0.997143 0.670382 0.066870
Si Si6 0.623556 0.900629 0.068024
Si Si7 0.248274 0.172025 0.570088
O O1 0.435092 0.512611 0.750000
O O2 0.436759 0.616369 0.960943
O O3 0.500000 0.500000 0.000000
O O4 0.377914 0.484467 0.006454
O O5 0.891037 0.914466 0.250000
O O6 0.808712 0.882082 0.472522
O O7 0.930001 0.861366 0.510399
O O8 0.879495 0.994933 0.501597
O O9 0.495877 0.313885 0.250000
O O10 0.437965 0.356138 0.005810
O O11 0.525461 0.250000 0.000000
O O12 0.938909 0.457514 0.250000
O O13 0.943430 0.377201 0.998703
O O14 0.000000 0.500000 0.000000
O O15 0.998446 0.671321 0.250000
O O16 0.006528 0.750000 0.000000
O O17 0.624482 0.904809 0.250000
O O18 0.686479 0.861501 0.002630
O O19 0.233615 0.250000 0.500000
O O20 0.254623 0.182571 0.750000
#
# Coordination Sequence:
#
# PCOD8230232 Si02
#       7
#     8   8   8   8   8   8   8
#     4   9  17  29  44  64  87 115 148 185 224 269
#     4  10  19  32  47  66  93 126 158 190 227 271
#     4   9  17  27  42  64  90 114 144 181 222 266
#     4  10  18  30  47  67  90 119 153 190 231 276
#     4  11  20  31  47  69  95 122 152 190 232 276
#     4   9  18  32  45  63  90 121 154 188 221 263
#     4  10  21  33  47  67  94 125 159 192 224 263
#
# _framework density 16.673421000000001
#
# number of rings (size 3 to 8) (size 9 to 14) (size 15 to 20)
#    0.000    2.286    0.000    6.857    0.000    5.714 
#    0.000    0.000    0.000    0.000    0.000    1.000 
#    0.000    2.286    0.000    0.000    0.000    0.000 
#
# Total GULP energy -694044.182305 kJ/mol
# GULP energy per Si atom -12393.646113 kJ/mol
# Density = 1.663547 g / cm^3
# Si number density = 16.673421 Si / 1000 Ang^3
#
#
#
# Elastic Constant Matrix: (Units=GPa)
#
#
# Indices 1 2 3 4 5 6 
#
# 1 47.9312 35.3113 23.3541 0.0000 0.0000 0.0000
# 2 35.3113 124.9347 46.6372 0.0000 0.0000 0.0000
# 3 23.3541 46.6372 82.7864 0.0000 0.0000 0.0000
# 4 0.0000 0.0000 0.0000 33.3527 0.0000 0.0000
# 5 0.0000 0.0000 0.0000 0.0000 18.3590 0.0000
# 6 0.0000 0.0000 0.0000 0.0000 0.0000 19.7198
#
#
#
# Elastic Compliance Matrix: (Units=1/GPa)
#
#
# Indices 1 2 3 4 5 6 
#
# 1 0.027497 -0.006174 -0.004279 0.000000 0.000000 0.000000
# 2 -0.006174 0.011522 -0.004749 0.000000 0.000000 0.000000
# 3 -0.004279 -0.004749 0.015962 0.000000 0.000000 0.000000
# 4 0.000000 0.000000 0.000000 0.029983 0.000000 0.000000
# 5 0.000000 0.000000 0.000000 0.000000 0.054469 0.000000
# 6 0.000000 0.000000 0.000000 0.000000 0.000000 0.050711
#
#
# Mechanical properties :
#
#
# Convention : Reuss Voigt Hill
#
# Bulk Modulus (GPa) = 40.68959 51.80639 46.24799
# Shear Modulus (GPa) = 21.85898 24.30960 23.08429
#
# Velocity S-wave (km/s) = 3.62471 3.82250 3.72492
# Velocity P-wave (km/s) = 6.47880 7.11482 6.80425
#
# Compressibility (1/GPa) = 0.02457631
#
# Stress axis : x y z
#
# Youngs Moduli (GPa) = 36.36800 86.78959 62.65028
#
# Poissons Ratio (x) = 0.53588 0.26805
# Poissons Ratio (y) = 0.22455 0.29753
# Poissons Ratio (z) = 0.15560 0.41217
#
# Static dielectric constant tensor:
#      x y z
#    x 3.132800 0.000000 0.000000 
#    y 0.000000 4.660790 0.000000 
#    z 0.000000 0.000000 3.221960 
# 
# 
# High freq. dielectric constant tensor:
#      x y z
#    x 1.598920 0.000000 0.000000 
#    y 0.000000 1.650560 0.000000 
#    z 0.000000 0.000000 1.652660 
# 
# From -- ./inp_files/8361.got.cif
#   From: 2010.03.12/outbox.cif.g09.slc.cpg/sg57_5_cif.got.tgz:8361.got - 2010.04.16 15:48:40.
