data_PCOD8230034
_publ_section_title
;
Structure prediction by ZEFSAII (Michael W. Deem and Ramdas Pophale) SiO2 
 PCOD8230034
Probable space group: P B C M
;
_chemical_formula_sum "Si O2"
_cell_formula_units_Z 40
_cell_length_a 14.919929
_cell_length_b 7.764543
_cell_length_c 14.731003
_cell_angle_alpha 90.000000
_cell_angle_beta 90.000000
_cell_angle_gamma 90.000000
_cell_volume 1706.534112
_symmetry_space_group_name_H-M "P B C M"
_symmetry_group_IT_number 57
_symmetry_cell_setting 'orthorhombic'
loop_
_space_group_symop_operation_xyz
x,y,z
-x,-y,1/2+z
x,1/2-y,-z
-x,1/2+y,1/2-z
-x,-y,-z
x,y,1/2-z
-x,1/2+y,z
x,1/2-y,1/2+z
loop_
_atom_site_type_symbol
_atom_site_label
_atom_site_fract_x
_atom_site_fract_y
_atom_site_fract_z
Si Si1 0.924863 0.090151 0.059516
Si Si2 0.850596 0.550970 0.250000
Si Si3 0.430537 0.845060 0.250000
Si Si4 0.626498 0.546622 0.750000
Si Si5 0.736208 0.474002 0.914850
Si Si6 0.291676 0.577399 0.886925
Si Si7 0.984312 0.265545 0.750000
O O1 0.839190 0.964895 0.073759
O O2 0.959167 0.134283 0.158663
O O3 0.889435 0.250000 0.000000
O O4 0.000000 0.000000 0.000000
O O5 0.787827 0.529865 0.338394
O O6 0.904896 0.734390 0.250000
O O7 0.934988 0.417095 0.250000
O O8 0.402469 0.648771 0.250000
O O9 0.387616 0.941034 0.162963
O O10 0.537520 0.839532 0.250000
O O11 0.684932 0.589925 0.840018
O O12 0.738880 0.275820 0.882452
O O13 0.688676 0.493494 0.012480
#
# Coordination Sequence:
#
# PCOD8230034 Si02
#       7
#     8   4   4   4   8   8   4
#     4  12  23  37  60  88 123 160 210 251 292 355
#     4  11  20  35  56  85 113 155 198 249 292 349
#     4   9  20  35  60  87 107 143 184 243 297 358
#     4  10  21  36  63  85 113 143 197 243 302 353
#     4  10  17  34  58  82 110 152 193 239 278 355
#     4   9  17  34  58  80 109 149 197 228 286 361
#     4  12  21  34  55  83 117 155 201 253 297 346
#
# _framework density 23.439321
#
# number of rings (size 3 to 8) (size 9 to 14) (size 15 to 20)
#    0.000    1.600    4.000    3.600    0.000    0.800 
#    0.000    0.000   22.000    0.000    0.000    0.000 
#    0.000    0.000    0.000    0.000    0.000    0.000 
#
# Total GULP energy -495725.201073 kJ/mol
# GULP energy per Si atom -12393.130027 kJ/mol
# Density = 2.338597 g / cm^3
# Si number density = 23.439321 Si / 1000 Ang^3
#
#
#
# Elastic Constant Matrix: (Units=GPa)
#
#
# Indices 1 2 3 4 5 6 
#
# 1 168.0033 16.8446 63.3956 0.0000 0.0000 0.0000
# 2 16.8446 10.6665 11.2629 0.0000 0.0000 0.0000
# 3 63.3956 11.2629 190.0382 0.0000 0.0000 0.0000
# 4 0.0000 0.0000 0.0000 18.8320 0.0000 0.0000
# 5 0.0000 0.0000 0.0000 0.0000 34.6839 0.0000
# 6 0.0000 0.0000 0.0000 0.0000 0.0000 29.1423
#
#
#
# Elastic Compliance Matrix: (Units=1/GPa)
#
#
# Indices 1 2 3 4 5 6 
#
# 1 0.007709 -0.010090 -0.001974 0.000000 0.000000 0.000000
# 2 -0.010090 0.113216 -0.003344 0.000000 0.000000 0.000000
# 3 -0.001974 -0.003344 0.006119 0.000000 0.000000 0.000000
# 4 0.000000 0.000000 0.000000 0.053101 0.000000 0.000000
# 5 0.000000 0.000000 0.000000 0.000000 0.028832 0.000000
# 6 0.000000 0.000000 0.000000 0.000000 0.000000 0.034314
#
#
# Mechanical properties :
#
#
# Convention : Reuss Voigt Hill
#
# Bulk Modulus (GPa) = 10.39194 61.30158 35.84676
# Shear Modulus (GPa) = 16.33023 35.01196 25.67110
#
# Velocity S-wave (km/s) = 2.64238 3.86907 3.31299
# Velocity P-wave (km/s) = 3.70846 6.79483 5.47368
#
# Compressibility (1/GPa) = 0.09622840
#
# Stress axis : x y z
#
# Youngs Moduli (GPa) = 129.72523 8.83271 163.43442
#
# Poissons Ratio (x) = 0.08912 0.32255
# Poissons Ratio (y) = 1.30887 0.54654
# Poissons Ratio (z) = 0.25602 0.02954
#
# Static dielectric constant tensor:
#      x y z
#    x 4.629210 0.000000 0.000000 
#    y 0.000000 3.876930 0.000000 
#    z 0.000000 0.000000 5.100580 
# 
# 
# High freq. dielectric constant tensor:
#      x y z
#    x 1.928340 0.000000 0.000000 
#    y 0.000000 1.882290 0.000000 
#    z 0.000000 0.000000 1.951060 
# 
# From -- ./inp_files/18308.got.cif
#   From: 2010.03.12/outbox.cif.g09.slc.cpg/sg57_10_cif.got.tgz:18308.got - 2010.04.16 15:48:40.
