data_PCOD8230607
_publ_section_title
;
Structure prediction by ZEFSAII (Michael W. Deem and Ramdas Pophale) SiO2 
 PCOD8230607
Probable space group: P B C M
;
_chemical_formula_sum "Si O2"
_cell_formula_units_Z 36
_cell_length_a 8.988027
_cell_length_b 14.655441
_cell_length_c 13.704037
_cell_angle_alpha 90.000000
_cell_angle_beta 90.000000
_cell_angle_gamma 90.000000
_cell_volume 1805.143710
_symmetry_space_group_name_H-M "P B C M"
_symmetry_group_IT_number 57
_symmetry_cell_setting 'orthorhombic'
loop_
_space_group_symop_operation_xyz
x,y,z
-x,-y,1/2+z
x,1/2-y,-z
-x,1/2+y,1/2-z
-x,-y,-z
x,y,1/2-z
-x,1/2+y,z
x,1/2-y,1/2+z
loop_
_atom_site_type_symbol
_atom_site_label
_atom_site_fract_x
_atom_site_fract_y
_atom_site_fract_z
Si Si1 0.841337 0.033554 0.037014
Si Si2 0.661312 0.613476 0.642549
Si Si3 0.683279 0.091777 0.855792
Si Si4 0.303461 0.697019 0.135650
Si Si5 0.555691 0.750000 0.000000
O O1 0.827662 0.133793 0.088801
O O2 0.776324 0.965343 0.116768
O O3 0.746108 0.027178 0.938632
O O4 0.000000 0.000000 0.000000
O O5 0.703548 0.650081 0.750000
O O6 0.492804 0.578475 0.642227
O O7 0.671904 0.694124 0.564949
O O8 0.744411 0.060589 0.750000
O O9 0.736668 0.196210 0.874191
O O10 0.332214 0.671982 0.250000
O O11 0.453516 0.684540 0.069919
#
# Coordination Sequence:
#
# PCOD8230607 Si02
#       5
#     8   8   8   8   4
#     4  12  23  37  57  86 131 161 196 242 306 363
#     4  10  21  39  63  90 118 152 202 259 301 347
#     4   9  19  38  63  86 113 155 208 252 293 355
#     4  10  19  36  63  88 115 157 201 243 300 363
#     4  10  18  38  66  90 120 154 208 254 304 350
#
# _framework density 19.943010000000001
#
# number of rings (size 3 to 8) (size 9 to 14) (size 15 to 20)
#    0.000    1.778    4.444    3.333    0.000    1.778 
#    4.000    1.111    0.000    0.000    0.000    0.000 
#    0.000    0.000    0.000    0.000    0.000    0.000 
#
# Total GULP energy -446001.427853 kJ/mol
# GULP energy per Si atom -12388.928551 kJ/mol
# Density = 1.989762 g / cm^3
# Si number density = 19.943010 Si / 1000 Ang^3
#
#
#
# Elastic Constant Matrix: (Units=GPa)
#
#
# Indices 1 2 3 4 5 6 
#
# 1 65.5576 37.6148 35.8158 0.0000 0.0000 0.0000
# 2 37.6148 47.0597 32.7684 0.0000 0.0000 0.0000
# 3 35.8158 32.7684 162.9685 0.0000 0.0000 0.0000
# 4 0.0000 0.0000 0.0000 40.9689 0.0000 0.0000
# 5 0.0000 0.0000 0.0000 0.0000 5.0690 0.0000
# 6 0.0000 0.0000 0.0000 0.0000 0.0000 21.1100
#
#
#
# Elastic Compliance Matrix: (Units=1/GPa)
#
#
# Indices 1 2 3 4 5 6 
#
# 1 0.028710 -0.021575 -0.001971 0.000000 0.000000 0.000000
# 2 -0.021575 0.040922 -0.003487 0.000000 0.000000 0.000000
# 3 -0.001971 -0.003487 0.007271 0.000000 0.000000 0.000000
# 4 0.000000 0.000000 0.000000 0.024409 0.000000 0.000000
# 5 0.000000 0.000000 0.000000 0.000000 0.197276 0.000000
# 6 0.000000 0.000000 0.000000 0.000000 0.000000 0.047371
#
#
# Mechanical properties :
#
#
# Convention : Reuss Voigt Hill
#
# Bulk Modulus (GPa) = 43.79004 54.22041 49.00523
# Shear Modulus (GPa) = 12.26582 24.72205 18.49394
#
# Velocity S-wave (km/s) = 2.48270 3.52466 3.04853
# Velocity P-wave (km/s) = 5.49760 6.61899 6.08419
#
# Compressibility (1/GPa) = 0.02283624
#
# Stress axis : x y z
#
# Youngs Moduli (GPa) = 34.83126 24.43653 137.54177
#
# Poissons Ratio (x) = 0.52722 0.27116
# Poissons Ratio (y) = 0.75148 0.47958
# Poissons Ratio (z) = 0.06867 0.08520
#
# Static dielectric constant tensor:
#      x y z
#    x 3.186360 0.000000 0.000000 
#    y 0.000000 3.493960 0.000000 
#    z 0.000000 0.000000 4.381700 
# 
# 
# High freq. dielectric constant tensor:
#      x y z
#    x 1.723820 0.000000 0.000000 
#    y 0.000000 1.757440 0.000000 
#    z 0.000000 0.000000 1.818750 
# 
# From -- ./inp_files/15785.got.cif
#   From: 2010.03.12/outbox.cif.g09.slc.cpg/sg57_8_cif.got.tgz:15785.got - 2010.04.16 15:48:40.
