data_PCOD8230345
_publ_section_title
;
Structure prediction by ZEFSAII (Michael W. Deem and Ramdas Pophale) SiO2 
 PCOD8230345
Probable space group: P B C M
;
_chemical_formula_sum "Si O2"
_cell_formula_units_Z 48
_cell_length_a 15.640206
_cell_length_b 18.210969
_cell_length_c 8.785431
_cell_angle_alpha 90.000000
_cell_angle_beta 90.000000
_cell_angle_gamma 90.000000
_cell_volume 2502.295507
_symmetry_space_group_name_H-M "P B C M"
_symmetry_group_IT_number 57
_symmetry_cell_setting 'orthorhombic'
loop_
_space_group_symop_operation_xyz
x,y,z
-x,-y,1/2+z
x,1/2-y,-z
-x,1/2+y,1/2-z
-x,-y,-z
x,y,1/2-z
-x,1/2+y,z
x,1/2-y,1/2+z
loop_
_atom_site_type_symbol
_atom_site_label
_atom_site_fract_x
_atom_site_fract_y
_atom_site_fract_z
Si Si1 0.996612 0.329778 0.928552
Si Si2 0.333456 0.089789 0.569679
Si Si3 0.835596 0.830756 0.069252
Si Si4 0.190825 0.829009 0.572513
Si Si5 0.497942 0.829064 0.430387
Si Si6 0.349544 0.575770 0.431023
O O1 0.015130 0.325431 0.750000
O O2 0.903074 0.364439 0.963743
O O3 0.993341 0.250000 0.000000
O O4 0.076776 0.370490 0.009819
O O5 0.332138 0.087685 0.750000
O O6 0.243986 0.121655 0.508424
O O7 0.410078 0.141887 0.512172
O O8 0.346464 0.007508 0.508211
O O9 0.837012 0.825767 0.250000
O O10 0.827069 0.750000 0.000000
O O11 0.206120 0.750000 0.500000
O O12 0.199718 0.815277 0.750000
O O13 0.261829 0.885798 0.514711
O O14 0.478998 0.750000 0.500000
O O15 0.493737 0.823083 0.250000
O O16 0.428077 0.886079 0.487057
O O17 0.361574 0.580377 0.250000
#
# Coordination Sequence:
#
# PCOD8230345 Si02
#       6
#     8   8   8   8   8   8
#     4   9  16  28  46  72 100 129 165 209 253 296
#     4   9  20  36  54  75 104 137 170 205 253 308
#     4  10  18  31  51  75 100 133 172 212 253 300
#     4   9  18  31  51  74 100 132 168 207 252 299
#     4  11  22  37  56  80 104 132 169 211 253 301
#     4  10  20  37  56  76 103 137 170 208 254 304
#
# _framework density 19.182386000000001
#
# number of rings (size 3 to 8) (size 9 to 14) (size 15 to 20)
#    0.000    2.333    0.000    4.000    0.000    2.667 
#    0.000    5.833    0.000    0.000    0.000    0.000 
#    0.000    0.000    0.000    0.000    0.000    0.000 
#
# Total GULP energy -594986.632786 kJ/mol
# GULP energy per Si atom -12395.554850 kJ/mol
# Density = 1.913873 g / cm^3
# Si number density = 19.182386 Si / 1000 Ang^3
#
#
#
# Elastic Constant Matrix: (Units=GPa)
#
#
# Indices 1 2 3 4 5 6 
#
# 1 125.6210 18.8490 31.0904 0.0000 0.0000 0.0000
# 2 18.8490 68.8723 15.7591 0.0000 0.0000 0.0000
# 3 31.0904 15.7591 55.7054 0.0000 0.0000 0.0000
# 4 0.0000 0.0000 0.0000 16.1150 0.0000 0.0000
# 5 0.0000 0.0000 0.0000 0.0000 -36.9748 0.0000
# 6 0.0000 0.0000 0.0000 0.0000 0.0000 36.0302
#
#
#
# Elastic Compliance Matrix: (Units=1/GPa)
#
#
# Indices 1 2 3 4 5 6 
#
# 1 0.009372 -0.001463 -0.004817 0.000000 0.000000 0.000000
# 2 -0.001463 0.015753 -0.003640 0.000000 0.000000 0.000000
# 3 -0.004817 -0.003640 0.021670 0.000000 0.000000 0.000000
# 4 0.000000 0.000000 0.000000 0.062054 0.000000 0.000000
# 5 0.000000 0.000000 0.000000 0.000000 -0.027045 0.000000
# 6 0.000000 0.000000 0.000000 0.000000 0.000000 0.027755
#
#
# Mechanical properties :
#
#
# Convention : Reuss Voigt Hill
#
# Bulk Modulus (GPa) = 37.09865 42.39951 39.74908
# Shear Modulus (GPa) = 36.13172 15.33408 25.73290
#
# Velocity S-wave (km/s) = 4.34474 2.83040 3.66660
# Velocity P-wave (km/s) = 6.67465 5.73000 6.22029
#
# Compressibility (1/GPa) = 0.02695516
#
# Stress axis : x y z
#
# Youngs Moduli (GPa) = 106.69963 63.48055 46.14716
#
# Poissons Ratio (x) = 0.09286 0.22229
# Poissons Ratio (y) = 0.15608 0.16798
# Poissons Ratio (z) = 0.51397 0.23107
#
# Static dielectric constant tensor:
#      x y z
#    x 4.478660 0.000000 0.000000 
#    y 0.000000 0.918740 0.000000 
#    z 0.000000 0.000000 3.393470 
# 
# 
# High freq. dielectric constant tensor:
#      x y z
#    x 1.774760 0.000000 0.000000 
#    y 0.000000 1.721220 0.000000 
#    z 0.000000 0.000000 1.733980 
# 
# From -- ./inp_files/4681.got.cif
#   From: 2010.03.12/outbox.cif.g09.slc.cpg/sg57_3_cif.got.tgz:4681.got - 2010.04.16 15:48:40.
