data_PCOD8230921
_publ_section_title
;
Structure prediction by ZEFSAII (Michael W. Deem and Ramdas Pophale) SiO2 
 PCOD8230921
Probable space group: P B C M
;
_chemical_formula_sum "Si O2"
_cell_formula_units_Z 64
_cell_length_a 23.610437
_cell_length_b 15.178788
_cell_length_c 9.103113
_cell_angle_alpha 90.000000
_cell_angle_beta 90.000000
_cell_angle_gamma 90.000000
_cell_volume 3262.353772
_symmetry_space_group_name_H-M "P B C M"
_symmetry_group_IT_number 57
_symmetry_cell_setting 'orthorhombic'
loop_
_space_group_symop_operation_xyz
x,y,z
-x,-y,1/2+z
x,1/2-y,-z
-x,1/2+y,1/2-z
-x,-y,-z
x,y,1/2-z
-x,1/2+y,z
x,1/2-y,1/2+z
loop_
_atom_site_type_symbol
_atom_site_label
_atom_site_fract_x
_atom_site_fract_y
_atom_site_fract_z
Si Si1 0.468514 0.922948 0.415958
Si Si2 0.947536 0.338682 0.576862
Si Si3 0.256521 0.981216 0.077895
Si Si4 0.350296 0.655091 0.573703
Si Si5 0.684350 0.843930 0.576219
Si Si6 0.870844 0.479550 0.423037
Si Si7 0.582264 0.837743 0.082697
Si Si8 0.922648 0.663560 0.420069
O O1 0.458863 0.954947 0.250000
O O2 0.410054 0.887202 0.482895
O O3 0.515231 0.846866 0.428151
O O4 0.500000 0.000000 0.500000
O O5 0.925164 0.250000 0.500000
O O6 0.938532 0.329981 0.750000
O O7 0.912155 0.419792 0.516762
O O8 0.012650 0.356000 0.533373
O O9 0.261968 0.970524 0.250000
O O10 0.300802 0.909173 0.013480
O O11 0.193149 0.958177 0.026022
O O12 0.268074 0.083333 0.037390
O O13 0.341997 0.750000 0.500000
O O14 0.351697 0.666253 0.750000
O O15 0.700803 0.750000 0.500000
O O16 0.677348 0.829641 0.750000
O O17 0.627314 0.895956 0.510480
O O18 0.880137 0.462310 0.250000
O O19 0.884297 0.580561 0.462963
O O20 0.602440 0.837535 0.250000
O O21 0.599393 0.750000 0.000000
O O22 0.898616 0.750000 0.500000
O O23 0.919104 0.684895 0.250000
#
# Coordination Sequence:
#
# PCOD8230921 Si02
#       8
#     8   8   8   8   8   8   8   8
#     4  10  21  34  52  77 104 131 166 211 264 320
#     4  10  20  35  55  82 111 143 179 220 270 325
#     4   9  20  37  56  76 105 144 184 222 269 320
#     4  10  21  39  58  78 105 143 185 226 270 319
#     4  10  19  34  55  78 106 142 177 218 270 327
#     4  10  20  36  56  80 109 144 184 229 273 319
#     4  10  19  31  48  73  99 125 159 203 252 309
#     4   9  19  34  55  82 114 146 178 217 269 327
#
# _framework density 19.617739
#
# number of rings (size 3 to 8) (size 9 to 14) (size 15 to 20)
#    0.000    2.250    0.000    3.375    0.000    4.500 
#    0.000    4.375    0.000    0.000    0.000    0.000 
#    0.000    0.000    0.000    0.000    0.000    0.000 
#
# Total GULP energy -792876.038226 kJ/mol
# GULP energy per Si atom -12388.688097 kJ/mol
# Density = 1.957309 g / cm^3
# Si number density = 19.617739 Si / 1000 Ang^3
#
#
#
# Elastic Constant Matrix: (Units=GPa)
#
#
# Indices 1 2 3 4 5 6 
#
# 1 88.7540 45.7733 27.0897 0.0000 0.0000 0.0000
# 2 45.7733 110.4442 37.8786 0.0000 0.0000 0.0000
# 3 27.0897 37.8786 67.3344 0.0000 0.0000 0.0000
# 4 0.0000 0.0000 0.0000 33.0290 0.0000 0.0000
# 5 0.0000 0.0000 0.0000 0.0000 15.9373 0.0000
# 6 0.0000 0.0000 0.0000 0.0000 0.0000 20.5752
#
#
#
# Elastic Compliance Matrix: (Units=1/GPa)
#
#
# Indices 1 2 3 4 5 6 
#
# 1 0.014838 -0.005083 -0.003110 0.000000 0.000000 0.000000
# 2 -0.005083 0.012960 -0.005246 0.000000 0.000000 0.000000
# 3 -0.003110 -0.005246 0.019053 0.000000 0.000000 0.000000
# 4 0.000000 0.000000 0.000000 0.030276 0.000000 0.000000
# 5 0.000000 0.000000 0.000000 0.000000 0.062746 0.000000
# 6 0.000000 0.000000 0.000000 0.000000 0.000000 0.048602
#
#
# Mechanical properties :
#
#
# Convention : Reuss Voigt Hill
#
# Bulk Modulus (GPa) = 50.06532 54.22399 52.14465
# Shear Modulus (GPa) = 22.52139 24.29435 23.40787
#
# Velocity S-wave (km/s) = 3.39191 3.52289 3.45802
# Velocity P-wave (km/s) = 6.39655 6.65191 6.52548
#
# Compressibility (1/GPa) = 0.01997391
#
# Stress axis : x y z
#
# Youngs Moduli (GPa) = 67.39565 77.16059 52.48387
#
# Poissons Ratio (x) = 0.39219 0.16323
# Poissons Ratio (y) = 0.34256 0.27531
# Poissons Ratio (z) = 0.20961 0.40476
#
# Static dielectric constant tensor:
#      x y z
#    x 4.355510 0.000000 0.000000 
#    y 0.000000 305.935640 0.000000 
#    z 0.000000 0.000000 3.493630 
# 
# 
# High freq. dielectric constant tensor:
#      x y z
#    x 1.769380 0.000000 0.000000 
#    y 0.000000 1.765450 0.000000 
#    z 0.000000 0.000000 1.749400 
# 
# From -- ./inp_files/9511.got.cif
#   From: 2010.03.12/outbox.cif.g09.slc.cpg/sg57_5_cif.got.tgz:9511.got - 2010.04.16 15:48:40.
