data_PCOD8230317
_publ_section_title
;
Structure prediction by ZEFSAII (Michael W. Deem and Ramdas Pophale) SiO2 
 PCOD8230317
Probable space group: P B C M
;
_chemical_formula_sum "Si O2"
_cell_formula_units_Z 64
_cell_length_a 17.671954
_cell_length_b 22.634164
_cell_length_c 8.918146
_cell_angle_alpha 90.000000
_cell_angle_beta 90.000000
_cell_angle_gamma 90.000000
_cell_volume 3567.168372
_symmetry_space_group_name_H-M "P B C M"
_symmetry_group_IT_number 57
_symmetry_cell_setting 'orthorhombic'
loop_
_space_group_symop_operation_xyz
x,y,z
-x,-y,1/2+z
x,1/2-y,-z
-x,1/2+y,1/2-z
-x,-y,-z
x,y,1/2-z
-x,1/2+y,z
x,1/2-y,1/2+z
loop_
_atom_site_type_symbol
_atom_site_label
_atom_site_fract_x
_atom_site_fract_y
_atom_site_fract_z
Si Si1 0.668884 0.043129 0.926534
Si Si2 0.345747 0.414916 0.427276
Si Si3 0.506915 0.061503 0.922658
Si Si4 0.174396 0.913995 0.073384
Si Si5 0.931339 0.189968 0.928252
Si Si6 0.084816 0.153471 0.075852
Si Si7 0.747852 0.810230 0.925831
Si Si8 0.924048 0.979948 0.925206
O O1 0.676247 0.027938 0.750000
O O2 0.592887 0.082782 0.959729
O O3 0.738008 0.085519 0.978866
O O4 0.671427 0.980918 0.013864
O O5 0.330364 0.412751 0.250000
O O6 0.434451 0.397990 0.467343
O O7 0.293409 0.367100 0.506725
O O8 0.499094 0.047560 0.750000
O O9 0.500000 0.000000 0.000000
O O10 0.168307 0.907353 0.250000
O O11 0.124144 0.860847 0.005334
O O12 0.142023 0.976845 0.018741
O O13 0.928987 0.193978 0.750000
O O14 0.900321 0.250000 0.000000
O O15 0.017967 0.180249 0.976810
O O16 0.062127 0.159108 0.250000
O O17 0.162678 0.186802 0.040473
O O18 0.098178 0.085844 0.027779
O O19 0.731093 0.808868 0.750000
O O20 0.716446 0.750000 0.000000
O O21 0.936481 0.985754 0.750000
O O22 0.000000 0.000000 0.000000
#
# Coordination Sequence:
#
# PCOD8230317 Si02
#       8
#     8   8   8   8   8   8   8   8
#     4   9  16  31  54  78 104 136 170 206 254 305
#     4  10  19  32  50  78 110 136 166 205 252 307
#     4   8  15  27  48  76 104 132 161 195 238 294
#     4   9  18  32  51  74 100 131 167 205 248 300
#     4  11  22  36  53  71  95 129 170 211 251 296
#     4  10  21  36  55  76 100 128 166 211 253 302
#     4  11  23  38  54  73  99 136 177 217 257 303
#     4  10  18  31  49  73 101 128 160 200 246 298
#
# _framework density 17.941400999999999
#
# number of rings (size 3 to 8) (size 9 to 14) (size 15 to 20)
#    0.000    2.250    1.250    2.250    0.000    4.500 
#    0.000    3.125    0.000    0.750    0.000    1.750 
#    0.000    0.000    0.000    0.000    0.000    0.000 
#
# Total GULP energy -792995.660811 kJ/mol
# GULP energy per Si atom -12390.557200 kJ/mol
# Density = 1.790057 g / cm^3
# Si number density = 17.941401 Si / 1000 Ang^3
#
#
#
# Elastic Constant Matrix: (Units=GPa)
#
#
# Indices 1 2 3 4 5 6 
#
# 1 123.0476 33.9888 34.1742 0.0000 0.0000 0.0000
# 2 33.9888 85.9467 30.0458 0.0000 0.0000 0.0000
# 3 34.1742 30.0458 53.3810 0.0000 0.0000 0.0000
# 4 0.0000 0.0000 0.0000 24.5975 0.0000 0.0000
# 5 0.0000 0.0000 0.0000 0.0000 21.7108 0.0000
# 6 0.0000 0.0000 0.0000 0.0000 0.0000 16.4120
#
#
#
# Elastic Compliance Matrix: (Units=1/GPa)
#
#
# Indices 1 2 3 4 5 6 
#
# 1 0.010202 -0.002180 -0.005304 0.000000 0.000000 0.000000
# 2 -0.002180 0.014951 -0.007020 0.000000 0.000000 0.000000
# 3 -0.005304 -0.007020 0.026080 0.000000 0.000000 0.000000
# 4 0.000000 0.000000 0.000000 0.040654 0.000000 0.000000
# 5 0.000000 0.000000 0.000000 0.000000 0.046060 0.000000
# 6 0.000000 0.000000 0.000000 0.000000 0.000000 0.060931
#
#
# Mechanical properties :
#
#
# Convention : Reuss Voigt Hill
#
# Bulk Modulus (GPa) = 44.99378 50.97700 47.98539
# Shear Modulus (GPa) = 21.24982 23.48850 22.36916
#
# Velocity S-wave (km/s) = 3.44525 3.62218 3.53482
# Velocity P-wave (km/s) = 6.39992 6.78000 6.59270
#
# Compressibility (1/GPa) = 0.02222529
#
# Stress axis : x y z
#
# Youngs Moduli (GPa) = 98.01638 66.88366 38.34350
#
# Poissons Ratio (x) = 0.14583 0.20338
# Poissons Ratio (y) = 0.21371 0.26916
# Poissons Ratio (z) = 0.51991 0.46950
#
# Static dielectric constant tensor:
#      x y z
#    x 3.918760 0.000000 0.000000 
#    y 0.000000 3.263150 0.000000 
#    z 0.000000 0.000000 3.223870 
# 
# 
# High freq. dielectric constant tensor:
#      x y z
#    x 1.706360 0.000000 0.000000 
#    y 0.000000 1.671840 0.000000 
#    z 0.000000 0.000000 1.686690 
# 
# From -- ./inp_files/7159.got.cif
#   From: 2010.03.12/outbox.cif.g09.slc.cpg/sg57_4_cif.got.tgz:7159.got - 2010.04.16 15:48:40.
