data_PCOD8230899
_publ_section_title
;
Structure prediction by ZEFSAII (Michael W. Deem and Ramdas Pophale) SiO2 
 PCOD8230899
Probable space group: P B C M
;
_chemical_formula_sum "Si O2"
_cell_formula_units_Z 48
_cell_length_a 23.630108
_cell_length_b 13.672077
_cell_length_c 8.755265
_cell_angle_alpha 90.000000
_cell_angle_beta 90.000000
_cell_angle_gamma 90.000000
_cell_volume 2828.586718
_symmetry_space_group_name_H-M "P B C M"
_symmetry_group_IT_number 57
_symmetry_cell_setting 'orthorhombic'
loop_
_space_group_symop_operation_xyz
x,y,z
-x,-y,1/2+z
x,1/2-y,-z
-x,1/2+y,1/2-z
-x,-y,-z
x,y,1/2-z
-x,1/2+y,z
x,1/2-y,1/2+z
loop_
_atom_site_type_symbol
_atom_site_label
_atom_site_fract_x
_atom_site_fract_y
_atom_site_fract_z
Si Si1 0.694210 0.146718 0.570762
Si Si2 0.973421 0.855611 0.428824
Si Si3 0.912677 0.032465 0.928024
Si Si4 0.522614 0.850694 0.571278
Si Si5 0.811778 0.144782 0.069358
Si Si6 0.420626 0.548036 0.927556
O O1 0.675822 0.250000 0.500000
O O2 0.705115 0.160542 0.750000
O O3 0.751266 0.107628 0.492113
O O4 0.644980 0.068493 0.536731
O O5 0.965680 0.750000 0.500000
O O6 0.960034 0.853902 0.250000
O O7 0.036900 0.891765 0.461490
O O8 0.928838 0.925634 0.511964
O O9 0.898184 0.026817 0.750000
O O10 0.858080 0.066296 0.020522
O O11 0.544924 0.750000 0.500000
O O12 0.522038 0.836932 0.750000
O O13 0.459089 0.874633 0.517489
O O14 0.565059 0.937570 0.519832
O O15 0.810026 0.154358 0.250000
O O16 0.827324 0.250000 0.000000
O O17 0.434556 0.562446 0.750000
#
# Coordination Sequence:
#
# PCOD8230899 Si02
#       6
#     8   8   8   8   8   8
#     4  10  19  32  49  70  96 125 159 197 241 288
#     4  10  20  33  51  75 102 132 165 201 243 290
#     4  10  20  34  52  74 101 132 165 202 244 288
#     4  10  19  31  48  71  98 127 159 195 238 286
#     4  11  21  33  50  73 100 129 163 200 243 292
#     4   9  19  33  49  70  96 127 161 198 239 285
#
# _framework density 16.969605000000001
#
# number of rings (size 3 to 8) (size 9 to 14) (size 15 to 20)
#    0.000    2.000    0.000    5.500    0.000    6.667 
#    0.000    0.000    0.000    1.000    0.000    4.667 
#    0.000    0.000    0.000    0.000    0.000    0.000 
#
# Total GULP energy -595353.551234 kJ/mol
# GULP energy per Si atom -12403.198984 kJ/mol
# Density = 1.693098 g / cm^3
# Si number density = 16.969605 Si / 1000 Ang^3
#
#
#
# Elastic Constant Matrix: (Units=GPa)
#
#
# Indices 1 2 3 4 5 6 
#
# 1 109.9506 60.8733 53.9622 0.0000 0.0000 0.0000
# 2 60.8733 113.9548 47.6551 0.0000 0.0000 0.0000
# 3 53.9622 47.6551 103.1777 0.0000 0.0000 0.0000
# 4 0.0000 0.0000 0.0000 31.4063 0.0000 0.0000
# 5 0.0000 0.0000 0.0000 0.0000 26.4160 0.0000
# 6 0.0000 0.0000 0.0000 0.0000 0.0000 27.7659
#
#
#
# Elastic Compliance Matrix: (Units=1/GPa)
#
#
# Indices 1 2 3 4 5 6 
#
# 1 0.014777 -0.005778 -0.005060 0.000000 0.000000 0.000000
# 2 -0.005778 0.013135 -0.003045 0.000000 0.000000 0.000000
# 3 -0.005060 -0.003045 0.013745 0.000000 0.000000 0.000000
# 4 0.000000 0.000000 0.000000 0.031841 0.000000 0.000000
# 5 0.000000 0.000000 0.000000 0.000000 0.037856 0.000000
# 6 0.000000 0.000000 0.000000 0.000000 0.000000 0.036015
#
#
# Mechanical properties :
#
#
# Convention : Reuss Voigt Hill
#
# Bulk Modulus (GPa) = 71.98504 72.45159 72.21831
# Shear Modulus (GPa) = 27.81410 28.09049 27.95229
#
# Velocity S-wave (km/s) = 4.05292 4.07300 4.06297
# Velocity P-wave (km/s) = 8.02581 8.05647 8.04115
#
# Compressibility (1/GPa) = 0.01389178
#
# Stress axis : x y z
#
# Youngs Moduli (GPa) = 67.67222 76.13111 72.75499
#
# Poissons Ratio (x) = 0.43987 0.36813
# Poissons Ratio (y) = 0.39099 0.22154
# Poissons Ratio (z) = 0.34241 0.23182
#
# Static dielectric constant tensor:
#      x y z
#    x 3.141510 0.000000 0.000000 
#    y 0.000000 3.104810 0.000000 
#    z 0.000000 0.000000 3.314850 
# 
# 
# High freq. dielectric constant tensor:
#      x y z
#    x 1.644350 0.000000 0.000000 
#    y 0.000000 1.645350 0.000000 
#    z 0.000000 0.000000 1.673180 
# 
# From -- ./inp_files/9115.got.cif
#   From: 2010.03.12/outbox.cif.g09.slc.cpg/sg57_5_cif.got.tgz:9115.got - 2010.04.16 15:48:40.
