data_PCOD8230891
_publ_section_title
;
Structure prediction by ZEFSAII (Michael W. Deem and Ramdas Pophale) SiO2 
 PCOD8230891
Probable space group: P B C M
;
_chemical_formula_sum "Si O2"
_cell_formula_units_Z 64
_cell_length_a 28.459394
_cell_length_b 14.054630
_cell_length_c 8.874558
_cell_angle_alpha 90.000000
_cell_angle_beta 90.000000
_cell_angle_gamma 90.000000
_cell_volume 3549.701199
_symmetry_space_group_name_H-M "P B C M"
_symmetry_group_IT_number 57
_symmetry_cell_setting 'orthorhombic'
loop_
_space_group_symop_operation_xyz
x,y,z
-x,-y,1/2+z
x,1/2-y,-z
-x,1/2+y,1/2-z
-x,-y,-z
x,y,1/2-z
-x,1/2+y,z
x,1/2-y,1/2+z
loop_
_atom_site_type_symbol
_atom_site_label
_atom_site_fract_x
_atom_site_fract_y
_atom_site_fract_z
Si Si1 0.879793 0.349155 0.424773
Si Si2 0.570382 0.975709 0.926830
Si Si3 0.167675 0.463653 0.926340
Si Si4 0.018627 0.648969 0.926051
Si Si5 0.520619 0.146398 0.427066
Si Si6 0.354658 0.349116 0.073881
Si Si7 0.754313 0.848197 0.074707
Si Si8 0.917717 0.853725 0.428630
O O1 0.866501 0.250000 0.500000
O O2 0.882799 0.327123 0.250000
O O3 0.838841 0.424405 0.460199
O O4 0.930766 0.394048 0.478219
O O5 0.576761 0.991144 0.750000
O O6 0.529892 0.899224 0.963527
O O7 0.618139 0.936290 0.998277
O O8 0.559976 0.077787 0.001549
O O9 0.169857 0.441111 0.750000
O O10 0.216266 0.433728 0.003212
O O11 0.123264 0.412362 0.996381
O O12 0.019001 0.665043 0.750000
O O13 0.969058 0.596125 0.966950
O O14 0.015200 0.750000 0.000000
O O15 0.523679 0.250000 0.500000
O O16 0.529678 0.155040 0.250000
O O17 0.366351 0.343762 0.250000
O O18 0.300086 0.368456 0.041854
O O19 0.370828 0.250000 0.000000
O O20 0.765214 0.840785 0.250000
O O21 0.770901 0.750000 0.000000
O O22 0.916085 0.750000 0.500000
O O23 0.909140 0.847464 0.250000
#
# Coordination Sequence:
#
# PCOD8230891 Si02
#       8
#     8   8   8   8   8   8   8   8
#     4   9  19  35  53  72  94 122 158 200 243 287
#     4  10  20  33  52  78 108 144 184 224 264 309
#     4  11  22  34  50  73 100 128 159 199 247 298
#     4   8  15  29  47  67  92 122 156 192 232 280
#     4  10  20  33  50  75 110 149 187 225 265 309
#     4  10  20  34  54  79 106 136 171 213 258 305
#     4  10  21  37  56  78 104 133 165 204 251 303
#     4  10  19  31  48  70  98 130 160 192 233 286
#
# _framework density 18.029686999999999
#
# number of rings (size 3 to 8) (size 9 to 14) (size 15 to 20)
#    0.000    2.250    0.000    3.000    0.000    6.000 
#    0.000    0.000    0.000    0.750    0.000    1.750 
#    0.000    0.000    0.000    0.000    0.000    0.000 
#
# Total GULP energy -793195.090269 kJ/mol
# GULP energy per Si atom -12393.673285 kJ/mol
# Density = 1.798865 g / cm^3
# Si number density = 18.029687 Si / 1000 Ang^3
#
#
#
# Elastic Constant Matrix: (Units=GPa)
#
#
# Indices 1 2 3 4 5 6 
#
# 1 85.8976 56.4913 51.9705 0.0000 0.0000 0.0000
# 2 56.4913 107.2662 55.6602 0.0000 0.0000 0.0000
# 3 51.9705 55.6602 91.8269 0.0000 0.0000 0.0000
# 4 0.0000 0.0000 0.0000 30.0065 0.0000 0.0000
# 5 0.0000 0.0000 0.0000 0.0000 31.1417 0.0000
# 6 0.0000 0.0000 0.0000 0.0000 0.0000 37.1892
#
#
#
# Elastic Compliance Matrix: (Units=1/GPa)
#
#
# Indices 1 2 3 4 5 6 
#
# 1 0.020837 -0.007082 -0.007500 0.000000 0.000000 0.000000
# 2 -0.007082 0.016007 -0.005695 0.000000 0.000000 0.000000
# 3 -0.007500 -0.005695 0.018587 0.000000 0.000000 0.000000
# 4 0.000000 0.000000 0.000000 0.033326 0.000000 0.000000
# 5 0.000000 0.000000 0.000000 0.000000 0.032111 0.000000
# 6 0.000000 0.000000 0.000000 0.000000 0.000000 0.026890
#
#
# Mechanical properties :
#
#
# Convention : Reuss Voigt Hill
#
# Bulk Modulus (GPa) = 67.21620 68.13718 67.67669
# Shear Modulus (GPa) = 25.87043 27.72537 26.79790
#
# Velocity S-wave (km/s) = 3.79209 3.92569 3.85947
# Velocity P-wave (km/s) = 7.51898 7.64341 7.58145
#
# Compressibility (1/GPa) = 0.01487737
#
# Stress axis : x y z
#
# Youngs Moduli (GPa) = 47.99108 62.47219 53.80186
#
# Poissons Ratio (x) = 0.44242 0.40354
# Poissons Ratio (y) = 0.33987 0.30638
# Poissons Ratio (z) = 0.35995 0.35575
#
# Static dielectric constant tensor:
#      x y z
#    x 3.444130 0.000000 0.000000 
#    y 0.000000 3.253030 0.000000 
#    z 0.000000 0.000000 3.458260 
# 
# 
# High freq. dielectric constant tensor:
#      x y z
#    x 1.691400 0.000000 0.000000 
#    y 0.000000 1.682560 0.000000 
#    z 0.000000 0.000000 1.713060 
# 
# From -- ./inp_files/10323.got.cif
#   From: 2010.03.12/outbox.cif.g09.slc.cpg/sg57_6_cif.got.tgz:10323.got - 2010.04.16 15:48:40.
