data_PCOD8230732
_publ_section_title
;
Structure prediction by ZEFSAII (Michael W. Deem and Ramdas Pophale) SiO2 
 PCOD8230732
Probable space group: P B C M
;
_chemical_formula_sum "Si O2"
_cell_formula_units_Z 48
_cell_length_a 13.885012
_cell_length_b 21.261589
_cell_length_c 9.399663
_cell_angle_alpha 90.000000
_cell_angle_beta 90.000000
_cell_angle_gamma 90.000000
_cell_volume 2774.944245
_symmetry_space_group_name_H-M "P B C M"
_symmetry_group_IT_number 57
_symmetry_cell_setting 'orthorhombic'
loop_
_space_group_symop_operation_xyz
x,y,z
-x,-y,1/2+z
x,1/2-y,-z
-x,1/2+y,1/2-z
-x,-y,-z
x,y,1/2-z
-x,1/2+y,z
x,1/2-y,1/2+z
loop_
_atom_site_type_symbol
_atom_site_label
_atom_site_fract_x
_atom_site_fract_y
_atom_site_fract_z
Si Si1 0.544151 0.057265 0.413469
Si Si2 0.991438 0.689080 0.585861
Si Si3 0.766748 0.691512 0.912651
Si Si4 0.345572 0.398724 0.904083
Si Si5 0.063383 0.552163 0.581149
Si Si6 0.716673 0.042006 0.591411
O O1 0.565014 0.037759 0.250000
O O2 0.461329 0.111006 0.419994
O O3 0.644321 0.080383 0.486628
O O4 0.500000 0.000000 0.500000
O O5 0.031332 0.750000 0.500000
O O6 0.015892 0.701589 0.750000
O O7 0.036649 0.623250 0.533480
O O8 0.878624 0.681274 0.558526
O O9 0.742790 0.703205 0.750000
O O10 0.725911 0.750000 0.000000
O O11 0.710212 0.630815 0.964880
O O12 0.313052 0.370659 0.750000
O O13 0.319795 0.471418 0.906068
O O14 0.047433 0.542818 0.750000
O O15 0.174082 0.543587 0.535071
O O16 0.000000 0.500000 0.500000
O O17 0.711840 0.071675 0.750000
#
# Coordination Sequence:
#
# PCOD8230732 Si02
#       6
#     8   8   8   8   8   8
#     4   9  17  29  46  68  94 123 155 190 230 283
#     4   9  19  34  50  70  97 130 167 202 240 292
#     4  10  19  30  46  67  91 121 155 192 234 282
#     4   9  17  29  45  67  94 121 150 188 235 284
#     4  10  20  33  50  75 104 131 165 209 252 294
#     4   9  18  31  47  69  98 128 157 195 241 285
#
# _framework density 17.297644999999999
#
# number of rings (size 3 to 8) (size 9 to 14) (size 15 to 20)
#    0.000    2.667    0.000    3.000    0.000    5.333 
#    0.000    0.000    0.000    1.000    0.000    4.667 
#    0.000    0.000    0.000    0.000    0.000    0.000 
#
# Total GULP energy -594838.260084 kJ/mol
# GULP energy per Si atom -12392.463752 kJ/mol
# Density = 1.725828 g / cm^3
# Si number density = 17.297645 Si / 1000 Ang^3
#
#
#
# Elastic Constant Matrix: (Units=GPa)
#
#
# Indices 1 2 3 4 5 6 
#
# 1 96.2347 38.2780 61.0022 0.0000 0.0000 0.0000
# 2 38.2780 70.9725 34.5515 0.0000 0.0000 0.0000
# 3 61.0022 34.5515 92.5251 0.0000 0.0000 0.0000
# 4 0.0000 0.0000 0.0000 27.1780 0.0000 0.0000
# 5 0.0000 0.0000 0.0000 0.0000 30.4689 0.0000
# 6 0.0000 0.0000 0.0000 0.0000 0.0000 16.3841
#
#
#
# Elastic Compliance Matrix: (Units=1/GPa)
#
#
# Indices 1 2 3 4 5 6 
#
# 1 0.019275 -0.005144 -0.010787 0.000000 0.000000 0.000000
# 2 -0.005144 0.018594 -0.003552 0.000000 0.000000 0.000000
# 3 -0.010787 -0.003552 0.019246 0.000000 0.000000 0.000000
# 4 0.000000 0.000000 0.000000 0.036794 0.000000 0.000000
# 5 0.000000 0.000000 0.000000 0.000000 0.032820 0.000000
# 6 0.000000 0.000000 0.000000 0.000000 0.000000 0.061035
#
#
# Mechanical properties :
#
#
# Convention : Reuss Voigt Hill
#
# Bulk Modulus (GPa) = 55.10067 58.59951 56.85009
# Shear Modulus (GPa) = 21.47942 23.19960 22.33951
#
# Velocity S-wave (km/s) = 3.52768 3.66621 3.59761
# Velocity P-wave (km/s) = 6.96536 7.20224 7.08479
#
# Compressibility (1/GPa) = 0.01814860
#
# Stress axis : x y z
#
# Youngs Moduli (GPa) = 51.87942 53.78217 51.95794
#
# Poissons Ratio (x) = 0.27667 0.56049
# Poissons Ratio (y) = 0.26688 0.18454
# Poissons Ratio (z) = 0.55964 0.19102
#
# Static dielectric constant tensor:
#      x y z
#    x 3.546220 0.000000 0.000000 
#    y 0.000000 3.102630 0.000000 
#    z 0.000000 0.000000 3.654700 
# 
# 
# High freq. dielectric constant tensor:
#      x y z
#    x 1.669000 0.000000 0.000000 
#    y 0.000000 1.632320 0.000000 
#    z 0.000000 0.000000 1.676150 
# 
# From -- ./inp_files/4837.got.cif
#   From: 2010.03.12/outbox.cif.g09.slc.cpg/sg57_3_cif.got.tgz:4837.got - 2010.04.16 15:48:40.
