data_PCOD8230100
_publ_section_title
;
Structure prediction by ZEFSAII (Michael W. Deem and Ramdas Pophale) SiO2 
 PCOD8230100
Probable space group: P B C M
;
_chemical_formula_sum "Si O2"
_cell_formula_units_Z 64
_cell_length_a 17.017990
_cell_length_b 26.452143
_cell_length_c 9.046924
_cell_angle_alpha 90.000000
_cell_angle_beta 90.000000
_cell_angle_gamma 90.000000
_cell_volume 4072.584161
_symmetry_space_group_name_H-M "P B C M"
_symmetry_group_IT_number 57
_symmetry_cell_setting 'orthorhombic'
loop_
_space_group_symop_operation_xyz
x,y,z
-x,-y,1/2+z
x,1/2-y,-z
-x,1/2+y,1/2-z
-x,-y,-z
x,y,1/2-z
-x,1/2+y,z
x,1/2-y,1/2+z
loop_
_atom_site_type_symbol
_atom_site_label
_atom_site_fract_x
_atom_site_fract_y
_atom_site_fract_z
Si Si1 0.327838 0.938884 0.922204
Si Si2 0.594910 0.697177 0.073707
Si Si3 0.402221 0.041066 0.582699
Si Si4 0.995251 0.053248 0.922025
Si Si5 0.143667 0.423070 0.925979
Si Si6 0.718757 0.631333 0.579937
Si Si7 0.516904 0.391697 0.921209
Si Si8 0.176803 0.961891 0.418944
O O1 0.311108 0.945001 0.750000
O O2 0.389093 0.892787 0.954514
O O3 0.367118 0.989940 0.986330
O O4 0.243888 0.930232 0.997457
O O5 0.602687 0.702170 0.250000
O O6 0.523105 0.660255 0.024887
O O7 0.573221 0.750000 0.000000
O O8 0.676794 0.677369 0.005799
O O9 0.428976 0.031781 0.750000
O O10 0.335115 0.082614 0.570495
O O11 0.478727 0.058929 0.494900
O O12 0.018333 0.048739 0.750000
O O13 0.904096 0.070048 0.939287
O O14 0.057077 0.089479 0.006414
O O15 0.000000 0.000000 0.000000
O O16 0.141392 0.417500 0.750000
O O17 0.168482 0.479989 0.975662
O O18 0.200730 0.381346 0.995934
O O19 0.735154 0.646956 0.750000
O O20 0.500044 0.398583 0.750000
O O21 0.202029 0.964273 0.250000
#
# Coordination Sequence:
#
# PCOD8230100 Si02
#       8
#     8   8   8   8   8   8   8   8
#     4  10  18  28  41  60  86 116 149 183 219 259
#     4  10  20  35  51  67  88 114 145 185 229 274
#     4   9  17  27  40  60  85 114 147 178 213 258
#     4   9  17  28  40  57  82 115 154 189 220 255
#     4  10  18  28  42  62  87 117 153 187 219 258
#     4  10  18  29  46  68  90 116 148 184 223 264
#     4   9  19  31  44  62  84 111 144 182 223 265
#     4   9  18  28  39  58  85 119 154 186 220 254
#
# _framework density 15.714836999999999
#
# number of rings (size 3 to 8) (size 9 to 14) (size 15 to 20)
#    0.000    2.500    1.250    2.625    0.000    4.500 
#    0.000    0.000    0.000    0.000    0.000    0.000 
#    0.000    1.000    0.000    5.250    0.000    4.875 
#
# Total GULP energy -793240.518653 kJ/mol
# GULP energy per Si atom -12394.383104 kJ/mol
# Density = 1.567907 g / cm^3
# Si number density = 15.714837 Si / 1000 Ang^3
#
#
#
# Elastic Constant Matrix: (Units=GPa)
#
#
# Indices 1 2 3 4 5 6 
#
# 1 118.9164 33.5592 51.5432 0.0000 0.0000 0.0000
# 2 33.5592 48.1355 23.9409 0.0000 0.0000 0.0000
# 3 51.5432 23.9409 74.4205 0.0000 0.0000 0.0000
# 4 0.0000 0.0000 0.0000 17.8271 0.0000 0.0000
# 5 0.0000 0.0000 0.0000 0.0000 30.4369 0.0000
# 6 0.0000 0.0000 0.0000 0.0000 0.0000 14.6801
#
#
#
# Elastic Compliance Matrix: (Units=1/GPa)
#
#
# Indices 1 2 3 4 5 6 
#
# 1 0.013143 -0.005518 -0.007327 0.000000 0.000000 0.000000
# 2 -0.005518 0.027049 -0.004880 0.000000 0.000000 0.000000
# 3 -0.007327 -0.004880 0.020082 0.000000 0.000000 0.000000
# 4 0.000000 0.000000 0.000000 0.056094 0.000000 0.000000
# 5 0.000000 0.000000 0.000000 0.000000 0.032855 0.000000
# 6 0.000000 0.000000 0.000000 0.000000 0.000000 0.068119
#
#
# Mechanical properties :
#
#
# Convention : Reuss Voigt Hill
#
# Bulk Modulus (GPa) = 40.28551 51.06212 45.67382
# Shear Modulus (GPa) = 19.15222 21.41743 20.28483
#
# Velocity S-wave (km/s) = 3.49483 3.69572 3.59668
# Velocity P-wave (km/s) = 6.47889 7.12563 6.80995
#
# Compressibility (1/GPa) = 0.02482282
#
# Stress axis : x y z
#
# Youngs Moduli (GPa) = 76.08901 36.96994 49.79679
#
# Poissons Ratio (x) = 0.20402 0.36487
# Poissons Ratio (y) = 0.41989 0.24299
# Poissons Ratio (z) = 0.55751 0.18040
#
# Static dielectric constant tensor:
#      x y z
#    x 3.250920 0.000000 0.000000 
#    y 0.000000 2.646330 0.000000 
#    z 0.000000 0.000000 3.091050 
# 
# 
# High freq. dielectric constant tensor:
#      x y z
#    x 1.608110 0.000000 0.000000 
#    y 0.000000 1.543440 0.000000 
#    z 0.000000 0.000000 1.613850 
# 
# From -- ./inp_files/7456.got.cif
#   From: 2010.03.12/outbox.cif.g09.slc.cpg/sg57_4_cif.got.tgz:7456.got - 2010.04.16 15:48:40.
