data_PCOD8230481
_publ_section_title
;
Structure prediction by ZEFSAII (Michael W. Deem and Ramdas Pophale) SiO2 
 PCOD8230481
Probable space group: P B C M
;
_chemical_formula_sum "Si O2"
_cell_formula_units_Z 56
_cell_length_a 8.760696
_cell_length_b 19.203854
_cell_length_c 18.433219
_cell_angle_alpha 90.000000
_cell_angle_beta 90.000000
_cell_angle_gamma 90.000000
_cell_volume 3101.188671
_symmetry_space_group_name_H-M "P B C M"
_symmetry_group_IT_number 57
_symmetry_cell_setting 'orthorhombic'
loop_
_space_group_symop_operation_xyz
x,y,z
-x,-y,1/2+z
x,1/2-y,-z
-x,1/2+y,1/2-z
-x,-y,-z
x,y,1/2-z
-x,1/2+y,z
x,1/2-y,1/2+z
loop_
_atom_site_type_symbol
_atom_site_label
_atom_site_fract_x
_atom_site_fract_y
_atom_site_fract_z
Si Si1 0.052952 0.428951 0.034074
Si Si2 0.205729 0.021284 0.832944
Si Si3 0.508124 0.328571 0.983190
Si Si4 0.491631 0.540145 0.575528
Si Si5 0.013230 0.616735 0.169639
Si Si6 0.280287 0.422937 0.910979
Si Si7 0.143333 0.819572 0.535856
O O1 0.090739 0.430806 0.119709
O O2 0.208306 0.411535 0.991279
O O3 0.000000 0.500000 0.000000
O O4 0.912290 0.378245 0.019984
O O5 0.213036 0.048604 0.750000
O O6 0.138871 0.943840 0.836472
O O7 0.372300 0.023259 0.868899
O O8 0.516748 0.377171 0.056703
O O9 0.445587 0.250000 0.000000
O O10 0.414284 0.364662 0.916987
O O11 0.677278 0.321404 0.951847
O O12 0.500000 0.500000 0.500000
O O13 0.340564 0.501580 0.607957
O O14 0.011031 0.648488 0.250000
O O15 0.061432 0.676194 0.113713
O O16 0.842592 0.590973 0.151540
O O17 0.083628 0.750000 0.500000
#
# Coordination Sequence:
#
# PCOD8230481 Si02
#       7
#     8   8   8   8   8   8   8
#     4  11  18  34  57  82 106 144 185 233 279 335
#     4  11  21  34  54  85 115 143 182 234 291 338
#     4  10  20  33  54  83 107 141 192 233 262 328
#     4  10  18  33  55  82 108 146 183 225 278 334
#     4  10  21  36  55  86 117 144 184 240 291 336
#     4  10  19  30  58  80 106 140 187 225 278 326
#     4  10  21  36  59  84 106 147 199 230 275 337
#
# _framework density 18.057593000000001
#
# number of rings (size 3 to 8) (size 9 to 14) (size 15 to 20)
#    0.000    1.714    5.714    2.571    0.000    2.857 
#    0.000    1.429    0.000    3.429    0.000    0.000 
#    0.000    0.000    0.000    0.000    0.000    0.000 
#
# Total GULP energy -693762.857804 kJ/mol
# GULP energy per Si atom -12388.622461 kJ/mol
# Density = 1.801649 g / cm^3
# Si number density = 18.057593 Si / 1000 Ang^3
#
#
#
# Elastic Constant Matrix: (Units=GPa)
#
#
# Indices 1 2 3 4 5 6 
#
# 1 68.1663 27.7724 33.0917 0.0000 0.0000 0.0000
# 2 27.7724 109.9414 28.3096 0.0000 0.0000 0.0000
# 3 33.0917 28.3096 137.5360 0.0000 0.0000 0.0000
# 4 0.0000 0.0000 0.0000 18.1370 0.0000 0.0000
# 5 0.0000 0.0000 0.0000 0.0000 22.8629 0.0000
# 6 0.0000 0.0000 0.0000 0.0000 0.0000 25.2258
#
#
#
# Elastic Compliance Matrix: (Units=1/GPa)
#
#
# Indices 1 2 3 4 5 6 
#
# 1 0.017862 -0.003596 -0.003557 0.000000 0.000000 0.000000
# 2 -0.003596 0.010329 -0.001261 0.000000 0.000000 0.000000
# 3 -0.003557 -0.001261 0.008386 0.000000 0.000000 0.000000
# 4 0.000000 0.000000 0.000000 0.055136 0.000000 0.000000
# 5 0.000000 0.000000 0.000000 0.000000 0.043739 0.000000
# 6 0.000000 0.000000 0.000000 0.000000 0.000000 0.039642
#
#
# Mechanical properties :
#
#
# Convention : Reuss Voigt Hill
#
# Bulk Modulus (GPa) = 50.63690 54.88790 52.76240
# Shear Modulus (GPa) = 25.18820 28.34315 26.76567
#
# Velocity S-wave (km/s) = 3.73886 3.96611 3.85416
# Velocity P-wave (km/s) = 6.83678 7.17185 7.00632
#
# Compressibility (1/GPa) = 0.01974845
#
# Stress axis : x y z
#
# Youngs Moduli (GPa) = 55.98433 96.81651 119.24241
#
# Poissons Ratio (x) = 0.34816 0.42420
# Poissons Ratio (y) = 0.20133 0.15034
# Poissons Ratio (z) = 0.19916 0.12206
#
# Static dielectric constant tensor:
#      x y z
#    x 3.416250 0.000000 0.000000 
#    y 0.000000 3.498420 0.000000 
#    z 0.000000 0.000000 3.102590 
# 
# 
# High freq. dielectric constant tensor:
#      x y z
#    x 1.719750 0.000000 0.000000 
#    y 0.000000 1.679660 0.000000 
#    z 0.000000 0.000000 1.671770 
# 
# From -- ./inp_files/21354.got.cif
#   From: 2010.03.12/outbox.cif.g09.slc.cpg/sg57_11_cif.got.tgz:21354.got - 2010.04.16 15:48:40.
