data_PCOD8230958
_publ_section_title
;
Structure prediction by ZEFSAII (Michael W. Deem and Ramdas Pophale) SiO2 
 PCOD8230958
Probable space group: P B C M
;
_chemical_formula_sum "Si O2"
_cell_formula_units_Z 64
_cell_length_a 11.018091
_cell_length_b 33.607375
_cell_length_c 9.084571
_cell_angle_alpha 90.000000
_cell_angle_beta 90.000000
_cell_angle_gamma 90.000000
_cell_volume 3363.917765
_symmetry_space_group_name_H-M "P B C M"
_symmetry_group_IT_number 57
_symmetry_cell_setting 'orthorhombic'
loop_
_space_group_symop_operation_xyz
x,y,z
-x,-y,1/2+z
x,1/2-y,-z
-x,1/2+y,1/2-z
-x,-y,-z
x,y,1/2-z
-x,1/2+y,z
x,1/2-y,1/2+z
loop_
_atom_site_type_symbol
_atom_site_label
_atom_site_fract_x
_atom_site_fract_y
_atom_site_fract_z
Si Si1 0.960309 0.067058 0.579494
Si Si2 0.650556 0.866742 0.576891
Si Si3 0.152767 0.637479 0.077539
Si Si4 0.290795 0.974115 0.416803
Si Si5 0.958092 0.290587 0.421796
Si Si6 0.402151 0.595277 0.421126
Si Si7 0.762026 0.708506 0.922695
Si Si8 0.197765 0.056032 0.079605
O O1 0.972091 0.078880 0.750000
O O2 0.945762 0.106690 0.483015
O O3 0.848388 0.037839 0.550542
O O4 0.083258 0.046641 0.523685
O O5 0.647522 0.856949 0.750000
O O6 0.520642 0.882302 0.518223
O O7 0.681812 0.826822 0.489468
O O8 0.747280 0.901124 0.540913
O O9 0.131514 0.643608 0.250000
O O10 0.287575 0.622655 0.039832
O O11 0.133649 0.678212 0.992283
O O12 0.325635 0.964572 0.250000
O O13 0.385617 0.948845 0.512345
O O14 0.298027 0.021373 0.451359
O O15 0.924349 0.250000 0.500000
O O16 0.931748 0.286739 0.250000
O O17 0.097699 0.302092 0.453178
O O18 0.417731 0.587944 0.250000
O O19 0.735038 0.712661 0.750000
O O20 0.726305 0.750000 0.000000
O O21 0.157344 0.053507 0.250000
#
# Coordination Sequence:
#
# PCOD8230958 Si02
#       8
#     8   8   8   8   8   8   8   8
#     4  10  19  31  49  74 104 135 171 216 263 314
#     4  10  21  37  55  76 105 139 177 219 259 303
#     4  10  19  33  53  74 100 135 173 212 258 309
#     4   9  19  34  51  74 104 138 175 217 265 312
#     4  10  20  34  54  82 112 136 164 204 254 312
#     4   9  20  37  54  73 100 138 180 219 259 303
#     4  10  21  37  58  83 109 136 166 204 253 307
#     4  10  20  33  51  76 106 139 174 215 264 314
#
# _framework density 19.025435000000002
#
# number of rings (size 3 to 8) (size 9 to 14) (size 15 to 20)
#    0.000    2.250    0.000    2.625    0.000    6.500 
#    0.000    0.625    0.000    0.000    0.000    0.000 
#    0.000    0.000    0.000    0.000    0.000    0.000 
#
# Total GULP energy -793693.375841 kJ/mol
# GULP energy per Si atom -12401.458998 kJ/mol
# Density = 1.898213 g / cm^3
# Si number density = 19.025435 Si / 1000 Ang^3
#
#
#
# Elastic Constant Matrix: (Units=GPa)
#
#
# Indices 1 2 3 4 5 6 
#
# 1 45.0441 16.6653 25.4744 0.0000 0.0000 0.0000
# 2 16.6653 104.0625 42.5187 0.0000 0.0000 0.0000
# 3 25.4744 42.5187 75.5433 0.0000 0.0000 0.0000
# 4 0.0000 0.0000 0.0000 36.7600 0.0000 0.0000
# 5 0.0000 0.0000 0.0000 0.0000 24.0968 0.0000
# 6 0.0000 0.0000 0.0000 0.0000 0.0000 23.9111
#
#
#
# Elastic Compliance Matrix: (Units=1/GPa)
#
#
# Indices 1 2 3 4 5 6 
#
# 1 0.027483 -0.000798 -0.008818 0.000000 0.000000 0.000000
# 2 -0.000798 0.012503 -0.006768 0.000000 0.000000 0.000000
# 3 -0.008818 -0.006768 0.020020 0.000000 0.000000 0.000000
# 4 0.000000 0.000000 0.000000 0.027203 0.000000 0.000000
# 5 0.000000 0.000000 0.000000 0.000000 0.041499 0.000000
# 6 0.000000 0.000000 0.000000 0.000000 0.000000 0.041822
#
#
# Mechanical properties :
#
#
# Convention : Reuss Voigt Hill
#
# Bulk Modulus (GPa) = 36.71465 43.77406 40.24435
# Shear Modulus (GPa) = 23.54287 26.28633 24.91460
#
# Velocity S-wave (km/s) = 3.52155 3.72108 3.62268
# Velocity P-wave (km/s) = 5.98954 6.44360 6.22072
#
# Compressibility (1/GPa) = 0.02723709
#
# Stress axis : x y z
#
# Youngs Moduli (GPa) = 36.38613 79.98274 49.94912
#
# Poissons Ratio (x) = 0.06384 0.44047
# Poissons Ratio (y) = 0.02904 0.33805
# Poissons Ratio (z) = 0.32087 0.54131
#
# Static dielectric constant tensor:
#      x y z
#    x 3.379920 0.000000 0.000000 
#    y 0.000000 3.396470 0.000000 
#    z 0.000000 0.000000 3.473020 
# 
# 
# High freq. dielectric constant tensor:
#      x y z
#    x 1.724360 0.000000 0.000000 
#    y 0.000000 1.746180 0.000000 
#    z 0.000000 0.000000 1.741480 
# 
# From -- ./inp_files/3854.got.cif
#   From: 2010.03.12/outbox.cif.g09.slc.cpg/sg57_2_cif.got.tgz:3854.got - 2010.04.16 15:48:40.
