data_PCOD8230207
_publ_section_title
;
Structure prediction by ZEFSAII (Michael W. Deem and Ramdas Pophale) SiO2 
 PCOD8230207
Probable space group: P B C M
;
_chemical_formula_sum "Si O2"
_cell_formula_units_Z 64
_cell_length_a 16.512847
_cell_length_b 23.833137
_cell_length_c 8.723294
_cell_angle_alpha 90.000000
_cell_angle_beta 90.000000
_cell_angle_gamma 90.000000
_cell_volume 3433.078042
_symmetry_space_group_name_H-M "P B C M"
_symmetry_group_IT_number 57
_symmetry_cell_setting 'orthorhombic'
loop_
_space_group_symop_operation_xyz
x,y,z
-x,-y,1/2+z
x,1/2-y,-z
-x,1/2+y,1/2-z
-x,-y,-z
x,y,1/2-z
-x,1/2+y,z
x,1/2-y,1/2+z
loop_
_atom_site_type_symbol
_atom_site_label
_atom_site_fract_x
_atom_site_fract_y
_atom_site_fract_z
Si Si1 0.762992 0.811606 0.431598
Si Si2 0.723110 0.121086 0.569782
Si Si3 0.875295 0.190654 0.571577
Si Si4 0.564593 0.311355 0.068713
Si Si5 0.598407 0.811963 0.567346
Si Si6 0.961880 0.405625 0.573566
Si Si7 0.190122 0.521505 0.070462
Si Si8 0.854089 0.910229 0.572349
O O1 0.780004 0.750000 0.500000
O O2 0.756521 0.806160 0.250000
O O3 0.680189 0.839298 0.499838
O O4 0.834570 0.853555 0.479193
O O5 0.731561 0.110378 0.750000
O O6 0.790628 0.165032 0.511024
O O7 0.636455 0.146291 0.525189
O O8 0.737167 0.061997 0.484459
O O9 0.892636 0.250000 0.500000
O O10 0.872054 0.199134 0.750000
O O11 0.948650 0.149928 0.526592
O O12 0.554125 0.304679 0.250000
O O13 0.583110 0.250000 0.000000
O O14 0.484205 0.340185 0.995250
O O15 0.595781 0.750000 0.500000
O O16 0.600608 0.812632 0.750000
O O17 0.948226 0.389410 0.750000
O O18 0.897272 0.452857 0.523702
O O19 0.052477 0.426795 0.542409
O O20 0.197670 0.511215 0.250000
O O21 0.199996 0.461940 0.986527
O O22 0.835982 0.899180 0.750000
#
# Coordination Sequence:
#
# PCOD8230207 Si02
#       8
#     8   8   8   8   8   8   8   8
#     4  11  22  38  58  81 108 136 169 209 257 309
#     4   9  19  33  49  72 103 140 177 214 255 300
#     4  10  19  31  48  70 101 139 175 212 257 307
#     4  10  18  29  48  76 108 140 176 214 254 301
#     4  10  18  31  51  76 106 138 171 207 253 304
#     4   9  20  36  53  74 101 134 173 216 259 304
#     4  10  20  35  55  78 103 134 173 216 259 302
#     4  11  22  37  57  79 103 133 170 212 258 308
#
# _framework density 18.642164000000001
#
# number of rings (size 3 to 8) (size 9 to 14) (size 15 to 20)
#    0.000    2.000    0.000    6.000    0.000    3.500 
#    0.000    0.000    0.000    0.750    0.000    0.000 
#    0.000    0.000    0.000    0.000    0.000    0.000 
#
# Total GULP energy -793606.275912 kJ/mol
# GULP energy per Si atom -12400.098061 kJ/mol
# Density = 1.859973 g / cm^3
# Si number density = 18.642164 Si / 1000 Ang^3
#
#
#
# Elastic Constant Matrix: (Units=GPa)
#
#
# Indices 1 2 3 4 5 6 
#
# 1 75.0627 25.1635 33.4993 0.0000 0.0000 0.0000
# 2 25.1635 92.8458 37.1236 0.0000 0.0000 0.0000
# 3 33.4993 37.1236 102.0273 0.0000 0.0000 0.0000
# 4 0.0000 0.0000 0.0000 30.6994 0.0000 0.0000
# 5 0.0000 0.0000 0.0000 0.0000 29.4320 0.0000
# 6 0.0000 0.0000 0.0000 0.0000 0.0000 26.7943
#
#
#
# Elastic Compliance Matrix: (Units=1/GPa)
#
#
# Indices 1 2 3 4 5 6 
#
# 1 0.016144 -0.002640 -0.004340 0.000000 0.000000 0.000000
# 2 -0.002640 0.013036 -0.003876 0.000000 0.000000 0.000000
# 3 -0.004340 -0.003876 0.012637 0.000000 0.000000 0.000000
# 4 0.000000 0.000000 0.000000 0.032574 0.000000 0.000000
# 5 0.000000 0.000000 0.000000 0.000000 0.033977 0.000000
# 6 0.000000 0.000000 0.000000 0.000000 0.000000 0.037321
#
#
# Mechanical properties :
#
#
# Convention : Reuss Voigt Hill
#
# Bulk Modulus (GPa) = 49.74210 51.27875 50.51042
# Shear Modulus (GPa) = 28.71856 28.99510 28.85683
#
# Velocity S-wave (km/s) = 3.92920 3.94807 3.93865
# Velocity P-wave (km/s) = 6.87934 6.95339 6.91646
#
# Compressibility (1/GPa) = 0.02010370
#
# Stress axis : x y z
#
# Youngs Moduli (GPa) = 61.94184 76.71035 79.13405
#
# Poissons Ratio (x) = 0.20253 0.34345
# Poissons Ratio (y) = 0.16353 0.30676
# Poissons Ratio (z) = 0.26883 0.29736
#
# Static dielectric constant tensor:
#      x y z
#    x 3.800040 0.000000 0.000000 
#    y 0.000000 3.253850 0.000000 
#    z 0.000000 0.000000 3.465350 
# 
# 
# High freq. dielectric constant tensor:
#      x y z
#    x 1.719190 0.000000 0.000000 
#    y 0.000000 1.701300 0.000000 
#    z 0.000000 0.000000 1.736320 
# 
# From -- ./inp_files/7437.got.cif
#   From: 2010.03.12/outbox.cif.g09.slc.cpg/sg57_4_cif.got.tgz:7437.got - 2010.04.16 15:48:40.
