data_PCOD8230616
_publ_section_title
;
Structure prediction by ZEFSAII (Michael W. Deem and Ramdas Pophale) SiO2 
 PCOD8230616
Probable space group: P B C M
;
_chemical_formula_sum "Si O2"
_cell_formula_units_Z 64
_cell_length_a 12.320391
_cell_length_b 31.159629
_cell_length_c 8.722555
_cell_angle_alpha 90.000000
_cell_angle_beta 90.000000
_cell_angle_gamma 90.000000
_cell_volume 3348.578508
_symmetry_space_group_name_H-M "P B C M"
_symmetry_group_IT_number 57
_symmetry_cell_setting 'orthorhombic'
loop_
_space_group_symop_operation_xyz
x,y,z
-x,-y,1/2+z
x,1/2-y,-z
-x,1/2+y,1/2-z
-x,-y,-z
x,y,1/2-z
-x,1/2+y,z
x,1/2-y,1/2+z
loop_
_atom_site_type_symbol
_atom_site_label
_atom_site_fract_x
_atom_site_fract_y
_atom_site_fract_z
Si Si1 0.306393 0.294972 0.070520
Si Si2 0.917085 0.378910 0.580319
Si Si3 0.144011 0.371076 0.428958
Si Si4 0.097804 0.521911 0.420328
Si Si5 0.480905 0.351354 0.931017
Si Si6 0.688845 0.385409 0.067525
Si Si7 0.676515 0.573087 0.432035
Si Si8 0.683732 0.479984 0.073461
O O1 0.326668 0.290517 0.250000
O O2 0.212111 0.328594 0.031677
O O3 0.269382 0.250000 0.000000
O O4 0.418824 0.309536 0.991757
O O5 0.910221 0.357828 0.750000
O O6 0.931346 0.429007 0.597064
O O7 0.805754 0.368717 0.489695
O O8 0.024311 0.362008 0.494889
O O9 0.133113 0.379510 0.250000
O O10 0.206947 0.412435 0.498841
O O11 0.124798 0.503177 0.250000
O O12 0.190018 0.513612 0.544274
O O13 0.000000 0.500000 0.500000
O O14 0.493332 0.348788 0.750000
O O15 0.415614 0.393749 0.984486
O O16 0.599295 0.352255 0.007583
O O17 0.692244 0.386784 0.250000
O O18 0.655293 0.433252 0.999222
O O19 0.691682 0.572126 0.250000
O O20 0.635128 0.525447 0.491169
O O21 0.654738 0.476789 0.250000
#
# Coordination Sequence:
#
# PCOD8230616 Si02
#       8
#     8   8   8   8   8   8   8   8
#     4  10  21  38  61  88 113 135 163 202 252 310
#     4  10  20  33  49  70  99 137 177 213 255 308
#     4  10  20  33  52  80 109 135 167 210 260 312
#     4  10  19  28  40  61  90 127 172 219 261 302
#     4  10  20  35  55  78 106 139 175 216 263 314
#     4  10  20  34  51  72 102 141 185 228 266 306
#     4   9  18  32  49  71 101 138 179 222 268 316
#     4   9  18  31  45  64  94 134 179 224 266 306
#
# _framework density 19.112587999999999
#
# number of rings (size 3 to 8) (size 9 to 14) (size 15 to 20)
#    0.000    2.250    0.000    3.000    0.000    8.000 
#    0.000    0.000    0.000    0.750    0.000    3.500 
#    0.000    0.000    0.000    0.000    0.000    0.000 
#
# Total GULP energy -793048.885571 kJ/mol
# GULP energy per Si atom -12391.388837 kJ/mol
# Density = 1.906909 g / cm^3
# Si number density = 19.112588 Si / 1000 Ang^3
#
#
#
# Elastic Constant Matrix: (Units=GPa)
#
#
# Indices 1 2 3 4 5 6 
#
# 1 98.5479 16.3454 35.4363 0.0000 0.0000 0.0000
# 2 16.3454 53.1225 23.1924 0.0000 0.0000 0.0000
# 3 35.4363 23.1924 70.2225 0.0000 0.0000 0.0000
# 4 0.0000 0.0000 0.0000 20.7501 0.0000 0.0000
# 5 0.0000 0.0000 0.0000 0.0000 29.2542 0.0000
# 6 0.0000 0.0000 0.0000 0.0000 0.0000 14.7478
#
#
#
# Elastic Compliance Matrix: (Units=1/GPa)
#
#
# Indices 1 2 3 4 5 6 
#
# 1 0.012470 -0.001273 -0.005872 0.000000 0.000000 0.000000
# 2 -0.001273 0.022126 -0.006665 0.000000 0.000000 0.000000
# 3 -0.005872 -0.006665 0.019405 0.000000 0.000000 0.000000
# 4 0.000000 0.000000 0.000000 0.048192 0.000000 0.000000
# 5 0.000000 0.000000 0.000000 0.000000 0.034183 0.000000
# 6 0.000000 0.000000 0.000000 0.000000 0.000000 0.067807
#
#
# Mechanical properties :
#
#
# Convention : Reuss Voigt Hill
#
# Bulk Modulus (GPa) = 37.90743 41.31569 39.61156
# Shear Modulus (GPa) = 20.78155 22.74500 21.76328
#
# Velocity S-wave (km/s) = 3.30104 3.45346 3.37811
# Velocity P-wave (km/s) = 5.86566 6.12909 5.99882
#
# Compressibility (1/GPa) = 0.02638006
#
# Stress axis : x y z
#
# Youngs Moduli (GPa) = 80.19177 45.19561 51.53294
#
# Poissons Ratio (x) = 0.05754 0.30262
# Poissons Ratio (y) = 0.10210 0.34347
# Poissons Ratio (z) = 0.47091 0.30123
#
# Static dielectric constant tensor:
#      x y z
#    x 3.472990 0.000000 0.000000 
#    y 0.000000 3.488430 0.000000 
#    z 0.000000 0.000000 3.521030 
# 
# 
# High freq. dielectric constant tensor:
#      x y z
#    x 1.738570 0.000000 0.000000 
#    y 0.000000 1.715390 0.000000 
#    z 0.000000 0.000000 1.748610 
# 
# From -- ./inp_files/3771.got.cif
#   From: 2010.03.12/outbox.cif.g09.slc.cpg/sg57_2_cif.got.tgz:3771.got - 2010.04.16 15:48:40.
