data_PCOD8230249
_publ_section_title
;
Structure prediction by ZEFSAII (Michael W. Deem and Ramdas Pophale) SiO2 
 PCOD8230249
Probable space group: P B C M
;
_chemical_formula_sum "Si O2"
_cell_formula_units_Z 64
_cell_length_a 11.706927
_cell_length_b 33.766615
_cell_length_c 9.315742
_cell_angle_alpha 90.000000
_cell_angle_beta 90.000000
_cell_angle_gamma 90.000000
_cell_volume 3682.543525
_symmetry_space_group_name_H-M "P B C M"
_symmetry_group_IT_number 57
_symmetry_cell_setting 'orthorhombic'
loop_
_space_group_symop_operation_xyz
x,y,z
-x,-y,1/2+z
x,1/2-y,-z
-x,1/2+y,1/2-z
-x,-y,-z
x,y,1/2-z
-x,1/2+y,z
x,1/2-y,1/2+z
loop_
_atom_site_type_symbol
_atom_site_label
_atom_site_fract_x
_atom_site_fract_y
_atom_site_fract_z
Si Si1 0.127903 0.623801 0.085360
Si Si2 0.694167 0.335539 0.091574
Si Si3 0.521050 0.710329 0.580135
Si Si4 0.548463 0.414893 0.409662
Si Si5 0.270598 0.955456 0.916656
Si Si6 0.886154 0.512971 0.419018
Si Si7 0.876623 0.894570 0.583389
Si Si8 0.337214 0.134338 0.918818
O O1 0.128479 0.635759 0.250000
O O2 0.187019 0.581536 0.061928
O O3 0.999390 0.620444 0.026282
O O4 0.194250 0.659329 0.006357
O O5 0.737185 0.323966 0.250000
O O6 0.607802 0.301954 0.032227
O O7 0.624910 0.376033 0.098591
O O8 0.558088 0.750000 0.500000
O O9 0.525000 0.716850 0.750000
O O10 0.609353 0.676206 0.533422
O O11 0.543506 0.434101 0.250000
O O12 0.602863 0.445572 0.523101
O O13 0.422274 0.401806 0.461551
O O14 0.280235 0.967685 0.750000
O O15 0.221872 0.991292 0.010545
O O16 0.897249 0.502767 0.250000
O O17 0.865139 0.559008 0.444671
O O18 0.000000 0.500000 0.500000
O O19 0.862628 0.884810 0.750000
O O20 0.781871 0.870506 0.498235
O O21 0.315835 0.133693 0.750000
#
# Coordination Sequence:
#
# PCOD8230249 Si02
#       8
#     8   8   8   8   8   8   8   8
#     4   9  17  30  46  69 100 128 158 203 249 293
#     4   8  15  28  47  73 100 125 155 194 238 289
#     4   9  18  33  54  81 109 130 158 200 243 291
#     4   8  15  30  49  69  95 127 162 205 254 295
#     4  10  18  30  48  72  98 125 165 212 260 308
#     4  11  21  34  49  69  99 132 170 219 265 305
#     4  10  21  35  49  70 102 135 171 214 255 299
#     4   9  19  35  53  75 103 133 171 212 246 299
#
# _framework density 17.379293000000001
#
# number of rings (size 3 to 8) (size 9 to 14) (size 15 to 20)
#    0.000    2.750    1.250    2.250    0.000    3.500 
#    0.000    3.125    0.000    0.750    0.000    0.000 
#    0.000    0.000    0.000    0.000    0.000    0.000 
#
# Total GULP energy -793402.434315 kJ/mol
# GULP energy per Si atom -12396.913036 kJ/mol
# Density = 1.733974 g / cm^3
# Si number density = 17.379293 Si / 1000 Ang^3
#
#
#
# Elastic Constant Matrix: (Units=GPa)
#
#
# Indices 1 2 3 4 5 6 
#
# 1 109.0686 39.2436 48.4925 0.0000 0.0000 0.0000
# 2 39.2436 62.2117 40.2280 0.0000 0.0000 0.0000
# 3 48.4925 40.2280 75.8787 0.0000 0.0000 0.0000
# 4 0.0000 0.0000 0.0000 26.7558 0.0000 0.0000
# 5 0.0000 0.0000 0.0000 0.0000 33.0201 0.0000
# 6 0.0000 0.0000 0.0000 0.0000 0.0000 21.0456
#
#
#
# Elastic Compliance Matrix: (Units=1/GPa)
#
#
# Indices 1 2 3 4 5 6 
#
# 1 0.013587 -0.004498 -0.006299 0.000000 0.000000 0.000000
# 2 -0.004498 0.025948 -0.010882 0.000000 0.000000 0.000000
# 3 -0.006299 -0.010882 0.022974 0.000000 0.000000 0.000000
# 4 0.000000 0.000000 0.000000 0.037375 0.000000 0.000000
# 5 0.000000 0.000000 0.000000 0.000000 0.030285 0.000000
# 6 0.000000 0.000000 0.000000 0.000000 0.000000 0.047516
#
#
# Mechanical properties :
#
#
# Convention : Reuss Voigt Hill
#
# Bulk Modulus (GPa) = 52.21551 55.89856 54.05703
# Shear Modulus (GPa) = 21.98509 24.11062 23.04785
#
# Velocity S-wave (km/s) = 3.56057 3.72871 3.64561
# Velocity P-wave (km/s) = 6.85663 7.12541 6.99231
#
# Compressibility (1/GPa) = 0.01915140
#
# Stress axis : x y z
#
# Youngs Moduli (GPa) = 73.59745 38.53809 43.52815
#
# Poissons Ratio (x) = 0.17335 0.27417
# Poissons Ratio (y) = 0.33105 0.47368
# Poissons Ratio (z) = 0.46357 0.41938
#
# Static dielectric constant tensor:
#      x y z
#    x 3.304730 0.000000 0.000000 
#    y 0.000000 3.060470 0.000000 
#    z 0.000000 0.000000 3.284020 
# 
# 
# High freq. dielectric constant tensor:
#      x y z
#    x 1.668150 0.000000 0.000000 
#    y 0.000000 1.640840 0.000000 
#    z 0.000000 0.000000 1.671700 
# 
# From -- ./inp_files/3754.got.cif
#   From: 2010.03.12/outbox.cif.g09.slc.cpg/sg57_2_cif.got.tgz:3754.got - 2010.04.16 15:48:40.
