data_PCOD8230769
_publ_section_title
;
Structure prediction by ZEFSAII (Michael W. Deem and Ramdas Pophale) SiO2 
 PCOD8230769
Probable space group: P B C M
;
_chemical_formula_sum "Si O2"
_cell_formula_units_Z 64
_cell_length_a 30.079972
_cell_length_b 13.645380
_cell_length_c 9.311985
_cell_angle_alpha 90.000000
_cell_angle_beta 90.000000
_cell_angle_gamma 90.000000
_cell_volume 3822.128904
_symmetry_space_group_name_H-M "P B C M"
_symmetry_group_IT_number 57
_symmetry_cell_setting 'orthorhombic'
loop_
_space_group_symop_operation_xyz
x,y,z
-x,-y,1/2+z
x,1/2-y,-z
-x,1/2+y,1/2-z
-x,-y,-z
x,y,1/2-z
-x,1/2+y,z
x,1/2-y,1/2+z
loop_
_atom_site_type_symbol
_atom_site_label
_atom_site_fract_x
_atom_site_fract_y
_atom_site_fract_z
Si Si1 0.108066 0.344391 0.590893
Si Si2 0.357358 0.154584 0.914975
Si Si3 0.254937 0.350032 0.081326
Si Si4 0.519766 0.148266 0.582638
Si Si5 0.190085 0.475882 0.588154
Si Si6 0.954377 0.485150 0.418850
Si Si7 0.875400 0.350579 0.080446
Si Si8 0.564762 0.516616 0.915334
O O1 0.102215 0.250000 0.500000
O O2 0.093217 0.316575 0.750000
O O3 0.158067 0.382394 0.588183
O O4 0.075369 0.425318 0.528309
O O5 0.364790 0.181394 0.750000
O O6 0.306507 0.127415 0.947682
O O7 0.387524 0.061796 0.958039
O O8 0.373028 0.250000 0.000000
O O9 0.244176 0.337770 0.250000
O O10 0.240812 0.250000 0.000000
O O11 0.229715 0.445943 0.019299
O O12 0.521511 0.250000 0.500000
O O13 0.529996 0.165328 0.750000
O O14 0.471722 0.100537 0.557526
O O15 0.557151 0.076454 0.517245
O O16 0.208385 0.493361 0.750000
O O17 0.162945 0.571723 0.534542
O O18 0.963703 0.486259 0.250000
O O19 0.925223 0.388746 0.459698
O O20 0.000000 0.500000 0.500000
O O21 0.872596 0.333931 0.250000
O O22 0.865648 0.250000 0.000000
O O23 0.563419 0.481595 0.750000
#
# Coordination Sequence:
#
# PCOD8230769 Si02
#       8
#     8   8   8   8   8   8   8   8
#     4   9  18  31  46  65  90 118 147 179 218 262
#     4   9  18  31  47  69  98 129 158 191 232 280
#     4  10  19  30  47  73 101 128 157 189 231 283
#     4  10  19  30  47  70  94 123 160 201 243 285
#     4   9  18  33  50  69  95 123 152 191 232 272
#     4   9  19  34  48  66  93 122 151 185 224 267
#     4   9  19  35  53  72  95 123 157 197 238 278
#     4   9  18  32  48  67  94 127 161 198 239 283
#
# _framework density 16.744593999999999
#
# number of rings (size 3 to 8) (size 9 to 14) (size 15 to 20)
#    0.000    2.750    0.000    3.000    0.000    5.000 
#    0.000    5.000    0.000    0.750    0.000    1.750 
#    0.000    0.000    0.000    0.000    0.000    0.000 
#
# Total GULP energy -793351.162184 kJ/mol
# GULP energy per Si atom -12396.111909 kJ/mol
# Density = 1.670648 g / cm^3
# Si number density = 16.744594 Si / 1000 Ang^3
#
#
#
# Elastic Constant Matrix: (Units=GPa)
#
#
# Indices 1 2 3 4 5 6 
#
# 1 82.4578 51.2068 44.0950 0.0000 0.0000 0.0000
# 2 51.2068 105.1717 62.6686 0.0000 0.0000 0.0000
# 3 44.0950 62.6686 82.2487 0.0000 0.0000 0.0000
# 4 0.0000 0.0000 0.0000 34.4338 0.0000 0.0000
# 5 0.0000 0.0000 0.0000 0.0000 13.0312 0.0000
# 6 0.0000 0.0000 0.0000 0.0000 0.0000 20.9482
#
#
#
# Elastic Compliance Matrix: (Units=1/GPa)
#
#
# Indices 1 2 3 4 5 6 
#
# 1 0.018720 -0.005741 -0.005662 0.000000 0.000000 0.000000
# 2 -0.005741 0.019175 -0.011533 0.000000 0.000000 0.000000
# 3 -0.005662 -0.011533 0.023981 0.000000 0.000000 0.000000
# 4 0.000000 0.000000 0.000000 0.029041 0.000000 0.000000
# 5 0.000000 0.000000 0.000000 0.000000 0.076739 0.000000
# 6 0.000000 0.000000 0.000000 0.000000 0.000000 0.047737
#
#
# Mechanical properties :
#
#
# Convention : Reuss Voigt Hill
#
# Bulk Modulus (GPa) = 62.47888 65.09100 63.78494
# Shear Modulus (GPa) = 18.75467 21.14318 19.94893
#
# Velocity S-wave (km/s) = 3.35034 3.55729 3.45536
# Velocity P-wave (km/s) = 7.23603 7.47192 7.35492
#
# Compressibility (1/GPa) = 0.01600541
#
# Stress axis : x y z
#
# Youngs Moduli (GPa) = 53.41774 52.15021 41.69957
#
# Poissons Ratio (x) = 0.29938 0.23611
# Poissons Ratio (y) = 0.30666 0.48091
# Poissons Ratio (z) = 0.30246 0.60143
#
# Static dielectric constant tensor:
#      x y z
#    x 3.192400 0.000000 0.000000 
#    y 0.000000 3.051010 0.000000 
#    z 0.000000 0.000000 3.150670 
# 
# 
# High freq. dielectric constant tensor:
#      x y z
#    x 1.637810 0.000000 0.000000 
#    y 0.000000 1.635080 0.000000 
#    z 0.000000 0.000000 1.647830 
# 
# From -- ./inp_files/10336.got.cif
#   From: 2010.03.12/outbox.cif.g09.slc.cpg/sg57_6_cif.got.tgz:10336.got - 2010.04.16 15:48:40.
