data_PCOD8230953
_publ_section_title
;
Structure prediction by ZEFSAII (Michael W. Deem and Ramdas Pophale) SiO2 
 PCOD8230953
Probable space group: P B C M
;
_chemical_formula_sum "Si O2"
_cell_formula_units_Z 48
_cell_length_a 15.203330
_cell_length_b 19.705642
_cell_length_c 9.024826
_cell_angle_alpha 90.000000
_cell_angle_beta 90.000000
_cell_angle_gamma 90.000000
_cell_volume 2703.760059
_symmetry_space_group_name_H-M "P B C M"
_symmetry_group_IT_number 57
_symmetry_cell_setting 'orthorhombic'
loop_
_space_group_symop_operation_xyz
x,y,z
-x,-y,1/2+z
x,1/2-y,-z
-x,1/2+y,1/2-z
-x,-y,-z
x,y,1/2-z
-x,1/2+y,z
x,1/2-y,1/2+z
loop_
_atom_site_type_symbol
_atom_site_label
_atom_site_fract_x
_atom_site_fract_y
_atom_site_fract_z
Si Si1 0.240918 0.423259 0.077599
Si Si2 0.586257 0.080723 0.917301
Si Si3 0.584744 0.919195 0.583387
Si Si4 0.095740 0.181922 0.922762
Si Si5 0.762823 0.419633 0.924085
Si Si6 0.894489 0.319756 0.074770
O O1 0.261728 0.414246 0.250000
O O2 0.155665 0.381108 0.026447
O O3 0.222487 0.501405 0.039677
O O4 0.324961 0.394177 0.990523
O O5 0.593949 0.108756 0.750000
O O6 0.581782 0.000019 0.917491
O O7 0.497921 0.110354 0.991978
O O8 0.669516 0.105831 0.012295
O O9 0.579743 0.890806 0.750000
O O10 0.103796 0.194890 0.750000
O O11 0.995648 0.165626 0.967764
O O12 0.130125 0.250000 0.000000
O O13 0.765749 0.404325 0.750000
O O14 0.840303 0.381401 0.007551
O O15 0.879563 0.315121 0.250000
O O16 0.862416 0.250000 0.000000
#
# Coordination Sequence:
#
# PCOD8230953 Si02
#       6
#     8   8   8   8   8   8
#     4   9  18  32  49  72 102 132 162 200 247 293
#     4   9  16  27  44  67  97 131 163 197 240 289
#     4   9  16  26  43  69  98 128 163 200 239 287
#     4   9  19  35  53  72  96 129 167 204 243 291
#     4  10  19  31  49  74 102 130 162 202 246 291
#     4  10  20  35  53  72  96 128 166 204 244 293
#
# _framework density 17.753053999999999
#
# number of rings (size 3 to 8) (size 9 to 14) (size 15 to 20)
#    0.000    2.667    0.000    2.000    0.000    6.667 
#    0.000    0.000    0.000    1.000    0.000    4.667 
#    0.000    0.000    0.000    0.000    0.000    0.000 
#
# Total GULP energy -595243.383306 kJ/mol
# GULP energy per Si atom -12400.903819 kJ/mol
# Density = 1.771265 g / cm^3
# Si number density = 17.753054 Si / 1000 Ang^3
#
#
#
# Elastic Constant Matrix: (Units=GPa)
#
#
# Indices 1 2 3 4 5 6 
#
# 1 129.7573 58.7148 63.5676 0.0000 0.0000 0.0000
# 2 58.7148 60.8033 41.6168 0.0000 0.0000 0.0000
# 3 63.5676 41.6168 103.9296 0.0000 0.0000 0.0000
# 4 0.0000 0.0000 0.0000 23.6430 0.0000 0.0000
# 5 0.0000 0.0000 0.0000 0.0000 34.2416 0.0000
# 6 0.0000 0.0000 0.0000 0.0000 0.0000 4.2078
#
#
#
# Elastic Compliance Matrix: (Units=1/GPa)
#
#
# Indices 1 2 3 4 5 6 
#
# 1 0.015194 -0.011450 -0.004709 0.000000 0.000000 0.000000
# 2 -0.011450 0.031284 -0.005524 0.000000 0.000000 0.000000
# 3 -0.004709 -0.005524 0.014714 0.000000 0.000000 0.000000
# 4 0.000000 0.000000 0.000000 0.042296 0.000000 0.000000
# 5 0.000000 0.000000 0.000000 0.000000 0.029204 0.000000
# 6 0.000000 0.000000 0.000000 0.000000 0.000000 0.237653
#
#
# Mechanical properties :
#
#
# Convention : Reuss Voigt Hill
#
# Bulk Modulus (GPa) = 56.09333 69.14317 62.61825
# Shear Modulus (GPa) = 11.91462 21.12456 16.51959
#
# Velocity S-wave (km/s) = 2.59343 3.45325 3.05375
# Velocity P-wave (km/s) = 6.37439 7.41159 6.91247
#
# Compressibility (1/GPa) = 0.01782743
#
# Stress axis : x y z
#
# Youngs Moduli (GPa) = 65.81375 31.96554 67.96293
#
# Poissons Ratio (x) = 0.36599 0.32002
# Poissons Ratio (y) = 0.75354 0.37542
# Poissons Ratio (z) = 0.30990 0.17658
#
# Static dielectric constant tensor:
#      x y z
#    x 3.472810 0.000000 0.000000 
#    y 0.000000 2.973730 0.000000 
#    z 0.000000 0.000000 3.421450 
# 
# 
# High freq. dielectric constant tensor:
#      x y z
#    x 1.696810 0.000000 0.000000 
#    y 0.000000 1.642860 0.000000 
#    z 0.000000 0.000000 1.699310 
# 
# From -- ./inp_files/3177.got.cif
#   From: 2010.03.12/outbox.cif.g09.slc.cpg/sg57_2_cif.got.tgz:3177.got - 2010.04.16 15:48:40.
