data_PCOD8230434
_publ_section_title
;
Structure prediction by ZEFSAII (Michael W. Deem and Ramdas Pophale) SiO2 
 PCOD8230434
Probable space group: P B C M
;
_chemical_formula_sum "Si O2"
_cell_formula_units_Z 64
_cell_length_a 15.136699
_cell_length_b 24.435793
_cell_length_c 8.765551
_cell_angle_alpha 90.000000
_cell_angle_beta 90.000000
_cell_angle_gamma 90.000000
_cell_volume 3242.177841
_symmetry_space_group_name_H-M "P B C M"
_symmetry_group_IT_number 57
_symmetry_cell_setting 'orthorhombic'
loop_
_space_group_symop_operation_xyz
x,y,z
-x,-y,1/2+z
x,1/2-y,-z
-x,1/2+y,1/2-z
-x,-y,-z
x,y,1/2-z
-x,1/2+y,z
x,1/2-y,1/2+z
loop_
_atom_site_type_symbol
_atom_site_label
_atom_site_fract_x
_atom_site_fract_y
_atom_site_fract_z
Si Si1 0.874636 0.018218 0.924551
Si Si2 0.210021 0.692445 0.931387
Si Si3 0.944260 0.371756 0.569319
Si Si4 0.623603 0.123232 0.931431
Si Si5 0.544407 0.809877 0.068785
Si Si6 0.666665 0.006293 0.577857
Si Si7 0.114244 0.095348 0.568854
Si Si8 0.312816 0.395383 0.429602
O O1 0.908986 0.019042 0.750000
O O2 0.769765 0.019076 0.929279
O O3 0.908641 0.070393 0.013635
O O4 0.911832 0.965114 0.011001
O O5 0.202975 0.695464 0.750000
O O6 0.284587 0.649753 0.986301
O O7 0.239328 0.750000 0.000000
O O8 0.115687 0.676096 0.000296
O O9 0.943512 0.367932 0.750000
O O10 0.044114 0.363016 0.506479
O O11 0.621529 0.122211 0.750000
O O12 0.541894 0.158657 0.994858
O O13 0.617627 0.060237 0.990446
O O14 0.540969 0.805150 0.250000
O O15 0.629943 0.843978 0.012745
O O16 0.549753 0.750000 0.000000
O O17 0.635954 0.995250 0.750000
O O18 0.642731 0.952141 0.483459
O O19 0.107957 0.097988 0.750000
O O20 0.212474 0.111128 0.509494
O O21 0.312794 0.397880 0.250000
#
# Coordination Sequence:
#
# PCOD8230434 Si02
#       8
#     8   8   8   8   8   8   8   8
#     4  10  18  32  53  80 114 150 186 227 275 332
#     4  11  22  39  58  81 113 151 190 232 283 337
#     4  12  23  35  53  80 110 147 191 233 279 333
#     4   9  18  35  59  85 116 149 181 225 280 337
#     4  10  21  39  61  84 112 145 188 234 281 332
#     4   9  17  32  55  83 115 153 186 220 277 342
#     4  10  20  35  54  78 111 149 188 232 283 335
#     4   9  20  37  56  82 115 149 185 236 288 331
#
# _framework density 19.739818
#
# number of rings (size 3 to 8) (size 9 to 14) (size 15 to 20)
#    0.000    2.000    1.250    3.000    0.000    2.000 
#    0.000    1.875    0.000    1.500    0.000    0.000 
#    0.000    0.000    0.000    0.000    0.000    0.000 
#
# Total GULP energy -793586.307521 kJ/mol
# GULP energy per Si atom -12399.786055 kJ/mol
# Density = 1.969489 g / cm^3
# Si number density = 19.739818 Si / 1000 Ang^3
#
#
#
# Elastic Constant Matrix: (Units=GPa)
#
#
# Indices 1 2 3 4 5 6 
#
# 1 82.4227 59.9623 31.5887 0.0000 0.0000 0.0000
# 2 59.9623 111.4088 25.0554 0.0000 0.0000 0.0000
# 3 31.5887 25.0554 66.2157 0.0000 0.0000 0.0000
# 4 0.0000 0.0000 0.0000 33.6739 0.0000 0.0000
# 5 0.0000 0.0000 0.0000 0.0000 19.2372 0.0000
# 6 0.0000 0.0000 0.0000 0.0000 0.0000 6.4297
#
#
#
# Elastic Compliance Matrix: (Units=1/GPa)
#
#
# Indices 1 2 3 4 5 6 
#
# 1 0.022351 -0.010528 -0.006679 0.000000 0.000000 0.000000
# 2 -0.010528 0.014770 -0.000566 0.000000 0.000000 0.000000
# 3 -0.006679 -0.000566 0.018503 0.000000 0.000000 0.000000
# 4 0.000000 0.000000 0.000000 0.029697 0.000000 0.000000
# 5 0.000000 0.000000 0.000000 0.000000 0.051983 0.000000
# 6 0.000000 0.000000 0.000000 0.000000 0.000000 0.155528
#
#
# Mechanical properties :
#
#
# Convention : Reuss Voigt Hill
#
# Bulk Modulus (GPa) = 49.80812 54.80667 52.30740
# Shear Modulus (GPa) = 14.92223 21.43088 18.17655
#
# Velocity S-wave (km/s) = 2.75243 3.29852 3.03777
# Velocity P-wave (km/s) = 5.94880 6.50629 6.23378
#
# Compressibility (1/GPa) = 0.02007705
#
# Stress axis : x y z
#
# Youngs Moduli (GPa) = 44.74001 67.70680 54.04572
#
# Poissons Ratio (x) = 0.71280 0.36099
# Poissons Ratio (y) = 0.47101 0.03061
# Poissons Ratio (z) = 0.29883 0.03834
#
# Static dielectric constant tensor:
#      x y z
#    x 3.971480 0.000000 0.000000 
#    y 0.000000 3.619250 0.000000 
#    z 0.000000 0.000000 3.487400 
# 
# 
# High freq. dielectric constant tensor:
#      x y z
#    x 1.776080 0.000000 0.000000 
#    y 0.000000 1.760850 0.000000 
#    z 0.000000 0.000000 1.755860 
# 
# From -- ./inp_files/5575.got.cif
#   From: 2010.03.12/outbox.cif.g09.slc.cpg/sg57_3_cif.got.tgz:5575.got - 2010.04.16 15:48:40.
