data_PCOD8230378
_publ_section_title
;
Structure prediction by ZEFSAII (Michael W. Deem and Ramdas Pophale) SiO2 
 PCOD8230378
Probable space group: P B C M
;
_chemical_formula_sum "Si O2"
_cell_formula_units_Z 40
_cell_length_a 25.937683
_cell_length_b 9.111273
_cell_length_c 8.577213
_cell_angle_alpha 90.000000
_cell_angle_beta 90.000000
_cell_angle_gamma 90.000000
_cell_volume 2027.012528
_symmetry_space_group_name_H-M "P B C M"
_symmetry_group_IT_number 57
_symmetry_cell_setting 'orthorhombic'
loop_
_space_group_symop_operation_xyz
x,y,z
-x,-y,1/2+z
x,1/2-y,-z
-x,1/2+y,1/2-z
-x,-y,-z
x,y,1/2-z
-x,1/2+y,z
x,1/2-y,1/2+z
loop_
_atom_site_type_symbol
_atom_site_label
_atom_site_fract_x
_atom_site_fract_y
_atom_site_fract_z
Si Si1 0.358219 0.588196 0.067805
Si Si2 0.256106 0.409649 0.068396
Si Si3 0.452145 0.412088 0.566354
Si Si4 0.847932 0.913218 0.565766
Si Si5 0.952204 0.912826 0.065763
O O1 0.371659 0.591277 0.250000
O O2 0.302658 0.519112 0.034734
O O3 0.359378 0.750000 0.000000
O O4 0.399486 0.490339 0.979233
O O5 0.244802 0.389642 0.250000
O O6 0.269581 0.250000 0.000000
O O7 0.205928 0.486281 0.987965
O O8 0.452455 0.250000 0.500000
O O9 0.500000 0.500000 0.500000
O O10 0.457147 0.404128 0.750000
O O11 0.844529 0.750000 0.500000
O O12 0.853717 0.915447 0.750000
O O13 0.898696 0.989545 0.491040
O O14 0.954440 0.910307 0.250000
O O15 0.954749 0.750000 0.000000
O O16 0.000000 0.000000 0.000000
#
# Coordination Sequence:
#
# PCOD8230378 Si02
#       5
#     8   8   8   8   8
#     4  11  24  41  61  87 120 157 196 238 289 343
#     4  10  20  35  57  84 112 145 187 235 285 339
#     4  12  25  43  66  92 123 157 197 241 289 341
#     4  10  18  31  53  80 109 144 186 232 283 339
#     4  11  21  36  56  81 112 147 188 234 286 342
#
# _framework density 19.733474999999999
#
# number of rings (size 3 to 8) (size 9 to 14) (size 15 to 20)
#    0.000    1.200    0.000   10.200    0.000    4.800 
#    0.000    1.000    0.000    2.400    0.000    0.000 
#    0.000    0.000    0.000    0.000    0.000    0.000 
#
# Total GULP energy -496035.684374 kJ/mol
# GULP energy per Si atom -12400.892109 kJ/mol
# Density = 1.968856 g / cm^3
# Si number density = 19.733475 Si / 1000 Ang^3
#
#
#
# Elastic Constant Matrix: (Units=GPa)
#
#
# Indices 1 2 3 4 5 6 
#
# 1 160.0492 64.3691 85.7344 0.0000 0.0000 0.0000
# 2 64.3691 109.9623 56.9575 0.0000 0.0000 0.0000
# 3 85.7344 56.9575 201.0925 0.0000 0.0000 0.0000
# 4 0.0000 0.0000 0.0000 31.9299 0.0000 0.0000
# 5 0.0000 0.0000 0.0000 0.0000 38.6949 0.0000
# 6 0.0000 0.0000 0.0000 0.0000 0.0000 33.7151
#
#
#
# Elastic Compliance Matrix: (Units=1/GPa)
#
#
# Indices 1 2 3 4 5 6 
#
# 1 0.009401 -0.004016 -0.002870 0.000000 0.000000 0.000000
# 2 -0.004016 0.012373 -0.001792 0.000000 0.000000 0.000000
# 3 -0.002870 -0.001792 0.006704 0.000000 0.000000 0.000000
# 4 0.000000 0.000000 0.000000 0.031319 0.000000 0.000000
# 5 0.000000 0.000000 0.000000 0.000000 0.025843 0.000000
# 6 0.000000 0.000000 0.000000 0.000000 0.000000 0.029660
#
#
# Mechanical properties :
#
#
# Convention : Reuss Voigt Hill
#
# Bulk Modulus (GPa) = 89.92364 98.35845 94.14104
# Shear Modulus (GPa) = 36.66608 38.47086 37.56847
#
# Velocity S-wave (km/s) = 4.31520 4.42013 4.36798
# Velocity P-wave (km/s) = 8.39619 8.71790 8.55855
#
# Compressibility (1/GPa) = 0.01112055
#
# Stress axis : x y z
#
# Youngs Moduli (GPa) = 106.37166 80.81838 149.15767
#
# Poissons Ratio (x) = 0.32459 0.42816
# Poissons Ratio (y) = 0.42722 0.26734
# Poissons Ratio (z) = 0.30534 0.14485
#
# Static dielectric constant tensor:
#      x y z
#    x 5.433420 0.000000 0.000000 
#    y 0.000000 3.372560 0.000000 
#    z 0.000000 0.000000 3.856050 
# 
# 
# High freq. dielectric constant tensor:
#      x y z
#    x 1.800280 0.000000 0.000000 
#    y 0.000000 1.741280 0.000000 
#    z 0.000000 0.000000 1.794450 
# 
# From -- ./inp_files/8907.got.cif
#   From: 2010.03.12/outbox.cif.g09.slc.cpg/sg57_5_cif.got.tgz:8907.got - 2010.04.16 15:48:40.
