data_PCOD8230244
_publ_section_title
;
Structure prediction by ZEFSAII (Michael W. Deem and Ramdas Pophale) SiO2 
 PCOD8230244
Probable space group: P B C M
;
_chemical_formula_sum "Si O2"
_cell_formula_units_Z 48
_cell_length_a 12.034871
_cell_length_b 25.975282
_cell_length_c 8.632733
_cell_angle_alpha 90.000000
_cell_angle_beta 90.000000
_cell_angle_gamma 90.000000
_cell_volume 2698.671481
_symmetry_space_group_name_H-M "P B C M"
_symmetry_group_IT_number 57
_symmetry_cell_setting 'orthorhombic'
loop_
_space_group_symop_operation_xyz
x,y,z
-x,-y,1/2+z
x,1/2-y,-z
-x,1/2+y,1/2-z
-x,-y,-z
x,y,1/2-z
-x,1/2+y,z
x,1/2-y,1/2+z
loop_
_atom_site_type_symbol
_atom_site_label
_atom_site_fract_x
_atom_site_fract_y
_atom_site_fract_z
Si Si1 0.655433 0.530795 0.930548
Si Si2 0.183348 0.109636 0.430098
Si Si3 0.036561 0.946100 0.573254
Si Si4 0.268707 0.928037 0.070197
Si Si5 0.326751 0.306668 0.434807
Si Si6 0.510033 0.384975 0.432993
O O1 0.652972 0.515028 0.750000
O O2 0.545265 0.561037 0.987415
O O3 0.758685 0.568411 0.959263
O O4 0.671528 0.481966 0.038884
O O5 0.217417 0.102875 0.250000
O O6 0.217899 0.166244 0.490917
O O7 0.052117 0.099638 0.452075
O O8 0.052298 0.960203 0.750000
O O9 0.152478 0.922663 0.515437
O O10 0.000000 0.000000 0.500000
O O11 0.242860 0.922831 0.250000
O O12 0.359759 0.884597 0.015566
O O13 0.335520 0.250000 0.500000
O O14 0.316109 0.306416 0.250000
O O15 0.438333 0.336569 0.494391
O O16 0.501785 0.384024 0.250000
#
# Coordination Sequence:
#
# PCOD8230244 Si02
#       6
#     8   8   8   8   8   8
#     4  10  18  30  48  71 103 139 176 215 257 304
#     4  10  20  34  52  76 104 137 178 221 262 309
#     4  11  22  34  50  73 106 144 183 220 258 307
#     4  11  20  31  48  71 104 143 180 212 254 309
#     4  10  20  37  60  83 105 130 166 216 271 321
#     4   8  18  33  49  73 103 135 171 214 259 309
#
# _framework density 17.786529999999999
#
# number of rings (size 3 to 8) (size 9 to 14) (size 15 to 20)
#    0.000    2.000    1.667    4.000    0.000    2.000 
#    0.000    9.167    0.000    1.000    0.000    4.667 
#    0.000    0.000    0.000    0.000    0.000    0.000 
#
# Total GULP energy -594848.178231 kJ/mol
# GULP energy per Si atom -12392.670380 kJ/mol
# Density = 1.774605 g / cm^3
# Si number density = 17.786530 Si / 1000 Ang^3
#
#
#
# Elastic Constant Matrix: (Units=GPa)
#
#
# Indices 1 2 3 4 5 6 
#
# 1 151.4380 53.0734 47.9462 0.0000 0.0000 0.0000
# 2 53.0734 75.1980 6.8683 0.0000 0.0000 0.0000
# 3 47.9462 6.8683 55.7938 0.0000 0.0000 0.0000
# 4 0.0000 0.0000 0.0000 18.1011 0.0000 0.0000
# 5 0.0000 0.0000 0.0000 0.0000 26.2603 0.0000
# 6 0.0000 0.0000 0.0000 0.0000 0.0000 8.0842
#
#
#
# Elastic Compliance Matrix: (Units=1/GPa)
#
#
# Indices 1 2 3 4 5 6 
#
# 1 0.012452 -0.007900 -0.009728 0.000000 0.000000 0.000000
# 2 -0.007900 0.018461 0.004516 0.000000 0.000000 0.000000
# 3 -0.009728 0.004516 0.025727 0.000000 0.000000 0.000000
# 4 0.000000 0.000000 0.000000 0.055245 0.000000 0.000000
# 5 0.000000 0.000000 0.000000 0.000000 0.038080 0.000000
# 6 0.000000 0.000000 0.000000 0.000000 0.000000 0.123698
#
#
# Mechanical properties :
#
#
# Convention : Reuss Voigt Hill
#
# Bulk Modulus (GPa) = 32.87674 55.35616 44.11645
# Shear Modulus (GPa) = 16.12768 22.12524 19.12646
#
# Velocity S-wave (km/s) = 3.01447 3.53077 3.28279
# Velocity P-wave (km/s) = 5.53536 6.91461 6.26307
#
# Compressibility (1/GPa) = 0.03041664
#
# Stress axis : x y z
#
# Youngs Moduli (GPa) = 80.30896 54.16736 38.86971
#
# Poissons Ratio (x) = 0.42791 0.37813
# Poissons Ratio (y) = 0.63443 -0.17554
# Poissons Ratio (z) = 0.78125 -0.24462
#
# Static dielectric constant tensor:
#      x y z
#    x 3.617850 0.000000 0.000000 
#    y 0.000000 3.179310 0.000000 
#    z 0.000000 0.000000 3.331890 
# 
# 
# High freq. dielectric constant tensor:
#      x y z
#    x 1.695430 0.000000 0.000000 
#    y 0.000000 1.651060 0.000000 
#    z 0.000000 0.000000 1.692090 
# 
# From -- ./inp_files/3260.got.cif
#   From: 2010.03.12/outbox.cif.g09.slc.cpg/sg57_2_cif.got.tgz:3260.got - 2010.04.16 15:48:40.
