data_PCOD8230205
_publ_section_title
;
Structure prediction by ZEFSAII (Michael W. Deem and Ramdas Pophale) SiO2 
 PCOD8230205
Probable space group: P B C M
;
_chemical_formula_sum "Si O2"
_cell_formula_units_Z 64
_cell_length_a 5.238973
_cell_length_b 30.845955
_cell_length_c 20.743575
_cell_angle_alpha 90.000000
_cell_angle_beta 90.000000
_cell_angle_gamma 90.000000
_cell_volume 3352.185065
_symmetry_space_group_name_H-M "P B C M"
_symmetry_group_IT_number 57
_symmetry_cell_setting 'orthorhombic'
loop_
_space_group_symop_operation_xyz
x,y,z
-x,-y,1/2+z
x,1/2-y,-z
-x,1/2+y,1/2-z
-x,-y,-z
x,y,1/2-z
-x,1/2+y,z
x,1/2-y,1/2+z
loop_
_atom_site_type_symbol
_atom_site_label
_atom_site_fract_x
_atom_site_fract_y
_atom_site_fract_z
Si Si1 0.641115 0.887428 0.173731
Si Si2 0.747870 0.450156 0.678800
Si Si3 0.812654 0.259253 0.675311
Si Si4 0.593601 0.974948 0.097658
Si Si5 0.323658 0.311493 0.825283
Si Si6 0.794662 0.528281 0.463703
Si Si7 0.771761 0.905535 0.862751
Si Si8 0.861506 0.336871 0.326421
O O1 0.658310 0.892691 0.250000
O O2 0.610534 0.934881 0.144810
O O3 0.391982 0.861523 0.152089
O O4 0.890656 0.862476 0.146411
O O5 0.713072 0.470850 0.750000
O O6 0.793260 0.488597 0.625548
O O7 0.496346 0.423254 0.662335
O O8 0.990904 0.418142 0.682961
O O9 0.746436 0.253588 0.750000
O O10 0.577728 0.287684 0.646842
O O11 0.835451 0.211398 0.643861
O O12 0.084482 0.280595 0.663665
O O13 0.321283 0.999812 0.095792
O O14 0.611701 0.959812 0.023522
O O15 0.356108 0.324184 0.750000
O O16 0.264002 0.354066 0.867045
O O17 0.858954 0.575024 0.432657
O O18 0.000000 0.500000 0.500000
O O19 0.890822 0.333976 0.250000
#
# Coordination Sequence:
#
# PCOD8230205 Si02
#       8
#     8   8   8   8   8   8   8   8
#     4  10  20  33  53  83 113 138 176 224 271 327
#     4  11  21  34  52  76 110 142 171 215 278 329
#     4   9  17  30  49  73 107 143 170 203 259 329
#     4  10  22  36  55  78 103 143 186 227 269 313
#     4  10  18  29  48  76 105 135 173 213 259 320
#     4  10  21  40  56  73 104 146 192 231 262 313
#     4  11  22  35  53  77 107 143 182 226 265 310
#     4   9  18  32  50  77 111 143 170 208 266 330
#
# _framework density 19.092026000000001
#
# number of rings (size 3 to 8) (size 9 to 14) (size 15 to 20)
#    0.000    2.000    1.250    3.000    1.750    4.000 
#    0.000    2.500    0.000    0.000    0.000    5.250 
#    0.000    0.000    0.000    0.000    0.000    0.000 
#
# Total GULP energy -792940.200560 kJ/mol
# GULP energy per Si atom -12389.690634 kJ/mol
# Density = 1.904857 g / cm^3
# Si number density = 19.092026 Si / 1000 Ang^3
#
#
#
# Elastic Constant Matrix: (Units=GPa)
#
#
# Indices 1 2 3 4 5 6 
#
# 1 118.0054 47.8458 15.1158 0.0000 0.0000 0.0000
# 2 47.8458 132.6693 22.9763 0.0000 0.0000 0.0000
# 3 15.1158 22.9763 29.1665 0.0000 0.0000 0.0000
# 4 0.0000 0.0000 0.0000 13.8397 0.0000 0.0000
# 5 0.0000 0.0000 0.0000 0.0000 -0.8702 0.0000
# 6 0.0000 0.0000 0.0000 0.0000 0.0000 26.0193
#
#
#
# Elastic Compliance Matrix: (Units=1/GPa)
#
#
# Indices 1 2 3 4 5 6 
#
# 1 0.010111 -0.003172 -0.002742 0.000000 0.000000 0.000000
# 2 -0.003172 0.009723 -0.006016 0.000000 0.000000 0.000000
# 3 -0.002742 -0.006016 0.040446 0.000000 0.000000 0.000000
# 4 0.000000 0.000000 0.000000 0.072256 0.000000 0.000000
# 5 0.000000 0.000000 0.000000 0.000000 -1.149196 0.000000
# 6 0.000000 0.000000 0.000000 0.000000 0.000000 0.038433
#
#
# Mechanical properties :
#
#
# Convention : Reuss Voigt Hill
#
# Bulk Modulus (GPa) = 27.45599 50.19077 38.82338
# Shear Modulus (GPa) = -5.30657 20.72466 7.70904
#
# Velocity S-wave (km/s) = -1.66898 3.29829 2.01162
# Velocity P-wave (km/s) = 3.27079 6.39147 5.07686
#
# Compressibility (1/GPa) = 0.03642192
#
# Stress axis : x y z
#
# Youngs Moduli (GPa) = 98.89840 102.84628 24.72437
#
# Poissons Ratio (x) = 0.32620 0.06779
# Poissons Ratio (y) = 0.31368 0.14874
# Poissons Ratio (z) = 0.27115 0.61871
#
# Static dielectric constant tensor:
#      x y z
#    x 3.777560 0.000000 0.000000 
#    y 0.000000 3.730310 0.000000 
#    z 0.000000 0.000000 3.825580 
# 
# 
# High freq. dielectric constant tensor:
#      x y z
#    x 1.760060 0.000000 0.000000 
#    y 0.000000 1.743770 0.000000 
#    z 0.000000 0.000000 1.694320 
# 
# From -- ./inp_files/23854.got.cif
#   From: 2010.03.12/outbox.cif.g09.slc.cpg/sg57_12_cif.got.tgz:23854.got - 2010.04.16 15:48:40.
