data_PCOD8230929
_publ_section_title
;
Structure prediction by ZEFSAII (Michael W. Deem and Ramdas Pophale) SiO2 
 PCOD8230929
Probable space group: P B C M
;
_chemical_formula_sum "Si O2"
_cell_formula_units_Z 48
_cell_length_a 18.336618
_cell_length_b 15.378683
_cell_length_c 9.237813
_cell_angle_alpha 90.000000
_cell_angle_beta 90.000000
_cell_angle_gamma 90.000000
_cell_volume 2604.998929
_symmetry_space_group_name_H-M "P B C M"
_symmetry_group_IT_number 57
_symmetry_cell_setting 'orthorhombic'
loop_
_space_group_symop_operation_xyz
x,y,z
-x,-y,1/2+z
x,1/2-y,-z
-x,1/2+y,1/2-z
-x,-y,-z
x,y,1/2-z
-x,1/2+y,z
x,1/2-y,1/2+z
loop_
_atom_site_type_symbol
_atom_site_label
_atom_site_fract_x
_atom_site_fract_y
_atom_site_fract_z
Si Si1 0.925969 0.836847 0.420244
Si Si2 0.530421 0.921001 0.914100
Si Si3 0.094643 0.665404 0.917128
Si Si4 0.327007 0.999149 0.417172
Si Si5 0.610111 0.334734 0.580565
Si Si6 0.838192 0.516621 0.081156
O O1 0.898028 0.750000 0.500000
O O2 0.911076 0.827523 0.250000
O O3 0.883131 0.918678 0.481766
O O4 0.010587 0.852873 0.455690
O O5 0.516677 0.946508 0.750000
O O6 0.478449 0.838606 0.949657
O O7 0.617976 0.917638 0.944334
O O8 0.500000 0.000000 0.000000
O O9 0.104717 0.686534 0.750000
O O10 0.141149 0.581586 0.963440
O O11 0.124598 0.750000 0.000000
O O12 0.330628 0.968152 0.250000
O O13 0.348802 0.918633 0.517975
O O14 0.246524 0.032049 0.454894
O O15 0.640602 0.250000 0.500000
O O16 0.627937 0.327364 0.750000
O O17 0.856426 0.533372 0.250000
#
# Coordination Sequence:
#
# PCOD8230929 Si02
#       6
#     8   8   8   8   8   8
#     4  10  20  35  55  76 100 133 175 220 261 305
#     4   8  15  29  48  67  88 119 157 193 231 277
#     4   9  19  34  52  76 104 136 174 215 258 304
#     4   9  18  33  51  71  99 131 161 199 248 300
#     4  10  19  31  49  72  97 126 163 204 245 293
#     4  10  20  34  53  78 108 139 170 209 260 313
#
# _framework density 18.426110999999999
#
# number of rings (size 3 to 8) (size 9 to 14) (size 15 to 20)
#    0.000    2.667    0.000    1.500    0.000    3.333 
#    0.000    2.500    0.000    2.000    0.000    0.000 
#    0.000    0.000    0.000    0.000    0.000    0.000 
#
# Total GULP energy -594777.068476 kJ/mol
# GULP energy per Si atom -12391.188927 kJ/mol
# Density = 1.838417 g / cm^3
# Si number density = 18.426111 Si / 1000 Ang^3
#
#
#
# Elastic Constant Matrix: (Units=GPa)
#
#
# Indices 1 2 3 4 5 6 
#
# 1 68.3961 13.4922 22.3665 0.0000 0.0000 0.0000
# 2 13.4922 49.8561 27.5980 0.0000 0.0000 0.0000
# 3 22.3665 27.5980 66.4320 0.0000 0.0000 0.0000
# 4 0.0000 0.0000 0.0000 32.3543 0.0000 0.0000
# 5 0.0000 0.0000 0.0000 0.0000 19.2211 0.0000
# 6 0.0000 0.0000 0.0000 0.0000 0.0000 14.4590
#
#
#
# Elastic Compliance Matrix: (Units=1/GPa)
#
#
# Indices 1 2 3 4 5 6 
#
# 1 0.016555 -0.001811 -0.004821 0.000000 0.000000 0.000000
# 2 -0.001811 0.026246 -0.010294 0.000000 0.000000 0.000000
# 3 -0.004821 -0.010294 0.020952 0.000000 0.000000 0.000000
# 4 0.000000 0.000000 0.000000 0.030908 0.000000 0.000000
# 5 0.000000 0.000000 0.000000 0.000000 0.052026 0.000000
# 6 0.000000 0.000000 0.000000 0.000000 0.000000 0.069161
#
#
# Mechanical properties :
#
#
# Convention : Reuss Voigt Hill
#
# Bulk Modulus (GPa) = 33.44374 34.62195 34.03285
# Shear Modulus (GPa) = 19.25540 21.28871 20.27206
#
# Velocity S-wave (km/s) = 3.23616 3.40274 3.32050
# Velocity P-wave (km/s) = 5.67038 5.85394 5.76289
#
# Compressibility (1/GPa) = 0.02990096
#
# Stress axis : x y z
#
# Youngs Moduli (GPa) = 60.40612 38.10105 47.72702
#
# Poissons Ratio (x) = 0.06901 0.23010
# Poissons Ratio (y) = 0.10941 0.49128
# Poissons Ratio (z) = 0.29123 0.39220
#
# Static dielectric constant tensor:
#      x y z
#    x 3.769270 0.000000 0.000000 
#    y 0.000000 3.312940 0.000000 
#    z 0.000000 0.000000 3.422270 
# 
# 
# High freq. dielectric constant tensor:
#      x y z
#    x 1.715160 0.000000 0.000000 
#    y 0.000000 1.694810 0.000000 
#    z 0.000000 0.000000 1.719450 
# 
# From -- ./inp_files/6518.got.cif
#   From: 2010.03.12/outbox.cif.g09.slc.cpg/sg57_4_cif.got.tgz:6518.got - 2010.04.16 15:48:40.
