data_PCOD8230726
_publ_section_title
;
Structure prediction by ZEFSAII (Michael W. Deem and Ramdas Pophale) SiO2 
 PCOD8230726
Probable space group: P B C M
;
_chemical_formula_sum "Si O2"
_cell_formula_units_Z 64
_cell_length_a 27.403739
_cell_length_b 14.636724
_cell_length_c 9.069969
_cell_angle_alpha 90.000000
_cell_angle_beta 90.000000
_cell_angle_gamma 90.000000
_cell_volume 3637.973312
_symmetry_space_group_name_H-M "P B C M"
_symmetry_group_IT_number 57
_symmetry_cell_setting 'orthorhombic'
loop_
_space_group_symop_operation_xyz
x,y,z
-x,-y,1/2+z
x,1/2-y,-z
-x,1/2+y,1/2-z
-x,-y,-z
x,y,1/2-z
-x,1/2+y,z
x,1/2-y,1/2+z
loop_
_atom_site_type_symbol
_atom_site_label
_atom_site_fract_x
_atom_site_fract_y
_atom_site_fract_z
Si Si1 0.916557 0.658781 0.423792
Si Si2 0.304351 0.840799 0.079391
Si Si3 0.192817 0.655288 0.575262
Si Si4 0.608590 0.466787 0.421465
Si Si5 0.983809 0.087093 0.083394
Si Si6 0.422860 0.161729 0.419848
Si Si7 0.882460 0.471222 0.575409
Si Si8 0.534187 0.158389 0.076312
O O1 0.894760 0.750000 0.500000
O O2 0.903264 0.656757 0.250000
O O3 0.894150 0.569740 0.503272
O O4 0.975953 0.665411 0.447674
O O5 0.308126 0.818762 0.250000
O O6 0.249082 0.865134 0.035715
O O7 0.339109 0.924826 0.034008
O O8 0.323224 0.750000 0.000000
O O9 0.176120 0.750000 0.500000
O O10 0.183305 0.661233 0.750000
O O11 0.164260 0.570469 0.505009
O O12 0.596248 0.449554 0.250000
O O13 0.610867 0.574648 0.456064
O O14 0.565394 0.425965 0.518533
O O15 0.987027 0.056249 0.250000
O O16 0.926541 0.103131 0.045410
O O17 0.000000 0.000000 0.000000
O O18 0.400611 0.250000 0.500000
O O19 0.422521 0.186407 0.250000
O O20 0.478244 0.141359 0.471212
O O21 0.872751 0.483940 0.750000
O O22 0.540755 0.167665 0.250000
O O23 0.554377 0.250000 0.000000
#
# Coordination Sequence:
#
# PCOD8230726 Si02
#       8
#     8   8   8   8   8   8   8   8
#     4  10  19  32  49  72 102 137 171 205 244 288
#     4   9  19  34  52  73  98 124 154 194 244 295
#     4  10  20  35  53  74  98 127 160 199 247 298
#     4  10  19  32  50  72  96 126 162 202 244 287
#     4   8  16  29  45  66  94 126 161 198 238 280
#     4   9  19  33  48  67  96 130 164 199 237 280
#     4  10  19  33  52  75 101 131 167 207 246 292
#     4  10  19  30  45  69  99 131 162 196 236 284
#
# _framework density 17.592212
#
# number of rings (size 3 to 8) (size 9 to 14) (size 15 to 20)
#    0.000    2.500    0.000    2.250    0.000    4.500 
#    0.000    1.250    0.000    0.750    0.000    1.750 
#    0.000    0.000    0.000    0.000    0.000    0.000 
#
# Total GULP energy -793132.720139 kJ/mol
# GULP energy per Si atom -12392.698752 kJ/mol
# Density = 1.755217 g / cm^3
# Si number density = 17.592212 Si / 1000 Ang^3
#
#
#
# Elastic Constant Matrix: (Units=GPa)
#
#
# Indices 1 2 3 4 5 6 
#
# 1 79.1797 61.2727 40.0211 0.0000 0.0000 0.0000
# 2 61.2727 122.4017 55.7462 0.0000 0.0000 0.0000
# 3 40.0211 55.7462 76.8170 0.0000 0.0000 0.0000
# 4 0.0000 0.0000 0.0000 32.1523 0.0000 0.0000
# 5 0.0000 0.0000 0.0000 0.0000 19.3527 0.0000
# 6 0.0000 0.0000 0.0000 0.0000 0.0000 25.9426
#
#
#
# Elastic Compliance Matrix: (Units=1/GPa)
#
#
# Indices 1 2 3 4 5 6 
#
# 1 0.021904 -0.008615 -0.005160 0.000000 0.000000 0.000000
# 2 -0.008615 0.015591 -0.006826 0.000000 0.000000 0.000000
# 3 -0.005160 -0.006826 0.020660 0.000000 0.000000 0.000000
# 4 0.000000 0.000000 0.000000 0.031102 0.000000 0.000000
# 5 0.000000 0.000000 0.000000 0.000000 0.051672 0.000000
# 6 0.000000 0.000000 0.000000 0.000000 0.000000 0.038547
#
#
# Mechanical properties :
#
#
# Convention : Reuss Voigt Hill
#
# Bulk Modulus (GPa) = 58.98633 65.83094 62.40863
# Shear Modulus (GPa) = 22.09162 23.58010 22.83586
#
# Velocity S-wave (km/s) = 3.54752 3.66508 3.60678
# Velocity P-wave (km/s) = 7.09806 7.44393 7.27305
#
# Compressibility (1/GPa) = 0.01695308
#
# Stress axis : x y z
#
# Youngs Moduli (GPa) = 45.65333 64.13851 48.40218
#
# Poissons Ratio (x) = 0.55254 0.24976
# Poissons Ratio (y) = 0.39330 0.33041
# Poissons Ratio (z) = 0.23558 0.43783
#
# Static dielectric constant tensor:
#      x y z
#    x 3.265670 0.000000 0.000000 
#    y 0.000000 3.153740 0.000000 
#    z 0.000000 0.000000 3.321970 
# 
# 
# High freq. dielectric constant tensor:
#      x y z
#    x 1.661180 0.000000 0.000000 
#    y 0.000000 1.670000 0.000000 
#    z 0.000000 0.000000 1.690420 
# 
# From -- ./inp_files/9332.got.cif
#   From: 2010.03.12/outbox.cif.g09.slc.cpg/sg57_5_cif.got.tgz:9332.got - 2010.04.16 15:48:40.
