data_PCOD8230382
_publ_section_title
;
Structure prediction by ZEFSAII (Michael W. Deem and Ramdas Pophale) SiO2 
 PCOD8230382
Probable space group: P B C M
;
_chemical_formula_sum "Si O2"
_cell_formula_units_Z 56
_cell_length_a 12.370504
_cell_length_b 14.093040
_cell_length_c 14.633229
_cell_angle_alpha 90.000000
_cell_angle_beta 90.000000
_cell_angle_gamma 90.000000
_cell_volume 2551.127990
_symmetry_space_group_name_H-M "P B C M"
_symmetry_group_IT_number 57
_symmetry_cell_setting 'orthorhombic'
loop_
_space_group_symop_operation_xyz
x,y,z
-x,-y,1/2+z
x,1/2-y,-z
-x,1/2+y,1/2-z
-x,-y,-z
x,y,1/2-z
-x,1/2+y,z
x,1/2-y,1/2+z
loop_
_atom_site_type_symbol
_atom_site_label
_atom_site_fract_x
_atom_site_fract_y
_atom_site_fract_z
Si Si1 0.495066 0.827985 0.353396
Si Si2 0.391079 0.141460 0.142879
Si Si3 0.909550 0.596585 0.598729
Si Si4 0.837503 0.710140 0.149337
Si Si5 0.683890 0.527544 0.649678
Si Si6 0.112242 0.487009 0.900170
Si Si7 0.343540 0.541487 0.546738
O O1 0.453643 0.843087 0.250000
O O2 0.513363 0.716601 0.373483
O O3 0.609110 0.881107 0.367341
O O4 0.403979 0.863093 0.423496
O O5 0.379905 0.114277 0.250000
O O6 0.279646 0.187784 0.105470
O O7 0.416545 0.047870 0.082564
O O8 0.903779 0.711478 0.590856
O O9 0.807450 0.561652 0.656934
O O10 0.907260 0.548210 0.501693
O O11 0.024698 0.561871 0.639949
O O12 0.824272 0.754606 0.250000
O O13 0.898100 0.609102 0.158898
O O14 0.655923 0.480714 0.750000
O O15 0.668548 0.456729 0.563622
O O16 0.229892 0.536505 0.898842
#
# Coordination Sequence:
#
# PCOD8230382 Si02
#       7
#     8   8   8   8   8   8   8
#     4  10  19  34  56  82 114 149 189 239 293 347
#     4   9  18  33  55  86 115 145 190 237 284 343
#     4  10  18  35  57  79 113 150 185 237 285 325
#     4  10  18  31  53  81 111 144 183 229 277 334
#     4  10  20  34  55  83 113 151 196 239 286 342
#     4   9  21  34  54  86 112 144 193 233 278 342
#     4  10  20  35  58  85 117 151 191 242 294 343
#
# _framework density 21.951073000000001
#
# number of rings (size 3 to 8) (size 9 to 14) (size 15 to 20)
#    0.000    2.286    1.429    1.714    0.000    2.286 
#    0.000    0.000    3.143    0.857    3.714    0.000 
#    0.000    0.000    0.000    0.000    0.000    0.000 
#
# Total GULP energy -693994.910469 kJ/mol
# GULP energy per Si atom -12392.766258 kJ/mol
# Density = 2.190111 g / cm^3
# Si number density = 21.951073 Si / 1000 Ang^3
#
#
#
# Elastic Constant Matrix: (Units=GPa)
#
#
# Indices 1 2 3 4 5 6 
#
# 1 85.3744 42.1725 28.4932 0.0000 0.0000 0.0000
# 2 42.1725 86.3028 30.4379 0.0000 0.0000 0.0000
# 3 28.4932 30.4379 80.6519 0.0000 0.0000 0.0000
# 4 0.0000 0.0000 0.0000 19.3366 0.0000 0.0000
# 5 0.0000 0.0000 0.0000 0.0000 15.4861 0.0000
# 6 0.0000 0.0000 0.0000 0.0000 0.0000 35.8113
#
#
#
# Elastic Compliance Matrix: (Units=1/GPa)
#
#
# Indices 1 2 3 4 5 6 
#
# 1 0.016100 -0.006761 -0.003136 0.000000 0.000000 0.000000
# 2 -0.006761 0.016206 -0.003727 0.000000 0.000000 0.000000
# 3 -0.003136 -0.003727 0.014914 0.000000 0.000000 0.000000
# 4 0.000000 0.000000 0.000000 0.051715 0.000000 0.000000
# 5 0.000000 0.000000 0.000000 0.000000 0.064574 0.000000
# 6 0.000000 0.000000 0.000000 0.000000 0.000000 0.027924
#
#
# Mechanical properties :
#
#
# Convention : Reuss Voigt Hill
#
# Bulk Modulus (GPa) = 50.07615 50.50403 50.29009
# Shear Modulus (GPa) = 22.18887 24.20849 23.19868
#
# Velocity S-wave (km/s) = 3.18281 3.32450 3.25443
# Velocity P-wave (km/s) = 6.03069 6.14768 6.08946
#
# Compressibility (1/GPa) = 0.01996958
#
# Stress axis : x y z
#
# Youngs Moduli (GPa) = 62.11352 61.70727 67.05286
#
# Poissons Ratio (x) = 0.41721 0.21029
# Poissons Ratio (y) = 0.41996 0.24993
# Poissons Ratio (z) = 0.19480 0.23000
#
# Static dielectric constant tensor:
#      x y z
#    x 4.210820 0.000000 0.000000 
#    y 0.000000 3.812680 0.000000 
#    z 0.000000 0.000000 4.008740 
# 
# 
# High freq. dielectric constant tensor:
#      x y z
#    x 1.845310 0.000000 0.000000 
#    y 0.000000 1.835120 0.000000 
#    z 0.000000 0.000000 1.869460 
# 
# From -- ./inp_files/17745.got.cif
#   From: 2010.03.12/outbox.cif.g09.slc.cpg/sg57_9_cif.got.tgz:17745.got - 2010.04.16 15:48:40.
