data_PCOD8230561
_publ_section_title
;
Structure prediction by ZEFSAII (Michael W. Deem and Ramdas Pophale) SiO2 
 PCOD8230561
Probable space group: P B C M
;
_chemical_formula_sum "Si O2"
_cell_formula_units_Z 40
_cell_length_a 22.928375
_cell_length_b 9.247625
_cell_length_c 9.895673
_cell_angle_alpha 90.000000
_cell_angle_beta 90.000000
_cell_angle_gamma 90.000000
_cell_volume 2098.209370
_symmetry_space_group_name_H-M "P B C M"
_symmetry_group_IT_number 57
_symmetry_cell_setting 'orthorhombic'
loop_
_space_group_symop_operation_xyz
x,y,z
-x,-y,1/2+z
x,1/2-y,-z
-x,1/2+y,1/2-z
-x,-y,-z
x,y,1/2-z
-x,1/2+y,z
x,1/2-y,1/2+z
loop_
_atom_site_type_symbol
_atom_site_label
_atom_site_fract_x
_atom_site_fract_y
_atom_site_fract_z
Si Si1 0.329868 0.079558 0.986111
Si Si2 0.456719 0.100827 0.583977
Si Si3 0.939751 0.082368 0.996651
Si Si4 0.857857 0.097906 0.750000
Si Si5 0.133944 0.565335 0.250000
Si Si6 0.733178 0.945811 0.750000
Si Si7 0.249898 0.396274 0.250000
O O1 0.393296 0.026520 0.936122
O O2 0.281398 0.035231 0.878665
O O3 0.333618 0.250000 0.000000
O O4 0.307768 0.008050 0.124842
O O5 0.459342 0.250000 0.500000
O O6 0.469114 0.116028 0.750000
O O7 0.500000 0.000000 0.500000
O O8 0.896833 0.045430 0.874261
O O9 0.955470 0.250000 0.000000
O O10 0.905150 0.027625 0.124119
O O11 0.000000 0.000000 0.000000
O O12 0.844846 0.268941 0.750000
O O13 0.794494 0.026863 0.750000
O O14 0.184697 0.449525 0.250000
O O15 0.747826 0.776606 0.750000
#
# Coordination Sequence:
#
# PCOD8230561 Si02
#       7
#     8   8   8   4   4   4   4
#     4   9  19  34  57  82 111 144 192 236 289 336
#     4  11  23  40  64  91 125 164 207 256 310 367
#     4  10  21  36  54  76 105 140 180 224 274 334
#     4  10  21  37  51  79 111 142 180 220 287 342
#     4  10  21  35  55  75 109 144 172 222 285 338
#     4  10  20  33  56  81 106 142 185 238 273 342
#     4  10  18  35  54  81 104 138 187 230 273 338
#
# _framework density 19.063873999999998
#
# number of rings (size 3 to 8) (size 9 to 14) (size 15 to 20)
#    0.000    2.000    1.000    2.400    5.600    1.600 
#    0.000    2.000    0.000    0.000    0.000    0.000 
#    0.000    0.000    0.000    0.000    0.000    0.000 
#
# Total GULP energy -495607.137984 kJ/mol
# GULP energy per Si atom -12390.178450 kJ/mol
# Density = 1.902048 g / cm^3
# Si number density = 19.063874 Si / 1000 Ang^3
#
#
#
# Elastic Constant Matrix: (Units=GPa)
#
#
# Indices 1 2 3 4 5 6 
#
# 1 154.0262 48.2304 74.8575 0.0000 0.0000 0.0000
# 2 48.2304 41.1722 34.9403 0.0000 0.0000 0.0000
# 3 74.8575 34.9403 185.4043 0.0000 0.0000 0.0000
# 4 0.0000 0.0000 0.0000 23.3777 0.0000 0.0000
# 5 0.0000 0.0000 0.0000 0.0000 64.8557 0.0000
# 6 0.0000 0.0000 0.0000 0.0000 0.0000 35.5020
#
#
#
# Elastic Compliance Matrix: (Units=1/GPa)
#
#
# Indices 1 2 3 4 5 6 
#
# 1 0.011094 -0.010945 -0.002417 0.000000 0.000000 0.000000
# 2 -0.010945 0.039710 -0.003064 0.000000 0.000000 0.000000
# 3 -0.002417 -0.003064 0.006947 0.000000 0.000000 0.000000
# 4 0.000000 0.000000 0.000000 0.042776 0.000000 0.000000
# 5 0.000000 0.000000 0.000000 0.000000 0.015419 0.000000
# 6 0.000000 0.000000 0.000000 0.000000 0.000000 0.028167
#
#
# Mechanical properties :
#
#
# Convention : Reuss Voigt Hill
#
# Bulk Modulus (GPa) = 40.16253 77.40657 58.78455
# Shear Modulus (GPa) = 26.98827 39.58538 33.28682
#
# Velocity S-wave (km/s) = 3.76663 4.56176 4.18313
# Velocity P-wave (km/s) = 6.32691 8.27274 7.36437
#
# Compressibility (1/GPa) = 0.02489883
#
# Stress axis : x y z
#
# Youngs Moduli (GPa) = 90.13729 25.18233 143.95020
#
# Poissons Ratio (x) = 0.27563 0.34787
# Poissons Ratio (y) = 0.98657 0.44113
# Poissons Ratio (z) = 0.21783 0.07717
#
# Static dielectric constant tensor:
#      x y z
#    x 3.599410 0.000000 0.000000 
#    y 0.000000 3.162040 0.000000 
#    z 0.000000 0.000000 4.077520 
# 
# 
# High freq. dielectric constant tensor:
#      x y z
#    x 1.757600 0.000000 0.000000 
#    y 0.000000 1.707830 0.000000 
#    z 0.000000 0.000000 1.767750 
# 
# From -- ./inp_files/6311.got.cif
#   From: 2010.03.12/outbox.cif.g09.slc.cpg/sg57_4_cif.got.tgz:6311.got - 2010.04.16 15:48:40.
