data_PCOD8230493
_publ_section_title
;
Structure prediction by ZEFSAII (Michael W. Deem and Ramdas Pophale) SiO2 
 PCOD8230493
Probable space group: P B C M
;
_chemical_formula_sum "Si O2"
_cell_formula_units_Z 64
_cell_length_a 11.524652
_cell_length_b 11.850121
_cell_length_c 22.783773
_cell_angle_alpha 90.000000
_cell_angle_beta 90.000000
_cell_angle_gamma 90.000000
_cell_volume 3111.546174
_symmetry_space_group_name_H-M "P B C M"
_symmetry_group_IT_number 57
_symmetry_cell_setting 'orthorhombic'
loop_
_space_group_symop_operation_xyz
x,y,z
-x,-y,1/2+z
x,1/2-y,-z
-x,1/2+y,1/2-z
-x,-y,-z
x,y,1/2-z
-x,1/2+y,z
x,1/2-y,1/2+z
loop_
_atom_site_type_symbol
_atom_site_label
_atom_site_fract_x
_atom_site_fract_y
_atom_site_fract_z
Si Si1 0.665476 0.896473 0.520131
Si Si2 0.278481 0.173252 0.818507
Si Si3 0.072766 0.525511 0.815383
Si Si4 0.813553 0.437493 0.814291
Si Si5 0.320809 0.845883 0.045421
Si Si6 0.866848 0.669323 0.397911
Si Si7 0.552395 0.780429 0.411437
Si Si8 0.887309 0.239670 0.886475
O O1 0.789853 0.848105 0.543554
O O2 0.637298 0.853873 0.454548
O O3 0.564692 0.848551 0.564065
O O4 0.666938 0.030985 0.517765
O O5 0.268762 0.205187 0.750000
O O6 0.176382 0.232716 0.854729
O O7 0.400875 0.214307 0.844972
O O8 0.273941 0.038684 0.828920
O O9 0.126809 0.513936 0.750000
O O10 0.141470 0.447476 0.861404
O O11 0.078398 0.656004 0.834134
O O12 0.940821 0.489271 0.814304
O O13 0.785364 0.387405 0.750000
O O14 0.803969 0.338350 0.861741
O O15 0.421801 0.828133 0.093778
O O16 0.189211 0.828599 0.066701
O O17 0.354501 0.750000 0.000000
O O18 0.998276 0.704513 0.416069
#
# Coordination Sequence:
#
# PCOD8230493 Si02
#       8
#     8   8   8   8   8   8   8   8
#     4  10  21  43  67  91 118 164 212 253 312 369
#     4  10  20  37  63  91 120 161 210 257 305 369
#     4  10  18  33  56  85 124 166 203 250 307 380
#     4   9  19  33  55  85 121 164 203 244 308 374
#     4  12  25  42  63  92 123 165 210 257 310 370
#     4  10  20  38  60  92 129 158 206 256 316 370
#     4  10  23  41  69  89 118 163 211 260 304 366
#     4  11  22  36  56  92 126 163 203 259 315 377
#
# _framework density 20.568553000000001
#
# number of rings (size 3 to 8) (size 9 to 14) (size 15 to 20)
#    0.000    1.750    3.750    1.125    1.750    1.000 
#    4.500    1.875    0.000    1.500    0.000    0.000 
#    0.000    0.000    0.000    0.000    0.000    0.000 
#
# Total GULP energy -793216.002054 kJ/mol
# GULP energy per Si atom -12394.000032 kJ/mol
# Density = 2.052174 g / cm^3
# Si number density = 20.568553 Si / 1000 Ang^3
#
#
#
# Elastic Constant Matrix: (Units=GPa)
#
#
# Indices 1 2 3 4 5 6 
#
# 1 80.5019 13.8803 20.3126 0.0000 0.0000 0.0000
# 2 13.8803 115.9460 15.6092 0.0000 0.0000 0.0000
# 3 20.3126 15.6092 44.5809 0.0000 0.0000 0.0000
# 4 0.0000 0.0000 0.0000 19.8149 0.0000 0.0000
# 5 0.0000 0.0000 0.0000 0.0000 17.7852 0.0000
# 6 0.0000 0.0000 0.0000 0.0000 0.0000 18.6237
#
#
#
# Elastic Compliance Matrix: (Units=1/GPa)
#
#
# Indices 1 2 3 4 5 6 
#
# 1 0.014118 -0.000865 -0.006130 0.000000 0.000000 0.000000
# 2 -0.000865 0.009104 -0.002794 0.000000 0.000000 0.000000
# 3 -0.006130 -0.002794 0.026202 0.000000 0.000000 0.000000
# 4 0.000000 0.000000 0.000000 0.050467 0.000000 0.000000
# 5 0.000000 0.000000 0.000000 0.000000 0.056226 0.000000
# 6 0.000000 0.000000 0.000000 0.000000 0.000000 0.053695
#
#
# Mechanical properties :
#
#
# Convention : Reuss Voigt Hill
#
# Bulk Modulus (GPa) = 33.50327 37.84811 35.67569
# Shear Modulus (GPa) = 20.89087 23.99320 22.44203
#
# Velocity S-wave (km/s) = 3.19042 3.41911 3.30674
# Velocity P-wave (km/s) = 5.46769 5.83335 5.65348
#
# Compressibility (1/GPa) = 0.02984784
#
# Stress axis : x y z
#
# Youngs Moduli (GPa) = 70.83216 109.83780 38.16469
#
# Poissons Ratio (x) = 0.09500 0.23394
# Poissons Ratio (y) = 0.06126 0.10662
# Poissons Ratio (z) = 0.43419 0.30685
#
# Static dielectric constant tensor:
#      x y z
#    x 3.625290 0.000000 0.000000 
#    y 0.000000 3.947530 0.000000 
#    z 0.000000 0.000000 3.584710 
# 
# 
# High freq. dielectric constant tensor:
#      x y z
#    x 1.786680 0.000000 0.000000 
#    y 0.000000 1.817240 0.000000 
#    z 0.000000 0.000000 1.785490 
# 
# From -- ./inp_files/27311.got.cif
#   From: 2010.03.12/outbox.cif.g09.slc.cpg/sg57_14_cif.got.tgz:27311.got - 2010.04.16 15:48:40.
