data_PCOD8230397
_publ_section_title
;
Structure prediction by ZEFSAII (Michael W. Deem and Ramdas Pophale) SiO2 
 PCOD8230397
Probable space group: P B C M
;
_chemical_formula_sum "Si O2"
_cell_formula_units_Z 44
_cell_length_a 10.524658
_cell_length_b 13.006489
_cell_length_c 16.211732
_cell_angle_alpha 90.000000
_cell_angle_beta 90.000000
_cell_angle_gamma 90.000000
_cell_volume 2219.205326
_symmetry_space_group_name_H-M "P B C M"
_symmetry_group_IT_number 57
_symmetry_cell_setting 'orthorhombic'
loop_
_space_group_symop_operation_xyz
x,y,z
-x,-y,1/2+z
x,1/2-y,-z
-x,1/2+y,1/2-z
-x,-y,-z
x,y,1/2-z
-x,1/2+y,z
x,1/2-y,1/2+z
loop_
_atom_site_type_symbol
_atom_site_label
_atom_site_fract_x
_atom_site_fract_y
_atom_site_fract_z
Si Si1 0.672360 0.169353 0.750000
Si Si2 0.486785 0.750000 0.000000
Si Si3 0.251017 0.170857 0.250000
Si Si4 0.913984 0.025482 0.750000
Si Si5 0.155760 0.485581 0.158542
Si Si6 0.661735 0.145998 0.127394
Si Si7 0.730414 0.795774 0.415704
Si Si8 0.494164 0.467007 0.750000
O O1 0.810482 0.115592 0.750000
O O2 0.659330 0.242423 0.829258
O O3 0.561413 0.082937 0.750000
O O4 0.395535 0.661313 0.036345
O O5 0.576756 0.796718 0.072619
O O6 0.231448 0.236432 0.167260
O O7 0.386739 0.119168 0.250000
O O8 0.143387 0.086461 0.250000
O O9 0.003306 0.030493 0.832347
O O10 0.217665 0.468917 0.250000
O O11 0.194423 0.600664 0.126913
O O12 0.214863 0.409594 0.091595
O O13 0.577405 0.056004 0.169160
O O14 0.792411 0.750000 0.500000
#
# Coordination Sequence:
#
# PCOD8230397 Si02
#       8
#     4   4   4   4   8   8   8   4
#     4  10  22  37  66  89 123 162 225 260 331 394
#     4  10  24  38  56  92 142 160 206 260 334 404
#     4  11  18  39  66  88 132 165 219 269 329 380
#     4   9  22  41  67  94 116 174 228 278 312 397
#     4  10  21  39  67  90 125 169 222 272 326 381
#     4  11  22  38  59  95 129 167 205 270 335 393
#     4  10  22  38  63  97 126 172 215 266 331 406
#     4  10  18  31  59  89 115 155 204 261 314 393
#
# _framework density 19.826916000000001
#
# number of rings (size 3 to 8) (size 9 to 14) (size 15 to 20)
#    1.091    0.727    4.545    0.000    2.545    3.636 
#    6.545    0.909    4.000    0.000    0.000    0.000 
#    0.000    0.000    0.000    0.000    0.000    0.000 
#
# Total GULP energy -545091.994679 kJ/mol
# GULP energy per Si atom -12388.454425 kJ/mol
# Density = 1.978179 g / cm^3
# Si number density = 19.826916 Si / 1000 Ang^3
#
#
#
# Elastic Constant Matrix: (Units=GPa)
#
#
# Indices 1 2 3 4 5 6 
#
# 1 101.5219 48.9572 27.0195 0.0000 0.0000 0.0000
# 2 48.9572 120.7029 43.7558 0.0000 0.0000 0.0000
# 3 27.0195 43.7558 104.9656 0.0000 0.0000 0.0000
# 4 0.0000 0.0000 0.0000 20.0877 0.0000 0.0000
# 5 0.0000 0.0000 0.0000 0.0000 11.2768 0.0000
# 6 0.0000 0.0000 0.0000 0.0000 0.0000 25.9094
#
#
#
# Elastic Compliance Matrix: (Units=1/GPa)
#
#
# Indices 1 2 3 4 5 6 
#
# 1 0.012392 -0.004559 -0.001289 0.000000 0.000000 0.000000
# 2 -0.004559 0.011437 -0.003594 0.000000 0.000000 0.000000
# 3 -0.001289 -0.003594 0.011357 0.000000 0.000000 0.000000
# 4 0.000000 0.000000 0.000000 0.049782 0.000000 0.000000
# 5 0.000000 0.000000 0.000000 0.000000 0.088678 0.000000
# 6 0.000000 0.000000 0.000000 0.000000 0.000000 0.038596
#
#
# Mechanical properties :
#
#
# Convention : Reuss Voigt Hill
#
# Bulk Modulus (GPa) = 61.34549 62.96172 62.15361
# Shear Modulus (GPa) = 21.13638 25.28529 23.21083
#
# Velocity S-wave (km/s) = 3.26858 3.57501 3.42522
# Velocity P-wave (km/s) = 6.72700 6.99039 6.85996
#
# Compressibility (1/GPa) = 0.01630112
#
# Stress axis : x y z
#
# Youngs Moduli (GPa) = 80.69991 87.43824 88.05097
#
# Poissons Ratio (x) = 0.39860 0.11354
# Poissons Ratio (y) = 0.36788 0.31646
# Poissons Ratio (z) = 0.10406 0.31425
#
# Static dielectric constant tensor:
#      x y z
#    x 3.659300 0.000000 0.000000 
#    y 0.000000 3.502320 0.000000 
#    z 0.000000 0.000000 3.401210 
# 
# 
# High freq. dielectric constant tensor:
#      x y z
#    x 1.765540 0.000000 0.000000 
#    y 0.000000 1.772570 0.000000 
#    z 0.000000 0.000000 1.753130 
# 
# From -- ./inp_files/21772.got.cif
#   From: 2010.03.12/outbox.cif.g09.slc.cpg/sg57_11_cif.got.tgz:21772.got - 2010.04.16 15:48:40.
