data_PCOD8230145
_publ_section_title
;
Structure prediction by ZEFSAII (Michael W. Deem and Ramdas Pophale) SiO2 
 PCOD8230145
Probable space group: P B C M
;
_chemical_formula_sum "Si O2"
_cell_formula_units_Z 64
_cell_length_a 21.690242
_cell_length_b 17.971444
_cell_length_c 8.776415
_cell_angle_alpha 90.000000
_cell_angle_beta 90.000000
_cell_angle_gamma 90.000000
_cell_volume 3421.090181
_symmetry_space_group_name_H-M "P B C M"
_symmetry_group_IT_number 57
_symmetry_cell_setting 'orthorhombic'
loop_
_space_group_symop_operation_xyz
x,y,z
-x,-y,1/2+z
x,1/2-y,-z
-x,1/2+y,1/2-z
-x,-y,-z
x,y,1/2-z
-x,1/2+y,z
x,1/2-y,1/2+z
loop_
_atom_site_type_symbol
_atom_site_label
_atom_site_fract_x
_atom_site_fract_y
_atom_site_fract_z
Si Si1 0.991906 0.579418 0.426110
Si Si2 0.625110 0.672999 0.426485
Si Si3 0.746755 0.591145 0.428409
Si Si4 0.237353 0.830800 0.070871
Si Si5 0.129065 0.085843 0.574778
Si Si6 0.682240 0.453274 0.569428
Si Si7 0.872739 0.409601 0.577530
Si Si8 0.564816 0.978173 0.931156
O O1 0.975278 0.569204 0.250000
O O2 0.934567 0.620964 0.508413
O O3 0.000000 0.500000 0.500000
O O4 0.057433 0.621864 0.445997
O O5 0.604200 0.750000 0.500000
O O6 0.615019 0.683394 0.250000
O O7 0.696314 0.654491 0.465189
O O8 0.582089 0.605460 0.485151
O O9 0.746816 0.571430 0.250000
O O10 0.813037 0.620687 0.483868
O O11 0.730584 0.516610 0.520583
O O12 0.249362 0.827393 0.250000
O O13 0.236325 0.750000 0.000000
O O14 0.292557 0.874916 0.989840
O O15 0.171498 0.869401 0.041293
O O16 0.134849 0.108480 0.750000
O O17 0.128313 0.997611 0.548526
O O18 0.675785 0.452427 0.750000
O O19 0.615644 0.465249 0.494651
O O20 0.850150 0.392831 0.750000
O O21 0.563812 0.984228 0.750000
O O22 0.500000 0.000000 0.000000
#
# Coordination Sequence:
#
# PCOD8230145 Si02
#       8
#     8   8   8   8   8   8   8   8
#     4   9  17  28  44  67  99 133 170 219 274 330
#     4   9  20  36  56  84 117 148 184 225 268 324
#     4  10  19  32  52  79 109 143 182 226 275 326
#     4  12  24  37  55  77 106 145 187 235 287 340
#     4  10  18  28  47  75 105 136 176 224 277 334
#     4  11  21  36  57  82 112 144 182 227 274 327
#     4   9  18  32  48  70 101 135 178 228 278 335
#     4  10  21  39  62  91 120 151 191 229 271 322
#
# _framework density 18.707488000000001
#
# number of rings (size 3 to 8) (size 9 to 14) (size 15 to 20)
#    0.000    2.000    1.250    5.250    0.000    5.500 
#    0.000    0.625    0.000    2.250    0.000    3.500 
#    0.000    0.000    0.000    0.000    0.000    0.000 
#
# Total GULP energy -793530.787529 kJ/mol
# GULP energy per Si atom -12398.918555 kJ/mol
# Density = 1.866491 g / cm^3
# Si number density = 18.707488 Si / 1000 Ang^3
#
#
#
# Elastic Constant Matrix: (Units=GPa)
#
#
# Indices 1 2 3 4 5 6 
#
# 1 148.2599 34.4893 50.9628 0.0000 0.0000 0.0000
# 2 34.4893 65.1322 32.8499 0.0000 0.0000 0.0000
# 3 50.9628 32.8499 114.0114 0.0000 0.0000 0.0000
# 4 0.0000 0.0000 0.0000 25.2505 0.0000 0.0000
# 5 0.0000 0.0000 0.0000 0.0000 37.6618 0.0000
# 6 0.0000 0.0000 0.0000 0.0000 0.0000 21.3026
#
#
#
# Elastic Compliance Matrix: (Units=1/GPa)
#
#
# Indices 1 2 3 4 5 6 
#
# 1 0.008444 -0.003004 -0.002909 0.000000 0.000000 0.000000
# 2 -0.003004 0.019033 -0.004141 0.000000 0.000000 0.000000
# 3 -0.002909 -0.004141 0.011264 0.000000 0.000000 0.000000
# 4 0.000000 0.000000 0.000000 0.039603 0.000000 0.000000
# 5 0.000000 0.000000 0.000000 0.000000 0.026552 0.000000
# 6 0.000000 0.000000 0.000000 0.000000 0.000000 0.046943
#
#
# Mechanical properties :
#
#
# Convention : Reuss Voigt Hill
#
# Bulk Modulus (GPa) = 53.66814 62.66747 58.16781
# Shear Modulus (GPa) = 28.06508 30.78306 29.42407
#
# Velocity S-wave (km/s) = 3.87745 4.06087 3.97022
# Velocity P-wave (km/s) = 6.98545 7.45378 7.22341
#
# Compressibility (1/GPa) = 0.01863303
#
# Stress axis : x y z
#
# Youngs Moduli (GPa) = 118.43324 52.54115 88.77540
#
# Poissons Ratio (x) = 0.15784 0.25822
# Poissons Ratio (y) = 0.35578 0.36762
# Poissons Ratio (z) = 0.34449 0.21757
#
# Static dielectric constant tensor:
#      x y z
#    x 3.796750 0.000000 0.000000 
#    y 0.000000 3.158220 0.000000 
#    z 0.000000 0.000000 3.579390 
# 
# 
# High freq. dielectric constant tensor:
#      x y z
#    x 1.735730 0.000000 0.000000 
#    y 0.000000 1.683890 0.000000 
#    z 0.000000 0.000000 1.739310 
# 
# From -- ./inp_files/8469.got.cif
#   From: 2010.03.12/outbox.cif.g09.slc.cpg/sg57_5_cif.got.tgz:8469.got - 2010.04.16 15:48:40.
