data_PCOD8230066
_publ_section_title
;
Structure prediction by ZEFSAII (Michael W. Deem and Ramdas Pophale) SiO2 
 PCOD8230066
Probable space group: P B C M
;
_chemical_formula_sum "Si O2"
_cell_formula_units_Z 64
_cell_length_a 18.155501
_cell_length_b 26.584228
_cell_length_c 8.980592
_cell_angle_alpha 90.000000
_cell_angle_beta 90.000000
_cell_angle_gamma 90.000000
_cell_volume 4334.482532
_symmetry_space_group_name_H-M "P B C M"
_symmetry_group_IT_number 57
_symmetry_cell_setting 'orthorhombic'
loop_
_space_group_symop_operation_xyz
x,y,z
-x,-y,1/2+z
x,1/2-y,-z
-x,1/2+y,1/2-z
-x,-y,-z
x,y,1/2-z
-x,1/2+y,z
x,1/2-y,1/2+z
loop_
_atom_site_type_symbol
_atom_site_label
_atom_site_fract_x
_atom_site_fract_y
_atom_site_fract_z
Si Si1 0.532609 0.951798 0.577925
Si Si2 0.832716 0.199228 0.076084
Si Si3 0.172614 0.999716 0.925583
Si Si4 0.092980 0.899673 0.576583
Si Si5 0.661943 0.301612 0.575088
Si Si6 0.954769 0.543880 0.076095
Si Si7 0.583999 0.105157 0.575219
Si Si8 0.324079 0.505188 0.580961
O O1 0.508604 0.950628 0.750000
O O2 0.497987 0.903585 0.493682
O O3 0.621156 0.957134 0.563657
O O4 0.500000 0.000000 0.500000
O O5 0.846845 0.205484 0.250000
O O6 0.878869 0.152636 0.005870
O O7 0.747527 0.189116 0.039891
O O8 0.861298 0.250000 0.000000
O O9 0.164343 0.004603 0.750000
O O10 0.139512 0.946958 0.987546
O O11 0.125873 0.045710 0.999990
O O12 0.257328 0.004195 0.969515
O O13 0.111580 0.897671 0.750000
O O14 0.004735 0.906039 0.549348
O O15 0.635087 0.250000 0.500000
O O16 0.646171 0.299127 0.750000
O O17 0.616951 0.346464 0.502937
O O18 0.945750 0.532929 0.250000
O O19 0.000000 0.500000 0.000000
O O20 0.576485 0.114547 0.750000
O O21 0.635197 0.057159 0.538890
O O22 0.294763 0.508395 0.750000
#
# Coordination Sequence:
#
# PCOD8230066 Si02
#       8
#     8   8   8   8   8   8   8   8
#     4   9  17  29  43  60  83 110 140 173 209 248
#     4   9  17  29  42  58  80 106 138 172 205 240
#     4  10  18  27  41  60  81 108 140 171 204 243
#     4   8  15  27  41  56  77 107 138 165 199 243
#     4  10  19  30  44  61  84 113 143 178 214 247
#     4   9  16  27  41  57  79 106 135 168 204 243
#     4  10  19  30  44  62  84 111 144 177 211 251
#     4   9  18  29  41  60  85 111 139 172 206 245
#
# _framework density 14.765316
#
# number of rings (size 3 to 8) (size 9 to 14) (size 15 to 20)
#    0.000    2.750    0.000    4.125    0.000    4.500 
#    0.000    3.750    0.000    0.000    0.000    0.000 
#    0.000    1.000    0.000    6.750    0.000    4.875 
#
# Total GULP energy -793161.288053 kJ/mol
# GULP energy per Si atom -12393.145126 kJ/mol
# Density = 1.473171 g / cm^3
# Si number density = 14.765316 Si / 1000 Ang^3
#
#
#
# Elastic Constant Matrix: (Units=GPa)
#
#
# Indices 1 2 3 4 5 6 
#
# 1 84.3114 52.4149 45.0641 0.0000 0.0000 0.0000
# 2 52.4149 87.7228 41.8221 0.0000 0.0000 0.0000
# 3 45.0641 41.8221 79.3610 0.0000 0.0000 0.0000
# 4 0.0000 0.0000 0.0000 22.1320 0.0000 0.0000
# 5 0.0000 0.0000 0.0000 0.0000 25.6125 0.0000
# 6 0.0000 0.0000 0.0000 0.0000 0.0000 26.6963
#
#
#
# Elastic Compliance Matrix: (Units=1/GPa)
#
#
# Indices 1 2 3 4 5 6 
#
# 1 0.021640 -0.009445 -0.007311 0.000000 0.000000 0.000000
# 2 -0.009445 0.019347 -0.004832 0.000000 0.000000 0.000000
# 3 -0.007311 -0.004832 0.019299 0.000000 0.000000 0.000000
# 4 0.000000 0.000000 0.000000 0.045183 0.000000 0.000000
# 5 0.000000 0.000000 0.000000 0.000000 0.039043 0.000000
# 6 0.000000 0.000000 0.000000 0.000000 0.000000 0.037458
#
#
# Mechanical properties :
#
#
# Convention : Reuss Voigt Hill
#
# Bulk Modulus (GPa) = 58.44676 58.88859 58.66768
# Shear Modulus (GPa) = 21.65918 22.36109 22.01014
#
# Velocity S-wave (km/s) = 3.83416 3.89579 3.86510
# Velocity P-wave (km/s) = 7.69875 7.75925 7.72906
#
# Compressibility (1/GPa) = 0.01710959
#
# Stress axis : x y z
#
# Youngs Moduli (GPa) = 46.21101 51.68877 51.81729
#
# Poissons Ratio (x) = 0.48818 0.37882
# Poissons Ratio (y) = 0.43644 0.25040
# Poissons Ratio (z) = 0.33784 0.24978
#
# Static dielectric constant tensor:
#      x y z
#    x 3.019010 0.000000 0.000000 
#    y 0.000000 2.866020 0.000000 
#    z 0.000000 0.000000 2.992180 
# 
# 
# High freq. dielectric constant tensor:
#      x y z
#    x 1.553170 0.000000 0.000000 
#    y 0.000000 1.532470 0.000000 
#    z 0.000000 0.000000 1.573120 
# 
# From -- ./inp_files/7406.got.cif
#   From: 2010.03.12/outbox.cif.g09.slc.cpg/sg57_4_cif.got.tgz:7406.got - 2010.04.16 15:48:40.
