data_PCOD8230080
_publ_section_title
;
Structure prediction by ZEFSAII (Michael W. Deem and Ramdas Pophale) SiO2 
 PCOD8230080
Probable space group: P B C M
;
_chemical_formula_sum "Si O2"
_cell_formula_units_Z 48
_cell_length_a 11.603810
_cell_length_b 25.764326
_cell_length_c 9.096334
_cell_angle_alpha 90.000000
_cell_angle_beta 90.000000
_cell_angle_gamma 90.000000
_cell_volume 2719.479524
_symmetry_space_group_name_H-M "P B C M"
_symmetry_group_IT_number 57
_symmetry_cell_setting 'orthorhombic'
loop_
_space_group_symop_operation_xyz
x,y,z
-x,-y,1/2+z
x,1/2-y,-z
-x,1/2+y,1/2-z
-x,-y,-z
x,y,1/2-z
-x,1/2+y,z
x,1/2-y,1/2+z
loop_
_atom_site_type_symbol
_atom_site_label
_atom_site_fract_x
_atom_site_fract_y
_atom_site_fract_z
Si Si1 0.974639 0.205322 0.589627
Si Si2 0.794286 0.116337 0.911749
Si Si3 0.389897 0.696629 0.578723
Si Si4 0.344078 0.195879 0.577648
Si Si5 0.972888 0.053475 0.422616
Si Si6 0.151337 0.356357 0.577493
O O1 0.906529 0.250000 0.500000
O O2 0.016472 0.224639 0.750000
O O3 0.894125 0.157162 0.611701
O O4 0.083363 0.192726 0.486863
O O5 0.764881 0.092107 0.750000
O O6 0.683785 0.146824 0.979376
O O7 0.847379 0.073202 0.020479
O O8 0.353513 0.750000 0.500000
O O9 0.361703 0.704663 0.750000
O O10 0.522322 0.683099 0.549278
O O11 0.311034 0.250000 0.500000
O O12 0.316246 0.200007 0.750000
O O13 0.274771 0.147323 0.505099
O O14 0.960879 0.045157 0.250000
O O15 0.079792 0.091557 0.460199
O O16 0.000000 0.000000 0.500000
O O17 0.170617 0.350649 0.750000
#
# Coordination Sequence:
#
# PCOD8230080 Si02
#       6
#     8   8   8   8   8   8
#     4  10  18  27  42  65  94 126 156 190 233 281
#     4   9  18  32  49  70  97 127 159 196 239 287
#     4   9  18  31  48  72 102 136 169 200 235 277
#     4  10  19  31  48  71 101 136 170 201 234 276
#     4  10  21  36  55  76  96 121 155 200 252 300
#     4  10  20  33  48  68  94 124 159 197 239 287
#
# _framework density 17.650437
#
# number of rings (size 3 to 8) (size 9 to 14) (size 15 to 20)
#    0.000    2.333    0.000    3.000    0.000    4.000 
#    0.000    0.000    0.000    1.000    0.000    0.000 
#    0.000    0.000    0.000    0.000    0.000    0.000 
#
# Total GULP energy -594827.784544 kJ/mol
# GULP energy per Si atom -12392.245511 kJ/mol
# Density = 1.761026 g / cm^3
# Si number density = 17.650437 Si / 1000 Ang^3
#
#
#
# Elastic Constant Matrix: (Units=GPa)
#
#
# Indices 1 2 3 4 5 6 
#
# 1 93.7535 36.9698 46.4992 0.0000 0.0000 0.0000
# 2 36.9698 76.0541 58.8356 0.0000 0.0000 0.0000
# 3 46.4992 58.8356 111.6784 0.0000 0.0000 0.0000
# 4 0.0000 0.0000 0.0000 29.5341 0.0000 0.0000
# 5 0.0000 0.0000 0.0000 0.0000 26.7181 0.0000
# 6 0.0000 0.0000 0.0000 0.0000 0.0000 22.9877
#
#
#
# Elastic Compliance Matrix: (Units=1/GPa)
#
#
# Indices 1 2 3 4 5 6 
#
# 1 0.014096 -0.003902 -0.003814 0.000000 0.000000 0.000000
# 2 -0.003902 0.023274 -0.010637 0.000000 0.000000 0.000000
# 3 -0.003814 -0.010637 0.016146 0.000000 0.000000 0.000000
# 4 0.000000 0.000000 0.000000 0.033859 0.000000 0.000000
# 5 0.000000 0.000000 0.000000 0.000000 0.037428 0.000000
# 6 0.000000 0.000000 0.000000 0.000000 0.000000 0.043502
#
#
# Mechanical properties :
#
#
# Convention : Reuss Voigt Hill
#
# Bulk Modulus (GPa) = 59.48306 62.89945 61.19125
# Shear Modulus (GPa) = 23.74023 25.12676 24.43349
#
# Velocity S-wave (km/s) = 3.67143 3.77713 3.72465
# Velocity P-wave (km/s) = 7.19349 7.39836 7.29665
#
# Compressibility (1/GPa) = 0.01681151
#
# Stress axis : x y z
#
# Youngs Moduli (GPa) = 70.94026 42.96661 61.93547
#
# Poissons Ratio (x) = 0.16766 0.23619
# Poissons Ratio (y) = 0.27681 0.65879
# Poissons Ratio (z) = 0.27053 0.45702
#
# Static dielectric constant tensor:
#      x y z
#    x 3.432630 0.000000 0.000000 
#    y 0.000000 3.169110 0.000000 
#    z 0.000000 0.000000 3.551430 
# 
# 
# High freq. dielectric constant tensor:
#      x y z
#    x 1.678860 0.000000 0.000000 
#    y 0.000000 1.649940 0.000000 
#    z 0.000000 0.000000 1.696110 
# 
# From -- ./inp_files/3101.got.cif
#   From: 2010.03.12/outbox.cif.g09.slc.cpg/sg57_2_cif.got.tgz:3101.got - 2010.04.16 15:48:40.
