data_PCOD8230037
_publ_section_title
;
Structure prediction by ZEFSAII (Michael W. Deem and Ramdas Pophale) SiO2 
 PCOD8230037
Probable space group: P B C M
;
_chemical_formula_sum "Si O2"
_cell_formula_units_Z 44
_cell_length_a 7.028201
_cell_length_b 13.759397
_cell_length_c 23.752943
_cell_angle_alpha 90.000000
_cell_angle_beta 90.000000
_cell_angle_gamma 90.000000
_cell_volume 2297.000033
_symmetry_space_group_name_H-M "P B C M"
_symmetry_group_IT_number 57
_symmetry_cell_setting 'orthorhombic'
loop_
_space_group_symop_operation_xyz
x,y,z
-x,-y,1/2+z
x,1/2-y,-z
-x,1/2+y,1/2-z
-x,-y,-z
x,y,1/2-z
-x,1/2+y,z
x,1/2-y,1/2+z
loop_
_atom_site_type_symbol
_atom_site_label
_atom_site_fract_x
_atom_site_fract_y
_atom_site_fract_z
Si Si1 0.730569 0.362663 0.368052
Si Si2 0.000193 0.998259 0.433581
Si Si3 0.723145 0.632065 0.628181
Si Si4 0.715937 0.059810 0.750000
Si Si5 0.990982 0.696019 0.369195
Si Si6 0.299590 0.139068 0.750000
Si Si7 0.156543 0.154735 0.250000
O O1 0.817510 0.437087 0.413166
O O2 0.504016 0.361951 0.374959
O O3 0.807604 0.396465 0.306617
O O4 0.811772 0.254647 0.377708
O O5 0.802173 0.950328 0.412971
O O6 0.000000 0.000000 0.500000
O O7 0.011069 0.107415 0.411864
O O8 0.798859 0.605042 0.691772
O O9 0.811874 0.736664 0.612989
O O10 0.501634 0.091472 0.750000
O O11 0.723570 0.943701 0.750000
O O12 0.977414 0.659170 0.304901
O O13 0.309057 0.257113 0.750000
#
# Coordination Sequence:
#
# PCOD8230037 Si02
#       7
#     8   8   8   4   8   4   4
#     4  10  21  39  61  86 121 152 192 249 298 362
#     4  11  24  40  58  85 117 157 208 251 289 349
#     4   9  21  39  60  86 118 153 190 247 302 357
#     4  10  17  35  60  90 121 151 187 239 303 364
#     4  10  21  38  60  86 116 150 196 239 299 360
#     4   8  18  35  55  90 121 145 191 235 292 372
#     4  10  17  34  63  86 118 160 184 236 305 360
#
# _framework density 19.155419999999999
#
# number of rings (size 3 to 8) (size 9 to 14) (size 15 to 20)
#    0.000    2.182    1.818    0.545    0.000    8.000 
#    9.818    1.818    0.000    0.000    0.000    0.000 
#    0.000    0.000    0.000    0.000    0.000    0.000 
#
# Total GULP energy -545378.463118 kJ/mol
# GULP energy per Si atom -12394.965071 kJ/mol
# Density = 1.911182 g / cm^3
# Si number density = 19.155420 Si / 1000 Ang^3
#
#
#
# Elastic Constant Matrix: (Units=GPa)
#
#
# Indices 1 2 3 4 5 6 
#
# 1 137.3534 56.4058 50.5077 0.0000 0.0000 0.0000
# 2 56.4058 131.8089 81.4636 0.0000 0.0000 0.0000
# 3 50.5077 81.4636 166.6572 0.0000 0.0000 0.0000
# 4 0.0000 0.0000 0.0000 19.1127 0.0000 0.0000
# 5 0.0000 0.0000 0.0000 0.0000 22.1143 0.0000
# 6 0.0000 0.0000 0.0000 0.0000 0.0000 19.3390
#
#
#
# Elastic Compliance Matrix: (Units=1/GPa)
#
#
# Indices 1 2 3 4 5 6 
#
# 1 0.009000 -0.003103 -0.001211 0.000000 0.000000 0.000000
# 2 -0.003103 0.011941 -0.004896 0.000000 0.000000 0.000000
# 3 -0.001211 -0.004896 0.008761 0.000000 0.000000 0.000000
# 4 0.000000 0.000000 0.000000 0.052321 0.000000 0.000000
# 5 0.000000 0.000000 0.000000 0.000000 0.045220 0.000000
# 6 0.000000 0.000000 0.000000 0.000000 0.000000 0.051709
#
#
# Mechanical properties :
#
#
# Convention : Reuss Voigt Hill
#
# Bulk Modulus (GPa) = 88.64406 90.28597 89.46501
# Shear Modulus (GPa) = 24.85931 28.60939 26.73435
#
# Velocity S-wave (km/s) = 3.60636 3.86883 3.73990
# Velocity P-wave (km/s) = 7.98235 8.19712 8.09045
#
# Compressibility (1/GPa) = 0.01128107
#
# Stress axis : x y z
#
# Youngs Moduli (GPa) = 111.11053 83.74617 114.14684
#
# Poissons Ratio (x) = 0.25988 0.13820
# Poissons Ratio (y) = 0.34479 0.55890
# Poissons Ratio (z) = 0.13452 0.41005
#
# Static dielectric constant tensor:
#      x y z
#    x 3.426890 0.000000 0.000000 
#    y 0.000000 3.547490 0.000000 
#    z 0.000000 0.000000 3.749300 
# 
# 
# High freq. dielectric constant tensor:
#      x y z
#    x 1.738570 0.000000 0.000000 
#    y 0.000000 1.750150 0.000000 
#    z 0.000000 0.000000 1.741650 
# 
# From -- ./inp_files/26647.got.cif
#   From: 2010.03.12/outbox.cif.g09.slc.cpg/sg57_14_cif.got.tgz:26647.got - 2010.04.16 15:48:40.
