data_PCOD8230229
_publ_section_title
;
Structure prediction by ZEFSAII (Michael W. Deem and Ramdas Pophale) SiO2 
 PCOD8230229
Probable space group: P B C M
;
_chemical_formula_sum "Si O2"
_cell_formula_units_Z 64
_cell_length_a 23.842069
_cell_length_b 19.837078
_cell_length_c 8.931935
_cell_angle_alpha 90.000000
_cell_angle_beta 90.000000
_cell_angle_gamma 90.000000
_cell_volume 4224.421025
_symmetry_space_group_name_H-M "P B C M"
_symmetry_group_IT_number 57
_symmetry_cell_setting 'orthorhombic'
loop_
_space_group_symop_operation_xyz
x,y,z
-x,-y,1/2+z
x,1/2-y,-z
-x,1/2+y,1/2-z
-x,-y,-z
x,y,1/2-z
-x,1/2+y,z
x,1/2-y,1/2+z
loop_
_atom_site_type_symbol
_atom_site_label
_atom_site_fract_x
_atom_site_fract_y
_atom_site_fract_z
Si Si1 0.582901 0.177553 0.428900
Si Si2 0.536082 0.056371 0.580225
Si Si3 0.657843 0.420874 0.419562
Si Si4 0.922305 0.371242 0.416043
Si Si5 0.969276 0.561973 0.575076
Si Si6 0.176401 0.816055 0.576555
Si Si7 0.867321 0.982523 0.580924
Si Si8 0.767305 0.044975 0.073085
O O1 0.571651 0.250000 0.500000
O O2 0.583150 0.181733 0.250000
O O3 0.533356 0.127193 0.487769
O O4 0.642815 0.148253 0.489409
O O5 0.514156 0.067485 0.750000
O O6 0.601548 0.032943 0.582889
O O7 0.500000 0.000000 0.500000
O O8 0.676469 0.402614 0.250000
O O9 0.705783 0.463383 0.503062
O O10 0.911487 0.342098 0.250000
O O11 0.889224 0.324281 0.532095
O O12 0.898787 0.446663 0.425858
O O13 0.989423 0.373423 0.449791
O O14 0.961012 0.546751 0.750000
O O15 0.908069 0.572443 0.499502
O O16 0.000000 0.500000 0.500000
O O17 0.202597 0.750000 0.500000
O O18 0.180635 0.804991 0.750000
O O19 0.211287 0.881011 0.524185
O O20 0.855643 0.958909 0.750000
O O21 0.808165 0.987855 0.494186
O O22 0.765164 0.035841 0.250000
#
# Coordination Sequence:
#
# PCOD8230229 Si02
#       8
#     8   8   8   8   8   8   8   8
#     4  10  18  30  46  65  90 118 151 191 229 268
#     4   9  18  31  48  69  90 118 152 188 231 276
#     4   9  19  31  44  62  85 113 148 183 223 267
#     4   8  15  26  38  51  69  92 120 157 198 239
#     4   9  15  23  36  54  72  92 118 151 194 242
#     4  10  20  30  40  53  70  98 135 173 209 248
#     4   9  16  25  38  54  74  98 124 158 200 241
#     4  10  19  30  42  57  77 106 141 176 213 252
#
# _framework density 15.150005
#
# number of rings (size 3 to 8) (size 9 to 14) (size 15 to 20)
#    0.750    2.000    0.000    3.750    0.000    5.500 
#    0.000    1.250    0.000    0.000    0.000    0.000 
#    0.000    0.000    0.000    1.125    0.000   17.375 
#
# Total GULP energy -792913.945979 kJ/mol
# GULP energy per Si atom -12389.280406 kJ/mol
# Density = 1.511552 g / cm^3
# Si number density = 15.150005 Si / 1000 Ang^3
#
#
#
# Elastic Constant Matrix: (Units=GPa)
#
#
# Indices 1 2 3 4 5 6 
#
# 1 72.3022 25.3288 38.8723 0.0000 0.0000 0.0000
# 2 25.3288 17.7824 17.0475 0.0000 0.0000 0.0000
# 3 38.8723 17.0475 107.0806 0.0000 0.0000 0.0000
# 4 0.0000 0.0000 0.0000 20.3801 0.0000 0.0000
# 5 0.0000 0.0000 0.0000 0.0000 27.7376 0.0000
# 6 0.0000 0.0000 0.0000 0.0000 0.0000 16.2356
#
#
#
# Elastic Compliance Matrix: (Units=1/GPa)
#
#
# Indices 1 2 3 4 5 6 
#
# 1 0.029517 -0.037493 -0.004746 0.000000 0.000000 0.000000
# 2 -0.037493 0.113989 -0.004537 0.000000 0.000000 0.000000
# 3 -0.004746 -0.004537 0.011784 0.000000 0.000000 0.000000
# 4 0.000000 0.000000 0.000000 0.049067 0.000000 0.000000
# 5 0.000000 0.000000 0.000000 0.000000 0.036052 0.000000
# 6 0.000000 0.000000 0.000000 0.000000 0.000000 0.061593
#
#
# Mechanical properties :
#
#
# Convention : Reuss Voigt Hill
#
# Bulk Modulus (GPa) = 16.19758 39.96250 28.08004
# Shear Modulus (GPa) = 12.01537 20.59843 16.30690
#
# Velocity S-wave (km/s) = 2.81925 3.69132 3.28436
# Velocity P-wave (km/s) = 4.61651 6.67854 5.74087
#
# Compressibility (1/GPa) = 0.06173764
#
# Stress axis : x y z
#
# Youngs Moduli (GPa) = 33.87855 8.77280 84.86094
#
# Poissons Ratio (x) = 0.32892 0.40277
# Poissons Ratio (y) = 1.27022 0.38497
# Poissons Ratio (z) = 0.16080 0.03980
#
# Static dielectric constant tensor:
#      x y z
#    x 2.879810 0.000000 0.000000 
#    y 0.000000 2.529960 0.000000 
#    z 0.000000 0.000000 3.071090 
# 
# 
# High freq. dielectric constant tensor:
#      x y z
#    x 1.564790 0.000000 0.000000 
#    y 0.000000 1.519380 0.000000 
#    z 0.000000 0.000000 1.602410 
# 
# From -- ./inp_files/9594.got.cif
#   From: 2010.03.12/outbox.cif.g09.slc.cpg/sg57_5_cif.got.tgz:9594.got - 2010.04.16 15:48:40.
