data_PCOD8230901
_publ_section_title
;
Structure prediction by ZEFSAII (Michael W. Deem and Ramdas Pophale) SiO2 
 PCOD8230901
Probable space group: P B C M
;
_chemical_formula_sum "Si O2"
_cell_formula_units_Z 64
_cell_length_a 21.423965
_cell_length_b 19.260563
_cell_length_c 8.979315
_cell_angle_alpha 90.000000
_cell_angle_beta 90.000000
_cell_angle_gamma 90.000000
_cell_volume 3705.203239
_symmetry_space_group_name_H-M "P B C M"
_symmetry_group_IT_number 57
_symmetry_cell_setting 'orthorhombic'
loop_
_space_group_symop_operation_xyz
x,y,z
-x,-y,1/2+z
x,1/2-y,-z
-x,1/2+y,1/2-z
-x,-y,-z
x,y,1/2-z
-x,1/2+y,z
x,1/2-y,1/2+z
loop_
_atom_site_type_symbol
_atom_site_label
_atom_site_fract_x
_atom_site_fract_y
_atom_site_fract_z
Si Si1 0.914838 0.961048 0.085974
Si Si2 0.444733 0.315624 0.583582
Si Si3 0.016177 0.605840 0.084874
Si Si4 0.307951 0.457136 0.423688
Si Si5 0.551355 0.546020 0.924831
Si Si6 0.702980 0.682806 0.415428
Si Si7 0.803816 0.051126 0.425184
Si Si8 0.128714 0.676213 0.928084
O O1 0.907301 0.928210 0.250000
O O2 0.957270 0.029030 0.095627
O O3 0.847980 0.986746 0.023740
O O4 0.946469 0.901678 0.983626
O O5 0.474342 0.250000 0.500000
O O6 0.472854 0.323456 0.750000
O O7 0.464985 0.377695 0.478440
O O8 0.370853 0.308660 0.593599
O O9 0.011825 0.639218 0.250000
O O10 0.059675 0.653949 0.981787
O O11 0.307298 0.438833 0.250000
O O12 0.378399 0.474528 0.476670
O O13 0.279924 0.389296 0.503906
O O14 0.266516 0.525511 0.458286
O O15 0.544334 0.540163 0.750000
O O16 0.500000 0.500000 0.000000
O O17 0.731458 0.750000 0.500000
O O18 0.731865 0.680868 0.250000
O O19 0.815184 0.067090 0.250000
O O20 0.819496 0.120377 0.517775
O O21 0.129872 0.681063 0.750000
O O22 0.146519 0.750000 0.000000
#
# Coordination Sequence:
#
# PCOD8230901 Si02
#       8
#     8   8   8   8   8   8   8   8
#     4   8  14  25  43  67  93 119 147 183 229 278
#     4   9  16  27  44  67  93 120 150 187 231 282
#     4   9  16  27  44  67  94 121 151 188 230 275
#     4   9  18  32  50  71  97 129 164 203 248 297
#     4  10  19  31  48  71  98 129 163 202 250 300
#     4   9  16  26  43  67  94 121 151 187 229 280
#     4   9  18  33  51  72  98 128 164 206 249 295
#     4  11  21  33  50  72  98 129 168 211 253 294
#
# _framework density 17.273007
#
# number of rings (size 3 to 8) (size 9 to 14) (size 15 to 20)
#    0.000    2.750    0.000    3.375    0.000    7.000 
#    0.000    0.000    0.000    1.500    0.000    7.000 
#    0.000    0.000    0.000    0.000    0.000    0.000 
#
# Total GULP energy -793196.963700 kJ/mol
# GULP energy per Si atom -12393.702558 kJ/mol
# Density = 1.723369 g / cm^3
# Si number density = 17.273007 Si / 1000 Ang^3
#
#
#
# Elastic Constant Matrix: (Units=GPa)
#
#
# Indices 1 2 3 4 5 6 
#
# 1 71.4189 52.5952 38.9551 0.0000 0.0000 0.0000
# 2 52.5952 100.0528 54.6830 0.0000 0.0000 0.0000
# 3 38.9551 54.6830 109.2096 0.0000 0.0000 0.0000
# 4 0.0000 0.0000 0.0000 30.5991 0.0000 0.0000
# 5 0.0000 0.0000 0.0000 0.0000 18.9483 0.0000
# 6 0.0000 0.0000 0.0000 0.0000 0.0000 16.1953
#
#
#
# Elastic Compliance Matrix: (Units=1/GPa)
#
#
# Indices 1 2 3 4 5 6 
#
# 1 0.023553 -0.010725 -0.003032 0.000000 0.000000 0.000000
# 2 -0.010725 0.018644 -0.005510 0.000000 0.000000 0.000000
# 3 -0.003032 -0.005510 0.012997 0.000000 0.000000 0.000000
# 4 0.000000 0.000000 0.000000 0.032681 0.000000 0.000000
# 5 0.000000 0.000000 0.000000 0.000000 0.052775 0.000000
# 6 0.000000 0.000000 0.000000 0.000000 0.000000 0.061746
#
#
# Mechanical properties :
#
#
# Convention : Reuss Voigt Hill
#
# Bulk Modulus (GPa) = 60.01593 63.68310 61.84951
# Shear Modulus (GPa) = 20.28546 22.11172 21.19859
#
# Velocity S-wave (km/s) = 3.43067 3.58177 3.50704
# Velocity P-wave (km/s) = 7.10729 7.35215 7.23076
#
# Compressibility (1/GPa) = 0.01666224
#
# Stress axis : x y z
#
# Youngs Moduli (GPa) = 42.45687 53.63759 76.94169
#
# Poissons Ratio (x) = 0.57524 0.23325
# Poissons Ratio (y) = 0.45533 0.42393
# Poissons Ratio (z) = 0.12871 0.29553
#
# Static dielectric constant tensor:
#      x y z
#    x 3.065010 0.000000 0.000000 
#    y 0.000000 3.055770 0.000000 
#    z 0.000000 0.000000 3.450320 
# 
# 
# High freq. dielectric constant tensor:
#      x y z
#    x 1.629520 0.000000 0.000000 
#    y 0.000000 1.648570 0.000000 
#    z 0.000000 0.000000 1.678390 
# 
# From -- ./inp_files/8773.got.cif
#   From: 2010.03.12/outbox.cif.g09.slc.cpg/sg57_5_cif.got.tgz:8773.got - 2010.04.16 15:48:40.
