data_PCOD8230254
_publ_section_title
;
Structure prediction by ZEFSAII (Michael W. Deem and Ramdas Pophale) SiO2 
 PCOD8230254
Probable space group: P B C M
;
_chemical_formula_sum "Si O2"
_cell_formula_units_Z 64
_cell_length_a 20.378228
_cell_length_b 20.515470
_cell_length_c 8.937898
_cell_angle_alpha 90.000000
_cell_angle_beta 90.000000
_cell_angle_gamma 90.000000
_cell_volume 3736.657410
_symmetry_space_group_name_H-M "P B C M"
_symmetry_group_IT_number 57
_symmetry_cell_setting 'orthorhombic'
loop_
_space_group_symop_operation_xyz
x,y,z
-x,-y,1/2+z
x,1/2-y,-z
-x,1/2+y,1/2-z
-x,-y,-z
x,y,1/2-z
-x,1/2+y,z
x,1/2-y,1/2+z
loop_
_atom_site_type_symbol
_atom_site_label
_atom_site_fract_x
_atom_site_fract_y
_atom_site_fract_z
Si Si1 0.950945 0.448341 0.572896
Si Si2 0.856775 0.644016 0.921250
Si Si3 0.285525 0.351408 0.084090
Si Si4 0.831810 0.506217 0.073694
Si Si5 0.441596 0.039482 0.573223
Si Si6 0.311985 0.022770 0.079451
Si Si7 0.575179 0.812343 0.082896
Si Si8 0.983294 0.687234 0.075674
O O1 0.946930 0.460455 0.750000
O O2 0.879436 0.451805 0.496243
O O3 0.000000 0.500000 0.500000
O O4 0.976450 0.376734 0.533438
O O5 0.880728 0.638602 0.750000
O O6 0.786221 0.681490 0.932430
O O7 0.848983 0.572006 0.987112
O O8 0.909124 0.683727 0.015698
O O9 0.289181 0.385945 0.250000
O O10 0.345909 0.301126 0.075871
O O11 0.293724 0.402365 0.950184
O O12 0.845517 0.516086 0.250000
O O13 0.755899 0.483376 0.046774
O O14 0.447723 0.035989 0.750000
O O15 0.373683 0.003743 0.524695
O O16 0.442669 0.115514 0.517558
O O17 0.500000 0.000000 0.500000
O O18 0.334385 0.013576 0.250000
O O19 0.547793 0.809016 0.250000
O O20 0.542541 0.750000 0.000000
O O21 0.980003 0.699165 0.250000
O O22 0.017809 0.750000 0.000000
#
# Coordination Sequence:
#
# PCOD8230254 Si02
#       8
#     8   8   8   8   8   8   8   8
#     4  11  22  35  54  76  99 129 169 214 261 310
#     4  10  18  30  49  69  95 132 169 208 252 293
#     4   8  16  29  43  64  94 129 168 205 241 283
#     4  10  19  31  50  76 103 130 167 211 253 300
#     4  10  20  34  52  75 104 137 172 210 251 300
#     4   9  17  29  47  73 102 131 164 204 248 296
#     4   9  18  31  46  67  97 130 167 206 241 286
#     4  11  24  38  50  68  96 129 168 212 261 318
#
# _framework density 17.127607999999999
#
# number of rings (size 3 to 8) (size 9 to 14) (size 15 to 20)
#    0.000    2.250    1.250    3.000    0.000    6.500 
#    0.000    1.250    0.000    0.000    0.000    0.875 
#    0.000    6.000    0.000    0.000    0.000    0.000 
#
# Total GULP energy -792980.368739 kJ/mol
# GULP energy per Si atom -12390.318262 kJ/mol
# Density = 1.708863 g / cm^3
# Si number density = 17.127608 Si / 1000 Ang^3
#
#
#
# Elastic Constant Matrix: (Units=GPa)
#
#
# Indices 1 2 3 4 5 6 
#
# 1 97.5054 47.4903 43.3734 0.0000 0.0000 0.0000
# 2 47.4903 89.4594 47.5987 0.0000 0.0000 0.0000
# 3 43.3734 47.5987 77.5013 0.0000 0.0000 0.0000
# 4 0.0000 0.0000 0.0000 25.0913 0.0000 0.0000
# 5 0.0000 0.0000 0.0000 0.0000 28.2139 0.0000
# 6 0.0000 0.0000 0.0000 0.0000 0.0000 14.0026
#
#
#
# Elastic Compliance Matrix: (Units=1/GPa)
#
#
# Indices 1 2 3 4 5 6 
#
# 1 0.015149 -0.005245 -0.005257 0.000000 0.000000 0.000000
# 2 -0.005245 0.018420 -0.008378 0.000000 0.000000 0.000000
# 3 -0.005257 -0.008378 0.020990 0.000000 0.000000 0.000000
# 4 0.000000 0.000000 0.000000 0.039855 0.000000 0.000000
# 5 0.000000 0.000000 0.000000 0.000000 0.035444 0.000000
# 6 0.000000 0.000000 0.000000 0.000000 0.000000 0.071415
#
#
# Mechanical properties :
#
#
# Convention : Reuss Voigt Hill
#
# Bulk Modulus (GPa) = 59.52236 60.15456 59.83846
# Shear Modulus (GPa) = 20.43891 21.86178 21.15034
#
# Velocity S-wave (km/s) = 3.45821 3.57656 3.51788
# Velocity P-wave (km/s) = 7.12554 7.22865 7.17728
#
# Compressibility (1/GPa) = 0.01680041
#
# Stress axis : x y z
#
# Youngs Moduli (GPa) = 66.01210 54.28854 47.64120
#
# Poissons Ratio (x) = 0.28474 0.25044
# Poissons Ratio (y) = 0.34623 0.39912
# Poissons Ratio (z) = 0.34701 0.45481
#
# Static dielectric constant tensor:
#      x y z
#    x 3.406820 0.000000 0.000000 
#    y 0.000000 3.017980 0.000000 
#    z 0.000000 0.000000 3.334150 
# 
# 
# High freq. dielectric constant tensor:
#      x y z
#    x 1.649140 0.000000 0.000000 
#    y 0.000000 1.620250 0.000000 
#    z 0.000000 0.000000 1.677190 
# 
# From -- ./inp_files/8713.got.cif
#   From: 2010.03.12/outbox.cif.g09.slc.cpg/sg57_5_cif.got.tgz:8713.got - 2010.04.16 15:48:40.
