data_PCOD8230487
_publ_section_title
;
Structure prediction by ZEFSAII (Michael W. Deem and Ramdas Pophale) SiO2 
 PCOD8230487
Probable space group: P B C M
;
_chemical_formula_sum "Si O2"
_cell_formula_units_Z 56
_cell_length_a 19.375389
_cell_length_b 18.651801
_cell_length_c 8.524364
_cell_angle_alpha 90.000000
_cell_angle_beta 90.000000
_cell_angle_gamma 90.000000
_cell_volume 3080.584955
_symmetry_space_group_name_H-M "P B C M"
_symmetry_group_IT_number 57
_symmetry_cell_setting 'orthorhombic'
loop_
_space_group_symop_operation_xyz
x,y,z
-x,-y,1/2+z
x,1/2-y,-z
-x,1/2+y,1/2-z
-x,-y,-z
x,y,1/2-z
-x,1/2+y,z
x,1/2-y,1/2+z
loop_
_atom_site_type_symbol
_atom_site_label
_atom_site_fract_x
_atom_site_fract_y
_atom_site_fract_z
Si Si1 0.295141 0.460795 0.066453
Si Si2 0.937436 0.831515 0.436510
Si Si3 0.956211 0.434344 0.563942
Si Si4 0.368181 0.322385 0.434636
Si Si5 0.479568 0.820174 0.428049
Si Si6 0.148281 0.033832 0.066656
Si Si7 0.571638 0.471130 0.069028
O O1 0.276943 0.466323 0.250000
O O2 0.315974 0.382300 0.008248
O O3 0.228974 0.477995 0.962828
O O4 0.361625 0.509161 0.031055
O O5 0.924197 0.750000 0.500000
O O6 0.933764 0.828035 0.250000
O O7 0.880922 0.890924 0.494303
O O8 0.013428 0.860204 0.490965
O O9 0.959499 0.427377 0.750000
O O10 0.880629 0.458929 0.507310
O O11 0.000000 0.500000 0.500000
O O12 0.335554 0.250000 0.500000
O O13 0.371636 0.323142 0.250000
O O14 0.445038 0.335391 0.506716
O O15 0.443619 0.750000 0.500000
O O16 0.495020 0.802580 0.250000
O O17 0.428298 0.885706 0.448653
O O18 0.131242 0.036398 0.250000
O O19 0.578025 0.495317 0.250000
O O20 0.500000 0.500000 0.000000
#
# Coordination Sequence:
#
# PCOD8230487 Si02
#       7
#     8   8   8   8   8   8   8
#     4  11  22  37  53  76 108 144 184 228 278 331
#     4  11  21  36  58  87 118 151 187 228 269 319
#     4  10  18  33  56  82 110 145 183 224 267 315
#     4   9  18  32  48  69  99 133 170 214 262 321
#     4   9  18  33  51  74  99 128 167 216 270 325
#     4  11  22  37  55  80 112 150 189 227 276 333
#     4  11  21  35  54  78 105 136 180 233 281 332
#
# _framework density 18.178364999999999
#
# number of rings (size 3 to 8) (size 9 to 14) (size 15 to 20)
#    0.000    1.714    1.429    6.429    0.000    2.857 
#    0.000    1.429    0.000    0.857    0.000    4.000 
#    0.000    0.000    0.000    0.000    0.000    0.000 
#
# Total GULP energy -693823.284839 kJ/mol
# GULP energy per Si atom -12389.701515 kJ/mol
# Density = 1.813699 g / cm^3
# Si number density = 18.178365 Si / 1000 Ang^3
#
#
#
# Elastic Constant Matrix: (Units=GPa)
#
#
# Indices 1 2 3 4 5 6 
#
# 1 98.5792 39.3476 23.3296 0.0000 0.0000 0.0000
# 2 39.3476 64.1731 32.7759 0.0000 0.0000 0.0000
# 3 23.3296 32.7759 95.0344 0.0000 0.0000 0.0000
# 4 0.0000 0.0000 0.0000 32.0480 0.0000 0.0000
# 5 0.0000 0.0000 0.0000 0.0000 28.5773 0.0000
# 6 0.0000 0.0000 0.0000 0.0000 0.0000 16.9828
#
#
#
# Elastic Compliance Matrix: (Units=1/GPa)
#
#
# Indices 1 2 3 4 5 6 
#
# 1 0.013455 -0.007966 -0.000556 0.000000 0.000000 0.000000
# 2 -0.007966 0.023631 -0.006194 0.000000 0.000000 0.000000
# 3 -0.000556 -0.006194 0.012795 0.000000 0.000000 0.000000
# 4 0.000000 0.000000 0.000000 0.031203 0.000000 0.000000
# 5 0.000000 0.000000 0.000000 0.000000 0.034993 0.000000
# 6 0.000000 0.000000 0.000000 0.000000 0.000000 0.058883
#
#
# Mechanical properties :
#
#
# Convention : Reuss Voigt Hill
#
# Bulk Modulus (GPa) = 48.90210 49.85478 49.37844
# Shear Modulus (GPa) = 23.67311 26.34385 25.00848
#
# Velocity S-wave (km/s) = 3.61261 3.81095 3.71310
# Velocity P-wave (km/s) = 6.66040 6.84466 6.75316
#
# Compressibility (1/GPa) = 0.02044902
#
# Stress axis : x y z
#
# Youngs Moduli (GPa) = 74.31975 42.31702 78.15393
#
# Poissons Ratio (x) = 0.33711 0.04342
# Poissons Ratio (y) = 0.59206 0.48412
# Poissons Ratio (z) = 0.04129 0.26213
#
# Static dielectric constant tensor:
#      x y z
#    x 3.409000 0.000000 0.000000 
#    y 0.000000 3.619830 0.000000 
#    z 0.000000 0.000000 3.474340 
# 
# 
# High freq. dielectric constant tensor:
#      x y z
#    x 1.685440 0.000000 0.000000 
#    y 0.000000 1.698320 0.000000 
#    z 0.000000 0.000000 1.716800 
# 
# From -- ./inp_files/8296.got.cif
#   From: 2010.03.12/outbox.cif.g09.slc.cpg/sg57_5_cif.got.tgz:8296.got - 2010.04.16 15:48:40.
