data_PCOD8230661
_publ_section_title
;
Structure prediction by ZEFSAII (Michael W. Deem and Ramdas Pophale) SiO2 
 PCOD8230661
Probable space group: P B C M
;
_chemical_formula_sum "Si O2"
_cell_formula_units_Z 48
_cell_length_a 13.333414
_cell_length_b 23.241293
_cell_length_c 8.773906
_cell_angle_alpha 90.000000
_cell_angle_beta 90.000000
_cell_angle_gamma 90.000000
_cell_volume 2718.908717
_symmetry_space_group_name_H-M "P B C M"
_symmetry_group_IT_number 57
_symmetry_cell_setting 'orthorhombic'
loop_
_space_group_symop_operation_xyz
x,y,z
-x,-y,1/2+z
x,1/2-y,-z
-x,1/2+y,1/2-z
-x,-y,-z
x,y,1/2-z
-x,1/2+y,z
x,1/2-y,1/2+z
loop_
_atom_site_type_symbol
_atom_site_label
_atom_site_fract_x
_atom_site_fract_y
_atom_site_fract_z
Si Si1 0.110671 0.812467 0.430082
Si Si2 0.115939 0.311128 0.072092
Si Si3 0.609241 0.002686 0.930940
Si Si4 0.898963 0.510231 0.918587
Si Si5 0.759798 0.906684 0.925439
Si Si6 0.244569 0.592496 0.081389
O O1 0.129300 0.750000 0.500000
O O2 0.121999 0.808561 0.250000
O O3 0.199599 0.853379 0.490579
O O4 0.996711 0.833804 0.473669
O O5 0.122525 0.303519 0.250000
O O6 0.136165 0.250000 0.000000
O O7 0.209748 0.350620 0.020969
O O8 0.606539 0.008654 0.750000
O O9 0.659745 0.941252 0.978561
O O10 0.500000 0.000000 0.000000
O O11 0.665856 0.059274 0.994470
O O12 0.908544 0.540323 0.750000
O O13 0.846988 0.449896 0.895633
O O14 0.846833 0.548342 0.045432
O O15 0.000000 0.500000 0.000000
O O16 0.753459 0.888853 0.750000
O O17 0.282930 0.611870 0.250000
#
# Coordination Sequence:
#
# PCOD8230661 Si02
#       6
#     8   8   8   8   8   8
#     4  10  20  33  50  74 105 141 178 212 248 294
#     4  10  20  33  51  75 106 143 179 213 249 295
#     4  10  21  37  57  79 102 130 166 212 265 316
#     4  10  19  29  44  68  99 133 166 203 249 300
#     4  10  20  33  50  73 101 132 168 209 253 304
#     4  10  20  33  50  73 101 133 169 209 253 303
#
# _framework density 17.654140999999999
#
# number of rings (size 3 to 8) (size 9 to 14) (size 15 to 20)
#    0.000    2.000    0.000    4.000    0.000    8.667 
#    0.000    0.000    0.000    1.000    0.000    2.333 
#    0.000    0.000    0.000    0.000    0.000    0.000 
#
# Total GULP energy -594652.731782 kJ/mol
# GULP energy per Si atom -12388.598579 kJ/mol
# Density = 1.761396 g / cm^3
# Si number density = 17.654141 Si / 1000 Ang^3
#
#
#
# Elastic Constant Matrix: (Units=GPa)
#
#
# Indices 1 2 3 4 5 6 
#
# 1 127.0615 57.0898 52.1459 0.0000 0.0000 0.0000
# 2 57.0898 101.6180 50.2466 0.0000 0.0000 0.0000
# 3 52.1459 50.2466 90.8879 0.0000 0.0000 0.0000
# 4 0.0000 0.0000 0.0000 33.5459 0.0000 0.0000
# 5 0.0000 0.0000 0.0000 0.0000 22.8071 0.0000
# 6 0.0000 0.0000 0.0000 0.0000 0.0000 18.0771
#
#
#
# Elastic Compliance Matrix: (Units=1/GPa)
#
#
# Indices 1 2 3 4 5 6 
#
# 1 0.011584 -0.004434 -0.004195 0.000000 0.000000 0.000000
# 2 -0.004434 0.015240 -0.005881 0.000000 0.000000 0.000000
# 3 -0.004195 -0.005881 0.016661 0.000000 0.000000 0.000000
# 4 0.000000 0.000000 0.000000 0.029810 0.000000 0.000000
# 5 0.000000 0.000000 0.000000 0.000000 0.043846 0.000000
# 6 0.000000 0.000000 0.000000 0.000000 0.000000 0.055319
#
#
# Mechanical properties :
#
#
# Convention : Reuss Voigt Hill
#
# Bulk Modulus (GPa) = 69.13528 70.94803 70.04165
# Shear Modulus (GPa) = 24.23645 25.55837 24.89741
#
# Velocity S-wave (km/s) = 3.70922 3.80903 3.75945
# Velocity P-wave (km/s) = 7.58883 7.72139 7.65540
#
# Compressibility (1/GPa) = 0.01446439
#
# Stress axis : x y z
#
# Youngs Moduli (GPa) = 86.32663 65.61761 60.02065
#
# Poissons Ratio (x) = 0.29092 0.25179
# Poissons Ratio (y) = 0.38274 0.35301
# Poissons Ratio (z) = 0.36214 0.38593
#
# Static dielectric constant tensor:
#      x y z
#    x 3.152520 0.000000 0.000000 
#    y 0.000000 3.259320 0.000000 
#    z 0.000000 0.000000 3.261430 
# 
# 
# High freq. dielectric constant tensor:
#      x y z
#    x 1.659860 0.000000 0.000000 
#    y 0.000000 1.675590 0.000000 
#    z 0.000000 0.000000 1.702990 
# 
# From -- ./inp_files/4895.got.cif
#   From: 2010.03.12/outbox.cif.g09.slc.cpg/sg57_3_cif.got.tgz:4895.got - 2010.04.16 15:48:40.
