data_PCOD8230558
_publ_section_title
;
Structure prediction by ZEFSAII (Michael W. Deem and Ramdas Pophale) SiO2 
 PCOD8230558
Probable space group: P B C M
;
_chemical_formula_sum "Si O2"
_cell_formula_units_Z 40
_cell_length_a 22.475180
_cell_length_b 9.093655
_cell_length_c 10.036951
_cell_angle_alpha 90.000000
_cell_angle_beta 90.000000
_cell_angle_gamma 90.000000
_cell_volume 2051.367432
_symmetry_space_group_name_H-M "P B C M"
_symmetry_group_IT_number 57
_symmetry_cell_setting 'orthorhombic'
loop_
_space_group_symop_operation_xyz
x,y,z
-x,-y,1/2+z
x,1/2-y,-z
-x,1/2+y,1/2-z
-x,-y,-z
x,y,1/2-z
-x,1/2+y,z
x,1/2-y,1/2+z
loop_
_atom_site_type_symbol
_atom_site_label
_atom_site_fract_x
_atom_site_fract_y
_atom_site_fract_z
Si Si1 0.241158 0.386404 0.597585
Si Si2 0.450055 0.386624 0.750000
Si Si3 0.366906 0.422735 0.984329
Si Si4 0.867314 0.081820 0.519819
Si Si5 0.074890 0.968641 0.750000
Si Si6 0.426323 0.459115 0.250000
Si Si7 0.954988 0.367288 0.250000
O O1 0.230031 0.250000 0.500000
O O2 0.245646 0.328846 0.750000
O O3 0.301648 0.476418 0.561391
O O4 0.187649 0.499717 0.585517
O O5 0.418021 0.457737 0.877572
O O6 0.518244 0.432143 0.750000
O O7 0.447401 0.209924 0.750000
O O8 0.360299 0.250000 0.000000
O O9 0.385908 0.497486 0.122550
O O10 0.847978 0.250000 0.500000
O O11 0.884234 0.007149 0.379606
O O12 0.923590 0.069730 0.618137
O O13 0.045663 0.808402 0.750000
O O14 0.023615 0.089537 0.750000
#
# Coordination Sequence:
#
# PCOD8230558 Si02
#       7
#     8   4   8   8   4   4   4
#     4  11  23  39  62  88 115 149 199 247 288 343
#     4  10  18  35  52  80 108 145 181 226 279 336
#     4   9  19  34  56  79 110 145 185 228 285 332
#     4  10  22  40  60  85 120 158 189 234 297 348
#     4  10  22  35  60  86 116 153 195 230 287 348
#     4  10  20  33  56  80 110 145 183 232 279 342
#     4  10  20  39  58  84 118 155 191 236 285 342
#
# _framework density 19.499189000000001
#
# number of rings (size 3 to 8) (size 9 to 14) (size 15 to 20)
#    0.000    2.000    2.000    1.200    5.600    1.600 
#    0.000    2.000    0.000    0.000    0.000    0.000 
#    0.000    0.000    0.000    0.000    0.000    0.000 
#
# Total GULP energy -496080.648193 kJ/mol
# GULP energy per Si atom -12402.016205 kJ/mol
# Density = 1.945481 g / cm^3
# Si number density = 19.499189 Si / 1000 Ang^3
#
#
#
# Elastic Constant Matrix: (Units=GPa)
#
#
# Indices 1 2 3 4 5 6 
#
# 1 98.1265 26.0551 35.0337 0.0000 0.0000 0.0000
# 2 26.0551 30.9504 19.1791 0.0000 0.0000 0.0000
# 3 35.0337 19.1791 153.3575 0.0000 0.0000 0.0000
# 4 0.0000 0.0000 0.0000 18.5430 0.0000 0.0000
# 5 0.0000 0.0000 0.0000 0.0000 27.1217 0.0000
# 6 0.0000 0.0000 0.0000 0.0000 0.0000 26.6137
#
#
#
# Elastic Compliance Matrix: (Units=1/GPa)
#
#
# Indices 1 2 3 4 5 6 
#
# 1 0.013574 -0.010304 -0.001812 0.000000 0.000000 0.000000
# 2 -0.010304 0.042846 -0.003004 0.000000 0.000000 0.000000
# 3 -0.001812 -0.003004 0.007310 0.000000 0.000000 0.000000
# 4 0.000000 0.000000 0.000000 0.053929 0.000000 0.000000
# 5 0.000000 0.000000 0.000000 0.000000 0.036871 0.000000
# 6 0.000000 0.000000 0.000000 0.000000 0.000000 0.037575
#
#
# Mechanical properties :
#
#
# Convention : Reuss Voigt Hill
#
# Bulk Modulus (GPa) = 29.86079 49.21888 39.53984
# Shear Modulus (GPa) = 21.41249 27.93345 24.67297
#
# Velocity S-wave (km/s) = 3.31739 3.78900 3.56101
# Velocity P-wave (km/s) = 5.47910 6.66621 6.10159
#
# Compressibility (1/GPa) = 0.03348873
#
# Stress axis : x y z
#
# Youngs Moduli (GPa) = 73.67074 23.33957 136.79038
#
# Poissons Ratio (x) = 0.24049 0.24790
# Poissons Ratio (y) = 0.75910 0.41098
# Poissons Ratio (z) = 0.13351 0.07012
#
# Static dielectric constant tensor:
#      x y z
#    x 3.608510 0.000000 0.000000 
#    y 0.000000 3.128430 0.000000 
#    z 0.000000 0.000000 3.971520 
# 
# 
# High freq. dielectric constant tensor:
#      x y z
#    x 1.766990 0.000000 0.000000 
#    y 0.000000 1.719180 0.000000 
#    z 0.000000 0.000000 1.784180 
# 
# From -- ./inp_files/6300.got.cif
#   From: 2010.03.12/outbox.cif.g09.slc.cpg/sg57_4_cif.got.tgz:6300.got - 2010.04.16 15:48:40.
