data_PCOD8230537
_publ_section_title
;
Structure prediction by ZEFSAII (Michael W. Deem and Ramdas Pophale) SiO2 
 PCOD8230537
Probable space group: P B C M
;
_chemical_formula_sum "Si O2"
_cell_formula_units_Z 48
_cell_length_a 11.393605
_cell_length_b 11.616665
_cell_length_c 18.705680
_cell_angle_alpha 90.000000
_cell_angle_beta 90.000000
_cell_angle_gamma 90.000000
_cell_volume 2475.803229
_symmetry_space_group_name_H-M "P B C M"
_symmetry_group_IT_number 57
_symmetry_cell_setting 'orthorhombic'
loop_
_space_group_symop_operation_xyz
x,y,z
-x,-y,1/2+z
x,1/2-y,-z
-x,1/2+y,1/2-z
-x,-y,-z
x,y,1/2-z
-x,1/2+y,z
x,1/2-y,1/2+z
loop_
_atom_site_type_symbol
_atom_site_label
_atom_site_fract_x
_atom_site_fract_y
_atom_site_fract_z
Si Si1 0.261433 0.990803 0.437945
Si Si2 0.192929 0.067014 0.910793
Si Si3 0.609493 0.272546 0.082756
Si Si4 0.180060 0.838679 0.666236
Si Si5 0.653869 0.732228 0.084509
Si Si6 0.053835 0.676996 0.930213
O O1 0.367549 0.909469 0.410696
O O2 0.137004 0.933630 0.418180
O O3 0.262159 0.007973 0.523571
O O4 0.283707 0.111064 0.396678
O O5 0.276279 0.164892 0.876168
O O6 0.077084 0.131449 0.939218
O O7 0.159901 0.973119 0.851420
O O8 0.698831 0.201402 0.130983
O O9 0.480794 0.236797 0.109707
O O10 0.632448 0.250000 0.000000
O O11 0.186852 0.820764 0.750000
O O12 0.070883 0.763334 0.636643
O O13 0.661167 0.750000 0.000000
O O14 0.091126 0.750000 0.000000
#
# Coordination Sequence:
#
# PCOD8230537 Si02
#       6
#     8   8   8   8   8   8
#     4  10  18  34  57  93 117 144 188 242 298 339
#     4  11  21  35  60  88 120 147 188 244 299 349
#     4  10  19  37  61  85 116 155 192 247 294 345
#     4  11  24  40  58  82 117 160 199 236 295 357
#     4   9  21  30  57  94 119 141 188 243 299 345
#     4  11  21  37  65  88 115 152 197 247 292 344
#
# _framework density 19.387647000000001
#
# number of rings (size 3 to 8) (size 9 to 14) (size 15 to 20)
#    0.000    1.667    3.333    3.000    4.667    2.667 
#    0.000    0.833    0.000    1.000    0.000    0.000 
#    0.000    0.000    0.000    0.000    0.000    0.000 
#
# Total GULP energy -595077.330731 kJ/mol
# GULP energy per Si atom -12397.444390 kJ/mol
# Density = 1.934352 g / cm^3
# Si number density = 19.387647 Si / 1000 Ang^3
#
#
#
# Elastic Constant Matrix: (Units=GPa)
#
#
# Indices 1 2 3 4 5 6 
#
# 1 96.7850 43.7368 18.2796 0.0000 0.0000 0.0000
# 2 43.7368 131.8209 28.7799 0.0000 0.0000 0.0000
# 3 18.2796 28.7799 73.1912 0.0000 0.0000 0.0000
# 4 0.0000 0.0000 0.0000 14.7078 0.0000 0.0000
# 5 0.0000 0.0000 0.0000 0.0000 4.6162 0.0000
# 6 0.0000 0.0000 0.0000 0.0000 0.0000 26.5296
#
#
#
# Elastic Compliance Matrix: (Units=1/GPa)
#
#
# Indices 1 2 3 4 5 6 
#
# 1 0.012325 -0.003738 -0.001608 0.000000 0.000000 0.000000
# 2 -0.003738 0.009432 -0.002775 0.000000 0.000000 0.000000
# 3 -0.001608 -0.002775 0.015156 0.000000 0.000000 0.000000
# 4 0.000000 0.000000 0.000000 0.067991 0.000000 0.000000
# 5 0.000000 0.000000 0.000000 0.000000 0.216628 0.000000
# 6 0.000000 0.000000 0.000000 0.000000 0.000000 0.037694
#
#
# Mechanical properties :
#
#
# Convention : Reuss Voigt Hill
#
# Bulk Modulus (GPa) = 48.38014 53.70997 51.04506
# Shear Modulus (GPa) = 13.07669 23.23744 18.15706
#
# Velocity S-wave (km/s) = 2.59990 3.46579 3.06359
# Velocity P-wave (km/s) = 5.83275 6.61657 6.23698
#
# Compressibility (1/GPa) = 0.02066964
#
# Stress axis : x y z
#
# Youngs Moduli (GPa) = 81.13438 106.01898 65.98127
#
# Poissons Ratio (x) = 0.39632 0.10612
# Poissons Ratio (y) = 0.30330 0.18312
# Poissons Ratio (z) = 0.13049 0.29423
#
# Static dielectric constant tensor:
#      x y z
#    x 3.545400 0.000000 0.000000 
#    y 0.000000 4.017380 0.000000 
#    z 0.000000 0.000000 2.980640 
# 
# 
# High freq. dielectric constant tensor:
#      x y z
#    x 1.758360 0.000000 0.000000 
#    y 0.000000 1.780620 0.000000 
#    z 0.000000 0.000000 1.688540 
# 
# From -- ./inp_files/21818.got.cif
#   From: 2010.03.12/outbox.cif.g09.slc.cpg/sg57_11_cif.got.tgz:21818.got - 2010.04.16 15:48:40.
