data_PCOD8230809
_publ_section_title
;
Structure prediction by ZEFSAII (Michael W. Deem and Ramdas Pophale) SiO2 
 PCOD8230809
Probable space group: P B C M
;
_chemical_formula_sum "Si O2"
_cell_formula_units_Z 40
_cell_length_a 12.507960
_cell_length_b 20.730256
_cell_length_c 9.117149
_cell_angle_alpha 90.000000
_cell_angle_beta 90.000000
_cell_angle_gamma 90.000000
_cell_volume 2364.014856
_symmetry_space_group_name_H-M "P B C M"
_symmetry_group_IT_number 57
_symmetry_cell_setting 'orthorhombic'
loop_
_space_group_symop_operation_xyz
x,y,z
-x,-y,1/2+z
x,1/2-y,-z
-x,1/2+y,1/2-z
-x,-y,-z
x,y,1/2-z
-x,1/2+y,z
x,1/2-y,1/2+z
loop_
_atom_site_type_symbol
_atom_site_label
_atom_site_fract_x
_atom_site_fract_y
_atom_site_fract_z
Si Si1 0.640528 0.960716 0.582140
Si Si2 0.072715 0.588477 0.921007
Si Si3 0.125787 0.443888 0.918513
Si Si4 0.414503 0.911241 0.580401
Si Si5 0.738051 0.318389 0.424547
O O1 0.641889 0.987386 0.750000
O O2 0.751553 0.923075 0.549664
O O3 0.543078 0.911081 0.559125
O O4 0.631783 0.020765 0.473358
O O5 0.055708 0.594186 0.750000
O O6 0.115545 0.518387 0.968402
O O7 0.158530 0.640803 0.974531
O O8 0.956796 0.601287 0.993619
O O9 0.095250 0.435899 0.750000
O O10 0.382940 0.901776 0.750000
O O11 0.368380 0.853003 0.484369
O O12 0.749399 0.250000 0.500000
O O13 0.729178 0.311494 0.250000
#
# Coordination Sequence:
#
# PCOD8230809 Si02
#       5
#     8   8   8   8   8
#     4   9  17  31  49  73 105 134 160 203 253 295
#     4   9  18  31  47  70 100 130 162 203 247 292
#     4   9  16  29  49  72 101 131 158 199 249 295
#     4  10  19  30  49  75 101 132 170 204 246 298
#     4  11  22  37  53  71 101 134 169 209 248 292
#
# _framework density 16.920366999999999
#
# number of rings (size 3 to 8) (size 9 to 14) (size 15 to 20)
#    0.000    2.400    2.000    1.200    0.000    3.200 
#    0.000    0.000    0.000    1.200    0.000    2.800 
#    0.000    0.000    0.000    0.000    0.000    0.000 
#
# Total GULP energy -495938.728540 kJ/mol
# GULP energy per Si atom -12398.468213 kJ/mol
# Density = 1.688186 g / cm^3
# Si number density = 16.920367 Si / 1000 Ang^3
#
#
#
# Elastic Constant Matrix: (Units=GPa)
#
#
# Indices 1 2 3 4 5 6 
#
# 1 146.1996 48.8094 53.4483 0.0000 0.0000 0.0000
# 2 48.8094 76.3495 40.6045 0.0000 0.0000 0.0000
# 3 53.4483 40.6045 68.3454 0.0000 0.0000 0.0000
# 4 0.0000 0.0000 0.0000 25.4047 0.0000 0.0000
# 5 0.0000 0.0000 0.0000 0.0000 30.1293 0.0000
# 6 0.0000 0.0000 0.0000 0.0000 0.0000 20.3882
#
#
#
# Elastic Compliance Matrix: (Units=1/GPa)
#
#
# Indices 1 2 3 4 5 6 
#
# 1 0.010118 -0.003304 -0.005950 0.000000 0.000000 0.000000
# 2 -0.003304 0.020227 -0.009433 0.000000 0.000000 0.000000
# 3 -0.005950 -0.009433 0.024888 0.000000 0.000000 0.000000
# 4 0.000000 0.000000 0.000000 0.039363 0.000000 0.000000
# 5 0.000000 0.000000 0.000000 0.000000 0.033190 0.000000
# 6 0.000000 0.000000 0.000000 0.000000 0.000000 0.049048
#
#
# Mechanical properties :
#
#
# Convention : Reuss Voigt Hill
#
# Bulk Modulus (GPa) = 55.99132 64.06879 60.03006
# Shear Modulus (GPa) = 22.71065 25.05325 23.88195
#
# Velocity S-wave (km/s) = 3.66759 3.85210 3.76098
# Velocity P-wave (km/s) = 7.14828 7.59816 7.37665
#
# Compressibility (1/GPa) = 0.01785991
#
# Stress axis : x y z
#
# Youngs Moduli (GPa) = 98.83155 49.43988 40.17932
#
# Poissons Ratio (x) = 0.16336 0.23905
# Poissons Ratio (y) = 0.32657 0.37900
# Poissons Ratio (z) = 0.58802 0.46635
#
# Static dielectric constant tensor:
#      x y z
#    x 3.527290 0.000000 0.000000 
#    y 0.000000 2.805450 0.000000 
#    z 0.000000 0.000000 3.222500 
# 
# 
# High freq. dielectric constant tensor:
#      x y z
#    x 1.668240 0.000000 0.000000 
#    y 0.000000 1.600640 0.000000 
#    z 0.000000 0.000000 1.659430 
# 
# From -- ./inp_files/2892.got.cif
#   From: 2010.03.12/outbox.cif.g09.slc.cpg/sg57_2_cif.got.tgz:2892.got - 2010.04.16 15:48:40.
