data_PCOD8230623
_publ_section_title
;
Structure prediction by ZEFSAII (Michael W. Deem and Ramdas Pophale) SiO2 
 PCOD8230623
Probable space group: P B C M
;
_chemical_formula_sum "Si O2"
_cell_formula_units_Z 64
_cell_length_a 18.552215
_cell_length_b 24.774315
_cell_length_c 9.533539
_cell_angle_alpha 90.000000
_cell_angle_beta 90.000000
_cell_angle_gamma 90.000000
_cell_volume 4381.790117
_symmetry_space_group_name_H-M "P B C M"
_symmetry_group_IT_number 57
_symmetry_cell_setting 'orthorhombic'
loop_
_space_group_symop_operation_xyz
x,y,z
-x,-y,1/2+z
x,1/2-y,-z
-x,1/2+y,1/2-z
-x,-y,-z
x,y,1/2-z
-x,1/2+y,z
x,1/2-y,1/2+z
loop_
_atom_site_type_symbol
_atom_site_label
_atom_site_fract_x
_atom_site_fract_y
_atom_site_fract_z
Si Si1 0.266014 0.198716 0.587217
Si Si2 0.189053 0.108447 0.085691
Si Si3 0.766260 0.009260 0.584764
Si Si4 0.564771 0.698936 0.910376
Si Si5 0.912000 0.048871 0.906831
Si Si6 0.473174 0.080310 0.913601
Si Si7 0.606199 0.007293 0.586456
Si Si8 0.034662 0.073624 0.095625
O O1 0.239620 0.250000 0.500000
O O2 0.244873 0.205393 0.750000
O O3 0.225519 0.149094 0.519905
O O4 0.350782 0.189929 0.568611
O O5 0.206271 0.120445 0.250000
O O6 0.221977 0.051764 0.035722
O O7 0.103211 0.110641 0.057258
O O8 0.777210 0.010873 0.750000
O O9 0.830386 0.048438 0.526517
O O10 0.685875 0.027546 0.539786
O O11 0.545274 0.711857 0.750000
O O12 0.526892 0.643107 0.959958
O O13 0.536432 0.750000 0.000000
O O14 0.912021 0.072609 0.750000
O O15 0.939688 0.987845 0.908833
O O16 0.966943 0.085757 0.994954
O O17 0.452576 0.075186 0.750000
O O18 0.552438 0.056645 0.945277
O O19 0.414802 0.046259 0.000802
O O20 0.605467 0.991139 0.750000
O O21 0.006898 0.088217 0.250000
#
# Coordination Sequence:
#
# PCOD8230623 Si02
#       8
#     8   8   8   8   8   8   8   8
#     4  10  19  29  40  54  73  97 126 159 193 226
#     4   9  16  26  39  54  75 101 128 157 186 222
#     4   8  14  24  38  56  76 101 131 157 185 224
#     4   9  18  30  42  57  77 101 130 165 200 231
#     4   8  13  22  35  50  71  97 124 153 178 207
#     4   9  17  28  40  57  81 103 128 165 200 230
#     4   9  16  26  41  58  78 107 135 157 191 240
#     4   8  14  23  34  50  72  97 122 148 181 214
#
# _framework density 14.605903
#
# number of rings (size 3 to 8) (size 9 to 14) (size 15 to 20)
#    0.000    3.250    0.000    2.625    0.000    1.500 
#    0.000    2.500    0.000    0.000    0.000    0.000 
#    0.000    1.000    0.000    7.500    0.000    1.625 
#
# Total GULP energy -793079.183579 kJ/mol
# GULP energy per Si atom -12391.862243 kJ/mol
# Density = 1.457266 g / cm^3
# Si number density = 14.605903 Si / 1000 Ang^3
#
#
#
# Elastic Constant Matrix: (Units=GPa)
#
#
# Indices 1 2 3 4 5 6 
#
# 1 86.6069 26.3983 35.3957 0.0000 0.0000 0.0000
# 2 26.3983 64.4301 33.0601 0.0000 0.0000 0.0000
# 3 35.3957 33.0601 61.2130 0.0000 0.0000 0.0000
# 4 0.0000 0.0000 0.0000 21.5739 0.0000 0.0000
# 5 0.0000 0.0000 0.0000 0.0000 19.4251 0.0000
# 6 0.0000 0.0000 0.0000 0.0000 0.0000 14.5444
#
#
#
# Elastic Compliance Matrix: (Units=1/GPa)
#
#
# Indices 1 2 3 4 5 6 
#
# 1 0.015384 -0.002405 -0.007597 0.000000 0.000000 0.000000
# 2 -0.002405 0.021847 -0.010408 0.000000 0.000000 0.000000
# 3 -0.007597 -0.010408 0.026350 0.000000 0.000000 0.000000
# 4 0.000000 0.000000 0.000000 0.046352 0.000000 0.000000
# 5 0.000000 0.000000 0.000000 0.000000 0.051480 0.000000
# 6 0.000000 0.000000 0.000000 0.000000 0.000000 0.068755
#
#
# Mechanical properties :
#
#
# Convention : Reuss Voigt Hill
#
# Bulk Modulus (GPa) = 43.93477 44.66201 44.29839
# Shear Modulus (GPa) = 17.94841 18.93508 18.44174
#
# Velocity S-wave (km/s) = 3.50929 3.60446 3.55720
# Velocity P-wave (km/s) = 6.82390 6.92584 6.87506
#
# Compressibility (1/GPa) = 0.02276102
#
# Stress axis : x y z
#
# Youngs Moduli (GPa) = 65.00127 45.77326 37.94999
#
# Poissons Ratio (x) = 0.11010 0.28830
# Poissons Ratio (y) = 0.15634 0.39499
# Poissons Ratio (z) = 0.49380 0.47642
#
# Static dielectric constant tensor:
#      x y z
#    x 3.039570 0.000000 0.000000 
#    y 0.000000 2.609230 0.000000 
#    z 0.000000 0.000000 2.878170 
# 
# 
# High freq. dielectric constant tensor:
#      x y z
#    x 1.555560 0.000000 0.000000 
#    y 0.000000 1.517560 0.000000 
#    z 0.000000 0.000000 1.553290 
# 
# From -- ./inp_files/7490.got.cif
#   From: 2010.03.12/outbox.cif.g09.slc.cpg/sg57_4_cif.got.tgz:7490.got - 2010.04.16 15:48:40.
