data_PCOD8230840
_publ_section_title
;
Structure prediction by ZEFSAII (Michael W. Deem and Ramdas Pophale) SiO2 
 PCOD8230840
Probable space group: P B C M
;
_chemical_formula_sum "Si O2"
_cell_formula_units_Z 64
_cell_length_a 18.323943
_cell_length_b 25.131802
_cell_length_c 9.073518
_cell_angle_alpha 90.000000
_cell_angle_beta 90.000000
_cell_angle_gamma 90.000000
_cell_volume 4178.479413
_symmetry_space_group_name_H-M "P B C M"
_symmetry_group_IT_number 57
_symmetry_cell_setting 'orthorhombic'
loop_
_space_group_symop_operation_xyz
x,y,z
-x,-y,1/2+z
x,1/2-y,-z
-x,1/2+y,1/2-z
-x,-y,-z
x,y,1/2-z
-x,1/2+y,z
x,1/2-y,1/2+z
loop_
_atom_site_type_symbol
_atom_site_label
_atom_site_fract_x
_atom_site_fract_y
_atom_site_fract_z
Si Si1 0.599625 0.544014 0.583844
Si Si2 0.778664 0.198623 0.422294
Si Si3 0.734470 0.993163 0.575006
Si Si4 0.113215 0.487673 0.421434
Si Si5 0.005442 0.580578 0.421439
Si Si6 0.055031 0.802945 0.577245
Si Si7 0.313814 0.901180 0.922419
Si Si8 0.467994 0.572976 0.413557
O O1 0.617663 0.561124 0.750000
O O2 0.673977 0.547873 0.489306
O O3 0.536255 0.582895 0.521542
O O4 0.567379 0.485186 0.573574
O O5 0.744834 0.250000 0.500000
O O6 0.773229 0.207146 0.250000
O O7 0.861601 0.189659 0.473781
O O8 0.731138 0.149298 0.474691
O O9 0.734503 0.988767 0.750000
O O10 0.813765 0.978882 0.513832
O O11 0.714377 0.052054 0.525060
O O12 0.130304 0.478595 0.250000
O O13 0.080019 0.546873 0.447276
O O14 0.056996 0.442914 0.475224
O O15 0.982823 0.575828 0.250000
O O16 0.015050 0.642270 0.468299
O O17 0.021175 0.750000 0.500000
O O18 0.048656 0.793544 0.750000
O O19 0.300285 0.916141 0.750000
O O20 0.399808 0.888214 0.949455
O O21 0.498610 0.582433 0.250000
#
# Coordination Sequence:
#
# PCOD8230840 Si02
#       8
#     8   8   8   8   8   8   8   8
#     4   9  16  26  39  55  79 108 135 166 203 240
#     4   9  17  29  43  60  83 111 141 175 213 248
#     4  11  20  28  41  61  84 110 143 177 208 249
#     4  10  19  31  46  63  86 115 145 177 217 263
#     4   9  18  32  47  63  85 113 144 179 217 257
#     4   9  17  29  45  63  85 112 143 179 216 254
#     4   9  17  29  43  58  81 113 145 176 212 251
#     4   8  14  24  38  56  77 104 137 169 201 238
#
# _framework density 15.316577000000001
#
# number of rings (size 3 to 8) (size 9 to 14) (size 15 to 20)
#    0.000    2.750    0.000    3.375    0.000    6.500 
#    0.000    2.500    0.000    0.000    0.000    0.000 
#    0.000    1.000    0.000    6.250    0.000    4.625 
#
# Total GULP energy -793294.410932 kJ/mol
# GULP energy per Si atom -12395.225171 kJ/mol
# Density = 1.528172 g / cm^3
# Si number density = 15.316577 Si / 1000 Ang^3
#
#
#
# Elastic Constant Matrix: (Units=GPa)
#
#
# Indices 1 2 3 4 5 6 
#
# 1 87.2732 28.7371 49.8833 0.0000 0.0000 0.0000
# 2 28.7371 69.7121 28.0697 0.0000 0.0000 0.0000
# 3 49.8833 28.0697 87.7006 0.0000 0.0000 0.0000
# 4 0.0000 0.0000 0.0000 20.7245 0.0000 0.0000
# 5 0.0000 0.0000 0.0000 0.0000 28.2755 0.0000
# 6 0.0000 0.0000 0.0000 0.0000 0.0000 17.3043
#
#
#
# Elastic Compliance Matrix: (Units=1/GPa)
#
#
# Indices 1 2 3 4 5 6 
#
# 1 0.017789 -0.003741 -0.008921 0.000000 0.000000 0.000000
# 2 -0.003741 0.017254 -0.003394 0.000000 0.000000 0.000000
# 3 -0.008921 -0.003394 0.017563 0.000000 0.000000 0.000000
# 4 0.000000 0.000000 0.000000 0.048252 0.000000 0.000000
# 5 0.000000 0.000000 0.000000 0.000000 0.035366 0.000000
# 6 0.000000 0.000000 0.000000 0.000000 0.000000 0.057789
#
#
# Mechanical properties :
#
#
# Convention : Reuss Voigt Hill
#
# Bulk Modulus (GPa) = 48.79713 50.89625 49.84669
# Shear Modulus (GPa) = 21.46318 22.46056 21.96187
#
# Velocity S-wave (km/s) = 3.74746 3.83354 3.79075
# Velocity P-wave (km/s) = 7.11708 7.27299 7.19546
#
# Compressibility (1/GPa) = 0.02049301
#
# Stress axis : x y z
#
# Youngs Moduli (GPa) = 56.21416 57.95886 56.93804
#
# Poissons Ratio (x) = 0.21683 0.50794
# Poissons Ratio (y) = 0.21030 0.19327
# Poissons Ratio (z) = 0.50148 0.19673
#
# Static dielectric constant tensor:
#      x y z
#    x 3.074780 0.000000 0.000000 
#    y 0.000000 2.749780 0.000000 
#    z 0.000000 0.000000 2.976360 
# 
# 
# High freq. dielectric constant tensor:
#      x y z
#    x 1.582890 0.000000 0.000000 
#    y 0.000000 1.543330 0.000000 
#    z 0.000000 0.000000 1.593350 
# 
# From -- ./inp_files/7471.got.cif
#   From: 2010.03.12/outbox.cif.g09.slc.cpg/sg57_4_cif.got.tgz:7471.got - 2010.04.16 15:48:40.
