data_PCOD8230699
_publ_section_title
;
Structure prediction by ZEFSAII (Michael W. Deem and Ramdas Pophale) SiO2 
 PCOD8230699
Probable space group: P B C M
;
_chemical_formula_sum "Si O2"
_cell_formula_units_Z 48
_cell_length_a 17.915147
_cell_length_b 13.793950
_cell_length_c 9.088795
_cell_angle_alpha 90.000000
_cell_angle_beta 90.000000
_cell_angle_gamma 90.000000
_cell_volume 2246.028855
_symmetry_space_group_name_H-M "P B C M"
_symmetry_group_IT_number 57
_symmetry_cell_setting 'orthorhombic'
loop_
_space_group_symop_operation_xyz
x,y,z
-x,-y,1/2+z
x,1/2-y,-z
-x,1/2+y,1/2-z
-x,-y,-z
x,y,1/2-z
-x,1/2+y,z
x,1/2-y,1/2+z
loop_
_atom_site_type_symbol
_atom_site_label
_atom_site_fract_x
_atom_site_fract_y
_atom_site_fract_z
Si Si1 0.533267 0.849010 0.922369
Si Si2 0.804364 0.661060 0.078831
Si Si3 0.949771 0.876466 0.414233
Si Si4 0.599196 0.052957 0.580034
Si Si5 0.089929 0.899731 0.586113
Si Si6 0.767630 0.052313 0.579654
O O1 0.528768 0.828150 0.750000
O O2 0.589232 0.938412 0.958393
O O3 0.560979 0.750000 0.000000
O O4 0.451367 0.878789 0.979398
O O5 0.799635 0.679059 0.250000
O O6 0.767805 0.560175 0.032099
O O7 0.760582 0.750000 0.000000
O O8 0.889875 0.666619 0.026279
O O9 0.942249 0.831980 0.250000
O O10 0.030576 0.846645 0.480206
O O11 0.937350 0.990648 0.404118
O O12 0.576977 0.068900 0.750000
O O13 0.683739 0.088157 0.550219
O O14 0.091652 0.854084 0.750000
O O15 0.172888 0.888340 0.517091
O O16 0.790931 0.062392 0.750000
#
# Coordination Sequence:
#
# PCOD8230699 Si02
#       6
#     8   8   8   8   8   8
#     4  10  20  35  57  83 110 142 179 220 266 317
#     4  10  19  30  44  65  95 131 170 211 258 310
#     4   9  16  27  43  62  86 119 159 200 241 289
#     4   9  19  36  56  80 110 143 181 222 264 316
#     4   9  16  26  43  67  91 117 154 199 245 293
#     4   9  18  32  49  70  99 133 167 207 255 307
#
# _framework density 21.371051999999999
#
# number of rings (size 3 to 8) (size 9 to 14) (size 15 to 20)
#    0.000    2.667    0.000    2.000    0.000    6.667 
#    0.000    0.000    0.000    1.000    0.000    2.333 
#    0.000    0.000    0.000    0.000    0.000    0.000 
#
# Total GULP energy -594997.730749 kJ/mol
# GULP energy per Si atom -12395.786057 kJ/mol
# Density = 2.132241 g / cm^3
# Si number density = 21.371052 Si / 1000 Ang^3
#
#
#
# Elastic Constant Matrix: (Units=GPa)
#
#
# Indices 1 2 3 4 5 6 
#
# 1 85.3711 -15.2702 19.2492 0.0000 0.0000 0.0000
# 2 -15.2702 30.6658 5.5332 0.0000 0.0000 0.0000
# 3 19.2492 5.5332 76.9994 0.0000 0.0000 0.0000
# 4 0.0000 0.0000 0.0000 30.0613 0.0000 0.0000
# 5 0.0000 0.0000 0.0000 0.0000 27.4748 0.0000
# 6 0.0000 0.0000 0.0000 0.0000 0.0000 2.9260
#
#
#
# Elastic Compliance Matrix: (Units=1/GPa)
#
#
# Indices 1 2 3 4 5 6 
#
# 1 0.014006 0.007706 -0.004055 0.000000 0.000000 0.000000
# 2 0.007706 0.037278 -0.004605 0.000000 0.000000 0.000000
# 3 -0.004055 -0.004605 0.014332 0.000000 0.000000 0.000000
# 4 0.000000 0.000000 0.000000 0.033265 0.000000 0.000000
# 5 0.000000 0.000000 0.000000 0.000000 0.036397 0.000000
# 6 0.000000 0.000000 0.000000 0.000000 0.000000 0.341762
#
#
# Mechanical properties :
#
#
# Convention : Reuss Voigt Hill
#
# Bulk Modulus (GPa) = 15.69674 23.56229 19.62952
# Shear Modulus (GPa) = 9.99631 24.32738 17.16184
#
# Velocity S-wave (km/s) = 2.16510 3.37758 2.83687
# Velocity P-wave (km/s) = 3.68931 5.12445 4.46492
#
# Compressibility (1/GPa) = 0.06370749
#
# Stress axis : x y z
#
# Youngs Moduli (GPa) = 71.39629 26.82553 69.77475
#
# Poissons Ratio (x) = -0.20672 0.28295
# Poissons Ratio (y) = -0.55020 0.32133
# Poissons Ratio (z) = 0.28953 0.12354
#
# Static dielectric constant tensor:
#      x y z
#    x 3.696350 0.000000 0.000000 
#    y 0.000000 3.818250 0.000000 
#    z 0.000000 0.000000 3.918210 
# 
# 
# High freq. dielectric constant tensor:
#      x y z
#    x 1.822890 0.000000 0.000000 
#    y 0.000000 1.822980 0.000000 
#    z 0.000000 0.000000 1.841640 
# 
# From -- ./inp_files/6561.got.cif
#   From: 2010.03.12/outbox.cif.g09.slc.cpg/sg57_4_cif.got.tgz:6561.got - 2010.04.16 15:48:40.
