data_PCOD8230343
_publ_section_title
;
Structure prediction by ZEFSAII (Michael W. Deem and Ramdas Pophale) SiO2 
 PCOD8230343
Probable space group: P B C M
;
_chemical_formula_sum "Si O2"
_cell_formula_units_Z 64
_cell_length_a 21.494783
_cell_length_b 18.960876
_cell_length_c 8.934953
_cell_angle_alpha 90.000000
_cell_angle_beta 90.000000
_cell_angle_gamma 90.000000
_cell_volume 3641.528686
_symmetry_space_group_name_H-M "P B C M"
_symmetry_group_IT_number 57
_symmetry_cell_setting 'orthorhombic'
loop_
_space_group_symop_operation_xyz
x,y,z
-x,-y,1/2+z
x,1/2-y,-z
-x,1/2+y,1/2-z
-x,-y,-z
x,y,1/2-z
-x,1/2+y,z
x,1/2-y,1/2+z
loop_
_atom_site_type_symbol
_atom_site_label
_atom_site_fract_x
_atom_site_fract_y
_atom_site_fract_z
Si Si1 0.262622 0.373376 0.078897
Si Si2 0.809604 0.431751 0.077748
Si Si3 0.019300 0.072816 0.924680
Si Si4 0.906156 0.324301 0.423787
Si Si5 0.557068 0.962469 0.577732
Si Si6 0.853609 0.585270 0.073690
Si Si7 0.606109 0.821216 0.425757
Si Si8 0.688914 0.495323 0.419623
O O1 0.241363 0.370112 0.250000
O O2 0.319200 0.319691 0.045604
O O3 0.201055 0.360320 0.977966
O O4 0.291705 0.449281 0.044173
O O5 0.828926 0.429370 0.250000
O O6 0.846404 0.366177 0.004383
O O7 0.833962 0.507120 0.017542
O O8 0.734030 0.426935 0.054812
O O9 0.028427 0.058805 0.750000
O O10 0.966948 0.130228 0.957173
O O11 0.082087 0.104855 0.994427
O O12 0.000000 0.000000 0.000000
O O13 0.913332 0.250000 0.500000
O O14 0.896711 0.309747 0.250000
O O15 0.540771 0.947750 0.750000
O O16 0.572899 0.888090 0.501602
O O17 0.500000 0.000000 0.500000
O O18 0.615186 0.017793 0.563903
O O19 0.862325 0.591331 0.250000
O O20 0.578962 0.750000 0.500000
O O21 0.590680 0.823012 0.250000
O O22 0.702891 0.524349 0.250000
#
# Coordination Sequence:
#
# PCOD8230343 Si02
#       8
#     8   8   8   8   8   8   8   8
#     4   9  17  29  46  73 103 129 161 207 256 302
#     4   8  14  29  50  71  95 122 157 205 254 299
#     4  11  21  34  52  75 101 130 171 219 264 316
#     4  10  21  36  51  71 100 131 165 209 262 316
#     4  10  19  32  52  80 111 145 184 223 266 314
#     4  10  18  31  51  74  99 128 166 211 258 306
#     4  10  20  34  53  77 108 143 181 224 269 322
#     4   8  15  28  49  73  98 130 165 204 253 303
#
# _framework density 17.575036999999998
#
# number of rings (size 3 to 8) (size 9 to 14) (size 15 to 20)
#    0.000    2.500    1.250    2.625    0.000    3.000 
#    0.000    1.250    0.000    0.750    0.000    1.750 
#    0.000    0.000    0.000    0.000    0.000    0.000 
#
# Total GULP energy -792966.283308 kJ/mol
# GULP energy per Si atom -12390.098177 kJ/mol
# Density = 1.753504 g / cm^3
# Si number density = 17.575037 Si / 1000 Ang^3
#
#
#
# Elastic Constant Matrix: (Units=GPa)
#
#
# Indices 1 2 3 4 5 6 
#
# 1 130.2925 50.4671 61.1663 0.0000 0.0000 0.0000
# 2 50.4671 84.0798 52.0355 0.0000 0.0000 0.0000
# 3 61.1663 52.0355 89.6048 0.0000 0.0000 0.0000
# 4 0.0000 0.0000 0.0000 23.9871 0.0000 0.0000
# 5 0.0000 0.0000 0.0000 0.0000 29.0769 0.0000
# 6 0.0000 0.0000 0.0000 0.0000 0.0000 17.6329
#
#
#
# Elastic Compliance Matrix: (Units=1/GPa)
#
#
# Indices 1 2 3 4 5 6 
#
# 1 0.011850 -0.003288 -0.006179 0.000000 0.000000 0.000000
# 2 -0.003288 0.019479 -0.009067 0.000000 0.000000 0.000000
# 3 -0.006179 -0.009067 0.020644 0.000000 0.000000 0.000000
# 4 0.000000 0.000000 0.000000 0.041689 0.000000 0.000000
# 5 0.000000 0.000000 0.000000 0.000000 0.034392 0.000000
# 6 0.000000 0.000000 0.000000 0.000000 0.000000 0.056712
#
#
# Mechanical properties :
#
#
# Convention : Reuss Voigt Hill
#
# Bulk Modulus (GPa) = 67.10153 70.14611 68.62382
# Shear Modulus (GPa) = 22.04575 23.49326 22.76951
#
# Velocity S-wave (km/s) = 3.54556 3.66011 3.60329
# Velocity P-wave (km/s) = 7.41783 7.60664 7.51283
#
# Compressibility (1/GPa) = 0.01490279
#
# Stress axis : x y z
#
# Youngs Moduli (GPa) = 84.39127 51.33851 48.44111
#
# Poissons Ratio (x) = 0.16881 0.29933
# Poissons Ratio (y) = 0.27750 0.43922
# Poissons Ratio (z) = 0.52147 0.46549
#
# Static dielectric constant tensor:
#      x y z
#    x 3.659580 0.000000 0.000000 
#    y 0.000000 2.531480 0.000000 
#    z 0.000000 0.000000 3.289160 
# 
# 
# High freq. dielectric constant tensor:
#      x y z
#    x 1.684950 0.000000 0.000000 
#    y 0.000000 1.639260 0.000000 
#    z 0.000000 0.000000 1.680470 
# 
# From -- ./inp_files/8515.got.cif
#   From: 2010.03.12/outbox.cif.g09.slc.cpg/sg57_5_cif.got.tgz:8515.got - 2010.04.16 15:48:40.
