data_PCOD8230643
_publ_section_title
;
Structure prediction by ZEFSAII (Michael W. Deem and Ramdas Pophale) SiO2 
 PCOD8230643
Probable space group: P B C M
;
_chemical_formula_sum "Si O2"
_cell_formula_units_Z 48
_cell_length_a 11.466658
_cell_length_b 26.506172
_cell_length_c 9.005133
_cell_angle_alpha 90.000000
_cell_angle_beta 90.000000
_cell_angle_gamma 90.000000
_cell_volume 2736.994993
_symmetry_space_group_name_H-M "P B C M"
_symmetry_group_IT_number 57
_symmetry_cell_setting 'orthorhombic'
loop_
_space_group_symop_operation_xyz
x,y,z
-x,-y,1/2+z
x,1/2-y,-z
-x,1/2+y,1/2-z
-x,-y,-z
x,y,1/2-z
-x,1/2+y,z
x,1/2-y,1/2+z
loop_
_atom_site_type_symbol
_atom_site_label
_atom_site_fract_x
_atom_site_fract_y
_atom_site_fract_z
Si Si1 0.361376 0.800805 0.577813
Si Si2 0.008488 0.054074 0.572749
Si Si3 0.013053 0.204539 0.911570
Si Si4 0.790648 0.624449 0.588588
Si Si5 0.627040 0.697815 0.424705
Si Si6 0.850201 0.365400 0.923487
O O1 0.314206 0.750000 0.500000
O O2 0.354981 0.788283 0.750000
O O3 0.493659 0.812451 0.528684
O O4 0.285307 0.851362 0.542841
O O5 0.999313 0.051153 0.750000
O O6 0.898178 0.086769 0.514836
O O7 0.136152 0.076456 0.524817
O O8 0.000000 0.000000 0.500000
O O9 0.960642 0.220096 0.750000
O O10 0.110853 0.164619 0.880866
O O11 0.073172 0.250000 0.000000
O O12 0.914674 0.184779 0.022728
O O13 0.732697 0.611734 0.750000
O O14 0.695913 0.647584 0.476893
O O15 0.671003 0.750000 0.500000
O O16 0.645351 0.703886 0.250000
O O17 0.872602 0.375667 0.750000
#
# Coordination Sequence:
#
# PCOD8230643 Si02
#       6
#     8   8   8   8   8   8
#     4   9  19  32  47  71 102 136 170 203 238 279
#     4  10  21  37  56  77  99 123 157 202 253 303
#     4  10  19  29  42  65  97 128 160 198 241 290
#     4   9  19  33  48  69  96 125 158 198 242 289
#     4  10  19  31  48  71 101 136 171 203 236 280
#     4  10  19  32  50  71  97 128 162 200 244 292
#
# _framework density 17.537483000000002
#
# number of rings (size 3 to 8) (size 9 to 14) (size 15 to 20)
#    0.000    2.333    0.000    4.000    0.000    8.667 
#    0.000    0.000    0.000    1.000    0.000    0.000 
#    0.000    0.000    0.000    0.000    0.000    0.000 
#
# Total GULP energy -594696.164249 kJ/mol
# GULP energy per Si atom -12389.503422 kJ/mol
# Density = 1.749757 g / cm^3
# Si number density = 17.537483 Si / 1000 Ang^3
#
#
#
# Elastic Constant Matrix: (Units=GPa)
#
#
# Indices 1 2 3 4 5 6 
#
# 1 80.6274 43.5535 41.3605 0.0000 0.0000 0.0000
# 2 43.5535 94.2324 54.8704 0.0000 0.0000 0.0000
# 3 41.3605 54.8704 90.4769 0.0000 0.0000 0.0000
# 4 0.0000 0.0000 0.0000 26.5716 0.0000 0.0000
# 5 0.0000 0.0000 0.0000 0.0000 26.5175 0.0000
# 6 0.0000 0.0000 0.0000 0.0000 0.0000 14.8690
#
#
#
# Elastic Compliance Matrix: (Units=1/GPa)
#
#
# Indices 1 2 3 4 5 6 
#
# 1 0.017818 -0.005399 -0.004871 0.000000 0.000000 0.000000
# 2 -0.005399 0.018041 -0.008473 0.000000 0.000000 0.000000
# 3 -0.004871 -0.008473 0.018418 0.000000 0.000000 0.000000
# 4 0.000000 0.000000 0.000000 0.037634 0.000000 0.000000
# 5 0.000000 0.000000 0.000000 0.000000 0.037711 0.000000
# 6 0.000000 0.000000 0.000000 0.000000 0.000000 0.067254
#
#
# Mechanical properties :
#
#
# Convention : Reuss Voigt Hill
#
# Bulk Modulus (GPa) = 59.55665 60.54507 60.05086
# Shear Modulus (GPa) = 20.83685 21.96177 21.39931
#
# Velocity S-wave (km/s) = 3.45067 3.54259 3.49693
# Velocity P-wave (km/s) = 7.06467 7.16460 7.11481
#
# Compressibility (1/GPa) = 0.01679074
#
# Stress axis : x y z
#
# Youngs Moduli (GPa) = 56.12333 55.42851 54.29494
#
# Poissons Ratio (x) = 0.29926 0.26447
# Poissons Ratio (y) = 0.30301 0.46005
# Poissons Ratio (z) = 0.27338 0.46966
#
# Static dielectric constant tensor:
#      x y z
#    x 3.603150 0.000000 0.000000 
#    y 0.000000 -6.464110 0.000000 
#    z 0.000000 0.000000 3.389500 
# 
# 
# High freq. dielectric constant tensor:
#      x y z
#    x 1.666220 0.000000 0.000000 
#    y 0.000000 1.652270 0.000000 
#    z 0.000000 0.000000 1.692760 
# 
# From -- ./inp_files/3111.got.cif
#   From: 2010.03.12/outbox.cif.g09.slc.cpg/sg57_2_cif.got.tgz:3111.got - 2010.04.16 15:48:40.
