data_PCOD8230064
_publ_section_title
;
Structure prediction by ZEFSAII (Michael W. Deem and Ramdas Pophale) SiO2 
 PCOD8230064
Probable space group: P B C M
;
_chemical_formula_sum "Si O2"
_cell_formula_units_Z 64
_cell_length_a 26.442367
_cell_length_b 18.468445
_cell_length_c 8.868141
_cell_angle_alpha 90.000000
_cell_angle_beta 90.000000
_cell_angle_gamma 90.000000
_cell_volume 4330.751342
_symmetry_space_group_name_H-M "P B C M"
_symmetry_group_IT_number 57
_symmetry_cell_setting 'orthorhombic'
loop_
_space_group_symop_operation_xyz
x,y,z
-x,-y,1/2+z
x,1/2-y,-z
-x,1/2+y,1/2-z
-x,-y,-z
x,y,1/2-z
-x,1/2+y,z
x,1/2-y,1/2+z
loop_
_atom_site_type_symbol
_atom_site_label
_atom_site_fract_x
_atom_site_fract_y
_atom_site_fract_z
Si Si1 0.548222 0.964271 0.573706
Si Si2 0.195355 0.825118 0.427671
Si Si3 0.604989 0.417644 0.571118
Si Si4 0.995820 0.171972 0.570926
Si Si5 0.955956 0.953491 0.927883
Si Si6 0.897546 0.413371 0.073346
Si Si7 0.507927 0.326440 0.924172
Si Si8 0.310011 0.826320 0.071571
O O1 0.550097 0.982471 0.750000
O O2 0.541469 0.877669 0.547646
O O3 0.500000 0.000000 0.500000
O O4 0.596660 0.000256 0.491692
O O5 0.178345 0.750000 0.500000
O O6 0.191586 0.815837 0.250000
O O7 0.156610 0.886344 0.490292
O O8 0.252435 0.845615 0.474063
O O9 0.609503 0.420718 0.750000
O O10 0.558955 0.365783 0.516484
O O11 0.656544 0.389516 0.498910
O O12 0.000905 0.250000 0.500000
O O13 0.998751 0.176372 0.750000
O O14 0.043568 0.124520 0.509348
O O15 0.943861 0.135396 0.510037
O O16 0.964413 0.944032 0.750000
O O17 0.905063 0.000772 0.961974
O O18 0.000000 0.000000 0.000000
O O19 0.898242 0.400593 0.250000
O O20 0.515643 0.310827 0.750000
O O21 0.498207 0.250000 0.000000
O O22 0.317987 0.821925 0.250000
O O23 0.326471 0.750000 0.000000
#
# Coordination Sequence:
#
# PCOD8230064 Si02
#       8
#     8   8   8   8   8   8   8   8
#     4   9  17  29  42  59  82 107 137 170 204 241
#     4   9  17  29  42  58  80 106 137 170 204 239
#     4  10  19  30  43  59  80 109 143 173 204 240
#     4  10  18  27  40  59  82 108 138 170 204 242
#     4   9  16  27  41  57  79 106 135 168 204 242
#     4   8  15  27  42  58  78 106 138 169 201 240
#     4   9  18  28  40  59  81 106 134 164 196 234
#     4  10  19  29  42  59  81 108 137 172 207 240
#
# _framework density 14.778036999999999
#
# number of rings (size 3 to 8) (size 9 to 14) (size 15 to 20)
#    0.000    2.750    0.000    4.125    0.000    4.500 
#    0.000    3.125    0.000    0.000    0.000    0.000 
#    0.000    1.000    0.000    6.250    0.000    3.875 
#
# Total GULP energy -793021.054937 kJ/mol
# GULP energy per Si atom -12390.953983 kJ/mol
# Density = 1.474440 g / cm^3
# Si number density = 14.778037 Si / 1000 Ang^3
#
#
#
# Elastic Constant Matrix: (Units=GPa)
#
#
# Indices 1 2 3 4 5 6 
#
# 1 74.7113 51.9711 26.8712 0.0000 0.0000 0.0000
# 2 51.9711 106.4822 38.2877 0.0000 0.0000 0.0000
# 3 26.8712 38.2877 61.1753 0.0000 0.0000 0.0000
# 4 0.0000 0.0000 0.0000 27.6254 0.0000 0.0000
# 5 0.0000 0.0000 0.0000 0.0000 15.5766 0.0000
# 6 0.0000 0.0000 0.0000 0.0000 0.0000 27.1228
#
#
#
# Elastic Compliance Matrix: (Units=1/GPa)
#
#
# Indices 1 2 3 4 5 6 
#
# 1 0.020863 -0.008887 -0.003601 0.000000 0.000000 0.000000
# 2 -0.008887 0.015904 -0.006050 0.000000 0.000000 0.000000
# 3 -0.003601 -0.006050 0.021715 0.000000 0.000000 0.000000
# 4 0.000000 0.000000 0.000000 0.036199 0.000000 0.000000
# 5 0.000000 0.000000 0.000000 0.000000 0.064199 0.000000
# 6 0.000000 0.000000 0.000000 0.000000 0.000000 0.036869
#
#
# Mechanical properties :
#
#
# Convention : Reuss Voigt Hill
#
# Bulk Modulus (GPa) = 46.72099 52.95874 49.83986
# Shear Modulus (GPa) = 20.83664 22.41423 21.62543
#
# Velocity S-wave (km/s) = 3.75903 3.89874 3.82953
# Velocity P-wave (km/s) = 7.10804 7.49539 7.30428
#
# Compressibility (1/GPa) = 0.02140366
#
# Stress axis : x y z
#
# Youngs Moduli (GPa) = 47.93286 62.87544 46.05095
#
# Poissons Ratio (x) = 0.55880 0.16585
# Poissons Ratio (y) = 0.42600 0.27862
# Poissons Ratio (z) = 0.17263 0.38041
#
# Static dielectric constant tensor:
#      x y z
#    x 2.953920 0.000000 0.000000 
#    y 0.000000 3.184000 0.000000 
#    z 0.000000 0.000000 2.967210 
# 
# 
# High freq. dielectric constant tensor:
#      x y z
#    x 1.531690 0.000000 0.000000 
#    y 0.000000 1.557230 0.000000 
#    z 0.000000 0.000000 1.572260 
# 
# From -- ./inp_files/9811.got.cif
#   From: 2010.03.12/outbox.cif.g09.slc.cpg/sg57_5_cif.got.tgz:9811.got - 2010.04.16 15:48:40.
