data_PCOD8230016
_publ_section_title
;
Structure prediction by ZEFSAII (Michael W. Deem and Ramdas Pophale) SiO2 
 PCOD8230016
Probable space group: P B C M
;
_chemical_formula_sum "Si O2"
_cell_formula_units_Z 48
_cell_length_a 11.315812
_cell_length_b 11.896618
_cell_length_c 18.755093
_cell_angle_alpha 90.000000
_cell_angle_beta 90.000000
_cell_angle_gamma 90.000000
_cell_volume 2524.808608
_symmetry_space_group_name_H-M "P B C M"
_symmetry_group_IT_number 57
_symmetry_cell_setting 'orthorhombic'
loop_
_space_group_symop_operation_xyz
x,y,z
-x,-y,1/2+z
x,1/2-y,-z
-x,1/2+y,1/2-z
-x,-y,-z
x,y,1/2-z
-x,1/2+y,z
x,1/2-y,1/2+z
loop_
_atom_site_type_symbol
_atom_site_label
_atom_site_fract_x
_atom_site_fract_y
_atom_site_fract_z
Si Si1 0.254152 0.011079 0.528892
Si Si2 0.331667 0.900200 0.388925
Si Si3 0.098659 0.339952 0.944311
Si Si4 0.428180 0.298273 0.076412
Si Si5 0.712156 0.868849 0.669071
Si Si6 0.827069 0.292290 0.576706
O O1 0.129395 0.045943 0.488931
O O2 0.323182 0.111089 0.567750
O O3 0.332938 0.957581 0.466801
O O4 0.226647 0.916950 0.589150
O O5 0.461201 0.848313 0.381066
O O6 0.230445 0.803813 0.372898
O O7 0.312785 0.997485 0.330661
O O8 0.164209 0.340885 0.868959
O O9 0.967368 0.306825 0.921340
O O10 0.151551 0.250000 0.000000
O O11 0.388616 0.195413 0.125718
O O12 0.467654 0.250000 0.000000
O O13 0.718666 0.825730 0.750000
O O14 0.785747 0.250000 0.500000
#
# Coordination Sequence:
#
# PCOD8230016 Si02
#       6
#     8   8   8   8   8   8
#     4  10  17  32  56  95 115 144 182 238 292 335
#     4  10  22  35  58  87 118 150 182 239 295 345
#     4  10  17  36  59  88 116 149 189 241 288 338
#     4  12  20  36  63  89 115 147 195 242 285 341
#     4  11  24  41  57  79 114 159 198 235 294 347
#     4   9  19  31  56  91 120 141 184 238 290 341
#
# _framework density 19.011341000000002
#
# number of rings (size 3 to 8) (size 9 to 14) (size 15 to 20)
#    0.000    1.667    5.000    2.500    2.333    2.000 
#    0.000    0.833    0.000    0.000    0.000    0.000 
#    0.000    0.000    0.000    0.000    0.000    0.000 
#
# Total GULP energy -594632.669611 kJ/mol
# GULP energy per Si atom -12388.180617 kJ/mol
# Density = 1.896807 g / cm^3
# Si number density = 19.011341 Si / 1000 Ang^3
#
#
#
# Elastic Constant Matrix: (Units=GPa)
#
#
# Indices 1 2 3 4 5 6 
#
# 1 113.4845 61.3457 18.1646 0.0000 0.0000 0.0000
# 2 61.3457 93.0245 26.9334 0.0000 0.0000 0.0000
# 3 18.1646 26.9334 74.6721 0.0000 0.0000 0.0000
# 4 0.0000 0.0000 0.0000 14.7575 0.0000 0.0000
# 5 0.0000 0.0000 0.0000 0.0000 4.9234 0.0000
# 6 0.0000 0.0000 0.0000 0.0000 0.0000 26.2394
#
#
#
# Elastic Compliance Matrix: (Units=1/GPa)
#
#
# Indices 1 2 3 4 5 6 
#
# 1 0.013694 -0.009006 -0.000083 0.000000 0.000000 0.000000
# 2 -0.009006 0.017927 -0.004275 0.000000 0.000000 0.000000
# 3 -0.000083 -0.004275 0.014954 0.000000 0.000000 0.000000
# 4 0.000000 0.000000 0.000000 0.067762 0.000000 0.000000
# 5 0.000000 0.000000 0.000000 0.000000 0.203110 0.000000
# 6 0.000000 0.000000 0.000000 0.000000 0.000000 0.038111
#
#
# Mechanical properties :
#
#
# Convention : Reuss Voigt Hill
#
# Bulk Modulus (GPa) = 50.38743 54.89649 52.64196
# Shear Modulus (GPa) = 12.85674 20.83324 16.84499
#
# Velocity S-wave (km/s) = 2.60333 3.31393 2.97989
# Velocity P-wave (km/s) = 5.96640 6.60160 6.29202
#
# Compressibility (1/GPa) = 0.01984622
#
# Stress axis : x y z
#
# Youngs Moduli (GPa) = 73.02728 55.78191 66.87191
#
# Poissons Ratio (x) = 0.50239 0.00552
# Poissons Ratio (y) = 0.65771 0.28589
# Poissons Ratio (z) = 0.00603 0.23848
#
# Static dielectric constant tensor:
#      x y z
#    x 3.320830 0.000000 0.000000 
#    y 0.000000 4.019290 0.000000 
#    z 0.000000 0.000000 2.973790 
# 
# 
# High freq. dielectric constant tensor:
#      x y z
#    x 1.740830 0.000000 0.000000 
#    y 0.000000 1.763450 0.000000 
#    z 0.000000 0.000000 1.674290 
# 
# From -- ./inp_files/21811.got.cif
#   From: 2010.03.12/outbox.cif.g09.slc.cpg/sg57_11_cif.got.tgz:21811.got - 2010.04.16 15:48:40.
