data_PCOD8230017
_publ_section_title
;
Structure prediction by ZEFSAII (Michael W. Deem and Ramdas Pophale) SiO2 
 PCOD8230017
Probable space group: P B C M
;
_chemical_formula_sum "Si O2"
_cell_formula_units_Z 48
_cell_length_a 9.355436
_cell_length_b 18.645614
_cell_length_c 13.937034
_cell_angle_alpha 90.000000
_cell_angle_beta 90.000000
_cell_angle_gamma 90.000000
_cell_volume 2431.146225
_symmetry_space_group_name_H-M "P B C M"
_symmetry_group_IT_number 57
_symmetry_cell_setting 'orthorhombic'
loop_
_space_group_symop_operation_xyz
x,y,z
-x,-y,1/2+z
x,1/2-y,-z
-x,1/2+y,1/2-z
-x,-y,-z
x,y,1/2-z
-x,1/2+y,z
x,1/2-y,1/2+z
loop_
_atom_site_type_symbol
_atom_site_label
_atom_site_fract_x
_atom_site_fract_y
_atom_site_fract_z
Si Si1 0.801982 0.082738 0.969474
Si Si2 0.032823 0.870918 0.643601
Si Si3 0.806879 0.271554 0.102949
Si Si4 0.499928 0.230797 0.646880
Si Si5 0.745392 0.942447 0.861320
Si Si6 0.512593 0.867837 0.523280
O O1 0.873453 0.149051 0.909698
O O2 0.818122 0.015275 0.899811
O O3 0.890201 0.076189 0.068472
O O4 0.639728 0.097092 0.002120
O O5 0.078014 0.896706 0.750000
O O6 0.074485 0.786559 0.633555
O O7 0.861830 0.878563 0.631753
O O8 0.669187 0.278288 0.170028
O O9 0.738259 0.250000 0.000000
O O10 0.421207 0.223226 0.750000
O O11 0.435747 0.170542 0.575393
O O12 0.482675 0.310824 0.608793
O O13 0.694195 0.952075 0.750000
O O14 0.618322 0.928891 0.937233
#
# Coordination Sequence:
#
# PCOD8230017 Si02
#       6
#     8   8   8   8   8   8
#     4  10  20  38  59  84 114 153 198 244 285 344
#     4  10  20  36  59  84 111 152 196 240 293 349
#     4   9  16  33  57  86 107 139 196 243 280 328
#     4  10  17  32  59  85 110 144 191 243 282 333
#     4  11  24  38  55  83 123 159 189 237 305 360
#     4  10  20  37  55  85 116 150 192 237 291 351
#
# _framework density 19.743773000000001
#
# number of rings (size 3 to 8) (size 9 to 14) (size 15 to 20)
#    0.000    2.000    5.000    2.000    0.000    4.000 
#    9.000    0.833    0.000    1.000    0.000    0.000 
#    0.000    0.000    0.000    0.000    0.000    0.000 
#
# Total GULP energy -594647.558937 kJ/mol
# GULP energy per Si atom -12388.490811 kJ/mol
# Density = 1.969884 g / cm^3
# Si number density = 19.743773 Si / 1000 Ang^3
#
#
#
# Elastic Constant Matrix: (Units=GPa)
#
#
# Indices 1 2 3 4 5 6 
#
# 1 53.9605 26.0632 26.5671 0.0000 0.0000 0.0000
# 2 26.0632 79.0214 38.2382 0.0000 0.0000 0.0000
# 3 26.5671 38.2382 138.7286 0.0000 0.0000 0.0000
# 4 0.0000 0.0000 0.0000 20.7289 0.0000 0.0000
# 5 0.0000 0.0000 0.0000 0.0000 12.6661 0.0000
# 6 0.0000 0.0000 0.0000 0.0000 0.0000 21.4812
#
#
#
# Elastic Compliance Matrix: (Units=1/GPa)
#
#
# Indices 1 2 3 4 5 6 
#
# 1 0.022860 -0.006256 -0.002653 0.000000 0.000000 0.000000
# 2 -0.006256 0.016314 -0.003299 0.000000 0.000000 0.000000
# 3 -0.002653 -0.003299 0.008626 0.000000 0.000000 0.000000
# 4 0.000000 0.000000 0.000000 0.048242 0.000000 0.000000
# 5 0.000000 0.000000 0.000000 0.000000 0.078951 0.000000
# 6 0.000000 0.000000 0.000000 0.000000 0.000000 0.046552
#
#
# Mechanical properties :
#
#
# Convention : Reuss Voigt Hill
#
# Bulk Modulus (GPa) = 42.76418 50.38304 46.57361
# Shear Modulus (GPa) = 19.70400 23.03140 21.36770
#
# Velocity S-wave (km/s) = 3.16252 3.41913 3.29333
# Velocity P-wave (km/s) = 5.91962 6.41569 6.17265
#
# Compressibility (1/GPa) = 0.02338406
#
# Stress axis : x y z
#
# Youngs Moduli (GPa) = 43.74440 61.29559 115.93230
#
# Poissons Ratio (x) = 0.38345 0.30763
# Poissons Ratio (y) = 0.27366 0.38243
# Poissons Ratio (z) = 0.11608 0.20220
#
# Static dielectric constant tensor:
#      x y z
#    x 3.248910 0.000000 0.000000 
#    y 0.000000 3.710650 0.000000 
#    z 0.000000 0.000000 3.964120 
# 
# 
# High freq. dielectric constant tensor:
#      x y z
#    x 1.732960 0.000000 0.000000 
#    y 0.000000 1.761480 0.000000 
#    z 0.000000 0.000000 1.783520 
# 
# From -- ./inp_files/16538.got.cif
#   From: 2010.03.12/outbox.cif.g09.slc.cpg/sg57_9_cif.got.tgz:16538.got - 2010.04.16 15:48:40.
