data_PCOD8230968
_publ_section_title
;
Structure prediction by ZEFSAII (Michael W. Deem and Ramdas Pophale) SiO2 
 PCOD8230968
Probable space group: P B C M
;
_chemical_formula_sum "Si O2"
_cell_formula_units_Z 64
_cell_length_a 19.013586
_cell_length_b 21.393686
_cell_length_c 8.820895
_cell_angle_alpha 90.000000
_cell_angle_beta 90.000000
_cell_angle_gamma 90.000000
_cell_volume 3588.081533
_symmetry_space_group_name_H-M "P B C M"
_symmetry_group_IT_number 57
_symmetry_cell_setting 'orthorhombic'
loop_
_space_group_symop_operation_xyz
x,y,z
-x,-y,1/2+z
x,1/2-y,-z
-x,1/2+y,1/2-z
-x,-y,-z
x,y,1/2-z
-x,1/2+y,z
x,1/2-y,1/2+z
loop_
_atom_site_type_symbol
_atom_site_label
_atom_site_fract_x
_atom_site_fract_y
_atom_site_fract_z
Si Si1 0.039680 0.560173 0.568948
Si Si2 0.457213 0.555444 0.075258
Si Si3 0.597472 0.611444 0.421992
Si Si4 0.031182 0.182860 0.429569
Si Si5 0.157199 0.125786 0.578149
Si Si6 0.297443 0.189293 0.579303
Si Si7 0.672649 0.483625 0.071246
Si Si8 0.175026 0.983747 0.572856
O O1 0.032519 0.557716 0.750000
O O2 0.009942 0.625897 0.508585
O O3 0.121323 0.560401 0.518139
O O4 0.000000 0.500000 0.500000
O O5 0.441336 0.539693 0.250000
O O6 0.512562 0.612785 0.060972
O O7 0.500000 0.500000 0.000000
O O8 0.383379 0.568750 0.988761
O O9 0.620412 0.620903 0.250000
O O10 0.627098 0.669113 0.516150
O O11 0.635822 0.548205 0.479916
O O12 0.008795 0.250000 0.500000
O O13 0.017306 0.183740 0.250000
O O14 0.113393 0.169273 0.463418
O O15 0.134972 0.143520 0.750000
O O16 0.240145 0.135258 0.553859
O O17 0.144517 0.053126 0.546017
O O18 0.266885 0.250000 0.500000
O O19 0.309775 0.207424 0.750000
O O20 0.682728 0.477304 0.250000
O O21 0.747137 0.474251 0.991634
O O22 0.175762 0.966575 0.750000
#
# Coordination Sequence:
#
# PCOD8230968 Si02
#       8
#     8   8   8   8   8   8   8   8
#     4  12  24  40  60  85 115 149 190 235 286 344
#     4   9  17  29  46  70  98 130 167 209 257 309
#     4   9  18  31  47  68  97 133 173 216 261 311
#     4  12  25  41  62  85 112 149 190 238 287 339
#     4  10  21  36  54  78 108 145 188 230 275 331
#     4  11  22  34  48  69  99 139 182 225 268 317
#     4  10  19  31  49  75 105 137 173 214 264 321
#     4  11  21  35  56  82 113 147 185 228 279 334
#
# _framework density 17.836829000000002
#
# number of rings (size 3 to 8) (size 9 to 14) (size 15 to 20)
#    0.000    1.500    2.500    4.875    0.000    5.000 
#    0.000    0.000    0.000    0.000    0.000    0.875 
#    0.000    4.000    0.000    0.000    0.000    0.000 
#
# Total GULP energy -793306.040113 kJ/mol
# GULP energy per Si atom -12395.406877 kJ/mol
# Density = 1.779623 g / cm^3
# Si number density = 17.836829 Si / 1000 Ang^3
#
#
#
# Elastic Constant Matrix: (Units=GPa)
#
#
# Indices 1 2 3 4 5 6 
#
# 1 113.0346 40.6411 57.4560 0.0000 0.0000 0.0000
# 2 40.6411 75.0886 45.3787 0.0000 0.0000 0.0000
# 3 57.4560 45.3787 124.1680 0.0000 0.0000 0.0000
# 4 0.0000 0.0000 0.0000 26.0790 0.0000 0.0000
# 5 0.0000 0.0000 0.0000 0.0000 34.6727 0.0000
# 6 0.0000 0.0000 0.0000 0.0000 0.0000 34.8622
#
#
#
# Elastic Compliance Matrix: (Units=1/GPa)
#
#
# Indices 1 2 3 4 5 6 
#
# 1 0.012523 -0.004205 -0.004258 0.000000 0.000000 0.000000
# 2 -0.004205 0.018504 -0.004817 0.000000 0.000000 0.000000
# 3 -0.004258 -0.004817 0.011784 0.000000 0.000000 0.000000
# 4 0.000000 0.000000 0.000000 0.038345 0.000000 0.000000
# 5 0.000000 0.000000 0.000000 0.000000 0.028841 0.000000
# 6 0.000000 0.000000 0.000000 0.000000 0.000000 0.028684
#
#
# Mechanical properties :
#
#
# Convention : Reuss Voigt Hill
#
# Bulk Modulus (GPa) = 61.53003 66.58253 64.05628
# Shear Modulus (GPa) = 29.29808 30.37712 29.83760
#
# Velocity S-wave (km/s) = 4.05725 4.13129 4.09444
# Velocity P-wave (km/s) = 7.51793 7.75670 7.63825
#
# Compressibility (1/GPa) = 0.01625223
#
# Stress axis : x y z
#
# Youngs Moduli (GPa) = 79.85283 54.04101 84.85780
#
# Poissons Ratio (x) = 0.22722 0.36133
# Poissons Ratio (y) = 0.33575 0.40877
# Poissons Ratio (z) = 0.34002 0.26032
#
# Static dielectric constant tensor:
#      x y z
#    x 3.550500 0.000000 0.000000 
#    y 0.000000 3.110760 0.000000 
#    z 0.000000 0.000000 3.478750 
# 
# 
# High freq. dielectric constant tensor:
#      x y z
#    x 1.695130 0.000000 0.000000 
#    y 0.000000 1.648160 0.000000 
#    z 0.000000 0.000000 1.706280 
# 
# From -- ./inp_files/7174.got.cif
#   From: 2010.03.12/outbox.cif.g09.slc.cpg/sg57_4_cif.got.tgz:7174.got - 2010.04.16 15:48:40.
