data_PCOD8230831
_publ_section_title
;
Structure prediction by ZEFSAII (Michael W. Deem and Ramdas Pophale) SiO2 
 PCOD8230831
Probable space group: P B C M
;
_chemical_formula_sum "Si O2"
_cell_formula_units_Z 64
_cell_length_a 20.110616
_cell_length_b 22.938372
_cell_length_c 9.266160
_cell_angle_alpha 90.000000
_cell_angle_beta 90.000000
_cell_angle_gamma 90.000000
_cell_volume 4274.524002
_symmetry_space_group_name_H-M "P B C M"
_symmetry_group_IT_number 57
_symmetry_cell_setting 'orthorhombic'
loop_
_space_group_symop_operation_xyz
x,y,z
-x,-y,1/2+z
x,1/2-y,-z
-x,1/2+y,1/2-z
-x,-y,-z
x,y,1/2-z
-x,1/2+y,z
x,1/2-y,1/2+z
loop_
_atom_site_type_symbol
_atom_site_label
_atom_site_fract_x
_atom_site_fract_y
_atom_site_fract_z
Si Si1 0.832769 0.394333 0.583979
Si Si2 0.647119 0.969905 0.418809
Si Si3 0.287422 0.689540 0.419217
Si Si4 0.389579 0.597247 0.083347
Si Si5 0.472816 0.056027 0.418224
Si Si6 0.919910 0.945724 0.587109
Si Si7 0.203081 0.474849 0.415773
Si Si8 0.957490 0.419308 0.086976
O O1 0.855150 0.392108 0.750000
O O2 0.780582 0.344212 0.546260
O O3 0.799118 0.456455 0.548727
O O4 0.898097 0.383499 0.487770
O O5 0.629263 0.966064 0.250000
O O6 0.597394 0.926479 0.506909
O O7 0.722929 0.951280 0.448409
O O8 0.635154 0.035319 0.480337
O O9 0.286302 0.750000 0.500000
O O10 0.295465 0.701499 0.250000
O O11 0.349204 0.651560 0.483553
O O12 0.368998 0.595378 0.250000
O O13 0.469545 0.605367 0.062450
O O14 0.461567 0.042412 0.250000
O O15 0.500000 0.000000 0.500000
O O16 0.916343 0.921946 0.750000
O O17 0.847859 0.938325 0.513657
O O18 0.974148 0.908120 0.499472
O O19 0.940301 0.012845 0.583767
O O20 0.183276 0.464202 0.250000
O O21 0.966406 0.396738 0.250000
#
# Coordination Sequence:
#
# PCOD8230831 Si02
#       8
#     8   8   8   8   8   8   8   8
#     4   9  16  27  42  54  69  99 133 163 198 238
#     4   9  15  25  40  57  77 102 131 160 194 237
#     4  10  19  31  44  58  76 101 134 171 208 244
#     4   8  14  27  42  53  71 101 131 158 197 245
#     4   9  16  25  39  56  74  97 127 160 194 236
#     4   9  16  24  34  52  76 100 127 159 190 223
#     4   9  15  24  39  55  74 104 134 158 189 231
#     4   9  16  25  37  52  72  96 127 163 194 227
#
# _framework density 14.972427
#
# number of rings (size 3 to 8) (size 9 to 14) (size 15 to 20)
#    0.000    3.000    1.250    1.875    0.000    4.000 
#    0.000    3.125    0.000    0.000    0.000    0.000 
#    0.000    0.000    0.000    1.125    0.000   16.750 
#
# Total GULP energy -793161.002178 kJ/mol
# GULP energy per Si atom -12393.140659 kJ/mol
# Density = 1.493835 g / cm^3
# Si number density = 14.972427 Si / 1000 Ang^3
#
#
#
# Elastic Constant Matrix: (Units=GPa)
#
#
# Indices 1 2 3 4 5 6 
#
# 1 135.2168 33.6748 70.6514 0.0000 0.0000 0.0000
# 2 33.6748 34.1123 23.4028 0.0000 0.0000 0.0000
# 3 70.6514 23.4028 89.3462 0.0000 0.0000 0.0000
# 4 0.0000 0.0000 0.0000 14.1643 0.0000 0.0000
# 5 0.0000 0.0000 0.0000 0.0000 30.7480 0.0000
# 6 0.0000 0.0000 0.0000 0.0000 0.0000 12.3346
#
#
#
# Elastic Compliance Matrix: (Units=1/GPa)
#
#
# Indices 1 2 3 4 5 6 
#
# 1 0.014060 -0.007622 -0.009121 0.000000 0.000000 0.000000
# 2 -0.007622 0.039868 -0.004416 0.000000 0.000000 0.000000
# 3 -0.009121 -0.004416 0.019562 0.000000 0.000000 0.000000
# 4 0.000000 0.000000 0.000000 0.070600 0.000000 0.000000
# 5 0.000000 0.000000 0.000000 0.000000 0.032522 0.000000
# 6 0.000000 0.000000 0.000000 0.000000 0.000000 0.081073
#
#
# Mechanical properties :
#
#
# Convention : Reuss Voigt Hill
#
# Bulk Modulus (GPa) = 32.08019 57.12593 44.60306
# Shear Modulus (GPa) = 16.10858 20.17914 18.14386
#
# Velocity S-wave (km/s) = 3.28362 3.67516 3.48489
# Velocity P-wave (km/s) = 5.98740 7.49973 6.78583
#
# Compressibility (1/GPa) = 0.03117189
#
# Stress axis : x y z
#
# Youngs Moduli (GPa) = 71.12564 25.08257 51.11947
#
# Poissons Ratio (x) = 0.19117 0.46628
# Poissons Ratio (y) = 0.54209 0.22575
# Poissons Ratio (z) = 0.64877 0.11077
#
# Static dielectric constant tensor:
#      x y z
#    x 3.260160 0.000000 0.000000 
#    y 0.000000 2.352210 0.000000 
#    z 0.000000 0.000000 2.946770 
# 
# 
# High freq. dielectric constant tensor:
#      x y z
#    x 1.589720 0.000000 0.000000 
#    y 0.000000 1.491910 0.000000 
#    z 0.000000 0.000000 1.572240 
# 
# From -- ./inp_files/8789.got.cif
#   From: 2010.03.12/outbox.cif.g09.slc.cpg/sg57_5_cif.got.tgz:8789.got - 2010.04.16 15:48:40.
