data_PCOD8230136
_publ_section_title
;
Structure prediction by ZEFSAII (Michael W. Deem and Ramdas Pophale) SiO2 
 PCOD8230136
Probable space group: P B C M
;
_chemical_formula_sum "Si O2"
_cell_formula_units_Z 56
_cell_length_a 19.036919
_cell_length_b 18.278336
_cell_length_c 8.814742
_cell_angle_alpha 90.000000
_cell_angle_beta 90.000000
_cell_angle_gamma 90.000000
_cell_volume 3067.205850
_symmetry_space_group_name_H-M "P B C M"
_symmetry_group_IT_number 57
_symmetry_cell_setting 'orthorhombic'
loop_
_space_group_symop_operation_xyz
x,y,z
-x,-y,1/2+z
x,1/2-y,-z
-x,1/2+y,1/2-z
-x,-y,-z
x,y,1/2-z
-x,1/2+y,z
x,1/2-y,1/2+z
loop_
_atom_site_type_symbol
_atom_site_label
_atom_site_fract_x
_atom_site_fract_y
_atom_site_fract_z
Si Si1 0.859602 0.674153 0.573723
Si Si2 0.721695 0.907852 0.428212
Si Si3 0.556491 0.171341 0.425678
Si Si4 0.711726 0.170353 0.072518
Si Si5 0.792125 0.041689 0.929310
Si Si6 0.927406 0.524709 0.570200
Si Si7 0.420116 0.329775 0.428801
O O1 0.883115 0.750000 0.500000
O O2 0.864977 0.687274 0.750000
O O3 0.780121 0.652553 0.527033
O O4 0.911879 0.608866 0.523198
O O5 0.726930 0.926146 0.250000
O O6 0.645836 0.878862 0.477259
O O7 0.735044 0.981838 0.520085
O O8 0.560531 0.250000 0.500000
O O9 0.537614 0.178813 0.250000
O O10 0.633214 0.135181 0.448971
O O11 0.491207 0.130307 0.508414
O O12 0.730287 0.175282 0.250000
O O13 0.716283 0.250000 0.000000
O O14 0.767132 0.120564 0.985552
O O15 0.800445 0.041525 0.750000
O O16 0.867097 0.027136 0.004875
O O17 0.928785 0.515814 0.750000
O O18 0.000000 0.500000 0.500000
O O19 0.410826 0.250000 0.500000
O O20 0.424479 0.321812 0.250000
#
# Coordination Sequence:
#
# PCOD8230136 Si02
#       7
#     8   8   8   8   8   8   8
#     4   9  18  32  52  78 108 139 174 214 255 302
#     4   9  19  34  49  71 105 142 176 216 262 307
#     4   9  17  29  47  70  98 133 173 216 265 315
#     4  10  20  36  57  79 104 135 173 221 269 315
#     4  11  22  36  57  82 105 135 173 212 260 318
#     4  10  21  39  60  83 112 144 177 214 258 311
#     4  10  18  28  46  71 102 138 177 221 267 312
#
# _framework density 18.257660000000001
#
# number of rings (size 3 to 8) (size 9 to 14) (size 15 to 20)
#    0.000    2.286    0.000    5.143    0.000    5.714 
#    0.000    1.429    0.000    1.714    0.000    0.000 
#    0.000    0.000    0.000    0.000    0.000    0.000 
#
# Total GULP energy -694216.671385 kJ/mol
# GULP energy per Si atom -12396.726275 kJ/mol
# Density = 1.821610 g / cm^3
# Si number density = 18.257660 Si / 1000 Ang^3
#
#
#
# Elastic Constant Matrix: (Units=GPa)
#
#
# Indices 1 2 3 4 5 6 
#
# 1 135.2258 71.7188 59.8251 0.0000 0.0000 0.0000
# 2 71.7188 94.7253 43.2001 0.0000 0.0000 0.0000
# 3 59.8251 43.2001 94.9738 0.0000 0.0000 0.0000
# 4 0.0000 0.0000 0.0000 31.0951 0.0000 0.0000
# 5 0.0000 0.0000 0.0000 0.0000 31.8315 0.0000
# 6 0.0000 0.0000 0.0000 0.0000 0.0000 21.5016
#
#
#
# Elastic Compliance Matrix: (Units=1/GPa)
#
#
# Indices 1 2 3 4 5 6 
#
# 1 0.014054 -0.008331 -0.005063 0.000000 0.000000 0.000000
# 2 -0.008331 0.018259 -0.003057 0.000000 0.000000 0.000000
# 3 -0.005063 -0.003057 0.015109 0.000000 0.000000 0.000000
# 4 0.000000 0.000000 0.000000 0.032159 0.000000 0.000000
# 5 0.000000 0.000000 0.000000 0.000000 0.031415 0.000000
# 6 0.000000 0.000000 0.000000 0.000000 0.000000 0.046508
#
#
# Mechanical properties :
#
#
# Convention : Reuss Voigt Hill
#
# Bulk Modulus (GPa) = 68.87759 74.93475 71.90617
# Shear Modulus (GPa) = 25.60856 26.89770 26.25313
#
# Velocity S-wave (km/s) = 3.74922 3.84243 3.79611
# Velocity P-wave (km/s) = 7.51993 7.79857 7.66052
#
# Compressibility (1/GPa) = 0.01451851
#
# Stress axis : x y z
#
# Youngs Moduli (GPa) = 71.15655 54.76751 66.18541
#
# Poissons Ratio (x) = 0.45628 0.33509
# Poissons Ratio (y) = 0.59283 0.20235
# Poissons Ratio (z) = 0.36026 0.16744
#
# Static dielectric constant tensor:
#      x y z
#    x 3.707800 0.000000 0.000000 
#    y 0.000000 3.193210 0.000000 
#    z 0.000000 0.000000 3.381770 
# 
# 
# High freq. dielectric constant tensor:
#      x y z
#    x 1.711080 0.000000 0.000000 
#    y 0.000000 1.684850 0.000000 
#    z 0.000000 0.000000 1.718860 
# 
# From -- ./inp_files/8367.got.cif
#   From: 2010.03.12/outbox.cif.g09.slc.cpg/sg57_5_cif.got.tgz:8367.got - 2010.04.16 15:48:40.
