data_PCOD8230003
_publ_section_title
;
Structure prediction by ZEFSAII (Michael W. Deem and Ramdas Pophale) SiO2 
 PCOD8230003
Probable space group: P B C M
;
_chemical_formula_sum "Si O2"
_cell_formula_units_Z 56
_cell_length_a 13.968467
_cell_length_b 9.644095
_cell_length_c 25.146712
_cell_angle_alpha 90.000000
_cell_angle_beta 90.000000
_cell_angle_gamma 90.000000
_cell_volume 3387.594615
_symmetry_space_group_name_H-M "P B C M"
_symmetry_group_IT_number 57
_symmetry_cell_setting 'orthorhombic'
loop_
_space_group_symop_operation_xyz
x,y,z
-x,-y,1/2+z
x,1/2-y,-z
-x,1/2+y,1/2-z
-x,-y,-z
x,y,1/2-z
-x,1/2+y,z
x,1/2-y,1/2+z
loop_
_atom_site_type_symbol
_atom_site_label
_atom_site_fract_x
_atom_site_fract_y
_atom_site_fract_z
Si Si1 0.221305 0.469607 0.905910
Si Si2 0.093781 0.409416 0.003600
Si Si3 0.096602 0.143006 0.810315
Si Si4 0.767753 0.852717 0.099000
Si Si5 0.410076 0.371353 0.461676
Si Si6 0.912145 0.535119 0.311292
Si Si7 0.619968 0.126287 0.964299
O O1 0.250998 0.311101 0.901077
O O2 0.170980 0.518356 0.850875
O O3 0.309824 0.574112 0.917404
O O4 0.151623 0.476319 0.955606
O O5 0.158412 0.417668 0.056353
O O6 0.062409 0.250000 0.000000
O O7 0.000000 0.500000 0.000000
O O8 0.126838 0.117370 0.750000
O O9 0.190116 0.100980 0.844253
O O10 0.066951 0.302320 0.821050
O O11 0.007788 0.047333 0.826526
O O12 0.660724 0.906206 0.087681
O O13 0.367815 0.250000 0.500000
O O14 0.409446 0.507684 0.495887
O O15 0.515924 0.328941 0.439815
O O16 0.881815 0.506454 0.250000
O O17 0.665642 0.250000 0.000000
#
# Coordination Sequence:
#
# PCOD8230003 Si02
#       7
#     8   8   8   8   8   8   8
#     4  10  18  32  48  68  97 126 157 194 234 290
#     4  10  19  29  42  63  92 124 149 181 233 282
#     4   9  18  32  50  71  93 123 164 201 235 282
#     4  10  17  31  50  66  91 130 159 187 239 291
#     4  10  17  33  51  67  96 131 156 188 240 290
#     4   9  18  33  52  71  93 126 164 200 238 279
#     4  10  20  30  48  74  98 122 158 198 233 284
#
# _framework density 16.530904
#
# number of rings (size 3 to 8) (size 9 to 14) (size 15 to 20)
#    0.000    2.286    2.857    1.286    0.000    0.571 
#    2.571    0.000    0.000    0.857    0.000    0.000 
#    0.000    0.000    0.000    0.000    0.000    0.000 
#
# Total GULP energy -693767.531702 kJ/mol
# GULP energy per Si atom -12388.705923 kJ/mol
# Density = 1.649328 g / cm^3
# Si number density = 16.530904 Si / 1000 Ang^3
#
#
#
# Elastic Constant Matrix: (Units=GPa)
#
#
# Indices 1 2 3 4 5 6 
#
# 1 112.8454 28.7097 61.5652 0.0000 0.0000 0.0000
# 2 28.7097 46.3309 24.2044 0.0000 0.0000 0.0000
# 3 61.5652 24.2044 93.9186 0.0000 0.0000 0.0000
# 4 0.0000 0.0000 0.0000 16.7324 0.0000 0.0000
# 5 0.0000 0.0000 0.0000 0.0000 34.6767 0.0000
# 6 0.0000 0.0000 0.0000 0.0000 0.0000 27.0814
#
#
#
# Elastic Compliance Matrix: (Units=1/GPa)
#
#
# Indices 1 2 3 4 5 6 
#
# 1 0.014625 -0.004685 -0.008380 0.000000 0.000000 0.000000
# 2 -0.004685 0.026443 -0.003744 0.000000 0.000000 0.000000
# 3 -0.008380 -0.003744 0.017105 0.000000 0.000000 0.000000
# 4 0.000000 0.000000 0.000000 0.059764 0.000000 0.000000
# 5 0.000000 0.000000 0.000000 0.000000 0.028838 0.000000
# 6 0.000000 0.000000 0.000000 0.000000 0.000000 0.036926
#
#
# Mechanical properties :
#
#
# Convention : Reuss Voigt Hill
#
# Bulk Modulus (GPa) = 40.72210 53.56150 47.14180
# Shear Modulus (GPa) = 22.17254 24.93912 23.55583
#
# Velocity S-wave (km/s) = 3.66632 3.88833 3.77896
# Velocity P-wave (km/s) = 6.52763 7.25465 6.90072
#
# Compressibility (1/GPa) = 0.02455669
#
# Stress axis : x y z
#
# Youngs Moduli (GPa) = 68.37418 37.81742 58.46105
#
# Poissons Ratio (x) = 0.17718 0.48989
# Poissons Ratio (y) = 0.32034 0.21886
# Poissons Ratio (z) = 0.57296 0.14157
#
# Static dielectric constant tensor:
#      x y z
#    x 3.182140 0.000000 0.000000 
#    y 0.000000 2.960620 0.000000 
#    z 0.000000 0.000000 3.036840 
# 
# 
# High freq. dielectric constant tensor:
#      x y z
#    x 1.633450 0.000000 0.000000 
#    y 0.000000 1.633880 0.000000 
#    z 0.000000 0.000000 1.615080 
# 
# From -- ./inp_files/28639.got.cif
#   From: 2010.03.12/outbox.cif.g09.slc.cpg/sg57_15_cif.got.tgz:28639.got - 2010.04.16 15:48:40.
