data_PCOD8230644
_publ_section_title
;
Structure prediction by ZEFSAII (Michael W. Deem and Ramdas Pophale) SiO2 
 PCOD8230644
Probable space group: P B C M
;
_chemical_formula_sum "Si O2"
_cell_formula_units_Z 64
_cell_length_a 18.539675
_cell_length_b 24.772246
_cell_length_c 9.093787
_cell_angle_alpha 90.000000
_cell_angle_beta 90.000000
_cell_angle_gamma 90.000000
_cell_volume 4176.498007
_symmetry_space_group_name_H-M "P B C M"
_symmetry_group_IT_number 57
_symmetry_cell_setting 'orthorhombic'
loop_
_space_group_symop_operation_xyz
x,y,z
-x,-y,1/2+z
x,1/2-y,-z
-x,1/2+y,1/2-z
-x,-y,-z
x,y,1/2-z
-x,1/2+y,z
x,1/2-y,1/2+z
loop_
_atom_site_type_symbol
_atom_site_label
_atom_site_fract_x
_atom_site_fract_y
_atom_site_fract_z
Si Si1 0.408295 0.046477 0.412824
Si Si2 0.888421 0.993212 0.422121
Si Si3 0.257218 0.490016 0.580538
Si Si4 0.066408 0.803288 0.423821
Si Si5 0.463304 0.924991 0.087893
Si Si6 0.022051 0.579287 0.919802
Si Si7 0.780705 0.196614 0.425213
Si Si8 0.310610 0.610251 0.919925
O O1 0.402533 0.070283 0.250000
O O2 0.462997 0.085768 0.498758
O O3 0.327167 0.043243 0.479900
O O4 0.442281 0.987387 0.409358
O O5 0.880074 0.001902 0.250000
O O6 0.945022 0.946010 0.462119
O O7 0.812333 0.973923 0.486663
O O8 0.914477 0.050159 0.489457
O O9 0.243166 0.475164 0.750000
O O10 0.272193 0.553051 0.564463
O O11 0.030774 0.750000 0.500000
O O12 0.076549 0.792763 0.250000
O O13 0.018358 0.856617 0.453488
O O14 0.142582 0.814644 0.499944
O O15 0.480945 0.904375 0.250000
O O16 0.394206 0.892174 0.027956
O O17 0.040833 0.568969 0.750000
O O18 0.747452 0.250000 0.500000
O O19 0.788704 0.202724 0.250000
O O20 0.727238 0.148628 0.463767
O O21 0.304532 0.629962 0.750000
#
# Coordination Sequence:
#
# PCOD8230644 Si02
#       8
#     8   8   8   8   8   8   8   8
#     4   8  14  24  37  54  78 106 134 162 192 230
#     4  10  19  29  43  63  84 110 145 177 204 246
#     4   9  17  28  41  58  83 114 140 166 206 246
#     4  10  19  32  48  63  82 108 138 173 213 253
#     4   8  14  24  38  55  76 104 134 163 195 228
#     4   9  19  33  45  59  84 114 138 169 215 256
#     4  11  21  31  43  60  81 105 136 172 208 243
#     4   9  17  29  42  57  81 111 140 169 204 245
#
# _framework density 15.323843
#
# number of rings (size 3 to 8) (size 9 to 14) (size 15 to 20)
#    0.000    2.750    0.000    4.875    0.000    6.000 
#    0.000    2.500    0.000    0.000    0.000    0.000 
#    0.000    1.000    0.000    4.500    0.000    4.500 
#
# Total GULP energy -793140.752769 kJ/mol
# GULP energy per Si atom -12392.824262 kJ/mol
# Density = 1.528897 g / cm^3
# Si number density = 15.323843 Si / 1000 Ang^3
#
#
#
# Elastic Constant Matrix: (Units=GPa)
#
#
# Indices 1 2 3 4 5 6 
#
# 1 98.9645 29.5428 45.3844 0.0000 0.0000 0.0000
# 2 29.5428 61.3236 32.0921 0.0000 0.0000 0.0000
# 3 45.3844 32.0921 80.7879 0.0000 0.0000 0.0000
# 4 0.0000 0.0000 0.0000 21.0324 0.0000 0.0000
# 5 0.0000 0.0000 0.0000 0.0000 28.0824 0.0000
# 6 0.0000 0.0000 0.0000 0.0000 0.0000 19.1637
#
#
#
# Elastic Compliance Matrix: (Units=1/GPa)
#
#
# Indices 1 2 3 4 5 6 
#
# 1 0.014136 -0.003351 -0.006610 0.000000 0.000000 0.000000
# 2 -0.003351 0.021381 -0.006611 0.000000 0.000000 0.000000
# 3 -0.006610 -0.006611 0.018718 0.000000 0.000000 0.000000
# 4 0.000000 0.000000 0.000000 0.047546 0.000000 0.000000
# 5 0.000000 0.000000 0.000000 0.000000 0.035609 0.000000
# 6 0.000000 0.000000 0.000000 0.000000 0.000000 0.052182
#
#
# Mechanical properties :
#
#
# Convention : Reuss Voigt Hill
#
# Bulk Modulus (GPa) = 47.41412 50.56826 48.99119
# Shear Modulus (GPa) = 21.76311 22.59281 22.17796
#
# Velocity S-wave (km/s) = 3.77266 3.84390 3.80845
# Velocity P-wave (km/s) = 7.07007 7.26444 7.16791
#
# Compressibility (1/GPa) = 0.02109076
#
# Stress axis : x y z
#
# Youngs Moduli (GPa) = 70.73946 46.77078 53.42545
#
# Poissons Ratio (x) = 0.15672 0.35316
# Poissons Ratio (y) = 0.23704 0.35319
# Poissons Ratio (z) = 0.46761 0.30920
#
# Static dielectric constant tensor:
#      x y z
#    x 3.027670 0.000000 0.000000 
#    y 0.000000 2.773980 0.000000 
#    z 0.000000 0.000000 3.068780 
# 
# 
# High freq. dielectric constant tensor:
#      x y z
#    x 1.581500 0.000000 0.000000 
#    y 0.000000 1.546170 0.000000 
#    z 0.000000 0.000000 1.593360 
# 
# From -- ./inp_files/7491.got.cif
#   From: 2010.03.12/outbox.cif.g09.slc.cpg/sg57_4_cif.got.tgz:7491.got - 2010.04.16 15:48:40.
