data_PCOD8230529
_publ_section_title
;
Structure prediction by ZEFSAII (Michael W. Deem and Ramdas Pophale) SiO2 
 PCOD8230529
Probable space group: P B C M
;
_chemical_formula_sum "Si O2"
_cell_formula_units_Z 64
_cell_length_a 10.876622
_cell_length_b 9.890336
_cell_length_c 29.777169
_cell_angle_alpha 90.000000
_cell_angle_beta 90.000000
_cell_angle_gamma 90.000000
_cell_volume 3203.232685
_symmetry_space_group_name_H-M "P B C M"
_symmetry_group_IT_number 57
_symmetry_cell_setting 'orthorhombic'
loop_
_space_group_symop_operation_xyz
x,y,z
-x,-y,1/2+z
x,1/2-y,-z
-x,1/2+y,1/2-z
-x,-y,-z
x,y,1/2-z
-x,1/2+y,z
x,1/2-y,1/2+z
loop_
_atom_site_type_symbol
_atom_site_label
_atom_site_fract_x
_atom_site_fract_y
_atom_site_fract_z
Si Si1 0.996803 0.972076 0.637621
Si Si2 0.097474 0.370659 0.547925
Si Si3 0.677210 0.822452 0.165555
Si Si4 0.590976 0.311684 0.301737
Si Si5 0.223102 0.457825 0.698027
Si Si6 0.214732 0.591903 0.301241
Si Si7 0.809997 0.890828 0.080741
Si Si8 0.834806 0.103157 0.009579
O O1 0.066705 0.092704 0.611338
O O2 0.095828 0.889899 0.667369
O O3 0.933979 0.876570 0.600686
O O4 0.889853 0.026019 0.670732
O O5 0.168803 0.226962 0.543600
O O6 0.179985 0.500564 0.532823
O O7 0.978494 0.367576 0.516710
O O8 0.532357 0.801657 0.169801
O O9 0.753410 0.691947 0.180300
O O10 0.696850 0.855143 0.112943
O O11 0.726768 0.943173 0.196512
O O12 0.555756 0.287348 0.250000
O O13 0.652968 0.457104 0.309209
O O14 0.683750 0.196891 0.318815
O O15 0.184903 0.456518 0.750000
O O16 0.177192 0.624734 0.250000
O O17 0.779755 0.030228 0.054039
O O18 0.770627 0.250000 0.000000
#
# Coordination Sequence:
#
# PCOD8230529 Si02
#       8
#     8   8   8   8   8   8   8   8
#     4  10  21  33  52  86 126 147 192 237 300 352
#     4  10  18  34  54  84 121 153 187 231 291 362
#     4  11  21  38  56  80 112 151 202 252 292 337
#     4  10  22  38  58  82 111 153 211 254 285 335
#     4  11  22  36  58  82 113 160 201 242 293 346
#     4  10  21  36  55  79 115 159 195 247 297 342
#     4  10  21  35  55  84 120 153 189 242 295 360
#     4  10  19  33  57  85 122 153 183 233 299 369
#
# _framework density 19.979816
#
# number of rings (size 3 to 8) (size 9 to 14) (size 15 to 20)
#    0.000    1.750    1.250    4.875    1.750    2.000 
#    2.250    2.500    0.000    0.000    0.000    0.875 
#   22.500    0.250    0.000    0.000    0.000    0.000 
#
# Total GULP energy -793508.593644 kJ/mol
# GULP energy per Si atom -12398.571776 kJ/mol
# Density = 1.993434 g / cm^3
# Si number density = 19.979816 Si / 1000 Ang^3
#
#
#
# Elastic Constant Matrix: (Units=GPa)
#
#
# Indices 1 2 3 4 5 6 
#
# 1 78.0696 21.4336 42.8470 0.0000 0.0000 0.0000
# 2 21.4336 125.6792 51.0066 0.0000 0.0000 0.0000
# 3 42.8470 51.0066 105.9113 0.0000 0.0000 0.0000
# 4 0.0000 0.0000 0.0000 30.1314 0.0000 0.0000
# 5 0.0000 0.0000 0.0000 0.0000 21.7006 0.0000
# 6 0.0000 0.0000 0.0000 0.0000 0.0000 21.4665
#
#
#
# Elastic Compliance Matrix: (Units=1/GPa)
#
#
# Indices 1 2 3 4 5 6 
#
# 1 0.016467 -0.000130 -0.006599 0.000000 0.000000 0.000000
# 2 -0.000130 0.009891 -0.004711 0.000000 0.000000 0.000000
# 3 -0.006599 -0.004711 0.014380 0.000000 0.000000 0.000000
# 4 0.000000 0.000000 0.000000 0.033188 0.000000 0.000000
# 5 0.000000 0.000000 0.000000 0.000000 0.046082 0.000000
# 6 0.000000 0.000000 0.000000 0.000000 0.000000 0.046584
#
#
# Mechanical properties :
#
#
# Convention : Reuss Voigt Hill
#
# Bulk Modulus (GPa) = 55.99758 60.02604 58.01181
# Shear Modulus (GPa) = 25.58544 27.61789 26.60167
#
# Velocity S-wave (km/s) = 3.58238 3.72195 3.65283
# Velocity P-wave (km/s) = 6.72303 6.96987 6.84756
#
# Compressibility (1/GPa) = 0.01785792
#
# Stress axis : x y z
#
# Youngs Moduli (GPa) = 60.72929 101.10408 69.54001
#
# Poissons Ratio (x) = 0.01315 0.45889
# Poissons Ratio (y) = 0.00790 0.32759
# Poissons Ratio (z) = 0.40075 0.47628
#
# Static dielectric constant tensor:
#      x y z
#    x 3.241290 0.000000 0.000000 
#    y 0.000000 3.810520 0.000000 
#    z 0.000000 0.000000 3.697920 
# 
# 
# High freq. dielectric constant tensor:
#      x y z
#    x 1.732630 0.000000 0.000000 
#    y 0.000000 1.792690 0.000000 
#    z 0.000000 0.000000 1.785170 
# 
# From -- ./inp_files/29756.got.cif
#   From: 2010.03.12/outbox.cif.g09.slc.cpg/sg57_15_cif.got.tgz:29756.got - 2010.04.16 15:48:40.
