data_PCOD8230576
_publ_section_title
;
Structure prediction by ZEFSAII (Michael W. Deem and Ramdas Pophale) SiO2 
 PCOD8230576
Probable space group: P B C M
;
_chemical_formula_sum "Si O2"
_cell_formula_units_Z 64
_cell_length_a 13.335528
_cell_length_b 15.942128
_cell_length_c 14.195593
_cell_angle_alpha 90.000000
_cell_angle_beta 90.000000
_cell_angle_gamma 90.000000
_cell_volume 3017.936146
_symmetry_space_group_name_H-M "P B C M"
_symmetry_group_IT_number 57
_symmetry_cell_setting 'orthorhombic'
loop_
_space_group_symop_operation_xyz
x,y,z
-x,-y,1/2+z
x,1/2-y,-z
-x,1/2+y,1/2-z
-x,-y,-z
x,y,1/2-z
-x,1/2+y,z
x,1/2-y,1/2+z
loop_
_atom_site_type_symbol
_atom_site_label
_atom_site_fract_x
_atom_site_fract_y
_atom_site_fract_z
Si Si1 0.424801 0.037527 0.861911
Si Si2 0.885455 0.843849 0.503160
Si Si3 0.805384 0.534845 0.860701
Si Si4 0.485606 0.135637 0.362100
Si Si5 0.729768 0.588056 0.355190
Si Si6 0.922486 0.076398 0.488036
Si Si7 0.563392 0.312496 0.137665
Si Si8 0.761383 0.399701 0.144111
O O1 0.435882 0.036790 0.750000
O O2 0.309366 0.047274 0.892088
O O3 0.487174 0.116727 0.903916
O O4 0.462876 0.948415 0.903621
O O5 0.845367 0.750000 0.500000
O O6 0.867816 0.886450 0.401238
O O7 0.824309 0.896615 0.579251
O O8 0.003515 0.845180 0.532615
O O9 0.819967 0.531475 0.750000
O O10 0.846661 0.446736 0.903325
O O11 0.495727 0.134394 0.250000
O O12 0.368700 0.136508 0.391370
O O13 0.536602 0.220141 0.403611
O O14 0.758093 0.618082 0.250000
O O15 0.705524 0.489336 0.356385
O O16 0.859875 0.100186 0.580404
O O17 0.000000 0.000000 0.500000
O O18 0.552569 0.312356 0.250000
O O19 0.677954 0.333165 0.108587
O O20 0.797001 0.377542 0.250000
#
# Coordination Sequence:
#
# PCOD8230576 Si02
#       8
#     8   8   8   8   8   8   8   8
#     4   9  17  32  54  83 118 158 197 243 301 357
#     4  11  25  43  60  88 125 154 197 263 316 363
#     4  10  22  40  64  87 116 162 207 247 304 374
#     4   9  17  31  54  87 127 163 200 249 303 362
#     4  10  19  35  63  91 118 159 203 246 302 369
#     4  10  21  41  60  84 113 157 203 261 311 356
#     4   9  17  30  54  88 124 162 204 250 301 365
#     4  10  18  35  63  90 118 160 211 252 305 378
#
# _framework density 21.206544999999998
#
# number of rings (size 3 to 8) (size 9 to 14) (size 15 to 20)
#    0.000    2.250    3.750    0.000    1.750    3.000 
#    2.250    2.500    0.000    0.000    0.000    0.000 
#    0.000    0.000    0.000    0.000    0.000    0.000 
#
# Total GULP energy -793420.020863 kJ/mol
# GULP energy per Si atom -12397.187826 kJ/mol
# Density = 2.115828 g / cm^3
# Si number density = 21.206545 Si / 1000 Ang^3
#
#
#
# Elastic Constant Matrix: (Units=GPa)
#
#
# Indices 1 2 3 4 5 6 
#
# 1 136.1997 55.4631 40.0171 0.0000 0.0000 0.0000
# 2 55.4631 123.6992 18.9217 0.0000 0.0000 0.0000
# 3 40.0171 18.9217 56.2452 0.0000 0.0000 0.0000
# 4 0.0000 0.0000 0.0000 8.6801 0.0000 0.0000
# 5 0.0000 0.0000 0.0000 0.0000 32.6210 0.0000
# 6 0.0000 0.0000 0.0000 0.0000 0.0000 32.5317
#
#
#
# Elastic Compliance Matrix: (Units=1/GPa)
#
#
# Indices 1 2 3 4 5 6 
#
# 1 0.010788 -0.003862 -0.006376 0.000000 0.000000 0.000000
# 2 -0.003862 0.009905 -0.000585 0.000000 0.000000 0.000000
# 3 -0.006376 -0.000585 0.022513 0.000000 0.000000 0.000000
# 4 0.000000 0.000000 0.000000 0.115206 0.000000 0.000000
# 5 0.000000 0.000000 0.000000 0.000000 0.030655 0.000000
# 6 0.000000 0.000000 0.000000 0.000000 0.000000 0.030739
#
#
# Mechanical properties :
#
#
# Convention : Reuss Voigt Hill
#
# Bulk Modulus (GPa) = 46.38162 60.54978 53.46570
# Shear Modulus (GPa) = 20.10953 28.21606 24.16280
#
# Velocity S-wave (km/s) = 3.08274 3.65161 3.37917
# Velocity P-wave (km/s) = 5.88132 6.81127 6.36330
#
# Compressibility (1/GPa) = 0.02156026
#
# Stress axis : x y z
#
# Youngs Moduli (GPa) = 92.69400 100.95863 44.41955
#
# Poissons Ratio (x) = 0.38988 0.28324
# Poissons Ratio (y) = 0.35796 0.02597
# Poissons Ratio (z) = 0.59105 0.05903
#
# Static dielectric constant tensor:
#      x y z
#    x 4.015830 0.000000 0.000000 
#    y 0.000000 3.991560 0.000000 
#    z 0.000000 0.000000 3.570960 
# 
# 
# High freq. dielectric constant tensor:
#      x y z
#    x 1.836720 0.000000 0.000000 
#    y 0.000000 1.818330 0.000000 
#    z 0.000000 0.000000 1.818640 
# 
# From -- ./inp_files/17958.got.cif
#   From: 2010.03.12/outbox.cif.g09.slc.cpg/sg57_9_cif.got.tgz:17958.got - 2010.04.16 15:48:40.
