data_PCOD8230497
_publ_section_title
;
Structure prediction by ZEFSAII (Michael W. Deem and Ramdas Pophale) SiO2 
 PCOD8230497
Probable space group: P B C M
;
_chemical_formula_sum "Si O2"
_cell_formula_units_Z 56
_cell_length_a 9.408133
_cell_length_b 18.833887
_cell_length_c 17.077824
_cell_angle_alpha 90.000000
_cell_angle_beta 90.000000
_cell_angle_gamma 90.000000
_cell_volume 3026.048903
_symmetry_space_group_name_H-M "P B C M"
_symmetry_group_IT_number 57
_symmetry_cell_setting 'orthorhombic'
loop_
_space_group_symop_operation_xyz
x,y,z
-x,-y,1/2+z
x,1/2-y,-z
-x,1/2+y,1/2-z
-x,-y,-z
x,y,1/2-z
-x,1/2+y,z
x,1/2-y,1/2+z
loop_
_atom_site_type_symbol
_atom_site_label
_atom_site_fract_x
_atom_site_fract_y
_atom_site_fract_z
Si Si1 0.488804 0.845340 0.571416
Si Si2 0.765470 0.181472 0.541080
Si Si3 0.720872 0.055586 0.340562
Si Si4 0.218076 0.165244 0.996445
Si Si5 0.957627 0.423454 0.968148
Si Si6 0.305553 0.390661 0.162466
Si Si7 0.439487 0.790366 0.337397
O O1 0.385066 0.832127 0.499673
O O2 0.418560 0.903059 0.629053
O O3 0.639314 0.867835 0.534662
O O4 0.518903 0.772458 0.616963
O O5 0.840433 0.250000 0.500000
O O6 0.865999 0.113448 0.536979
O O7 0.720913 0.196351 0.630508
O O8 0.749586 0.075129 0.250000
O O9 0.863923 0.074677 0.388991
O O10 0.683837 0.973942 0.352141
O O11 0.093984 0.126538 0.045743
O O12 0.206827 0.250000 0.000000
O O13 0.206388 0.143593 0.904572
O O14 0.000000 0.500000 0.000000
O O15 0.243069 0.374486 0.250000
O O16 0.465084 0.360654 0.156583
O O17 0.417203 0.764095 0.250000
#
# Coordination Sequence:
#
# PCOD8230497 Si02
#       7
#     8   8   8   8   8   8   8
#     4  10  19  34  60  85 112 148 192 240 289 344
#     4   9  18  35  54  80 111 148 189 235 280 343
#     4  10  22  41  59  83 118 158 196 244 297 352
#     4  12  21  38  59  91 120 153 197 247 291 351
#     4  11  23  37  58  84 115 157 200 234 290 352
#     4  10  20  35  58  84 117 154 191 237 298 347
#     4  10  18  33  57  87 113 144 189 244 296 342
#
# _framework density 18.505980000000001
#
# number of rings (size 3 to 8) (size 9 to 14) (size 15 to 20)
#    0.000    1.714    4.286    1.286    0.000    1.714 
#    0.000    3.571    0.000    0.000    0.000    0.000 
#    0.000    0.000    0.000    0.000    0.000    0.000 
#
# Total GULP energy -694178.931599 kJ/mol
# GULP energy per Si atom -12396.052350 kJ/mol
# Density = 1.846386 g / cm^3
# Si number density = 18.505980 Si / 1000 Ang^3
#
#
#
# Elastic Constant Matrix: (Units=GPa)
#
#
# Indices 1 2 3 4 5 6 
#
# 1 102.4977 54.0174 47.4322 0.0000 0.0000 0.0000
# 2 54.0174 111.0096 36.2869 0.0000 0.0000 0.0000
# 3 47.4322 36.2869 91.5228 0.0000 0.0000 0.0000
# 4 0.0000 0.0000 0.0000 28.2260 0.0000 0.0000
# 5 0.0000 0.0000 0.0000 0.0000 23.5891 0.0000
# 6 0.0000 0.0000 0.0000 0.0000 0.0000 31.4736
#
#
#
# Elastic Compliance Matrix: (Units=1/GPa)
#
#
# Indices 1 2 3 4 5 6 
#
# 1 0.015365 -0.005599 -0.005743 0.000000 0.000000 0.000000
# 2 -0.005599 0.012390 -0.002011 0.000000 0.000000 0.000000
# 3 -0.005743 -0.002011 0.014700 0.000000 0.000000 0.000000
# 4 0.000000 0.000000 0.000000 0.035428 0.000000 0.000000
# 5 0.000000 0.000000 0.000000 0.000000 0.042392 0.000000
# 6 0.000000 0.000000 0.000000 0.000000 0.000000 0.031773
#
#
# Mechanical properties :
#
#
# Convention : Reuss Voigt Hill
#
# Bulk Modulus (GPa) = 63.49577 64.50034 63.99806
# Shear Modulus (GPa) = 27.17346 27.81064 27.49205
#
# Velocity S-wave (km/s) = 3.83608 3.88079 3.85850
# Velocity P-wave (km/s) = 7.34888 7.41688 7.38296
#
# Compressibility (1/GPa) = 0.01574908
#
# Stress axis : x y z
#
# Youngs Moduli (GPa) = 65.08378 80.70982 68.02876
#
# Poissons Ratio (x) = 0.45192 0.39068
# Poissons Ratio (y) = 0.36442 0.13678
# Poissons Ratio (z) = 0.37377 0.16227
#
# Static dielectric constant tensor:
#      x y z
#    x 3.294710 0.000000 0.000000 
#    y 0.000000 3.532960 0.000000 
#    z 0.000000 0.000000 3.608400 
# 
# 
# High freq. dielectric constant tensor:
#      x y z
#    x 1.701470 0.000000 0.000000 
#    y 0.000000 1.727980 0.000000 
#    z 0.000000 0.000000 1.718030 
# 
# From -- ./inp_files/21351.got.cif
#   From: 2010.03.12/outbox.cif.g09.slc.cpg/sg57_11_cif.got.tgz:21351.got - 2010.04.16 15:48:40.
