data_PCOD8230255
_publ_section_title
;
Structure prediction by ZEFSAII (Michael W. Deem and Ramdas Pophale) SiO2 
 PCOD8230255
Probable space group: P B C M
;
_chemical_formula_sum "Si O2"
_cell_formula_units_Z 56
_cell_length_a 16.997692
_cell_length_b 21.978704
_cell_length_c 8.889227
_cell_angle_alpha 90.000000
_cell_angle_beta 90.000000
_cell_angle_gamma 90.000000
_cell_volume 3320.901791
_symmetry_space_group_name_H-M "P B C M"
_symmetry_group_IT_number 57
_symmetry_cell_setting 'orthorhombic'
loop_
_space_group_symop_operation_xyz
x,y,z
-x,-y,1/2+z
x,1/2-y,-z
-x,1/2+y,1/2-z
-x,-y,-z
x,y,1/2-z
-x,1/2+y,z
x,1/2-y,1/2+z
loop_
_atom_site_type_symbol
_atom_site_label
_atom_site_fract_x
_atom_site_fract_y
_atom_site_fract_z
Si Si1 0.596539 0.695532 0.081652
Si Si2 0.501622 0.922572 0.918039
Si Si3 0.779126 0.523368 0.919891
Si Si4 0.371013 0.519523 0.573830
Si Si5 0.059627 0.048419 0.428279
Si Si6 0.914284 0.687171 0.427500
Si Si7 0.246028 0.337818 0.419283
O O1 0.625331 0.709373 0.250000
O O2 0.531215 0.644970 0.081244
O O3 0.550656 0.750000 0.000000
O O4 0.672787 0.686639 0.979874
O O5 0.478806 0.944542 0.750000
O O6 0.574377 0.963031 0.978814
O O7 0.423894 0.923071 0.023074
O O8 0.799671 0.501969 0.750000
O O9 0.743966 0.590247 0.920969
O O10 0.712585 0.479580 0.989621
O O11 0.856144 0.522633 0.022545
O O12 0.353364 0.519243 0.750000
O O13 0.052192 0.044872 0.250000
O O14 0.048188 0.120594 0.478783
O O15 0.000000 0.000000 0.500000
O O16 0.951899 0.750000 0.500000
O O17 0.923312 0.693624 0.250000
O O18 0.823185 0.685483 0.473043
O O19 0.228962 0.314465 0.250000
#
# Coordination Sequence:
#
# PCOD8230255 Si02
#       7
#     8   8   8   8   8   8   8
#     4  11  21  32  44  61  90 126 164 203 243 289
#     4   9  19  32  45  64  92 124 159 201 245 284
#     4  10  19  31  50  73  99 130 165 202 245 296
#     4  10  18  30  49  70  93 121 158 202 244 286
#     4  10  21  36  54  77 106 137 170 210 256 303
#     4  10  20  33  50  72 100 134 170 206 245 295
#     4  10  19  30  45  66  94 129 167 202 237 284
#
# _framework density 16.86289
#
# number of rings (size 3 to 8) (size 9 to 14) (size 15 to 20)
#    0.000    2.000    1.429    3.000    0.000    4.571 
#    0.000    0.000    0.000    0.000    0.000    1.000 
#    0.000    0.000    0.000    0.000    0.000    0.000 
#
# Total GULP energy -693826.653883 kJ/mol
# GULP energy per Si atom -12389.761676 kJ/mol
# Density = 1.682451 g / cm^3
# Si number density = 16.862890 Si / 1000 Ang^3
#
#
#
# Elastic Constant Matrix: (Units=GPa)
#
#
# Indices 1 2 3 4 5 6 
#
# 1 69.7193 42.3458 35.2717 0.0000 0.0000 0.0000
# 2 42.3458 81.4441 41.2972 0.0000 0.0000 0.0000
# 3 35.2717 41.2972 80.3367 0.0000 0.0000 0.0000
# 4 0.0000 0.0000 0.0000 25.8310 0.0000 0.0000
# 5 0.0000 0.0000 0.0000 0.0000 28.9602 0.0000
# 6 0.0000 0.0000 0.0000 0.0000 0.0000 3.9618
#
#
#
# Elastic Compliance Matrix: (Units=1/GPa)
#
#
# Indices 1 2 3 4 5 6 
#
# 1 0.022474 -0.009037 -0.005221 0.000000 0.000000 0.000000
# 2 -0.009037 0.020241 -0.006437 0.000000 0.000000 0.000000
# 3 -0.005221 -0.006437 0.018049 0.000000 0.000000 0.000000
# 4 0.000000 0.000000 0.000000 0.038713 0.000000 0.000000
# 5 0.000000 0.000000 0.000000 0.000000 0.034530 0.000000
# 6 0.000000 0.000000 0.000000 0.000000 0.000000 0.252413
#
#
# Mechanical properties :
#
#
# Convention : Reuss Voigt Hill
#
# Bulk Modulus (GPa) = 51.62032 52.14774 51.88403
# Shear Modulus (GPa) = 11.51355 19.25627 15.38491
#
# Velocity S-wave (km/s) = 2.61583 3.38291 3.02379
# Velocity P-wave (km/s) = 6.30886 6.80077 6.55943
#
# Compressibility (1/GPa) = 0.01937221
#
# Stress axis : x y z
#
# Youngs Moduli (GPa) = 44.49596 49.40381 55.40425
#
# Poissons Ratio (x) = 0.44648 0.28929
# Poissons Ratio (y) = 0.40213 0.35665
# Poissons Ratio (z) = 0.23233 0.31802
#
# Static dielectric constant tensor:
#      x y z
#    x 2.899000 0.000000 0.000000 
#    y 0.000000 4.956920 0.000000 
#    z 0.000000 0.000000 3.448080 
# 
# 
# High freq. dielectric constant tensor:
#      x y z
#    x 1.615470 0.000000 0.000000 
#    y 0.000000 1.637120 0.000000 
#    z 0.000000 0.000000 1.667730 
# 
# From -- ./inp_files/7064.got.cif
#   From: 2010.03.12/outbox.cif.g09.slc.cpg/sg57_4_cif.got.tgz:7064.got - 2010.04.16 15:48:40.
