data_PCOD8230618
_publ_section_title
;
Structure prediction by ZEFSAII (Michael W. Deem and Ramdas Pophale) SiO2 
 PCOD8230618
Probable space group: P B C M
;
_chemical_formula_sum "Si O2"
_cell_formula_units_Z 64
_cell_length_a 16.827465
_cell_length_b 22.815025
_cell_length_c 9.224155
_cell_angle_alpha 90.000000
_cell_angle_beta 90.000000
_cell_angle_gamma 90.000000
_cell_volume 3541.328683
_symmetry_space_group_name_H-M "P B C M"
_symmetry_group_IT_number 57
_symmetry_cell_setting 'orthorhombic'
loop_
_space_group_symop_operation_xyz
x,y,z
-x,-y,1/2+z
x,1/2-y,-z
-x,1/2+y,1/2-z
-x,-y,-z
x,y,1/2-z
-x,1/2+y,z
x,1/2-y,1/2+z
loop_
_atom_site_type_symbol
_atom_site_label
_atom_site_fract_x
_atom_site_fract_y
_atom_site_fract_z
Si Si1 0.543179 0.808814 0.581945
Si Si2 0.566956 0.392894 0.086405
Si Si3 0.223217 0.078197 0.578997
Si Si4 0.661281 0.478182 0.589335
Si Si5 0.082325 0.992878 0.920533
Si Si6 0.191969 0.609094 0.089585
Si Si7 0.284997 0.806688 0.088058
Si Si8 0.270062 0.191629 0.082381
O O1 0.514864 0.750000 0.500000
O O2 0.517855 0.803301 0.750000
O O3 0.502606 0.865343 0.510338
O O4 0.636429 0.818032 0.563498
O O5 0.535874 0.402977 0.250000
O O6 0.641710 0.350349 0.085780
O O7 0.592603 0.455821 0.019548
O O8 0.225307 0.091567 0.750000
O O9 0.142607 0.044623 0.535041
O O10 0.223765 0.137684 0.488591
O O11 0.300504 0.039364 0.535271
O O12 0.624120 0.485982 0.750000
O O13 0.730841 0.431098 0.598511
O O14 0.068064 0.994037 0.750000
O O15 0.118807 0.930096 0.967734
O O16 0.000000 0.000000 0.000000
O O17 0.173513 0.634004 0.250000
O O18 0.207071 0.663282 0.982111
O O19 0.262203 0.788005 0.250000
O O20 0.311382 0.750000 0.000000
O O21 0.246008 0.197068 0.250000
O O22 0.242342 0.250000 0.000000
#
# Coordination Sequence:
#
# PCOD8230618 Si02
#       8
#     8   8   8   8   8   8   8   8
#     4  10  20  33  48  67  93 126 167 213 260 305
#     4  10  19  29  44  68  96 127 166 210 253 296
#     4   9  18  34  55  78 104 133 165 201 244 295
#     4   8  15  29  48  68  94 129 163 199 244 289
#     4   9  18  32  53  81 107 130 155 187 232 284
#     4   8  15  29  46  65  93 126 158 191 228 273
#     4  10  19  28  41  64  92 125 164 201 238 281
#     4  10  21  36  55  77  99 128 167 210 254 299
#
# _framework density 18.072313999999999
#
# number of rings (size 3 to 8) (size 9 to 14) (size 15 to 20)
#    0.000    2.750    0.000    3.375    0.000    5.500 
#    0.000    3.125    0.000    0.750    0.000    5.250 
#    0.000    0.000    0.000    0.000    0.000    0.000 
#
# Total GULP energy -793488.419192 kJ/mol
# GULP energy per Si atom -12398.256550 kJ/mol
# Density = 1.803118 g / cm^3
# Si number density = 18.072314 Si / 1000 Ang^3
#
#
#
# Elastic Constant Matrix: (Units=GPa)
#
#
# Indices 1 2 3 4 5 6 
#
# 1 46.0433 23.6571 33.1836 0.0000 0.0000 0.0000
# 2 23.6571 83.9190 50.6627 0.0000 0.0000 0.0000
# 3 33.1836 50.6627 115.2537 0.0000 0.0000 0.0000
# 4 0.0000 0.0000 0.0000 33.2944 0.0000 0.0000
# 5 0.0000 0.0000 0.0000 0.0000 26.4829 0.0000
# 6 0.0000 0.0000 0.0000 0.0000 0.0000 21.5063
#
#
#
# Elastic Compliance Matrix: (Units=1/GPa)
#
#
# Indices 1 2 3 4 5 6 
#
# 1 0.028446 -0.004185 -0.006350 0.000000 0.000000 0.000000
# 2 -0.004185 0.016837 -0.006196 0.000000 0.000000 0.000000
# 3 -0.006350 -0.006196 0.013228 0.000000 0.000000 0.000000
# 4 0.000000 0.000000 0.000000 0.030035 0.000000 0.000000
# 5 0.000000 0.000000 0.000000 0.000000 0.037760 0.000000
# 6 0.000000 0.000000 0.000000 0.000000 0.000000 0.046498
#
#
# Mechanical properties :
#
#
# Convention : Reuss Voigt Hill
#
# Bulk Modulus (GPa) = 39.92357 51.13585 45.52971
# Shear Modulus (GPa) = 23.29737 25.43756 24.36746
#
# Velocity S-wave (km/s) = 3.59433 3.75579 3.67595
# Velocity P-wave (km/s) = 6.27412 6.86764 6.57758
#
# Compressibility (1/GPa) = 0.02504786
#
# Stress axis : x y z
#
# Youngs Moduli (GPa) = 35.15460 59.39424 75.59449
#
# Poissons Ratio (x) = 0.24858 0.48005
# Poissons Ratio (y) = 0.14713 0.46838
# Poissons Ratio (z) = 0.22324 0.36801
#
# Static dielectric constant tensor:
#      x y z
#    x 3.075250 0.000000 0.000000 
#    y 0.000000 3.354940 0.000000 
#    z 0.000000 0.000000 3.576170 
# 
# 
# High freq. dielectric constant tensor:
#      x y z
#    x 1.664850 0.000000 0.000000 
#    y 0.000000 1.694820 0.000000 
#    z 0.000000 0.000000 1.706420 
# 
# From -- ./inp_files/7353.got.cif
#   From: 2010.03.12/outbox.cif.g09.slc.cpg/sg57_4_cif.got.tgz:7353.got - 2010.04.16 15:48:40.
