data_PCOD8230531
_publ_section_title
;
Structure prediction by ZEFSAII (Michael W. Deem and Ramdas Pophale) SiO2 
 PCOD8230531
Probable space group: P B C M
;
_chemical_formula_sum "Si O2"
_cell_formula_units_Z 40
_cell_length_a 10.084888
_cell_length_b 8.897462
_cell_length_c 25.677381
_cell_angle_alpha 90.000000
_cell_angle_beta 90.000000
_cell_angle_gamma 90.000000
_cell_volume 2304.029029
_symmetry_space_group_name_H-M "P B C M"
_symmetry_group_IT_number 57
_symmetry_cell_setting 'orthorhombic'
loop_
_space_group_symop_operation_xyz
x,y,z
-x,-y,1/2+z
x,1/2-y,-z
-x,1/2+y,1/2-z
-x,-y,-z
x,y,1/2-z
-x,1/2+y,z
x,1/2-y,1/2+z
loop_
_atom_site_type_symbol
_atom_site_label
_atom_site_fract_x
_atom_site_fract_y
_atom_site_fract_z
Si Si1 0.833655 0.458756 0.310882
Si Si2 0.660265 0.961150 0.360613
Si Si3 0.404563 0.800850 0.136094
Si Si4 0.898370 0.798185 0.310375
Si Si5 0.449221 0.375091 0.037813
O O1 0.795428 0.449753 0.250000
O O2 0.710121 0.414627 0.346578
O O3 0.876249 0.626584 0.327192
O O4 0.952108 0.344312 0.324201
O O5 0.542139 0.856832 0.336626
O O6 0.801242 0.912037 0.339477
O O7 0.663229 0.940711 0.423542
O O8 0.631185 0.133615 0.345582
O O9 0.428021 0.811339 0.073383
O O10 0.870159 0.821964 0.250000
O O11 0.386695 0.250000 0.000000
O O12 0.500000 0.500000 0.000000
#
# Coordination Sequence:
#
# PCOD8230531 Si02
#       5
#     8   8   8   8   8
#     4  10  21  37  56  78 109 146 179 216 267 322
#     4  10  20  33  55  84 107 141 179 223 265 314
#     4  10  20  33  55  84 107 141 179 224 263 316
#     4  10  21  37  56  78 109 146 179 217 267 321
#     4  10  18  34  55  80 107 140 176 219 271 318
#
# _framework density 17.360893000000001
#
# number of rings (size 3 to 8) (size 9 to 14) (size 15 to 20)
#    1.200    0.800    2.000    2.400    2.800    3.200 
#    0.000    0.000    0.000    2.400    0.000    0.000 
#    0.000    0.000    0.000    0.000    0.000    0.000 
#
# Total GULP energy -495721.374044 kJ/mol
# GULP energy per Si atom -12393.034351 kJ/mol
# Density = 1.732138 g / cm^3
# Si number density = 17.360893 Si / 1000 Ang^3
#
#
#
# Elastic Constant Matrix: (Units=GPa)
#
#
# Indices 1 2 3 4 5 6 
#
# 1 60.1108 3.0796 24.1499 0.0000 0.0000 0.0000
# 2 3.0796 82.0157 10.5243 0.0000 0.0000 0.0000
# 3 24.1499 10.5243 42.7257 0.0000 0.0000 0.0000
# 4 0.0000 0.0000 0.0000 31.7173 0.0000 0.0000
# 5 0.0000 0.0000 0.0000 0.0000 3.8241 0.0000
# 6 0.0000 0.0000 0.0000 0.0000 0.0000 35.2834
#
#
#
# Elastic Compliance Matrix: (Units=1/GPa)
#
#
# Indices 1 2 3 4 5 6 
#
# 1 0.021572 0.000779 -0.012385 0.000000 0.000000 0.000000
# 2 0.000779 0.012619 -0.003549 0.000000 0.000000 0.000000
# 3 -0.012385 -0.003549 0.031280 0.000000 0.000000 0.000000
# 4 0.000000 0.000000 0.000000 0.031529 0.000000 0.000000
# 5 0.000000 0.000000 0.000000 0.000000 0.261502 0.000000
# 6 0.000000 0.000000 0.000000 0.000000 0.000000 0.028342
#
#
# Mechanical properties :
#
#
# Convention : Reuss Voigt Hill
#
# Bulk Modulus (GPa) = 28.44034 28.92885 28.68460
# Shear Modulus (GPa) = 11.65850 23.97152 17.81501
#
# Velocity S-wave (km/s) = 2.59422 3.71991 3.20684
# Velocity P-wave (km/s) = 5.03892 5.92872 5.50184
#
# Compressibility (1/GPa) = 0.03516132
#
# Stress axis : x y z
#
# Youngs Moduli (GPa) = 46.35694 79.24615 31.96967
#
# Poissons Ratio (x) = -0.06175 0.39594
# Poissons Ratio (y) = -0.03612 0.11345
# Poissons Ratio (z) = 0.57413 0.28123
#
# Static dielectric constant tensor:
#      x y z
#    x 3.030350 0.000000 0.000000 
#    y 0.000000 3.301010 0.000000 
#    z 0.000000 0.000000 3.077480 
# 
# 
# High freq. dielectric constant tensor:
#      x y z
#    x 1.651120 0.000000 0.000000 
#    y 0.000000 1.692190 0.000000 
#    z 0.000000 0.000000 1.652320 
# 
# From -- ./inp_files/28244.got.cif
#   From: 2010.03.12/outbox.cif.g09.slc.cpg/sg57_15_cif.got.tgz:28244.got - 2010.04.16 15:48:40.
