data_PCOD8230460
_publ_section_title
;
Structure prediction by ZEFSAII (Michael W. Deem and Ramdas Pophale) SiO2 
 PCOD8230460
Probable space group: P B C M
;
_chemical_formula_sum "Si O2"
_cell_formula_units_Z 64
_cell_length_a 11.907104
_cell_length_b 30.756588
_cell_length_c 9.222147
_cell_angle_alpha 90.000000
_cell_angle_beta 90.000000
_cell_angle_gamma 90.000000
_cell_volume 3377.352123
_symmetry_space_group_name_H-M "P B C M"
_symmetry_group_IT_number 57
_symmetry_cell_setting 'orthorhombic'
loop_
_space_group_symop_operation_xyz
x,y,z
-x,-y,1/2+z
x,1/2-y,-z
-x,1/2+y,1/2-z
-x,-y,-z
x,y,1/2-z
-x,1/2+y,z
x,1/2-y,1/2+z
loop_
_atom_site_type_symbol
_atom_site_label
_atom_site_fract_x
_atom_site_fract_y
_atom_site_fract_z
Si Si1 0.261943 0.206456 0.919637
Si Si2 0.509987 0.322522 0.417818
Si Si3 0.872522 0.374597 0.919853
Si Si4 0.736029 0.550955 0.919262
Si Si5 0.722544 0.208168 0.420546
Si Si6 0.893492 0.626317 0.578547
Si Si7 0.493546 0.575888 0.918576
Si Si8 0.279776 0.546406 0.418871
O O1 0.254526 0.215114 0.750000
O O2 0.387034 0.192930 0.965658
O O3 0.178295 0.168226 0.966733
O O4 0.223705 0.250000 0.000000
O O5 0.534102 0.311382 0.250000
O O6 0.597044 0.297678 0.519501
O O7 0.521937 0.373378 0.446790
O O8 0.898132 0.376985 0.750000
O O9 0.796668 0.333425 0.960218
O O10 0.808572 0.417849 0.974758
O O11 0.987099 0.370342 0.004608
O O12 0.726825 0.561467 0.750000
O O13 0.829928 0.583428 0.983228
O O14 0.613103 0.560940 0.985020
O O15 0.771967 0.501269 0.950230
O O16 0.776987 0.250000 0.500000
O O17 0.717183 0.216511 0.250000
O O18 0.911164 0.623696 0.750000
O O19 0.484594 0.564054 0.750000
O O20 0.397611 0.549584 0.000443
O O21 0.304565 0.553535 0.250000
#
# Coordination Sequence:
#
# PCOD8230460 Si02
#       8
#     8   8   8   8   8   8   8   8
#     4  10  21  37  57  83 113 143 179 224 275 328
#     4  10  19  34  58  85 115 146 179 222 273 330
#     4  10  23  40  55  78 112 146 182 232 281 319
#     4   9  18  35  59  84 112 147 182 223 276 330
#     4  11  23  39  58  82 114 147 184 226 276 331
#     4  10  21  39  60  80 105 145 192 230 270 326
#     4  10  18  32  57  86 115 145 181 223 270 328
#     4  10  20  36  57  82 115 149 181 222 278 332
#
# _framework density 18.949757000000002
#
# number of rings (size 3 to 8) (size 9 to 14) (size 15 to 20)
#    0.000    2.000    2.500    1.125    0.000    4.500 
#    0.000    3.750    0.000    0.000    0.000    0.000 
#    0.000    0.000    0.000    0.000    0.000    0.000 
#
# Total GULP energy -793764.764643 kJ/mol
# GULP energy per Si atom -12402.574448 kJ/mol
# Density = 1.890663 g / cm^3
# Si number density = 18.949757 Si / 1000 Ang^3
#
#
#
# Elastic Constant Matrix: (Units=GPa)
#
#
# Indices 1 2 3 4 5 6 
#
# 1 141.1394 70.2787 47.3968 0.0000 0.0000 0.0000
# 2 70.2787 136.9815 48.2574 0.0000 0.0000 0.0000
# 3 47.3968 48.2574 46.8199 0.0000 0.0000 0.0000
# 4 0.0000 0.0000 0.0000 23.5668 0.0000 0.0000
# 5 0.0000 0.0000 0.0000 0.0000 30.0273 0.0000
# 6 0.0000 0.0000 0.0000 0.0000 0.0000 12.0450
#
#
#
# Elastic Compliance Matrix: (Units=1/GPa)
#
#
# Indices 1 2 3 4 5 6 
#
# 1 0.011377 -0.002794 -0.008637 0.000000 0.000000 0.000000
# 2 -0.002794 0.012149 -0.009693 0.000000 0.000000 0.000000
# 3 -0.008637 -0.009693 0.040093 0.000000 0.000000 0.000000
# 4 0.000000 0.000000 0.000000 0.042433 0.000000 0.000000
# 5 0.000000 0.000000 0.000000 0.000000 0.033303 0.000000
# 6 0.000000 0.000000 0.000000 0.000000 0.000000 0.083022
#
#
# Mechanical properties :
#
#
# Convention : Reuss Voigt Hill
#
# Bulk Modulus (GPa) = 46.79564 72.97852 59.88708
# Shear Modulus (GPa) = 18.39941 23.72834 21.06388
#
# Velocity S-wave (km/s) = 3.11940 3.54244 3.33763
# Velocity P-wave (km/s) = 6.14186 7.43822 6.82090
#
# Compressibility (1/GPa) = 0.02136951
#
# Stress axis : x y z
#
# Youngs Moduli (GPa) = 87.89622 82.31425 24.94221
#
# Poissons Ratio (x) = 0.23000 0.21543
# Poissons Ratio (y) = 0.24560 0.24176
# Poissons Ratio (z) = 0.75918 0.79787
#
# Static dielectric constant tensor:
#      x y z
#    x 3.408930 0.000000 0.000000 
#    y 0.000000 3.714570 0.000000 
#    z 0.000000 0.000000 3.235670 
# 
# 
# High freq. dielectric constant tensor:
#      x y z
#    x 1.733520 0.000000 0.000000 
#    y 0.000000 1.756100 0.000000 
#    z 0.000000 0.000000 1.714370 
# 
# From -- ./inp_files/3916.got.cif
#   From: 2010.03.12/outbox.cif.g09.slc.cpg/sg57_2_cif.got.tgz:3916.got - 2010.04.16 15:48:40.
