data_PCOD8230547
_publ_section_title
;
Structure prediction by ZEFSAII (Michael W. Deem and Ramdas Pophale) SiO2 
 PCOD8230547
Probable space group: P B C M
;
_chemical_formula_sum "Si O2"
_cell_formula_units_Z 64
_cell_length_a 12.321868
_cell_length_b 15.392798
_cell_length_c 17.044707
_cell_angle_alpha 90.000000
_cell_angle_beta 90.000000
_cell_angle_gamma 90.000000
_cell_volume 3232.835915
_symmetry_space_group_name_H-M "P B C M"
_symmetry_group_IT_number 57
_symmetry_cell_setting 'orthorhombic'
loop_
_space_group_symop_operation_xyz
x,y,z
-x,-y,1/2+z
x,1/2-y,-z
-x,1/2+y,1/2-z
-x,-y,-z
x,y,1/2-z
-x,1/2+y,z
x,1/2-y,1/2+z
loop_
_atom_site_type_symbol
_atom_site_label
_atom_site_fract_x
_atom_site_fract_y
_atom_site_fract_z
Si Si1 0.659719 0.395826 0.341469
Si Si2 0.662280 0.580612 0.422742
Si Si3 0.689587 0.751144 0.838011
Si Si4 0.097498 0.618624 0.463934
Si Si5 0.907737 0.667763 0.665936
Si Si6 0.869621 0.931093 0.010677
Si Si7 0.134116 0.781222 0.379083
Si Si8 0.532609 0.835077 0.451804
O O1 0.626822 0.407765 0.250000
O O2 0.683611 0.488873 0.380961
O O3 0.760601 0.328580 0.343400
O O4 0.563699 0.357477 0.393122
O O5 0.646749 0.651853 0.354976
O O6 0.767202 0.613918 0.470968
O O7 0.562107 0.587640 0.485550
O O8 0.652318 0.727738 0.750000
O O9 0.820121 0.744674 0.847628
O O10 0.637454 0.682759 0.898269
O O11 0.166039 0.531988 0.479625
O O12 0.146086 0.675934 0.391440
O O13 0.104041 0.679014 0.538461
O O14 0.972085 0.587142 0.453238
O O15 0.882727 0.622058 0.750000
O O16 0.897354 0.597906 0.598134
O O17 0.028435 0.706605 0.674459
O O18 0.496893 0.750000 0.500000
#
# Coordination Sequence:
#
# PCOD8230547 Si02
#       8
#     8   8   8   8   8   8   8   8
#     4  12  25  40  59  85 122 159 197 244 301 358
#     4  11  21  38  60  90 113 149 199 248 292 354
#     4  10  20  37  61  88 117 148 187 242 301 347
#     4   9  19  33  57  87 113 153 194 239 278 348
#     4  10  20  35  56  84 119 152 188 240 294 344
#     4  10  18  34  59  88 117 149 197 240 292 343
#     4  10  20  36  56  83 117 156 193 231 287 352
#     4  10  23  40  64  85 110 150 201 250 297 358
#
# _framework density 19.796859000000001
#
# number of rings (size 3 to 8) (size 9 to 14) (size 15 to 20)
#    0.000    1.750    2.500    2.250    1.750    1.000 
#    0.000    1.250    0.000    0.000    0.000    0.000 
#    0.000    0.000    0.000    0.000    0.000    0.000 
#
# Total GULP energy -792850.323892 kJ/mol
# GULP energy per Si atom -12388.286311 kJ/mol
# Density = 1.975180 g / cm^3
# Si number density = 19.796859 Si / 1000 Ang^3
#
#
#
# Elastic Constant Matrix: (Units=GPa)
#
#
# Indices 1 2 3 4 5 6 
#
# 1 96.6831 19.3307 41.4968 0.0000 0.0000 0.0000
# 2 19.3307 89.7338 41.8135 0.0000 0.0000 0.0000
# 3 41.4968 41.8135 110.7049 0.0000 0.0000 0.0000
# 4 0.0000 0.0000 0.0000 23.0020 0.0000 0.0000
# 5 0.0000 0.0000 0.0000 0.0000 21.4608 0.0000
# 6 0.0000 0.0000 0.0000 0.0000 0.0000 23.8171
#
#
#
# Elastic Compliance Matrix: (Units=1/GPa)
#
#
# Indices 1 2 3 4 5 6 
#
# 1 0.012354 -0.000611 -0.004400 0.000000 0.000000 0.000000
# 2 -0.000611 0.013555 -0.004891 0.000000 0.000000 0.000000
# 3 -0.004400 -0.004891 0.012529 0.000000 0.000000 0.000000
# 4 0.000000 0.000000 0.000000 0.043475 0.000000 0.000000
# 5 0.000000 0.000000 0.000000 0.000000 0.046597 0.000000
# 6 0.000000 0.000000 0.000000 0.000000 0.000000 0.041987
#
#
# Mechanical properties :
#
#
# Convention : Reuss Voigt Hill
#
# Bulk Modulus (GPa) = 53.66316 55.82266 54.74291
# Shear Modulus (GPa) = 25.44400 26.62136 26.03268
#
# Velocity S-wave (km/s) = 3.58893 3.67103 3.63021
# Velocity P-wave (km/s) = 6.65880 6.79909 6.72931
#
# Compressibility (1/GPa) = 0.01863476
#
# Stress axis : x y z
#
# Youngs Moduli (GPa) = 80.94753 73.77583 79.81198
#
# Poissons Ratio (x) = 0.04508 0.35116
# Poissons Ratio (y) = 0.04946 0.39032
# Poissons Ratio (z) = 0.35616 0.36080
#
# Static dielectric constant tensor:
#      x y z
#    x 3.543410 0.000000 0.000000 
#    y 0.000000 3.610360 0.000000 
#    z 0.000000 0.000000 3.678290 
# 
# 
# High freq. dielectric constant tensor:
#      x y z
#    x 1.762520 0.000000 0.000000 
#    y 0.000000 1.761620 0.000000 
#    z 0.000000 0.000000 1.774190 
# 
# From -- ./inp_files/21994.got.cif
#   From: 2010.03.12/outbox.cif.g09.slc.cpg/sg57_11_cif.got.tgz:21994.got - 2010.04.16 15:48:40.
