data_PCOD8230853
_publ_section_title
;
Structure prediction by ZEFSAII (Michael W. Deem and Ramdas Pophale) SiO2 
 PCOD8230853
Probable space group: P B C M
;
_chemical_formula_sum "Si O2"
_cell_formula_units_Z 64
_cell_length_a 23.146181
_cell_length_b 17.212909
_cell_length_c 9.065629
_cell_angle_alpha 90.000000
_cell_angle_beta 90.000000
_cell_angle_gamma 90.000000
_cell_volume 3611.865419
_symmetry_space_group_name_H-M "P B C M"
_symmetry_group_IT_number 57
_symmetry_cell_setting 'orthorhombic'
loop_
_space_group_symop_operation_xyz
x,y,z
-x,-y,1/2+z
x,1/2-y,-z
-x,1/2+y,1/2-z
-x,-y,-z
x,y,1/2-z
-x,1/2+y,z
x,1/2-y,1/2+z
loop_
_atom_site_type_symbol
_atom_site_label
_atom_site_fract_x
_atom_site_fract_y
_atom_site_fract_z
Si Si1 0.562385 0.830284 0.079744
Si Si2 0.632525 0.517710 0.925015
Si Si3 0.171687 0.175051 0.576003
Si Si4 0.763275 0.981212 0.421701
Si Si5 0.864143 0.050531 0.918273
Si Si6 0.067597 0.102106 0.424516
Si Si7 0.960100 0.167603 0.922781
Si Si8 0.538272 0.063736 0.922064
O O1 0.574937 0.815464 0.250000
O O2 0.604205 0.900178 0.024006
O O3 0.494790 0.854023 0.053923
O O4 0.577018 0.750000 0.000000
O O5 0.626985 0.508830 0.750000
O O6 0.698213 0.513692 0.981773
O O7 0.601009 0.443330 0.001204
O O8 0.201103 0.250000 0.500000
O O9 0.163556 0.186480 0.750000
O O10 0.213167 0.103601 0.537850
O O11 0.109741 0.165327 0.497794
O O12 0.764170 0.996856 0.250000
O O13 0.804443 0.046979 0.491560
O O14 0.846186 0.039628 0.750000
O O15 0.896187 0.132048 0.946454
O O16 0.908565 0.982864 0.964681
O O17 0.062836 0.116608 0.250000
O O18 0.005480 0.110110 0.500321
O O19 0.974822 0.175232 0.750000
O O20 0.962206 0.250000 0.000000
O O21 0.543818 0.044755 0.750000
O O22 0.500000 0.000000 0.000000
#
# Coordination Sequence:
#
# PCOD8230853 Si02
#       8
#     8   8   8   8   8   8   8   8
#     4   9  18  30  46  71 104 132 158 192 234 280
#     4   9  18  33  50  72  99 128 164 204 239 282
#     4  10  19  31  46  67  97 132 164 198 240 288
#     4   9  19  34  52  71  95 128 165 202 242 283
#     4   9  20  36  53  73  98 126 161 203 244 288
#     4  10  19  33  52  73  96 125 160 199 243 295
#     4  11  22  35  51  74 100 125 155 198 249 300
#     4   9  17  30  48  71  97 128 162 198 235 276
#
# _framework density 17.719377000000001
#
# number of rings (size 3 to 8) (size 9 to 14) (size 15 to 20)
#    0.000    2.500    0.000    3.000    0.000    5.500 
#    0.000    0.000    0.000    0.750    0.000    0.000 
#    0.000    0.000    0.000    0.000    0.000    0.000 
#
# Total GULP energy -793383.205257 kJ/mol
# GULP energy per Si atom -12396.612582 kJ/mol
# Density = 1.767905 g / cm^3
# Si number density = 17.719377 Si / 1000 Ang^3
#
#
#
# Elastic Constant Matrix: (Units=GPa)
#
#
# Indices 1 2 3 4 5 6 
#
# 1 127.5668 31.6471 43.9479 0.0000 0.0000 0.0000
# 2 31.6471 37.7680 21.1487 0.0000 0.0000 0.0000
# 3 43.9479 21.1487 68.1113 0.0000 0.0000 0.0000
# 4 0.0000 0.0000 0.0000 26.5076 0.0000 0.0000
# 5 0.0000 0.0000 0.0000 0.0000 29.4020 0.0000
# 6 0.0000 0.0000 0.0000 0.0000 0.0000 16.0816
#
#
#
# Elastic Compliance Matrix: (Units=1/GPa)
#
#
# Indices 1 2 3 4 5 6 
#
# 1 0.011258 -0.006495 -0.005247 0.000000 0.000000 0.000000
# 2 -0.006495 0.035797 -0.006924 0.000000 0.000000 0.000000
# 3 -0.005247 -0.006924 0.020218 0.000000 0.000000 0.000000
# 4 0.000000 0.000000 0.000000 0.037725 0.000000 0.000000
# 5 0.000000 0.000000 0.000000 0.000000 0.034011 0.000000
# 6 0.000000 0.000000 0.000000 0.000000 0.000000 0.062183
#
#
# Mechanical properties :
#
#
# Convention : Reuss Voigt Hill
#
# Bulk Modulus (GPa) = 33.40067 47.43705 40.41886
# Shear Modulus (GPa) = 20.12026 23.51173 21.81599
#
# Velocity S-wave (km/s) = 3.37337 3.64661 3.51264
# Velocity P-wave (km/s) = 5.83640 6.67531 6.26990
#
# Compressibility (1/GPa) = 0.02993952
#
# Stress axis : x y z
#
# Youngs Moduli (GPa) = 88.82446 27.93506 49.46175
#
# Poissons Ratio (x) = 0.18145 0.25955
# Poissons Ratio (y) = 0.57694 0.34248
# Poissons Ratio (z) = 0.46610 0.19343
#
# Static dielectric constant tensor:
#      x y z
#    x 3.438900 0.000000 0.000000 
#    y 0.000000 3.179220 0.000000 
#    z 0.000000 0.000000 3.350670 
# 
# 
# High freq. dielectric constant tensor:
#      x y z
#    x 1.677700 0.000000 0.000000 
#    y 0.000000 1.663780 0.000000 
#    z 0.000000 0.000000 1.691470 
# 
# From -- ./inp_files/9569.got.cif
#   From: 2010.03.12/outbox.cif.g09.slc.cpg/sg57_5_cif.got.tgz:9569.got - 2010.04.16 15:48:40.
