data_PCOD8230262
_publ_section_title
;
Structure prediction by ZEFSAII (Michael W. Deem and Ramdas Pophale) SiO2 
 PCOD8230262
Probable space group: P B C M
;
_chemical_formula_sum "Si O2"
_cell_formula_units_Z 64
_cell_length_a 20.242241
_cell_length_b 20.164774
_cell_length_c 9.367371
_cell_angle_alpha 90.000000
_cell_angle_beta 90.000000
_cell_angle_gamma 90.000000
_cell_volume 3823.575509
_symmetry_space_group_name_H-M "P B C M"
_symmetry_group_IT_number 57
_symmetry_cell_setting 'orthorhombic'
loop_
_space_group_symop_operation_xyz
x,y,z
-x,-y,1/2+z
x,1/2-y,-z
-x,1/2+y,1/2-z
-x,-y,-z
x,y,1/2-z
-x,1/2+y,z
x,1/2-y,1/2+z
loop_
_atom_site_type_symbol
_atom_site_label
_atom_site_fract_x
_atom_site_fract_y
_atom_site_fract_z
Si Si1 0.843501 0.348714 0.410414
Si Si2 0.274643 0.834770 0.905530
Si Si3 0.444876 0.540254 0.418443
Si Si4 0.948772 0.952716 0.418881
Si Si5 0.176808 0.005076 0.086461
Si Si6 0.420775 0.811645 0.581915
Si Si7 0.702041 0.488076 0.592252
Si Si8 0.987382 0.187050 0.584015
O O1 0.838046 0.323531 0.250000
O O2 0.784914 0.311503 0.493827
O O3 0.837521 0.427490 0.418150
O O4 0.913900 0.328042 0.476011
O O5 0.263420 0.802982 0.750000
O O6 0.344566 0.811915 0.969216
O O7 0.274184 0.913374 0.891015
O O8 0.500000 0.500000 0.500000
O O9 0.454091 0.532126 0.250000
O O10 0.452623 0.617810 0.461065
O O11 0.373485 0.511002 0.464192
O O12 0.948459 0.970551 0.250000
O O13 0.876716 0.959252 0.487234
O O14 0.967742 0.876640 0.444251
O O15 0.000000 0.000000 0.500000
O O16 0.173706 0.030956 0.250000
O O17 0.249146 0.023237 0.021323
O O18 0.455937 0.750000 0.500000
O O19 0.426855 0.800303 0.750000
O O20 0.706742 0.521807 0.750000
O O21 0.017141 0.250000 0.500000
O O22 0.985376 0.204626 0.750000
#
# Coordination Sequence:
#
# PCOD8230262 Si02
#       8
#     8   8   8   8   8   8   8   8
#     4   9  17  30  44  63  93 123 157 199 235 276
#     4   8  15  27  42  61  87 122 162 195 229 273
#     4   9  18  32  50  73 103 134 168 205 243 291
#     4  11  21  35  53  73  97 125 163 208 252 297
#     4  10  18  30  49  74  99 123 160 207 247 289
#     4   9  18  31  45  65  95 128 165 205 237 280
#     4   8  15  29  46  68  97 128 160 197 242 290
#     4  10  22  37  48  65  94 125 160 203 248 299
#
# _framework density 16.73826
#
# number of rings (size 3 to 8) (size 9 to 14) (size 15 to 20)
#    0.000    2.750    1.250    2.250    0.000    4.000 
#    0.000    5.000    0.000    0.000    0.000    0.875 
#    0.000    6.000    0.000    0.000    0.000    0.000 
#
# Total GULP energy -793226.778350 kJ/mol
# GULP energy per Si atom -12394.168412 kJ/mol
# Density = 1.670016 g / cm^3
# Si number density = 16.738260 Si / 1000 Ang^3
#
#
#
# Elastic Constant Matrix: (Units=GPa)
#
#
# Indices 1 2 3 4 5 6 
#
# 1 102.0953 46.3005 57.2598 0.0000 0.0000 0.0000
# 2 46.3005 75.6184 49.5340 0.0000 0.0000 0.0000
# 3 57.2598 49.5340 89.0055 0.0000 0.0000 0.0000
# 4 0.0000 0.0000 0.0000 24.5826 0.0000 0.0000
# 5 0.0000 0.0000 0.0000 0.0000 28.7508 0.0000
# 6 0.0000 0.0000 0.0000 0.0000 0.0000 10.1506
#
#
#
# Elastic Compliance Matrix: (Units=1/GPa)
#
#
# Indices 1 2 3 4 5 6 
#
# 1 0.016414 -0.004931 -0.007816 0.000000 0.000000 0.000000
# 2 -0.004931 0.022292 -0.009234 0.000000 0.000000 0.000000
# 3 -0.007816 -0.009234 0.021402 0.000000 0.000000 0.000000
# 4 0.000000 0.000000 0.000000 0.040679 0.000000 0.000000
# 5 0.000000 0.000000 0.000000 0.000000 0.034782 0.000000
# 6 0.000000 0.000000 0.000000 0.000000 0.000000 0.098517
#
#
# Mechanical properties :
#
#
# Convention : Reuss Voigt Hill
#
# Bulk Modulus (GPa) = 61.92809 63.65642 62.79226
# Shear Modulus (GPa) = 17.64104 20.27178 18.95641
#
# Velocity S-wave (km/s) = 3.24996 3.48387 3.36894
# Velocity P-wave (km/s) = 7.15271 7.36859 7.26145
#
# Compressibility (1/GPa) = 0.01614776
#
# Stress axis : x y z
#
# Youngs Moduli (GPa) = 60.92272 44.85883 46.72359
#
# Poissons Ratio (x) = 0.22118 0.36518
# Poissons Ratio (y) = 0.30038 0.43146
# Poissons Ratio (z) = 0.47616 0.41424
#
# Static dielectric constant tensor:
#      x y z
#    x 3.109240 0.000000 0.000000 
#    y 0.000000 2.935940 0.000000 
#    z 0.000000 0.000000 3.349970 
# 
# 
# High freq. dielectric constant tensor:
#      x y z
#    x 1.627150 0.000000 0.000000 
#    y 0.000000 1.616900 0.000000 
#    z 0.000000 0.000000 1.650140 
# 
# From -- ./inp_files/8736.got.cif
#   From: 2010.03.12/outbox.cif.g09.slc.cpg/sg57_5_cif.got.tgz:8736.got - 2010.04.16 15:48:40.
