data_PCOD8230475
_publ_section_title
;
Structure prediction by ZEFSAII (Michael W. Deem and Ramdas Pophale) SiO2 
 PCOD8230475
Probable space group: P B C M
;
_chemical_formula_sum "Si O2"
_cell_formula_units_Z 56
_cell_length_a 9.234229
_cell_length_b 13.710522
_cell_length_c 26.624470
_cell_angle_alpha 90.000000
_cell_angle_beta 90.000000
_cell_angle_gamma 90.000000
_cell_volume 3370.820307
_symmetry_space_group_name_H-M "P B C M"
_symmetry_group_IT_number 57
_symmetry_cell_setting 'orthorhombic'
loop_
_space_group_symop_operation_xyz
x,y,z
-x,-y,1/2+z
x,1/2-y,-z
-x,1/2+y,1/2-z
-x,-y,-z
x,y,1/2-z
-x,1/2+y,z
x,1/2-y,1/2+z
loop_
_atom_site_type_symbol
_atom_site_label
_atom_site_fract_x
_atom_site_fract_y
_atom_site_fract_z
Si Si1 0.480864 0.327164 0.692233
Si Si2 0.742248 0.035244 0.307561
Si Si3 0.309591 0.480296 0.633190
Si Si4 0.993203 0.001214 0.380868
Si Si5 0.435190 0.124533 0.861661
Si Si6 0.165713 0.124576 0.050353
Si Si7 0.810382 0.850998 0.436914
O O1 0.454404 0.300722 0.750000
O O2 0.640412 0.371240 0.683427
O O3 0.362262 0.407511 0.676675
O O4 0.465901 0.230993 0.659461
O O5 0.791213 0.027060 0.250000
O O6 0.657059 0.936501 0.321373
O O7 0.883644 0.050284 0.341546
O O8 0.147465 0.518424 0.646828
O O9 0.413061 0.572768 0.626737
O O10 0.303444 0.420486 0.580408
O O11 0.930987 0.899934 0.401652
O O12 0.018634 0.075141 0.427840
O O13 0.348715 0.132398 0.913945
O O14 0.151129 0.238415 0.060496
O O15 0.186741 0.100705 0.991912
#
# Coordination Sequence:
#
# PCOD8230475 Si02
#       7
#     8   8   8   8   8   8   8
#     4  10  19  34  53  74 103 137 173 214 263 307
#     4   9  19  33  52  74 101 138 173 211 257 311
#     4   9  20  34  51  77 106 131 173 218 259 299
#     4   9  19  34  51  77 104 138 172 214 254 314
#     4  10  18  33  53  77 101 137 172 219 256 313
#     4   9  19  34  52  78 102 138 173 213 259 310
#     4  10  18  33  58  71 105 142 174 208 264 313
#
# _framework density 16.613167000000001
#
# number of rings (size 3 to 8) (size 9 to 14) (size 15 to 20)
#    0.857    1.714    1.429    0.857    0.000    2.857 
#    0.000    0.000    0.000    5.143    0.000    0.000 
#    0.000    0.000    0.000    0.000    0.000    0.000 
#
# Total GULP energy -694134.779468 kJ/mol
# GULP energy per Si atom -12395.263919 kJ/mol
# Density = 1.657535 g / cm^3
# Si number density = 16.613167 Si / 1000 Ang^3
#
#
#
# Elastic Constant Matrix: (Units=GPa)
#
#
# Indices 1 2 3 4 5 6 
#
# 1 124.3947 47.3391 62.3661 0.0000 0.0000 0.0000
# 2 47.3391 76.8293 38.2331 0.0000 0.0000 0.0000
# 3 62.3661 38.2331 113.7390 0.0000 0.0000 0.0000
# 4 0.0000 0.0000 0.0000 19.6791 0.0000 0.0000
# 5 0.0000 0.0000 0.0000 0.0000 28.6174 0.0000
# 6 0.0000 0.0000 0.0000 0.0000 0.0000 20.3746
#
#
#
# Elastic Compliance Matrix: (Units=1/GPa)
#
#
# Indices 1 2 3 4 5 6 
#
# 1 0.012606 -0.005197 -0.005165 0.000000 0.000000 0.000000
# 2 -0.005197 0.017773 -0.003125 0.000000 0.000000 0.000000
# 3 -0.005165 -0.003125 0.012675 0.000000 0.000000 0.000000
# 4 0.000000 0.000000 0.000000 0.050815 0.000000 0.000000
# 5 0.000000 0.000000 0.000000 0.000000 0.034944 0.000000
# 6 0.000000 0.000000 0.000000 0.000000 0.000000 0.049081
#
#
# Mechanical properties :
#
#
# Convention : Reuss Voigt Hill
#
# Bulk Modulus (GPa) = 62.18962 67.87106 65.03034
# Shear Modulus (GPa) = 23.78365 24.86920 24.32643
#
# Velocity S-wave (km/s) = 3.78777 3.87325 3.83075
# Velocity P-wave (km/s) = 7.52628 7.80674 7.66779
#
# Compressibility (1/GPa) = 0.01607985
#
# Stress axis : x y z
#
# Youngs Moduli (GPa) = 79.32457 56.26496 78.89687
#
# Poissons Ratio (x) = 0.29241 0.40754
# Poissons Ratio (y) = 0.41225 0.24653
# Poissons Ratio (z) = 0.40975 0.17581
#
# Static dielectric constant tensor:
#      x y z
#    x 3.046330 0.000000 0.000000 
#    y 0.000000 3.022740 0.000000 
#    z 0.000000 0.000000 3.174600 
# 
# 
# High freq. dielectric constant tensor:
#      x y z
#    x 1.632140 0.000000 0.000000 
#    y 0.000000 1.640830 0.000000 
#    z 0.000000 0.000000 1.640630 
# 
# From -- ./inp_files/29636.got.cif
#   From: 2010.03.12/outbox.cif.g09.slc.cpg/sg57_15_cif.got.tgz:29636.got - 2010.04.16 15:48:40.
