data_PCOD8230462
_publ_section_title
;
Structure prediction by ZEFSAII (Michael W. Deem and Ramdas Pophale) SiO2 
 PCOD8230462
Probable space group: P B C M
;
_chemical_formula_sum "Si O2"
_cell_formula_units_Z 32
_cell_length_a 12.273740
_cell_length_b 14.672977
_cell_length_c 8.642501
_cell_angle_alpha 90.000000
_cell_angle_beta 90.000000
_cell_angle_gamma 90.000000
_cell_volume 1556.447924
_symmetry_space_group_name_H-M "P B C M"
_symmetry_group_IT_number 57
_symmetry_cell_setting 'orthorhombic'
loop_
_space_group_symop_operation_xyz
x,y,z
-x,-y,1/2+z
x,1/2-y,-z
-x,1/2+y,1/2-z
-x,-y,-z
x,y,1/2-z
-x,1/2+y,z
x,1/2-y,1/2+z
loop_
_atom_site_type_symbol
_atom_site_label
_atom_site_fract_x
_atom_site_fract_y
_atom_site_fract_z
Si Si1 0.000219 0.649005 0.932993
Si Si2 0.381377 0.008118 0.930356
Si Si3 0.218556 0.848239 0.929630
Si Si4 0.779979 0.850437 0.567528
O O1 0.993110 0.647713 0.750000
O O2 0.005313 0.750000 0.000000
O O3 0.891100 0.602688 0.001571
O O4 0.112904 0.603394 0.990613
O O5 0.386330 0.032366 0.750000
O O6 0.321190 0.912650 0.959776
O O7 0.500000 0.000000 0.000000
O O8 0.322083 0.089422 0.019034
O O9 0.192240 0.835608 0.750000
O O10 0.247265 0.750000 0.000000
O O11 0.763765 0.750000 0.500000
O O12 0.788523 0.843586 0.750000
#
# Coordination Sequence:
#
# PCOD8230462 Si02
#       4
#     8   8   8   8
#     4  10  18  32  57  88 121 153 189 235 288 350
#     4  11  25  43  61  85 117 155 202 249 293 346
#     4  10  21  38  61  88 119 154 192 238 291 348
#     4  11  22  39  63  89 120 156 194 241 295 351
#
# _framework density 20.559633999999999
#
# number of rings (size 3 to 8) (size 9 to 14) (size 15 to 20)
#    0.000    1.500    0.000    9.000    0.000    6.000 
#    0.000    2.500    0.000    0.000    0.000    0.000 
#    0.000    0.000    0.000    0.000    0.000    0.000 
#
# Total GULP energy -396819.462455 kJ/mol
# GULP energy per Si atom -12400.608202 kJ/mol
# Density = 2.051284 g / cm^3
# Si number density = 20.559634 Si / 1000 Ang^3
#
#
#
# Elastic Constant Matrix: (Units=GPa)
#
#
# Indices 1 2 3 4 5 6 
#
# 1 181.8732 54.3417 87.9897 0.0000 0.0000 0.0000
# 2 54.3417 78.3679 58.9836 0.0000 0.0000 0.0000
# 3 87.9897 58.9836 208.5430 0.0000 0.0000 0.0000
# 4 0.0000 0.0000 0.0000 29.1970 0.0000 0.0000
# 5 0.0000 0.0000 0.0000 0.0000 -109.3642 0.0000
# 6 0.0000 0.0000 0.0000 0.0000 0.0000 48.6838
#
#
#
# Elastic Compliance Matrix: (Units=1/GPa)
#
#
# Indices 1 2 3 4 5 6 
#
# 1 0.007652 -0.003654 -0.002195 0.000000 0.000000 0.000000
# 2 -0.003654 0.017956 -0.003537 0.000000 0.000000 0.000000
# 3 -0.002195 -0.003537 0.006722 0.000000 0.000000 0.000000
# 4 0.000000 0.000000 0.000000 0.034250 0.000000 0.000000
# 5 0.000000 0.000000 0.000000 0.000000 -0.009144 0.000000
# 6 0.000000 0.000000 0.000000 0.000000 0.000000 0.020541
#
#
# Mechanical properties :
#
#
# Convention : Reuss Voigt Hill
#
# Bulk Modulus (GPa) = 73.75783 96.82377 85.29080
# Shear Modulus (GPa) = 49.37377 11.53460 30.45419
#
# Velocity S-wave (km/s) = 4.90582 2.37118 3.85289
# Velocity P-wave (km/s) = 8.24878 7.39547 7.83375
#
# Compressibility (1/GPa) = 0.01355788
#
# Stress axis : x y z
#
# Youngs Moduli (GPa) = 130.68320 55.69139 148.77073
#
# Poissons Ratio (x) = 0.20349 0.32657
# Poissons Ratio (y) = 0.47750 0.52620
# Poissons Ratio (z) = 0.28687 0.19698
#
# Static dielectric constant tensor:
#      x y z
#    x 4.240870 0.000000 0.000000 
#    y 0.000000 3.590090 0.000000 
#    z 0.000000 0.000000 3.893070 
# 
# 
# High freq. dielectric constant tensor:
#      x y z
#    x 1.814660 0.000000 0.000000 
#    y 0.000000 1.792210 0.000000 
#    z 0.000000 0.000000 1.824670 
# 
# From -- ./inp_files/2385.got.cif
#   From: 2010.03.12/outbox.cif.g09.slc.cpg/sg57_2_cif.got.tgz:2385.got - 2010.04.16 15:48:40.
