data_PCOD8230633
_publ_section_title
;
Structure prediction by ZEFSAII (Michael W. Deem and Ramdas Pophale) SiO2 
 PCOD8230633
Probable space group: P B C M
;
_chemical_formula_sum "Si O2"
_cell_formula_units_Z 56
_cell_length_a 20.674315
_cell_length_b 17.487857
_cell_length_c 9.005968
_cell_angle_alpha 90.000000
_cell_angle_beta 90.000000
_cell_angle_gamma 90.000000
_cell_volume 3256.102906
_symmetry_space_group_name_H-M "P B C M"
_symmetry_group_IT_number 57
_symmetry_cell_setting 'orthorhombic'
loop_
_space_group_symop_operation_xyz
x,y,z
-x,-y,1/2+z
x,1/2-y,-z
-x,1/2+y,1/2-z
-x,-y,-z
x,y,1/2-z
-x,1/2+y,z
x,1/2-y,1/2+z
loop_
_atom_site_type_symbol
_atom_site_label
_atom_site_fract_x
_atom_site_fract_y
_atom_site_fract_z
Si Si1 0.362304 0.177201 0.578007
Si Si2 0.938140 0.669956 0.572414
Si Si3 0.850812 0.528433 0.921893
Si Si4 0.521326 0.611948 0.083274
Si Si5 0.707482 0.520370 0.923636
Si Si6 0.033943 0.929275 0.576259
Si Si7 0.407566 0.549565 0.916634
O O1 0.328697 0.250000 0.500000
O O2 0.369826 0.193535 0.750000
O O3 0.433903 0.168160 0.511048
O O4 0.317312 0.105375 0.544852
O O5 0.916301 0.750000 0.500000
O O6 0.941773 0.676843 0.750000
O O7 0.888282 0.603856 0.516619
O O8 0.009557 0.647274 0.507834
O O9 0.840695 0.545896 0.750000
O O10 0.779853 0.516927 0.992505
O O11 0.889868 0.448567 0.945647
O O12 0.514029 0.643441 0.250000
O O13 0.554127 0.529414 0.084260
O O14 0.450313 0.609796 0.009323
O O15 0.704964 0.500025 0.750000
O O16 0.662618 0.459392 0.007881
O O17 0.016206 0.924083 0.750000
O O18 0.000000 0.000000 0.500000
O O19 0.397689 0.580362 0.750000
#
# Coordination Sequence:
#
# PCOD8230633 Si02
#       7
#     8   8   8   8   8   8   8
#     4  10  19  29  42  60  86 118 150 183 218 260
#     4  10  19  31  47  69  95 123 157 196 236 278
#     4   8  16  30  47  66  91 123 157 190 227 275
#     4   9  16  27  43  60  80 108 142 179 218 256
#     4   9  17  30  45  62  87 120 152 180 216 264
#     4   9  16  29  48  68  91 120 154 194 236 276
#     4   9  16  26  41  63  86 106 136 179 220 255
#
# _framework density 17.198474999999998
#
# number of rings (size 3 to 8) (size 9 to 14) (size 15 to 20)
#    0.000    2.857    0.000    3.000    0.000    4.571 
#    0.000    4.286    0.000    0.000    0.000    1.000 
#    0.000    2.286    0.000    0.000    0.000    0.000 
#
# Total GULP energy -694005.229977 kJ/mol
# GULP energy per Si atom -12392.950535 kJ/mol
# Density = 1.715933 g / cm^3
# Si number density = 17.198475 Si / 1000 Ang^3
#
#
#
# Elastic Constant Matrix: (Units=GPa)
#
#
# Indices 1 2 3 4 5 6 
#
# 1 126.4893 24.0003 44.1576 0.0000 0.0000 0.0000
# 2 24.0003 15.4171 10.6084 0.0000 0.0000 0.0000
# 3 44.1576 10.6084 87.1672 0.0000 0.0000 0.0000
# 4 0.0000 0.0000 0.0000 26.5155 0.0000 0.0000
# 5 0.0000 0.0000 0.0000 0.0000 21.0724 0.0000
# 6 0.0000 0.0000 0.0000 0.0000 0.0000 12.7345
#
#
#
# Elastic Compliance Matrix: (Units=1/GPa)
#
#
# Indices 1 2 3 4 5 6 
#
# 1 0.012569 -0.016573 -0.004350 0.000000 0.000000 0.000000
# 2 -0.016573 0.092645 -0.002879 0.000000 0.000000 0.000000
# 3 -0.004350 -0.002879 0.014026 0.000000 0.000000 0.000000
# 4 0.000000 0.000000 0.000000 0.037714 0.000000 0.000000
# 5 0.000000 0.000000 0.000000 0.000000 0.047455 0.000000
# 6 0.000000 0.000000 0.000000 0.000000 0.000000 0.078527
#
#
# Mechanical properties :
#
#
# Convention : Reuss Voigt Hill
#
# Bulk Modulus (GPa) = 13.95978 42.95625 28.45802
# Shear Modulus (GPa) = 14.10753 22.08496 18.09625
#
# Velocity S-wave (km/s) = 2.86716 3.58735 3.24728
# Velocity P-wave (km/s) = 4.36981 6.49537 5.53557
#
# Compressibility (1/GPa) = 0.07163435
#
# Stress axis : x y z
#
# Youngs Moduli (GPa) = 79.55970 10.79393 71.29400
#
# Poissons Ratio (x) = 0.17889 0.31015
# Poissons Ratio (y) = 1.31857 0.20527
# Poissons Ratio (z) = 0.34611 0.03108
#
# Static dielectric constant tensor:
#      x y z
#    x 3.456690 0.000000 0.000000 
#    y 0.000000 3.027580 0.000000 
#    z 0.000000 0.000000 3.300320 
# 
# 
# High freq. dielectric constant tensor:
#      x y z
#    x 1.653190 0.000000 0.000000 
#    y 0.000000 1.625780 0.000000 
#    z 0.000000 0.000000 1.667460 
# 
# From -- ./inp_files/8267.got.cif
#   From: 2010.03.12/outbox.cif.g09.slc.cpg/sg57_5_cif.got.tgz:8267.got - 2010.04.16 15:48:40.
