data_PCOD8230938
_publ_section_title
;
Structure prediction by ZEFSAII (Michael W. Deem and Ramdas Pophale) SiO2 
 PCOD8230938
Probable space group: P B C M
;
_chemical_formula_sum "Si O2"
_cell_formula_units_Z 64
_cell_length_a 30.410446
_cell_length_b 13.736273
_cell_length_c 8.686774
_cell_angle_alpha 90.000000
_cell_angle_beta 90.000000
_cell_angle_gamma 90.000000
_cell_volume 3628.692992
_symmetry_space_group_name_H-M "P B C M"
_symmetry_group_IT_number 57
_symmetry_cell_setting 'orthorhombic'
loop_
_space_group_symop_operation_xyz
x,y,z
-x,-y,1/2+z
x,1/2-y,-z
-x,1/2+y,1/2-z
-x,-y,-z
x,y,1/2-z
-x,1/2+y,z
x,1/2-y,1/2+z
loop_
_atom_site_type_symbol
_atom_site_label
_atom_site_fract_x
_atom_site_fract_y
_atom_site_fract_z
Si Si1 0.878151 0.144300 0.066414
Si Si2 0.952474 0.477813 0.434141
Si Si3 0.351478 0.149172 0.068791
Si Si4 0.894225 0.850502 0.921604
Si Si5 0.564275 0.972454 0.570350
Si Si6 0.742473 0.644909 0.932304
Si Si7 0.480588 0.854120 0.569855
Si Si8 0.184914 0.018125 0.073700
O O1 0.878757 0.146508 0.250000
O O2 0.866327 0.250000 0.000000
O O3 0.927012 0.115649 0.003957
O O4 0.839812 0.070730 0.010285
O O5 0.953121 0.467064 0.250000
O O6 0.924536 0.568155 0.498203
O O7 0.000000 0.500000 0.500000
O O8 0.342640 0.161413 0.250000
O O9 0.387373 0.067082 0.032988
O O10 0.369645 0.250000 0.000000
O O11 0.306782 0.119583 0.984010
O O12 0.910773 0.836374 0.750000
O O13 0.844087 0.884076 0.931299
O O14 0.902112 0.750000 0.000000
O O15 0.557678 0.991928 0.750000
O O16 0.527595 0.895526 0.511800
O O17 0.558473 0.073872 0.481783
O O18 0.746047 0.651978 0.750000
O O19 0.757303 0.750000 0.000000
O O20 0.770748 0.552275 0.989892
O O21 0.471247 0.750000 0.500000
O O22 0.479971 0.842579 0.750000
O O23 0.194190 0.986735 0.250000
#
# Coordination Sequence:
#
# PCOD8230938 Si02
#       8
#     8   8   8   8   8   8   8   8
#     4  11  22  38  59  82 106 138 177 219 263 308
#     4  10  21  37  53  75 105 138 175 216 256 300
#     4  10  19  32  50  73 103 137 171 210 255 306
#     4   9  19  32  49  72  99 128 160 197 241 290
#     4   9  19  33  49  71  99 133 172 212 257 307
#     4  11  21  33  51  78 109 141 174 209 255 311
#     4  10  19  31  49  72  99 131 169 214 259 306
#     4  10  20  36  55  78 106 134 168 212 254 300
#
# _framework density 17.637204000000001
#
# number of rings (size 3 to 8) (size 9 to 14) (size 15 to 20)
#    0.000    2.000    0.000    6.000    0.000    6.000 
#    0.000    1.250    0.000    0.750    0.000    1.750 
#    0.000    0.000    0.000    0.000    0.000    0.000 
#
# Total GULP energy -793429.294539 kJ/mol
# GULP energy per Si atom -12397.332727 kJ/mol
# Density = 1.759706 g / cm^3
# Si number density = 17.637204 Si / 1000 Ang^3
#
#
#
# Elastic Constant Matrix: (Units=GPa)
#
#
# Indices 1 2 3 4 5 6 
#
# 1 93.3239 52.7465 45.7521 0.0000 0.0000 0.0000
# 2 52.7465 118.1471 52.6449 0.0000 0.0000 0.0000
# 3 45.7521 52.6449 116.1457 0.0000 0.0000 0.0000
# 4 0.0000 0.0000 0.0000 33.2288 0.0000 0.0000
# 5 0.0000 0.0000 0.0000 0.0000 25.4467 0.0000
# 6 0.0000 0.0000 0.0000 0.0000 0.0000 32.4894
#
#
#
# Elastic Compliance Matrix: (Units=1/GPa)
#
#
# Indices 1 2 3 4 5 6 
#
# 1 0.015520 -0.005269 -0.003725 0.000000 0.000000 0.000000
# 2 -0.005269 0.012395 -0.003543 0.000000 0.000000 0.000000
# 3 -0.003725 -0.003543 0.011683 0.000000 0.000000 0.000000
# 4 0.000000 0.000000 0.000000 0.030094 0.000000 0.000000
# 5 0.000000 0.000000 0.000000 0.000000 0.039298 0.000000
# 6 0.000000 0.000000 0.000000 0.000000 0.000000 0.030779
#
#
# Mechanical properties :
#
#
# Convention : Reuss Voigt Hill
#
# Bulk Modulus (GPa) = 68.85140 69.98932 69.42036
# Shear Modulus (GPa) = 29.46655 29.99786 29.73221
#
# Velocity S-wave (km/s) = 4.09186 4.12858 4.11026
# Velocity P-wave (km/s) = 7.83880 7.90543 7.87219
#
# Compressibility (1/GPa) = 0.01452403
#
# Stress axis : x y z
#
# Youngs Moduli (GPa) = 64.43462 80.67891 85.59342
#
# Poissons Ratio (x) = 0.42508 0.31887
# Poissons Ratio (y) = 0.33949 0.30323
# Poissons Ratio (z) = 0.24004 0.28582
#
# Static dielectric constant tensor:
#      x y z
#    x 3.273970 0.000000 0.000000 
#    y 0.000000 3.195700 0.000000 
#    z 0.000000 0.000000 3.334170 
# 
# 
# High freq. dielectric constant tensor:
#      x y z
#    x 1.674090 0.000000 0.000000 
#    y 0.000000 1.673930 0.000000 
#    z 0.000000 0.000000 1.696110 
# 
# From -- ./inp_files/10301.got.cif
#   From: 2010.03.12/outbox.cif.g09.slc.cpg/sg57_6_cif.got.tgz:10301.got - 2010.04.16 15:48:40.
