data_PCOD8230463
_publ_section_title
;
Structure prediction by ZEFSAII (Michael W. Deem and Ramdas Pophale) SiO2 
 PCOD8230463
Probable space group: P B C M
;
_chemical_formula_sum "Si O2"
_cell_formula_units_Z 64
_cell_length_a 19.273233
_cell_length_b 8.773748
_cell_length_c 19.290544
_cell_angle_alpha 90.000000
_cell_angle_beta 90.000000
_cell_angle_gamma 90.000000
_cell_volume 3262.001852
_symmetry_space_group_name_H-M "P B C M"
_symmetry_group_IT_number 57
_symmetry_cell_setting 'orthorhombic'
loop_
_space_group_symop_operation_xyz
x,y,z
-x,-y,1/2+z
x,1/2-y,-z
-x,1/2+y,1/2-z
-x,-y,-z
x,y,1/2-z
-x,1/2+y,z
x,1/2-y,1/2+z
loop_
_atom_site_type_symbol
_atom_site_label
_atom_site_fract_x
_atom_site_fract_y
_atom_site_fract_z
Si Si1 0.983033 0.966594 0.672813
Si Si2 0.403346 0.188176 0.328350
Si Si3 0.189565 0.876391 0.052906
Si Si4 0.900119 0.241681 0.327016
Si Si5 0.067167 0.084039 0.469950
Si Si6 0.494587 0.452203 0.384755
Si Si7 0.696734 0.875020 0.552670
Si Si8 0.410446 0.592810 0.009091
O O1 0.961619 0.907529 0.750000
O O2 0.936795 0.889476 0.612958
O O3 0.064861 0.925074 0.659225
O O4 0.967829 0.147202 0.667254
O O5 0.375385 0.192511 0.250000
O O6 0.456493 0.326476 0.339007
O O7 0.335799 0.199560 0.378028
O O8 0.445107 0.030854 0.339868
O O9 0.160220 0.787421 0.120117
O O10 0.130453 0.971507 0.012911
O O11 0.248792 0.995423 0.075408
O O12 0.218891 0.750000 0.000000
O O13 0.867122 0.249192 0.250000
O O14 0.079525 0.250000 0.500000
O O15 0.000000 0.000000 0.500000
O O16 0.525469 0.382089 0.455626
O O17 0.437519 0.574872 0.411889
O O18 0.730354 0.750000 0.500000
O O19 0.634241 0.946166 0.508978
O O20 0.366502 0.750000 0.000000
#
# Coordination Sequence:
#
# PCOD8230463 Si02
#       8
#     8   8   8   8   8   8   8   8
#     4   9  17  30  49  77 108 140 174 215 272 340
#     4  11  22  37  58  89 122 151 185 238 294 346
#     4  11  23  38  56  80 111 151 197 243 293 345
#     4   9  18  33  55  81 111 143 180 226 282 345
#     4  11  20  33  55  84 115 144 183 243 301 345
#     4  10  19  32  56  88 117 146 186 230 287 338
#     4  11  23  39  58  80 108 155 202 236 282 349
#     4  10  18  32  58  84 112 146 190 236 275 336
#
# _framework density 19.619855000000001
#
# number of rings (size 3 to 8) (size 9 to 14) (size 15 to 20)
#    0.000    1.750    2.500    3.750    0.000    0.500 
#    0.000    0.000    0.000    0.750    0.000    0.000 
#    0.000    0.000    0.000    0.000    0.000    0.000 
#
# Total GULP energy -793105.083352 kJ/mol
# GULP energy per Si atom -12392.266927 kJ/mol
# Density = 1.957520 g / cm^3
# Si number density = 19.619855 Si / 1000 Ang^3
#
#
#
# Elastic Constant Matrix: (Units=GPa)
#
#
# Indices 1 2 3 4 5 6 
#
# 1 65.9256 14.0191 23.9088 0.0000 0.0000 0.0000
# 2 14.0191 66.2663 29.1774 0.0000 0.0000 0.0000
# 3 23.9088 29.1774 110.1914 0.0000 0.0000 0.0000
# 4 0.0000 0.0000 0.0000 24.1458 0.0000 0.0000
# 5 0.0000 0.0000 0.0000 0.0000 18.4672 0.0000
# 6 0.0000 0.0000 0.0000 0.0000 0.0000 33.6387
#
#
#
# Elastic Compliance Matrix: (Units=1/GPa)
#
#
# Indices 1 2 3 4 5 6 
#
# 1 0.016743 -0.002199 -0.003050 0.000000 0.000000 0.000000
# 2 -0.002199 0.017371 -0.004123 0.000000 0.000000 0.000000
# 3 -0.003050 -0.004123 0.010829 0.000000 0.000000 0.000000
# 4 0.000000 0.000000 0.000000 0.041415 0.000000 0.000000
# 5 0.000000 0.000000 0.000000 0.000000 0.054150 0.000000
# 6 0.000000 0.000000 0.000000 0.000000 0.000000 0.029728
#
#
# Mechanical properties :
#
#
# Convention : Reuss Voigt Hill
#
# Bulk Modulus (GPa) = 38.17035 41.84376 40.00705
# Shear Modulus (GPa) = 25.28939 26.93554 26.11247
#
# Velocity S-wave (km/s) = 3.59412 3.70925 3.65214
# Velocity P-wave (km/s) = 6.05977 6.30224 6.18219
#
# Compressibility (1/GPa) = 0.02619835
#
# Stress axis : x y z
#
# Youngs Moduli (GPa) = 59.72822 57.56722 92.34807
#
# Poissons Ratio (x) = 0.12658 0.28170
# Poissons Ratio (y) = 0.13133 0.38071
# Poissons Ratio (z) = 0.18220 0.23732
#
# Static dielectric constant tensor:
#      x y z
#    x 3.268270 0.000000 0.000000 
#    y 0.000000 3.695910 0.000000 
#    z 0.000000 0.000000 3.654320 
# 
# 
# High freq. dielectric constant tensor:
#      x y z
#    x 1.728610 0.000000 0.000000 
#    y 0.000000 1.772330 0.000000 
#    z 0.000000 0.000000 1.762250 
# 
# From -- ./inp_files/25786.got.cif
#   From: 2010.03.12/outbox.cif.g09.slc.cpg/sg57_13_cif.got.tgz:25786.got - 2010.04.16 15:48:40.
