data_PCOD8230138
_publ_section_title
;
Structure prediction by ZEFSAII (Michael W. Deem and Ramdas Pophale) SiO2 
 PCOD8230138
Probable space group: P B C M
;
_chemical_formula_sum "Si O2"
_cell_formula_units_Z 64
_cell_length_a 16.700326
_cell_length_b 23.884522
_cell_length_c 9.093752
_cell_angle_alpha 90.000000
_cell_angle_beta 90.000000
_cell_angle_gamma 90.000000
_cell_volume 3627.309466
_symmetry_space_group_name_H-M "P B C M"
_symmetry_group_IT_number 57
_symmetry_cell_setting 'orthorhombic'
loop_
_space_group_symop_operation_xyz
x,y,z
-x,-y,1/2+z
x,1/2-y,-z
-x,1/2+y,1/2-z
-x,-y,-z
x,y,1/2-z
-x,1/2+y,z
x,1/2-y,1/2+z
loop_
_atom_site_type_symbol
_atom_site_label
_atom_site_fract_x
_atom_site_fract_y
_atom_site_fract_z
Si Si1 0.414065 0.189523 0.577191
Si Si2 0.188866 0.474048 0.077950
Si Si3 0.877730 0.691954 0.080955
Si Si4 0.412142 0.806394 0.417243
Si Si5 0.144860 0.917410 0.078151
Si Si6 0.036729 0.401434 0.418880
Si Si7 0.762231 0.190829 0.922282
Si Si8 0.720656 0.621077 0.078608
O O1 0.404636 0.250000 0.500000
O O2 0.393391 0.196850 0.750000
O O3 0.503444 0.161533 0.556349
O O4 0.356703 0.144616 0.502689
O O5 0.208767 0.474485 0.250000
O O6 0.100405 0.449899 0.045146
O O7 0.192785 0.536504 0.014396
O O8 0.255859 0.437720 0.995059
O O9 0.896264 0.702234 0.250000
O O10 0.791337 0.665191 0.054183
O O11 0.880244 0.750000 0.000000
O O12 0.946969 0.652463 0.018114
O O13 0.424240 0.750000 0.500000
O O14 0.404206 0.789034 0.250000
O O15 0.327031 0.834033 0.463810
O O16 0.163207 0.926812 0.250000
O O17 0.174678 0.856107 0.026322
O O18 0.051112 0.923893 0.043044
O O19 0.043038 0.382422 0.250000
O O20 0.771231 0.201942 0.750000
O O21 0.779859 0.250000 0.000000
O O22 0.702450 0.611295 0.250000
#
# Coordination Sequence:
#
# PCOD8230138 Si02
#       8
#     8   8   8   8   8   8   8   8
#     4  10  18  28  46  73 102 130 162 198 236 283
#     4  10  20  34  52  72  96 127 163 203 244 287
#     4  10  20  32  47  67  95 131 164 196 238 288
#     4   8  15  28  46  69  97 128 159 192 233 280
#     4  10  20  34  53  75  98 125 159 200 244 289
#     4   9  19  34  50  70  96 126 162 204 245 285
#     4   9  18  33  52  74 101 130 158 193 238 286
#     4  10  20  33  49  70  97 129 164 202 243 286
#
# _framework density 17.643930999999998
#
# number of rings (size 3 to 8) (size 9 to 14) (size 15 to 20)
#    0.000    2.500    0.000    2.250    0.000    5.000 
#    0.000    1.250    0.000    0.750    0.000    0.000 
#    0.000    0.000    0.000    0.000    0.000    0.000 
#
# Total GULP energy -793220.482037 kJ/mol
# GULP energy per Si atom -12394.070032 kJ/mol
# Density = 1.760377 g / cm^3
# Si number density = 17.643931 Si / 1000 Ang^3
#
#
#
# Elastic Constant Matrix: (Units=GPa)
#
#
# Indices 1 2 3 4 5 6 
#
# 1 76.9326 33.8174 28.4843 0.0000 0.0000 0.0000
# 2 33.8174 100.0089 46.6368 0.0000 0.0000 0.0000
# 3 28.4843 46.6368 75.3279 0.0000 0.0000 0.0000
# 4 0.0000 0.0000 0.0000 31.4860 0.0000 0.0000
# 5 0.0000 0.0000 0.0000 0.0000 24.0202 0.0000
# 6 0.0000 0.0000 0.0000 0.0000 0.0000 13.8761
#
#
#
# Elastic Compliance Matrix: (Units=1/GPa)
#
#
# Indices 1 2 3 4 5 6 
#
# 1 0.016005 -0.003641 -0.003798 0.000000 0.000000 0.000000
# 2 -0.003641 0.014886 -0.007839 0.000000 0.000000 0.000000
# 3 -0.003798 -0.007839 0.019565 0.000000 0.000000 0.000000
# 4 0.000000 0.000000 0.000000 0.031760 0.000000 0.000000
# 5 0.000000 0.000000 0.000000 0.000000 0.041632 0.000000
# 6 0.000000 0.000000 0.000000 0.000000 0.000000 0.072066
#
#
# Mechanical properties :
#
#
# Convention : Reuss Voigt Hill
#
# Bulk Modulus (GPa) = 50.25271 52.23850 51.24560
# Shear Modulus (GPa) = 21.44968 23.43185 22.44077
#
# Velocity S-wave (km/s) = 3.49047 3.64818 3.57020
# Velocity P-wave (km/s) = 6.69238 6.88600 6.78988
#
# Compressibility (1/GPa) = 0.01989943
#
# Stress axis : x y z
#
# Youngs Moduli (GPa) = 62.48034 67.17725 51.11181
#
# Poissons Ratio (x) = 0.24459 0.19412
# Poissons Ratio (y) = 0.22749 0.40069
# Poissons Ratio (z) = 0.23730 0.52663
#
# Static dielectric constant tensor:
#      x y z
#    x 3.638710 0.000000 0.000000 
#    y 0.000000 3.133140 0.000000 
#    z 0.000000 0.000000 3.372980 
# 
# 
# High freq. dielectric constant tensor:
#      x y z
#    x 1.682950 0.000000 0.000000 
#    y 0.000000 1.657280 0.000000 
#    z 0.000000 0.000000 1.691450 
# 
# From -- ./inp_files/7428.got.cif
#   From: 2010.03.12/outbox.cif.g09.slc.cpg/sg57_4_cif.got.tgz:7428.got - 2010.04.16 15:48:40.
