data_PCOD8230710
_publ_section_title
;
Structure prediction by ZEFSAII (Michael W. Deem and Ramdas Pophale) SiO2 
 PCOD8230710
Probable space group: P B C M
;
_chemical_formula_sum "Si O2"
_cell_formula_units_Z 64
_cell_length_a 23.090432
_cell_length_b 17.189075
_cell_length_c 9.102547
_cell_angle_alpha 90.000000
_cell_angle_beta 90.000000
_cell_angle_gamma 90.000000
_cell_volume 3612.829736
_symmetry_space_group_name_H-M "P B C M"
_symmetry_group_IT_number 57
_symmetry_cell_setting 'orthorhombic'
loop_
_space_group_symop_operation_xyz
x,y,z
-x,-y,1/2+z
x,1/2-y,-z
-x,1/2+y,1/2-z
-x,-y,-z
x,y,1/2-z
-x,1/2+y,z
x,1/2-y,1/2+z
loop_
_atom_site_type_symbol
_atom_site_label
_atom_site_fract_x
_atom_site_fract_y
_atom_site_fract_z
Si Si1 0.031236 0.567290 0.917749
Si Si2 0.327761 0.175168 0.080295
Si Si3 0.631744 0.440222 0.578471
Si Si4 0.572212 0.600216 0.917523
Si Si5 0.930998 0.668996 0.576476
Si Si6 0.733884 0.516086 0.420622
Si Si7 0.864906 0.528356 0.078320
Si Si8 0.549313 0.329947 0.078908
O O1 0.017409 0.551717 0.750000
O O2 0.099713 0.553504 0.949121
O O3 0.999436 0.648783 0.959718
O O4 0.000000 0.500000 0.000000
O O5 0.333332 0.194227 0.250000
O O6 0.285153 0.104117 0.047366
O O7 0.300804 0.250000 0.000000
O O8 0.392032 0.158308 0.020470
O O9 0.636214 0.421349 0.750000
O O10 0.588904 0.511860 0.544587
O O11 0.695820 0.457092 0.516867
O O12 0.606494 0.365915 0.494282
O O13 0.588819 0.619916 0.750000
O O14 0.504294 0.611514 0.946281
O O15 0.915188 0.750000 0.500000
O O16 0.919879 0.677143 0.750000
O O17 0.890067 0.600567 0.514107
O O18 0.725410 0.494773 0.250000
O O19 0.800061 0.508908 0.472343
O O20 0.866498 0.552190 0.250000
O O21 0.561289 0.315209 0.250000
O O22 0.533720 0.250000 0.000000
#
# Coordination Sequence:
#
# PCOD8230710 Si02
#       8
#     8   8   8   8   8   8   8   8
#     4   8  15  28  47  69  93 123 158 195 235 279
#     4  10  19  30  45  66  95 129 162 197 239 288
#     4  10  20  35  54  75 100 130 165 204 246 293
#     4   9  19  34  52  74  98 126 160 199 244 296
#     4  10  19  30  46  72 104 133 160 194 240 289
#     4   9  19  34  51  71  95 128 167 204 244 288
#     4   9  17  32  52  72  95 126 166 206 243 285
#     4  11  22  35  52  75 101 127 159 201 251 302
#
# _framework density 17.714646999999999
#
# number of rings (size 3 to 8) (size 9 to 14) (size 15 to 20)
#    0.000    2.500    0.000    2.250    0.000    4.500 
#    0.000    1.250    0.000    0.750    0.000    1.750 
#    0.000    0.000    0.000    0.000    0.000    0.000 
#
# Total GULP energy -793246.575703 kJ/mol
# GULP energy per Si atom -12394.477745 kJ/mol
# Density = 1.767433 g / cm^3
# Si number density = 17.714647 Si / 1000 Ang^3
#
#
#
# Elastic Constant Matrix: (Units=GPa)
#
#
# Indices 1 2 3 4 5 6 
#
# 1 116.2689 31.6420 43.9385 0.0000 0.0000 0.0000
# 2 31.6420 41.6271 26.0465 0.0000 0.0000 0.0000
# 3 43.9385 26.0465 75.9087 0.0000 0.0000 0.0000
# 4 0.0000 0.0000 0.0000 27.2463 0.0000 0.0000
# 5 0.0000 0.0000 0.0000 0.0000 24.4002 0.0000
# 6 0.0000 0.0000 0.0000 0.0000 0.0000 16.3537
#
#
#
# Elastic Compliance Matrix: (Units=1/GPa)
#
#
# Indices 1 2 3 4 5 6 
#
# 1 0.012130 -0.006147 -0.004912 0.000000 0.000000 0.000000
# 2 -0.006147 0.033705 -0.008007 0.000000 0.000000 0.000000
# 3 -0.004912 -0.008007 0.018765 0.000000 0.000000 0.000000
# 4 0.000000 0.000000 0.000000 0.036702 0.000000 0.000000
# 5 0.000000 0.000000 0.000000 0.000000 0.040983 0.000000
# 6 0.000000 0.000000 0.000000 0.000000 0.000000 0.061148
#
#
# Mechanical properties :
#
#
# Convention : Reuss Voigt Hill
#
# Bulk Modulus (GPa) = 37.78216 48.56207 43.17211
# Shear Modulus (GPa) = 19.96897 22.41187 21.19042
#
# Velocity S-wave (km/s) = 3.36111 3.56077 3.46238
# Velocity P-wave (km/s) = 6.03633 6.66172 6.35672
#
# Compressibility (1/GPa) = 0.02646752
#
# Stress axis : x y z
#
# Youngs Moduli (GPa) = 82.44134 29.66875 53.29203
#
# Poissons Ratio (x) = 0.18237 0.26177
# Poissons Ratio (y) = 0.50675 0.42673
# Poissons Ratio (z) = 0.40495 0.23757
#
# Static dielectric constant tensor:
#      x y z
#    x 3.498580 0.000000 0.000000 
#    y 0.000000 3.230230 0.000000 
#    z 0.000000 0.000000 3.349440 
# 
# 
# High freq. dielectric constant tensor:
#      x y z
#    x 1.676830 0.000000 0.000000 
#    y 0.000000 1.663720 0.000000 
#    z 0.000000 0.000000 1.694910 
# 
# From -- ./inp_files/9419.got.cif
#   From: 2010.03.12/outbox.cif.g09.slc.cpg/sg57_5_cif.got.tgz:9419.got - 2010.04.16 15:48:40.
