data_PCOD8230194
_publ_section_title
;
Structure prediction by ZEFSAII (Michael W. Deem and Ramdas Pophale) SiO2 
 PCOD8230194
Probable space group: P B C M
;
_chemical_formula_sum "Si O2"
_cell_formula_units_Z 64
_cell_length_a 16.967076
_cell_length_b 24.083611
_cell_length_c 8.728602
_cell_angle_alpha 90.000000
_cell_angle_beta 90.000000
_cell_angle_gamma 90.000000
_cell_volume 3566.755177
_symmetry_space_group_name_H-M "P B C M"
_symmetry_group_IT_number 57
_symmetry_cell_setting 'orthorhombic'
loop_
_space_group_symop_operation_xyz
x,y,z
-x,-y,1/2+z
x,1/2-y,-z
-x,1/2+y,1/2-z
-x,-y,-z
x,y,1/2-z
-x,1/2+y,z
x,1/2-y,1/2+z
loop_
_atom_site_type_symbol
_atom_site_label
_atom_site_fract_x
_atom_site_fract_y
_atom_site_fract_z
Si Si1 0.410872 0.188378 0.569571
Si Si2 0.180364 0.473856 0.067368
Si Si3 0.869918 0.692973 0.927601
Si Si4 0.418180 0.808296 0.426673
Si Si5 0.146229 0.913673 0.067006
Si Si6 0.028966 0.411131 0.426525
Si Si7 0.753144 0.189437 0.931259
Si Si8 0.731416 0.626053 0.068894
O O1 0.400822 0.250000 0.500000
O O2 0.392375 0.192388 0.750000
O O3 0.498584 0.160853 0.540587
O O4 0.353938 0.144820 0.487954
O O5 0.183141 0.471912 0.250000
O O6 0.094795 0.452695 0.003793
O O7 0.195562 0.535338 0.003607
O O8 0.248308 0.433506 0.004855
O O9 0.847316 0.699308 0.750000
O O10 0.942799 0.651712 0.950735
O O11 0.899124 0.750000 0.000000
O O12 0.793188 0.672554 0.016954
O O13 0.432095 0.750000 0.500000
O O14 0.407163 0.797506 0.250000
O O15 0.334311 0.833314 0.484203
O O16 0.148946 0.917063 0.250000
O O17 0.184742 0.856169 0.008534
O O18 0.057314 0.917278 0.998251
O O19 0.019959 0.425724 0.250000
O O20 0.760047 0.194977 0.750000
O O21 0.771910 0.250000 0.000000
O O22 0.732274 0.620157 0.250000
#
# Coordination Sequence:
#
# PCOD8230194 Si02
#       8
#     8   8   8   8   8   8   8   8
#     4  10  18  29  47  72 101 130 162 198 236 282
#     4  10  20  35  52  71  96 126 163 204 245 288
#     4  10  19  32  47  67  98 134 168 200 240 288
#     4   8  15  28  46  69  97 129 160 192 233 279
#     4  10  19  33  53  75  98 126 161 201 244 288
#     4   8  17  32  49  69  95 127 163 204 243 282
#     4   9  18  32  51  75 103 131 159 194 237 286
#     4  11  21  33  49  70  96 127 163 201 243 288
#
# _framework density 17.943479
#
# number of rings (size 3 to 8) (size 9 to 14) (size 15 to 20)
#    0.000    2.500    0.000    3.750    0.000    1.500 
#    0.000    3.125    0.000    0.750    0.000    0.000 
#    0.000    0.000    0.000    0.000    0.000    0.000 
#
# Total GULP energy -793027.838126 kJ/mol
# GULP energy per Si atom -12391.059971 kJ/mol
# Density = 1.790264 g / cm^3
# Si number density = 17.943479 Si / 1000 Ang^3
#
#
#
# Elastic Constant Matrix: (Units=GPa)
#
#
# Indices 1 2 3 4 5 6 
#
# 1 97.2543 50.7005 30.6974 0.0000 0.0000 0.0000
# 2 50.7005 115.6181 35.0100 0.0000 0.0000 0.0000
# 3 30.6974 35.0100 63.8815 0.0000 0.0000 0.0000
# 4 0.0000 0.0000 0.0000 27.3152 0.0000 0.0000
# 5 0.0000 0.0000 0.0000 0.0000 11.7064 0.0000
# 6 0.0000 0.0000 0.0000 0.0000 0.0000 17.2485
#
#
#
# Elastic Compliance Matrix: (Units=1/GPa)
#
#
# Indices 1 2 3 4 5 6 
#
# 1 0.014164 -0.004976 -0.004079 0.000000 0.000000 0.000000
# 2 -0.004976 0.012118 -0.004250 0.000000 0.000000 0.000000
# 3 -0.004079 -0.004250 0.019944 0.000000 0.000000 0.000000
# 4 0.000000 0.000000 0.000000 0.036610 0.000000 0.000000
# 5 0.000000 0.000000 0.000000 0.000000 0.085424 0.000000
# 6 0.000000 0.000000 0.000000 0.000000 0.000000 0.057976
#
#
# Mechanical properties :
#
#
# Convention : Reuss Voigt Hill
#
# Bulk Modulus (GPa) = 50.98167 56.61884 53.80026
# Shear Modulus (GPa) = 19.27642 21.94373 20.61008
#
# Velocity S-wave (km/s) = 3.28119 3.50084 3.39279
# Velocity P-wave (km/s) = 6.54438 6.92558 6.73768
#
# Compressibility (1/GPa) = 0.01961489
#
# Stress axis : x y z
#
# Youngs Moduli (GPa) = 70.60190 82.52069 50.14156
#
# Poissons Ratio (x) = 0.41061 0.20454
# Poissons Ratio (y) = 0.35131 0.21311
# Poissons Ratio (z) = 0.28800 0.35073
#
# Static dielectric constant tensor:
#      x y z
#    x 3.740470 0.000000 0.000000 
#    y 0.000000 3.299760 0.000000 
#    z 0.000000 0.000000 3.197070 
# 
# 
# High freq. dielectric constant tensor:
#      x y z
#    x 1.697740 0.000000 0.000000 
#    y 0.000000 1.673020 0.000000 
#    z 0.000000 0.000000 1.689660 
# 
# From -- ./inp_files/7429.got.cif
#   From: 2010.03.12/outbox.cif.g09.slc.cpg/sg57_4_cif.got.tgz:7429.got - 2010.04.16 15:48:40.
