data_PCOD8230172
_publ_section_title
;
Structure prediction by ZEFSAII (Michael W. Deem and Ramdas Pophale) SiO2 
 PCOD8230172
Probable space group: P B C M
;
_chemical_formula_sum "Si O2"
_cell_formula_units_Z 56
_cell_length_a 20.392789
_cell_length_b 18.271153
_cell_length_c 8.805450
_cell_angle_alpha 90.000000
_cell_angle_beta 90.000000
_cell_angle_gamma 90.000000
_cell_volume 3280.908626
_symmetry_space_group_name_H-M "P B C M"
_symmetry_group_IT_number 57
_symmetry_cell_setting 'orthorhombic'
loop_
_space_group_symop_operation_xyz
x,y,z
-x,-y,1/2+z
x,1/2-y,-z
-x,1/2+y,1/2-z
-x,-y,-z
x,y,1/2-z
-x,1/2+y,z
x,1/2-y,1/2+z
loop_
_atom_site_type_symbol
_atom_site_label
_atom_site_fract_x
_atom_site_fract_y
_atom_site_fract_z
Si Si1 0.434899 0.526087 0.424743
Si Si2 0.987508 0.672871 0.575009
Si Si3 0.062933 0.535805 0.573069
Si Si4 0.249687 0.326167 0.570129
Si Si5 0.618890 0.620454 0.570399
Si Si6 0.138472 0.082022 0.929961
Si Si7 0.516517 0.175160 0.070649
O O1 0.500000 0.500000 0.500000
O O2 0.448840 0.516189 0.250000
O O3 0.377702 0.467797 0.468532
O O4 0.426974 0.612809 0.462433
O O5 0.000460 0.750000 0.500000
O O6 0.975379 0.687475 0.750000
O O7 0.921786 0.633067 0.512808
O O8 0.052831 0.623113 0.548536
O O9 0.066662 0.516303 0.750000
O O10 0.126111 0.501563 0.488026
O O11 0.000000 0.500000 0.500000
O O12 0.224374 0.250000 0.500000
O O13 0.244406 0.322280 0.750000
O O14 0.323982 0.339914 0.520484
O O15 0.205103 0.391098 0.506047
O O16 0.626965 0.635344 0.750000
O O17 0.550987 0.654881 0.513174
O O18 0.146228 0.081464 0.750000
O O19 0.503568 0.183496 0.250000
O O20 0.544378 0.250000 0.000000
#
# Coordination Sequence:
#
# PCOD8230172 Si02
#       7
#     8   8   8   8   8   8   8
#     4   8  16  29  46  65  88 117 151 188 228 271
#     4   9  18  29  45  69  96 122 152 188 230 274
#     4   9  17  30  46  67  93 123 157 195 235 280
#     4  12  24  36  49  68  94 126 159 193 228 270
#     4  10  19  33  49  66  90 123 158 193 229 271
#     4  10  20  34  49  68  93 125 161 196 233 278
#     4  10  18  29  45  69  96 122 151 187 230 276
#
# _framework density 17.068441
#
# number of rings (size 3 to 8) (size 9 to 14) (size 15 to 20)
#    0.000    2.286    0.000    4.714    0.000    5.714 
#    0.000    0.000    0.000    0.000    0.000    1.000 
#    0.000    4.571    0.000    0.000    0.000    0.000 
#
# Total GULP energy -693791.529067 kJ/mol
# GULP energy per Si atom -12389.134448 kJ/mol
# Density = 1.702959 g / cm^3
# Si number density = 17.068441 Si / 1000 Ang^3
#
#
#
# Elastic Constant Matrix: (Units=GPa)
#
#
# Indices 1 2 3 4 5 6 
#
# 1 26.3340 11.3471 15.9583 0.0000 0.0000 0.0000
# 2 11.3471 93.3677 33.6954 0.0000 0.0000 0.0000
# 3 15.9583 33.6954 84.7728 0.0000 0.0000 0.0000
# 4 0.0000 0.0000 0.0000 30.4514 0.0000 0.0000
# 5 0.0000 0.0000 0.0000 0.0000 20.7902 0.0000
# 6 0.0000 0.0000 0.0000 0.0000 0.0000 25.3439
#
#
#
# Elastic Compliance Matrix: (Units=1/GPa)
#
#
# Indices 1 2 3 4 5 6 
#
# 1 0.043447 -0.002718 -0.007098 0.000000 0.000000 0.000000
# 2 -0.002718 0.012674 -0.004526 0.000000 0.000000 0.000000
# 3 -0.007098 -0.004526 0.014931 0.000000 0.000000 0.000000
# 4 0.000000 0.000000 0.000000 0.032839 0.000000 0.000000
# 5 0.000000 0.000000 0.000000 0.000000 0.048100 0.000000
# 6 0.000000 0.000000 0.000000 0.000000 0.000000 0.039457
#
#
# Mechanical properties :
#
#
# Convention : Reuss Voigt Hill
#
# Bulk Modulus (GPa) = 23.60336 36.27515 29.93925
# Shear Modulus (GPa) = 21.34420 24.88200 23.11310
#
# Velocity S-wave (km/s) = 3.54009 3.82223 3.68386
# Velocity P-wave (km/s) = 5.52886 6.38578 5.97271
#
# Compressibility (1/GPa) = 0.04236686
#
# Stress axis : x y z
#
# Youngs Moduli (GPa) = 23.01678 78.90118 66.97284
#
# Poissons Ratio (x) = 0.21449 0.47539
# Poissons Ratio (y) = 0.06257 0.30311
# Poissons Ratio (z) = 0.16338 0.35710
#
# Static dielectric constant tensor:
#      x y z
#    x 2.968840 0.000000 0.000000 
#    y 0.000000 3.984280 0.000000 
#    z 0.000000 0.000000 3.326320 
# 
# 
# High freq. dielectric constant tensor:
#      x y z
#    x 1.607990 0.000000 0.000000 
#    y 0.000000 1.668510 0.000000 
#    z 0.000000 0.000000 1.674030 
# 
# From -- ./inp_files/8298.got.cif
#   From: 2010.03.12/outbox.cif.g09.slc.cpg/sg57_5_cif.got.tgz:8298.got - 2010.04.16 15:48:40.
