data_PCOD8230972
_publ_section_title
;
Structure prediction by ZEFSAII (Michael W. Deem and Ramdas Pophale) SiO2 
 PCOD8230972
Probable space group: P B C M
;
_chemical_formula_sum "Si O2"
_cell_formula_units_Z 56
_cell_length_a 19.428224
_cell_length_b 17.839494
_cell_length_c 9.014014
_cell_angle_alpha 90.000000
_cell_angle_beta 90.000000
_cell_angle_gamma 90.000000
_cell_volume 3124.164277
_symmetry_space_group_name_H-M "P B C M"
_symmetry_group_IT_number 57
_symmetry_cell_setting 'orthorhombic'
loop_
_space_group_symop_operation_xyz
x,y,z
-x,-y,1/2+z
x,1/2-y,-z
-x,1/2+y,1/2-z
-x,-y,-z
x,y,1/2-z
-x,1/2+y,z
x,1/2-y,1/2+z
loop_
_atom_site_type_symbol
_atom_site_label
_atom_site_fract_x
_atom_site_fract_y
_atom_site_fract_z
Si Si1 0.962323 0.432347 0.577923
Si Si2 0.291595 0.516351 0.577130
Si Si3 0.563492 0.534531 0.416374
Si Si4 0.655774 0.326845 0.424405
Si Si5 0.484611 0.677632 0.418012
Si Si6 0.841691 0.534609 0.919263
Si Si7 0.058719 0.329068 0.073420
O O1 0.983756 0.426347 0.750000
O O2 0.882078 0.455057 0.562012
O O3 0.000000 0.500000 0.500000
O O4 0.984445 0.355769 0.493581
O O5 0.288080 0.499506 0.750000
O O6 0.362678 0.482701 0.509639
O O7 0.290141 0.605921 0.544397
O O8 0.228484 0.471820 0.508107
O O9 0.500000 0.500000 0.500000
O O10 0.563877 0.501361 0.250000
O O11 0.549684 0.622912 0.418099
O O12 0.682467 0.250000 0.500000
O O13 0.646917 0.313411 0.250000
O O14 0.582422 0.352226 0.493018
O O15 0.513571 0.750000 0.500000
O O16 0.460810 0.695349 0.250000
O O17 0.822066 0.547819 0.750000
O O18 0.885412 0.607417 0.972807
O O19 0.052220 0.320520 0.250000
O O20 0.079803 0.250000 0.000000
#
# Coordination Sequence:
#
# PCOD8230972 Si02
#       7
#     8   8   8   8   8   8   8
#     4   9  17  32  54  80 108 138 175 218 259 309
#     4  10  21  35  52  75 105 141 179 221 270 323
#     4  10  20  34  51  74 100 131 174 223 271 320
#     4  10  19  32  50  72  98 127 165 213 264 319
#     4  10  19  31  50  72  96 127 163 211 269 319
#     4   9  20  36  54  79 110 143 181 219 261 317
#     4  10  20  35  57  86 114 144 182 222 266 316
#
# _framework density 17.924793999999999
#
# number of rings (size 3 to 8) (size 9 to 14) (size 15 to 20)
#    0.000    2.286    1.429    3.429    0.000    5.714 
#    0.000    1.429    0.000    5.143    0.000    0.000 
#    0.000    0.000    0.000    0.000    0.000    0.000 
#
# Total GULP energy -693941.642141 kJ/mol
# GULP energy per Si atom -12391.815038 kJ/mol
# Density = 1.788400 g / cm^3
# Si number density = 17.924794 Si / 1000 Ang^3
#
#
#
# Elastic Constant Matrix: (Units=GPa)
#
#
# Indices 1 2 3 4 5 6 
#
# 1 100.5131 53.3850 46.9282 0.0000 0.0000 0.0000
# 2 53.3850 102.6985 47.1508 0.0000 0.0000 0.0000
# 3 46.9282 47.1508 99.8166 0.0000 0.0000 0.0000
# 4 0.0000 0.0000 0.0000 30.2253 0.0000 0.0000
# 5 0.0000 0.0000 0.0000 0.0000 29.7849 0.0000
# 6 0.0000 0.0000 0.0000 0.0000 0.0000 24.3343
#
#
#
# Elastic Compliance Matrix: (Units=1/GPa)
#
#
# Indices 1 2 3 4 5 6 
#
# 1 0.015075 -0.005852 -0.004323 0.000000 0.000000 0.000000
# 2 -0.005852 0.014705 -0.004195 0.000000 0.000000 0.000000
# 3 -0.004323 -0.004195 0.014033 0.000000 0.000000 0.000000
# 4 0.000000 0.000000 0.000000 0.033085 0.000000 0.000000
# 5 0.000000 0.000000 0.000000 0.000000 0.033574 0.000000
# 6 0.000000 0.000000 0.000000 0.000000 0.000000 0.041094
#
#
# Mechanical properties :
#
#
# Convention : Reuss Voigt Hill
#
# Bulk Modulus (GPa) = 66.34502 66.43958 66.39230
# Shear Modulus (GPa) = 26.97871 27.23986 27.10929
#
# Velocity S-wave (km/s) = 3.88378 3.90253 3.89317
# Velocity P-wave (km/s) = 7.56340 7.57974 7.57158
#
# Compressibility (1/GPa) = 0.01507272
#
# Stress axis : x y z
#
# Youngs Moduli (GPa) = 66.33309 68.00349 71.26179
#
# Poissons Ratio (x) = 0.39793 0.30810
# Poissons Ratio (y) = 0.38815 0.29896
# Poissons Ratio (z) = 0.28679 0.28529
#
# Static dielectric constant tensor:
#      x y z
#    x 3.280500 0.000000 0.000000 
#    y 0.000000 3.561090 0.000000 
#    z 0.000000 0.000000 3.399640 
# 
# 
# High freq. dielectric constant tensor:
#      x y z
#    x 1.667970 0.000000 0.000000 
#    y 0.000000 1.693390 0.000000 
#    z 0.000000 0.000000 1.703210 
# 
# From -- ./inp_files/8311.got.cif
#   From: 2010.03.12/outbox.cif.g09.slc.cpg/sg57_5_cif.got.tgz:8311.got - 2010.04.16 15:48:40.
