data_PCOD8230845
_publ_section_title
;
Structure prediction by ZEFSAII (Michael W. Deem and Ramdas Pophale) SiO2 
 PCOD8230845
Probable space group: P B C M
;
_chemical_formula_sum "Si O2"
_cell_formula_units_Z 64
_cell_length_a 16.809901
_cell_length_b 23.758129
_cell_length_c 9.264811
_cell_angle_alpha 90.000000
_cell_angle_beta 90.000000
_cell_angle_gamma 90.000000
_cell_volume 3700.104213
_symmetry_space_group_name_H-M "P B C M"
_symmetry_group_IT_number 57
_symmetry_cell_setting 'orthorhombic'
loop_
_space_group_symop_operation_xyz
x,y,z
-x,-y,1/2+z
x,1/2-y,-z
-x,1/2+y,1/2-z
-x,-y,-z
x,y,1/2-z
-x,1/2+y,z
x,1/2-y,1/2+z
loop_
_atom_site_type_symbol
_atom_site_label
_atom_site_fract_x
_atom_site_fract_y
_atom_site_fract_z
Si Si1 0.579666 0.809411 0.080438
Si Si2 0.033849 0.103213 0.079913
Si Si3 0.814309 0.969577 0.914552
Si Si4 0.234663 0.691217 0.918817
Si Si5 0.874661 0.693016 0.583704
Si Si6 0.278133 0.115459 0.913690
Si Si7 0.125021 0.910775 0.418400
Si Si8 0.592473 0.306354 0.085299
O O1 0.595044 0.798233 0.250000
O O2 0.643765 0.854206 0.020489
O O3 0.491613 0.837807 0.052896
O O4 0.589638 0.750000 0.000000
O O5 0.026438 0.114946 0.250000
O O6 0.100354 0.056768 0.043724
O O7 0.951452 0.080252 0.017679
O O8 0.053803 0.160902 0.996516
O O9 0.794880 0.955934 0.750000
O O10 0.817075 0.036115 0.944793
O O11 0.742071 0.942118 0.003404
O O12 0.224863 0.703572 0.750000
O O13 0.170763 0.645284 0.969725
O O14 0.322922 0.664091 0.952401
O O15 0.219864 0.750000 0.000000
O O16 0.858644 0.750000 0.500000
O O17 0.898542 0.704018 0.750000
O O18 0.794263 0.658218 0.571618
O O19 0.294206 0.097868 0.750000
O O20 0.100126 0.907906 0.250000
O O21 0.593805 0.288200 0.250000
O O22 0.589100 0.250000 0.000000
#
# Coordination Sequence:
#
# PCOD8230845 Si02
#       8
#     8   8   8   8   8   8   8   8
#     4   9  16  26  43  69  97 123 153 187 223 266
#     4  10  20  33  49  69  90 116 153 194 235 276
#     4   9  19  34  50  67  89 119 155 193 231 273
#     4   9  18  32  50  71  95 121 148 182 226 274
#     4  10  19  31  46  65  93 126 155 185 225 272
#     4   9  18  30  45  67  94 123 154 189 227 266
#     4  10  20  34  51  70  91 117 152 193 234 275
#     4   8  14  26  44  66  92 121 150 181 220 265
#
# _framework density 17.296810000000001
#
# number of rings (size 3 to 8) (size 9 to 14) (size 15 to 20)
#    0.000    2.750    0.000    1.500    0.000    3.000 
#    0.000    1.250    0.000    0.750    0.000    0.000 
#    0.000    0.000    0.000    0.000    0.000    0.000 
#
# Total GULP energy -793103.467609 kJ/mol
# GULP energy per Si atom -12392.241681 kJ/mol
# Density = 1.725744 g / cm^3
# Si number density = 17.296810 Si / 1000 Ang^3
#
#
#
# Elastic Constant Matrix: (Units=GPa)
#
#
# Indices 1 2 3 4 5 6 
#
# 1 79.6994 33.0168 29.3924 0.0000 0.0000 0.0000
# 2 33.0168 78.5383 32.7557 0.0000 0.0000 0.0000
# 3 29.3924 32.7557 59.5491 0.0000 0.0000 0.0000
# 4 0.0000 0.0000 0.0000 25.6142 0.0000 0.0000
# 5 0.0000 0.0000 0.0000 0.0000 20.8532 0.0000
# 6 0.0000 0.0000 0.0000 0.0000 0.0000 16.9068
#
#
#
# Elastic Compliance Matrix: (Units=1/GPa)
#
#
# Indices 1 2 3 4 5 6 
#
# 1 0.016529 -0.004602 -0.005627 0.000000 0.000000 0.000000
# 2 -0.004602 0.017804 -0.007522 0.000000 0.000000 0.000000
# 3 -0.005627 -0.007522 0.023708 0.000000 0.000000 0.000000
# 4 0.000000 0.000000 0.000000 0.039041 0.000000 0.000000
# 5 0.000000 0.000000 0.000000 0.000000 0.047954 0.000000
# 6 0.000000 0.000000 0.000000 0.000000 0.000000 0.059148
#
#
# Mechanical properties :
#
#
# Convention : Reuss Voigt Hill
#
# Bulk Modulus (GPa) = 44.36722 45.34628 44.85675
# Shear Modulus (GPa) = 20.22663 20.84963 20.53813
#
# Velocity S-wave (km/s) = 3.42334 3.47566 3.44960
# Velocity P-wave (km/s) = 6.42899 6.51002 6.46963
#
# Compressibility (1/GPa) = 0.02253916
#
# Stress axis : x y z
#
# Youngs Moduli (GPa) = 60.50095 56.16585 42.17989
#
# Poissons Ratio (x) = 0.25846 0.23735
# Poissons Ratio (y) = 0.27840 0.31729
# Poissons Ratio (z) = 0.34044 0.42249
#
# Static dielectric constant tensor:
#      x y z
#    x 3.746010 0.000000 0.000000 
#    y 0.000000 3.018750 0.000000 
#    z 0.000000 0.000000 3.258460 
# 
# 
# High freq. dielectric constant tensor:
#      x y z
#    x 1.669940 0.000000 0.000000 
#    y 0.000000 1.641130 0.000000 
#    z 0.000000 0.000000 1.669960 
# 
# From -- ./inp_files/7412.got.cif
#   From: 2010.03.12/outbox.cif.g09.slc.cpg/sg57_4_cif.got.tgz:7412.got - 2010.04.16 15:48:40.
