data_PCOD8230979
_publ_section_title
;
Structure prediction by ZEFSAII (Michael W. Deem and Ramdas Pophale) SiO2 
 PCOD8230979
Probable space group: P B C M
;
_chemical_formula_sum "Si O2"
_cell_formula_units_Z 64
_cell_length_a 18.973972
_cell_length_b 23.101502
_cell_length_c 8.796860
_cell_angle_alpha 90.000000
_cell_angle_beta 90.000000
_cell_angle_gamma 90.000000
_cell_volume 3855.903471
_symmetry_space_group_name_H-M "P B C M"
_symmetry_group_IT_number 57
_symmetry_cell_setting 'orthorhombic'
loop_
_space_group_symop_operation_xyz
x,y,z
-x,-y,1/2+z
x,1/2-y,-z
-x,1/2+y,1/2-z
-x,-y,-z
x,y,1/2-z
-x,1/2+y,z
x,1/2-y,1/2+z
loop_
_atom_site_type_symbol
_atom_site_label
_atom_site_fract_x
_atom_site_fract_y
_atom_site_fract_z
Si Si1 0.100006 0.474924 0.425778
Si Si2 0.615542 0.309898 0.070636
Si Si3 0.518741 0.084080 0.573089
Si Si4 0.394943 0.472975 0.928257
Si Si5 0.246997 0.636172 0.430986
Si Si6 0.744839 0.004606 0.071890
Si Si7 0.981168 0.091378 0.426180
Si Si8 0.893868 0.311961 0.070043
O O1 0.086844 0.460022 0.250000
O O2 0.182148 0.472908 0.469220
O O3 0.060012 0.427504 0.527179
O O4 0.072407 0.539229 0.461776
O O5 0.629634 0.305337 0.250000
O O6 0.553701 0.354975 0.033065
O O7 0.588906 0.250000 0.000000
O O8 0.686956 0.327320 0.987304
O O9 0.503520 0.076809 0.750000
O O10 0.444076 0.079375 0.487025
O O11 0.571542 0.033733 0.516431
O O12 0.388655 0.468980 0.750000
O O13 0.316909 0.467497 0.995708
O O14 0.240781 0.639149 0.250000
O O15 0.254490 0.570376 0.489976
O O16 0.178029 0.664039 0.501404
O O17 0.731938 0.005777 0.250000
O O18 0.979705 0.108733 0.250000
O O19 0.958153 0.145956 0.526143
O O20 0.886911 0.307089 0.250000
O O21 0.911397 0.250000 0.000000
#
# Coordination Sequence:
#
# PCOD8230979 Si02
#       8
#     8   8   8   8   8   8   8   8
#     4   9  18  33  51  74 102 134 169 205 252 304
#     4  11  22  36  51  72 100 135 175 212 249 298
#     4   9  19  34  49  69  98 131 167 207 252 299
#     4  10  19  31  50  74  99 127 167 209 252 302
#     4  11  21  35  51  72 102 138 176 212 247 293
#     4  10  19  32  51  74 104 137 168 204 250 302
#     4  10  19  34  52  75 102 131 170 212 254 299
#     4  12  24  37  53  72 100 138 177 216 254 298
#
# _framework density 16.597926999999999
#
# number of rings (size 3 to 8) (size 9 to 14) (size 15 to 20)
#    0.000    1.750    2.500    3.000    0.000    3.000 
#    0.000    0.000    0.000    0.000    0.000    0.875 
#    0.000    4.000    0.000    0.000    0.000    0.000 
#
# Total GULP energy -793835.899624 kJ/mol
# GULP energy per Si atom -12403.685932 kJ/mol
# Density = 1.656015 g / cm^3
# Si number density = 16.597927 Si / 1000 Ang^3
#
#
#
# Elastic Constant Matrix: (Units=GPa)
#
#
# Indices 1 2 3 4 5 6 
#
# 1 116.6298 53.3399 46.0919 0.0000 0.0000 0.0000
# 2 53.3399 80.4191 39.8249 0.0000 0.0000 0.0000
# 3 46.0919 39.8249 74.3092 0.0000 0.0000 0.0000
# 4 0.0000 0.0000 0.0000 25.1096 0.0000 0.0000
# 5 0.0000 0.0000 0.0000 0.0000 26.1573 0.0000
# 6 0.0000 0.0000 0.0000 0.0000 0.0000 22.0845
#
#
#
# Elastic Compliance Matrix: (Units=1/GPa)
#
#
# Indices 1 2 3 4 5 6 
#
# 1 0.013485 -0.006537 -0.004861 0.000000 0.000000 0.000000
# 2 -0.006537 0.020096 -0.006716 0.000000 0.000000 0.000000
# 3 -0.004861 -0.006716 0.020072 0.000000 0.000000 0.000000
# 4 0.000000 0.000000 0.000000 0.039825 0.000000 0.000000
# 5 0.000000 0.000000 0.000000 0.000000 0.038230 0.000000
# 6 0.000000 0.000000 0.000000 0.000000 0.000000 0.045281
#
#
# Mechanical properties :
#
#
# Convention : Reuss Voigt Hill
#
# Bulk Modulus (GPa) = 57.38645 61.09684 59.24164
# Shear Modulus (GPa) = 22.82853 23.47706 23.15280
#
# Velocity S-wave (km/s) = 3.71264 3.76501 3.73892
# Velocity P-wave (km/s) = 7.28202 7.46928 7.37625
#
# Compressibility (1/GPa) = 0.01742572
#
# Stress axis : x y z
#
# Youngs Moduli (GPa) = 74.15783 49.76030 49.82184
#
# Poissons Ratio (x) = 0.32528 0.24218
# Poissons Ratio (y) = 0.48476 0.33459
# Poissons Ratio (z) = 0.36047 0.33417
#
# Static dielectric constant tensor:
#      x y z
#    x 3.155000 0.000000 0.000000 
#    y 0.000000 3.042690 0.000000 
#    z 0.000000 0.000000 3.167250 
# 
# 
# High freq. dielectric constant tensor:
#      x y z
#    x 1.635350 0.000000 0.000000 
#    y 0.000000 1.613620 0.000000 
#    z 0.000000 0.000000 1.649970 
# 
# From -- ./inp_files/7273.got.cif
#   From: 2010.03.12/outbox.cif.g09.slc.cpg/sg57_4_cif.got.tgz:7273.got - 2010.04.16 15:48:40.
