data_PCOD8230495
_publ_section_title
;
Structure prediction by ZEFSAII (Michael W. Deem and Ramdas Pophale) SiO2 
 PCOD8230495
Probable space group: P B C M
;
_chemical_formula_sum "Si O2"
_cell_formula_units_Z 64
_cell_length_a 21.705146
_cell_length_b 17.919399
_cell_length_c 8.784252
_cell_angle_alpha 90.000000
_cell_angle_beta 90.000000
_cell_angle_gamma 90.000000
_cell_volume 3416.574832
_symmetry_space_group_name_H-M "P B C M"
_symmetry_group_IT_number 57
_symmetry_cell_setting 'orthorhombic'
loop_
_space_group_symop_operation_xyz
x,y,z
-x,-y,1/2+z
x,1/2-y,-z
-x,1/2+y,1/2-z
-x,-y,-z
x,y,1/2-z
-x,1/2+y,z
x,1/2-y,1/2+z
loop_
_atom_site_type_symbol
_atom_site_label
_atom_site_fract_x
_atom_site_fract_y
_atom_site_fract_z
Si Si1 0.390152 0.413266 0.568545
Si Si2 0.759614 0.396002 0.072152
Si Si3 0.062716 0.975170 0.925968
Si Si4 0.723928 0.671382 0.572882
Si Si5 0.189618 0.037908 0.575829
Si Si6 0.376025 0.918513 0.429628
Si Si7 0.505064 0.331254 0.068703
Si Si8 0.873217 0.173876 0.070635
O O1 0.395171 0.408408 0.750000
O O2 0.333743 0.362950 0.514207
O O3 0.381310 0.497358 0.506328
O O4 0.452087 0.384306 0.492664
O O5 0.769541 0.381903 0.250000
O O6 0.688978 0.381823 0.021630
O O7 0.774933 0.481923 0.035371
O O8 0.802693 0.339071 0.980504
O O9 0.048929 0.967551 0.750000
O O10 0.085006 0.894678 0.989505
O O11 0.116368 0.035946 0.959731
O O12 0.000000 0.000000 0.000000
O O13 0.741235 0.750000 0.500000
O O14 0.707041 0.680296 0.750000
O O15 0.784548 0.620548 0.549735
O O16 0.200283 0.010786 0.750000
O O17 0.379940 0.924984 0.250000
O O18 0.430562 0.865985 0.490905
O O19 0.501947 0.326671 0.250000
O O20 0.496588 0.250000 0.000000
O O21 0.875026 0.180043 0.250000
O O22 0.899471 0.250000 0.000000
#
# Coordination Sequence:
#
# PCOD8230495 Si02
#       8
#     8   8   8   8   8   8   8   8
#     4  11  21  38  59  81 106 138 182 232 278 332
#     4  10  18  33  57  84 111 143 178 224 279 332
#     4   9  19  36  58  84 114 148 188 229 271 322
#     4  11  22  36  56  82 111 145 182 227 280 332
#     4   9  19  36  55  79 112 145 182 227 269 323
#     4   9  20  36  57  82 109 138 180 229 275 331
#     4  11  23  40  55  75 106 143 182 226 278 333
#     4  10  21  37  56  84 118 152 190 234 276 327
#
# _framework density 18.732209999999998
#
# number of rings (size 3 to 8) (size 9 to 14) (size 15 to 20)
#    0.000    2.000    1.250    3.375    0.000    3.500 
#    0.000    6.250    0.000    3.000    0.000    0.000 
#    0.000    0.000    0.000    0.000    0.000    0.000 
#
# Total GULP energy -793629.986206 kJ/mol
# GULP energy per Si atom -12400.468534 kJ/mol
# Density = 1.868957 g / cm^3
# Si number density = 18.732210 Si / 1000 Ang^3
#
#
#
# Elastic Constant Matrix: (Units=GPa)
#
#
# Indices 1 2 3 4 5 6 
#
# 1 137.3918 37.3584 34.5835 0.0000 0.0000 0.0000
# 2 37.3584 73.9875 25.2631 0.0000 0.0000 0.0000
# 3 34.5835 25.2631 64.4859 0.0000 0.0000 0.0000
# 4 0.0000 0.0000 0.0000 24.1413 0.0000 0.0000
# 5 0.0000 0.0000 0.0000 0.0000 27.8869 0.0000
# 6 0.0000 0.0000 0.0000 0.0000 0.0000 24.2953
#
#
#
# Elastic Compliance Matrix: (Units=1/GPa)
#
#
# Indices 1 2 3 4 5 6 
#
# 1 0.009091 -0.003377 -0.003552 0.000000 0.000000 0.000000
# 2 -0.003377 0.016858 -0.004793 0.000000 0.000000 0.000000
# 3 -0.003552 -0.004793 0.019290 0.000000 0.000000 0.000000
# 4 0.000000 0.000000 0.000000 0.041423 0.000000 0.000000
# 5 0.000000 0.000000 0.000000 0.000000 0.035859 0.000000
# 6 0.000000 0.000000 0.000000 0.000000 0.000000 0.041160
#
#
# Mechanical properties :
#
#
# Convention : Reuss Voigt Hill
#
# Bulk Modulus (GPa) = 45.88532 52.25282 49.06907
# Shear Modulus (GPa) = 25.72140 27.17536 26.44838
#
# Velocity S-wave (km/s) = 3.70957 3.81298 3.76163
# Velocity P-wave (km/s) = 6.54954 6.88042 6.71702
#
# Compressibility (1/GPa) = 0.02179346
#
# Stress axis : x y z
#
# Youngs Moduli (GPa) = 109.99924 59.32020 51.84014
#
# Poissons Ratio (x) = 0.20034 0.18415
# Poissons Ratio (y) = 0.37151 0.24847
# Poissons Ratio (z) = 0.39075 0.28432
#
# Static dielectric constant tensor:
#      x y z
#    x 3.609860 0.000000 0.000000 
#    y 0.000000 3.558130 0.000000 
#    z 0.000000 0.000000 3.431280 
# 
# 
# High freq. dielectric constant tensor:
#      x y z
#    x 1.727640 0.000000 0.000000 
#    y 0.000000 1.726610 0.000000 
#    z 0.000000 0.000000 1.725520 
# 
# From -- ./inp_files/8410.got.cif
#   From: 2010.03.12/outbox.cif.g09.slc.cpg/sg57_5_cif.got.tgz:8410.got - 2010.04.16 15:48:40.
