data_PCOD8230286
_publ_section_title
;
Structure prediction by ZEFSAII (Michael W. Deem and Ramdas Pophale) SiO2 
 PCOD8230286
Probable space group: P B C M
;
_chemical_formula_sum "Si O2"
_cell_formula_units_Z 32
_cell_length_a 9.460754
_cell_length_b 23.384614
_cell_length_c 8.817945
_cell_angle_alpha 90.000000
_cell_angle_beta 90.000000
_cell_angle_gamma 90.000000
_cell_volume 1950.847589
_symmetry_space_group_name_H-M "P B C M"
_symmetry_group_IT_number 57
_symmetry_cell_setting 'orthorhombic'
loop_
_space_group_symop_operation_xyz
x,y,z
-x,-y,1/2+z
x,1/2-y,-z
-x,1/2+y,1/2-z
-x,-y,-z
x,y,1/2-z
-x,1/2+y,z
x,1/2-y,1/2+z
loop_
_atom_site_type_symbol
_atom_site_label
_atom_site_fract_x
_atom_site_fract_y
_atom_site_fract_z
Si Si1 0.484252 0.310971 0.071345
Si Si2 0.357696 0.410969 0.921294
Si Si3 0.333670 0.897571 0.921321
Si Si4 0.848259 0.490241 0.429900
O O1 0.496516 0.305585 0.250000
O O2 0.452386 0.250000 0.000000
O O3 0.354253 0.353482 0.024821
O O4 0.631222 0.336828 0.003096
O O5 0.312330 0.394630 0.750000
O O6 0.520028 0.434542 0.921249
O O7 0.253339 0.458773 0.988081
O O8 0.281039 0.886130 0.750000
O O9 0.211918 0.930095 0.012128
O O10 0.856904 0.488557 0.250000
O O11 0.000000 0.500000 0.500000
#
# Coordination Sequence:
#
# PCOD8230286 Si02
#       4
#     8   8   8   8
#     4  10  18  30  51  76 100 126 162 206 248 290
#     4   8  18  33  50  72 100 130 165 204 244 290
#     4   9  18  33  51  73 100 129 165 206 246 290
#     4  11  21  33  49  73 104 136 166 201 247 297
#
# _framework density 16.403124999999999
#
# number of rings (size 3 to 8) (size 9 to 14) (size 15 to 20)
#    1.500    1.000    0.000    3.750    0.000    2.000 
#    0.000    0.000    0.000    1.500    0.000    3.500 
#    0.000    0.000    0.000    0.000    0.000    0.000 
#
# Total GULP energy -396448.537286 kJ/mol
# GULP energy per Si atom -12389.016790 kJ/mol
# Density = 1.636579 g / cm^3
# Si number density = 16.403125 Si / 1000 Ang^3
#
#
#
# Elastic Constant Matrix: (Units=GPa)
#
#
# Indices 1 2 3 4 5 6 
#
# 1 52.7037 12.3759 20.2286 0.0000 0.0000 0.0000
# 2 12.3759 66.5098 36.0771 0.0000 0.0000 0.0000
# 3 20.2286 36.0771 112.7659 0.0000 0.0000 0.0000
# 4 0.0000 0.0000 0.0000 26.4837 0.0000 0.0000
# 5 0.0000 0.0000 0.0000 0.0000 25.4798 0.0000
# 6 0.0000 0.0000 0.0000 0.0000 0.0000 8.6283
#
#
#
# Elastic Compliance Matrix: (Units=1/GPa)
#
#
# Indices 1 2 3 4 5 6 
#
# 1 0.020644 -0.002217 -0.002994 0.000000 0.000000 0.000000
# 2 -0.002217 0.018431 -0.005499 0.000000 0.000000 0.000000
# 3 -0.002994 -0.005499 0.011164 0.000000 0.000000 0.000000
# 4 0.000000 0.000000 0.000000 0.037759 0.000000 0.000000
# 5 0.000000 0.000000 0.000000 0.000000 0.039247 0.000000
# 6 0.000000 0.000000 0.000000 0.000000 0.000000 0.115898
#
#
# Mechanical properties :
#
#
# Convention : Reuss Voigt Hill
#
# Bulk Modulus (GPa) = 34.69959 41.03807 37.86883
# Shear Modulus (GPa) = 18.23698 23.00487 20.62093
#
# Velocity S-wave (km/s) = 3.33798 3.74902 3.54946
# Velocity P-wave (km/s) = 6.00469 6.61913 6.31939
#
# Compressibility (1/GPa) = 0.02881878
#
# Stress axis : x y z
#
# Youngs Moduli (GPa) = 48.44079 54.25742 89.57223
#
# Poissons Ratio (x) = 0.12031 0.26816
# Poissons Ratio (y) = 0.10741 0.49253
# Poissons Ratio (z) = 0.14502 0.29835
#
# Static dielectric constant tensor:
#      x y z
#    x 2.821760 0.000000 0.000000 
#    y 0.000000 2.874610 0.000000 
#    z 0.000000 0.000000 3.121380 
# 
# 
# High freq. dielectric constant tensor:
#      x y z
#    x 1.594790 0.000000 0.000000 
#    y 0.000000 1.616920 0.000000 
#    z 0.000000 0.000000 1.646150 
# 
# From -- ./inp_files/1427.got.cif
#   From: 2010.03.12/outbox.cif.g09.slc.cpg/sg57_1_cif.got.tgz:1427.got - 2010.04.16 15:48:40.
