data_PCOD8230984
_publ_section_title
;
Structure prediction by ZEFSAII (Michael W. Deem and Ramdas Pophale) SiO2 
 PCOD8230984
Probable space group: P B C M
;
_chemical_formula_sum "Si O2"
_cell_formula_units_Z 64
_cell_length_a 14.740161
_cell_length_b 29.703248
_cell_length_c 8.739957
_cell_angle_alpha 90.000000
_cell_angle_beta 90.000000
_cell_angle_gamma 90.000000
_cell_volume 3826.621122
_symmetry_space_group_name_H-M "P B C M"
_symmetry_group_IT_number 57
_symmetry_cell_setting 'orthorhombic'
loop_
_space_group_symop_operation_xyz
x,y,z
-x,-y,1/2+z
x,1/2-y,-z
-x,1/2+y,1/2-z
-x,-y,-z
x,y,1/2-z
-x,1/2+y,z
x,1/2-y,1/2+z
loop_
_atom_site_type_symbol
_atom_site_label
_atom_site_fract_x
_atom_site_fract_y
_atom_site_fract_z
Si Si1 0.625130 0.023749 0.074226
Si Si2 0.788785 0.705128 0.569886
Si Si3 0.005810 0.204729 0.570551
Si Si4 0.169130 0.536285 0.428593
Si Si5 0.133344 0.057499 0.069277
Si Si6 0.441965 0.435249 0.924487
Si Si7 0.291086 0.112378 0.571046
Si Si8 0.038765 0.605980 0.931006
O O1 0.619493 0.006422 0.250000
O O2 0.724354 0.042868 0.036891
O O3 0.550462 0.063038 0.046524
O O4 0.602990 0.983244 0.961179
O O5 0.743834 0.750000 0.500000
O O6 0.786052 0.708892 0.750000
O O7 0.891370 0.699802 0.508646
O O8 0.731695 0.662335 0.513113
O O9 0.960385 0.250000 0.500000
O O10 0.005781 0.211105 0.750000
O O11 0.953548 0.158953 0.524560
O O12 0.150066 0.528673 0.250000
O O13 0.126193 0.494454 0.519586
O O14 0.121345 0.581628 0.484927
O O15 0.119778 0.061139 0.250000
O O16 0.231168 0.075878 0.019000
O O17 0.057155 0.086585 0.985369
O O18 0.420192 0.423208 0.750000
O O19 0.396319 0.397239 0.031459
O O20 0.271602 0.106641 0.750000
O O21 0.045690 0.599189 0.750000
#
# Coordination Sequence:
#
# PCOD8230984 Si02
#       8
#     8   8   8   8   8   8   8   8
#     4   9  19  34  50  69  99 131 162 206 250 286
#     4   9  18  32  49  70  97 129 162 198 245 295
#     4   9  18  33  51  71  96 127 161 203 248 292
#     4  11  22  36  52  71  99 136 172 209 251 292
#     4  12  23  34  49  72  99 135 176 209 239 289
#     4  10  19  31  50  75  97 126 167 203 242 293
#     4  11  20  33  50  72 103 136 164 201 251 297
#     4  11  22  37  52  71 101 135 168 206 250 296
#
# _framework density 16.724938000000002
#
# number of rings (size 3 to 8) (size 9 to 14) (size 15 to 20)
#    0.000    1.750    2.500    3.000    0.000    3.000 
#    0.000    0.000    0.000    0.000    0.000    0.875 
#    0.000    0.000    0.000    0.000    0.000    0.000 
#
# Total GULP energy -793619.621854 kJ/mol
# GULP energy per Si atom -12400.306591 kJ/mol
# Density = 1.668687 g / cm^3
# Si number density = 16.724938 Si / 1000 Ang^3
#
#
#
# Elastic Constant Matrix: (Units=GPa)
#
#
# Indices 1 2 3 4 5 6 
#
# 1 67.0556 33.6880 16.5128 0.0000 0.0000 0.0000
# 2 33.6880 112.8452 20.1626 0.0000 0.0000 0.0000
# 3 16.5128 20.1626 37.0066 0.0000 0.0000 0.0000
# 4 0.0000 0.0000 0.0000 28.6323 0.0000 0.0000
# 5 0.0000 0.0000 0.0000 0.0000 23.8100 0.0000
# 6 0.0000 0.0000 0.0000 0.0000 0.0000 19.7694
#
#
#
# Elastic Compliance Matrix: (Units=1/GPa)
#
#
# Indices 1 2 3 4 5 6 
#
# 1 0.018621 -0.004514 -0.005850 0.000000 0.000000 0.000000
# 2 -0.004514 0.010912 -0.003931 0.000000 0.000000 0.000000
# 3 -0.005850 -0.003931 0.031774 0.000000 0.000000 0.000000
# 4 0.000000 0.000000 0.000000 0.034926 0.000000 0.000000
# 5 0.000000 0.000000 0.000000 0.000000 0.041999 0.000000
# 6 0.000000 0.000000 0.000000 0.000000 0.000000 0.050583
#
#
# Mechanical properties :
#
#
# Convention : Reuss Voigt Hill
#
# Bulk Modulus (GPa) = 30.56420 39.73713 35.15066
# Shear Modulus (GPa) = 21.90007 24.21195 23.05601
#
# Velocity S-wave (km/s) = 3.62253 3.80893 3.71690
# Velocity P-wave (km/s) = 5.98425 6.56923 6.28355
#
# Compressibility (1/GPa) = 0.03271801
#
# Stress axis : x y z
#
# Youngs Moduli (GPa) = 53.70214 91.64574 31.47220
#
# Poissons Ratio (x) = 0.41368 0.18410
# Poissons Ratio (y) = 0.24240 0.12371
# Poissons Ratio (z) = 0.31414 0.36025
#
# Static dielectric constant tensor:
#      x y z
#    x 3.143500 0.000000 0.000000 
#    y 0.000000 3.196440 0.000000 
#    z 0.000000 0.000000 3.175850 
# 
# 
# High freq. dielectric constant tensor:
#      x y z
#    x 1.622930 0.000000 0.000000 
#    y 0.000000 1.631470 0.000000 
#    z 0.000000 0.000000 1.653800 
# 
# From -- ./inp_files/5965.got.cif
#   From: 2010.03.12/outbox.cif.g09.slc.cpg/sg57_3_cif.got.tgz:5965.got - 2010.04.16 15:48:40.
