data_PCOD8230879
_publ_section_title
;
Structure prediction by ZEFSAII (Michael W. Deem and Ramdas Pophale) SiO2 
 PCOD8230879
Probable space group: P B C M
;
_chemical_formula_sum "Si O2"
_cell_formula_units_Z 64
_cell_length_a 16.889433
_cell_length_b 25.735763
_cell_length_c 8.932901
_cell_angle_alpha 90.000000
_cell_angle_beta 90.000000
_cell_angle_gamma 90.000000
_cell_volume 3882.796589
_symmetry_space_group_name_H-M "P B C M"
_symmetry_group_IT_number 57
_symmetry_cell_setting 'orthorhombic'
loop_
_space_group_symop_operation_xyz
x,y,z
-x,-y,1/2+z
x,1/2-y,-z
-x,1/2+y,1/2-z
-x,-y,-z
x,y,1/2-z
-x,1/2+y,z
x,1/2-y,1/2+z
loop_
_atom_site_type_symbol
_atom_site_label
_atom_site_fract_x
_atom_site_fract_y
_atom_site_fract_z
Si Si1 0.908655 0.303957 0.573189
Si Si2 0.817657 0.101792 0.572567
Si Si3 0.915166 0.000544 0.573637
Si Si4 0.184125 0.097203 0.072804
Si Si5 0.909135 0.696865 0.074569
Si Si6 0.337441 0.562632 0.426904
Si Si7 0.507873 0.055084 0.575965
Si Si8 0.666879 0.941830 0.421343
O O1 0.881788 0.250000 0.500000
O O2 0.894182 0.302062 0.750000
O O3 0.855944 0.347936 0.499643
O O4 0.000036 0.315476 0.533527
O O5 0.812071 0.108084 0.750000
O O6 0.870000 0.052482 0.525429
O O7 0.730674 0.095734 0.504815
O O8 0.926200 0.996662 0.750000
O O9 0.865465 0.951773 0.511192
O O10 0.000000 0.000000 0.500000
O O11 0.183671 0.097084 0.250000
O O12 0.144282 0.149906 0.011220
O O13 0.274250 0.093335 0.018058
O O14 0.898309 0.703513 0.250000
O O15 0.879733 0.750000 0.000000
O O16 0.335432 0.570873 0.250000
O O17 0.420883 0.585091 0.491800
O O18 0.328979 0.502079 0.472476
O O19 0.529173 0.048477 0.750000
O O20 0.421613 0.082005 0.556913
O O21 0.500000 0.000000 0.500000
O O22 0.693462 0.938064 0.250000
#
# Coordination Sequence:
#
# PCOD8230879 Si02
#       8
#     8   8   8   8   8   8   8   8
#     4  10  20  36  55  73  97 127 166 214 255 295
#     4  11  21  33  50  73 100 132 167 203 249 298
#     4  10  21  33  46  67  96 131 166 200 242 295
#     4  10  19  32  48  69  97 129 163 201 245 291
#     4   9  19  34  52  71  94 125 165 210 254 292
#     4  10  19  31  47  70  99 132 167 201 244 292
#     4   9  17  29  45  67  96 129 166 201 241 290
#     4   9  18  30  45  69  98 129 163 199 240 289
#
# _framework density 16.482963999999999
#
# number of rings (size 3 to 8) (size 9 to 14) (size 15 to 20)
#    0.000    2.250    1.250    3.000    0.000    6.000 
#    0.000    0.000    0.000    0.000    0.000    0.875 
#    0.000    4.000    0.000    0.000    0.000    0.000 
#
# Total GULP energy -793558.873434 kJ/mol
# GULP energy per Si atom -12399.357397 kJ/mol
# Density = 1.644545 g / cm^3
# Si number density = 16.482964 Si / 1000 Ang^3
#
#
#
# Elastic Constant Matrix: (Units=GPa)
#
#
# Indices 1 2 3 4 5 6 
#
# 1 130.7922 66.4446 48.6441 0.0000 0.0000 0.0000
# 2 66.4446 110.6631 42.5293 0.0000 0.0000 0.0000
# 3 48.6441 42.5293 62.5282 0.0000 0.0000 0.0000
# 4 0.0000 0.0000 0.0000 24.7757 0.0000 0.0000
# 5 0.0000 0.0000 0.0000 0.0000 33.9777 0.0000
# 6 0.0000 0.0000 0.0000 0.0000 0.0000 18.7472
#
#
#
# Elastic Compliance Matrix: (Units=1/GPa)
#
#
# Indices 1 2 3 4 5 6 
#
# 1 0.012605 -0.005144 -0.006307 0.000000 0.000000 0.000000
# 2 -0.005144 0.014334 -0.005747 0.000000 0.000000 0.000000
# 3 -0.006307 -0.005747 0.024808 0.000000 0.000000 0.000000
# 4 0.000000 0.000000 0.000000 0.040362 0.000000 0.000000
# 5 0.000000 0.000000 0.000000 0.000000 0.029431 0.000000
# 6 0.000000 0.000000 0.000000 0.000000 0.000000 0.053341
#
#
# Mechanical properties :
#
#
# Convention : Reuss Voigt Hill
#
# Bulk Modulus (GPa) = 57.63728 68.80217 63.21972
# Shear Modulus (GPa) = 23.24906 25.25783 24.25344
#
# Velocity S-wave (km/s) = 3.75972 3.91878 3.84008
# Velocity P-wave (km/s) = 7.34105 7.89353 7.62230
#
# Compressibility (1/GPa) = 0.01734988
#
# Stress axis : x y z
#
# Youngs Moduli (GPa) = 79.33468 69.76409 40.30884
#
# Poissons Ratio (x) = 0.35889 0.25423
# Poissons Ratio (y) = 0.40813 0.23167
# Poissons Ratio (z) = 0.50036 0.40096
#
# Static dielectric constant tensor:
#      x y z
#    x 3.364400 0.000000 0.000000 
#    y 0.000000 2.970580 0.000000 
#    z 0.000000 0.000000 3.144730 
# 
# 
# High freq. dielectric constant tensor:
#      x y z
#    x 1.641480 0.000000 0.000000 
#    y 0.000000 1.600030 0.000000 
#    z 0.000000 0.000000 1.642560 
# 
# From -- ./inp_files/7131.got.cif
#   From: 2010.03.12/outbox.cif.g09.slc.cpg/sg57_4_cif.got.tgz:7131.got - 2010.04.16 15:48:40.
