data_PCOD8230027
_publ_section_title
;
Structure prediction by ZEFSAII (Michael W. Deem and Ramdas Pophale) SiO2 
 PCOD8230027
Probable space group: P B C M
;
_chemical_formula_sum "Si O2"
_cell_formula_units_Z 64
_cell_length_a 12.047577
_cell_length_b 31.007457
_cell_length_c 8.935022
_cell_angle_alpha 90.000000
_cell_angle_beta 90.000000
_cell_angle_gamma 90.000000
_cell_volume 3337.809043
_symmetry_space_group_name_H-M "P B C M"
_symmetry_group_IT_number 57
_symmetry_cell_setting 'orthorhombic'
loop_
_space_group_symop_operation_xyz
x,y,z
-x,-y,1/2+z
x,1/2-y,-z
-x,1/2+y,1/2-z
-x,-y,-z
x,y,1/2-z
-x,1/2+y,z
x,1/2-y,1/2+z
loop_
_atom_site_type_symbol
_atom_site_label
_atom_site_fract_x
_atom_site_fract_y
_atom_site_fract_z
Si Si1 0.264069 0.205842 0.927852
Si Si2 0.499549 0.326180 0.427195
Si Si3 0.870292 0.376706 0.072353
Si Si4 0.731219 0.547611 0.925022
Si Si5 0.734047 0.206393 0.572950
Si Si6 0.878668 0.624745 0.571964
Si Si7 0.492775 0.575700 0.927946
Si Si8 0.270308 0.549008 0.425372
O O1 0.261882 0.209963 0.750000
O O2 0.388271 0.196275 0.989196
O O3 0.183759 0.167670 0.983681
O O4 0.220454 0.250000 0.000000
O O5 0.494995 0.326696 0.250000
O O6 0.607960 0.300742 0.484268
O O7 0.507146 0.375040 0.483562
O O8 0.863578 0.380961 0.250000
O O9 0.808544 0.333518 0.017760
O O10 0.995782 0.374740 0.011748
O O11 0.812599 0.418413 0.004322
O O12 0.724808 0.557029 0.750000
O O13 0.816355 0.582562 0.994959
O O14 0.606720 0.554403 0.986572
O O15 0.773693 0.499404 0.959156
O O16 0.781202 0.250000 0.500000
O O17 0.739952 0.210895 0.750000
O O18 0.879081 0.623423 0.750000
O O19 0.475994 0.571986 0.750000
O O20 0.393552 0.551420 0.009684
O O21 0.273559 0.558726 0.250000
#
# Coordination Sequence:
#
# PCOD8230027 Si02
#       8
#     8   8   8   8   8   8   8   8
#     4  10  19  33  55  81 107 138 174 218 267 318
#     4   9  16  30  54  78 103 136 175 213 256 313
#     4  10  21  38  58  77 102 143 191 224 254 315
#     4   9  18  33  56  83 109 138 176 222 271 319
#     4  10  20  34  52  77 104 135 175 217 261 312
#     4   9  18  35  58  79 101 140 190 225 255 311
#     4  10  17  33  59  80 105 143 180 215 261 325
#     4  11  22  34  52  83 115 139 171 223 278 319
#
# _framework density 19.174254000000001
#
# number of rings (size 3 to 8) (size 9 to 14) (size 15 to 20)
#    0.000    2.250    2.500    1.125    0.000    1.500 
#    0.000    1.875    0.000    3.000    0.000    0.000 
#    0.000    0.000    0.000    0.000    0.000    0.000 
#
# Total GULP energy -793574.167532 kJ/mol
# GULP energy per Si atom -12399.596368 kJ/mol
# Density = 1.913061 g / cm^3
# Si number density = 19.174254 Si / 1000 Ang^3
#
#
#
# Elastic Constant Matrix: (Units=GPa)
#
#
# Indices 1 2 3 4 5 6 
#
# 1 163.0424 80.1295 23.2999 0.0000 0.0000 0.0000
# 2 80.1295 159.5598 29.0206 0.0000 0.0000 0.0000
# 3 23.2999 29.0206 22.9544 0.0000 0.0000 0.0000
# 4 0.0000 0.0000 0.0000 26.5688 0.0000 0.0000
# 5 0.0000 0.0000 0.0000 0.0000 9.8500 0.0000
# 6 0.0000 0.0000 0.0000 0.0000 0.0000 14.8941
#
#
#
# Elastic Compliance Matrix: (Units=1/GPa)
#
#
# Indices 1 2 3 4 5 6 
#
# 1 0.008439 -0.003480 -0.004166 0.000000 0.000000 0.000000
# 2 -0.003480 0.009574 -0.008571 0.000000 0.000000 0.000000
# 3 -0.004166 -0.008571 0.058630 0.000000 0.000000 0.000000
# 4 0.000000 0.000000 0.000000 0.037638 0.000000 0.000000
# 5 0.000000 0.000000 0.000000 0.000000 0.101522 0.000000
# 6 0.000000 0.000000 0.000000 0.000000 0.000000 0.067141
#
#
# Mechanical properties :
#
#
# Convention : Reuss Voigt Hill
#
# Bulk Modulus (GPa) = 22.62061 67.82853 45.22457
# Shear Modulus (GPa) = 15.14619 24.46969 19.80794
#
# Velocity S-wave (km/s) = 2.81361 3.57623 3.21759
# Velocity P-wave (km/s) = 4.73056 7.24598 6.11892
#
# Compressibility (1/GPa) = 0.04420746
#
# Stress axis : x y z
#
# Youngs Moduli (GPa) = 118.49435 104.44941 17.05612
#
# Poissons Ratio (x) = 0.36352 0.07106
# Poissons Ratio (y) = 0.41240 0.14619
# Poissons Ratio (z) = 0.49366 0.89528
#
# Static dielectric constant tensor:
#      x y z
#    x 3.731930 0.000000 0.000000 
#    y 0.000000 3.637780 0.000000 
#    z 0.000000 0.000000 3.008660 
# 
# 
# High freq. dielectric constant tensor:
#      x y z
#    x 1.748840 0.000000 0.000000 
#    y 0.000000 1.762390 0.000000 
#    z 0.000000 0.000000 1.697620 
# 
# From -- ./inp_files/3915.got.cif
#   From: 2010.03.12/outbox.cif.g09.slc.cpg/sg57_2_cif.got.tgz:3915.got - 2010.04.16 15:48:40.
