data_PCOD8230582
_publ_section_title
;
Structure prediction by ZEFSAII (Michael W. Deem and Ramdas Pophale) SiO2 
 PCOD8230582
Probable space group: P B C M
;
_chemical_formula_sum "Si O2"
_cell_formula_units_Z 32
_cell_length_a 18.798438
_cell_length_b 9.036430
_cell_length_c 9.118760
_cell_angle_alpha 90.000000
_cell_angle_beta 90.000000
_cell_angle_gamma 90.000000
_cell_volume 1549.010774
_symmetry_space_group_name_H-M "P B C M"
_symmetry_group_IT_number 57
_symmetry_cell_setting 'orthorhombic'
loop_
_space_group_symop_operation_xyz
x,y,z
-x,-y,1/2+z
x,1/2-y,-z
-x,1/2+y,1/2-z
-x,-y,-z
x,y,1/2-z
-x,1/2+y,z
x,1/2-y,1/2+z
loop_
_atom_site_type_symbol
_atom_site_label
_atom_site_fract_x
_atom_site_fract_y
_atom_site_fract_z
Si Si1 0.092146 0.988524 0.250000
Si Si2 0.052481 0.646614 0.250000
Si Si3 0.436279 0.090373 0.428464
Si Si4 0.164648 0.920143 0.974349
Si Si5 0.681042 0.093727 0.082456
O O1 0.059100 0.823712 0.250000
O O2 0.145963 0.014598 0.383118
O O3 0.030558 0.110056 0.250000
O O4 0.091980 0.568435 0.116033
O O5 0.441866 0.250000 0.500000
O O6 0.440078 0.094604 0.250000
O O7 0.500000 0.000000 0.500000
O O8 0.362985 0.019132 0.483168
O O9 0.238805 0.975517 0.905591
O O10 0.181250 0.750000 0.000000
O O11 0.651810 0.108856 0.250000
O O12 0.677073 0.250000 0.000000
#
# Coordination Sequence:
#
# PCOD8230582 Si02
#       5
#     4   4   8   8   8
#     4  10  20  32  56  76 113 146 203 248 313 366
#     4  10  18  36  50  82 107 154 193 256 303 372
#     4  12  26  46  70  98 134 170 209 253 306 364
#     4   9  19  33  56  81 113 152 203 251 304 368
#     4  11  22  39  65  95 126 164 214 262 315 373
#
# _framework density 20.658344
#
# number of rings (size 3 to 8) (size 9 to 14) (size 15 to 20)
#    0.000    1.500    1.250    4.500    7.000    0.000 
#    0.000    2.500    0.000    0.000    0.000    0.000 
#    0.000    0.000    0.000    0.000    0.000    0.000 
#
# Total GULP energy -396444.512303 kJ/mol
# GULP energy per Si atom -12388.891009 kJ/mol
# Density = 2.061132 g / cm^3
# Si number density = 20.658344 Si / 1000 Ang^3
#
#
#
# Elastic Constant Matrix: (Units=GPa)
#
#
# Indices 1 2 3 4 5 6 
#
# 1 106.6132 40.9248 33.7839 0.0000 0.0000 0.0000
# 2 40.9248 85.0663 40.1279 0.0000 0.0000 0.0000
# 3 33.7839 40.1279 173.6946 0.0000 0.0000 0.0000
# 4 0.0000 0.0000 0.0000 23.2006 0.0000 0.0000
# 5 0.0000 0.0000 0.0000 0.0000 68.7999 0.0000
# 6 0.0000 0.0000 0.0000 0.0000 0.0000 14.8756
#
#
#
# Elastic Compliance Matrix: (Units=1/GPa)
#
#
# Indices 1 2 3 4 5 6 
#
# 1 0.011686 -0.005106 -0.001093 0.000000 0.000000 0.000000
# 2 -0.005106 0.015425 -0.002570 0.000000 0.000000 0.000000
# 3 -0.001093 -0.002570 0.006564 0.000000 0.000000 0.000000
# 4 0.000000 0.000000 0.000000 0.043102 0.000000 0.000000
# 5 0.000000 0.000000 0.000000 0.000000 0.014535 0.000000
# 6 0.000000 0.000000 0.000000 0.000000 0.000000 0.067224
#
#
# Mechanical properties :
#
#
# Convention : Reuss Voigt Hill
#
# Bulk Modulus (GPa) = 61.97857 66.11637 64.04747
# Shear Modulus (GPa) = 27.55517 38.07774 32.81645
#
# Velocity S-wave (km/s) = 3.65616 4.29792 3.98996
# Velocity P-wave (km/s) = 6.92027 7.53019 7.23166
#
# Compressibility (1/GPa) = 0.01613461
#
# Stress axis : x y z
#
# Youngs Moduli (GPa) = 85.57004 64.83110 152.35364
#
# Poissons Ratio (x) = 0.33106 0.16657
# Poissons Ratio (y) = 0.43696 0.39159
# Poissons Ratio (z) = 0.09355 0.16663
#
# Static dielectric constant tensor:
#      x y z
#    x 3.969530 0.000000 0.000000 
#    y 0.000000 3.698880 0.000000 
#    z 0.000000 0.000000 4.025690 
# 
# 
# High freq. dielectric constant tensor:
#      x y z
#    x 1.823770 0.000000 0.000000 
#    y 0.000000 1.772240 0.000000 
#    z 0.000000 0.000000 1.829010 
# 
# From -- ./inp_files/7555.got.cif
#   From: 2010.03.12/outbox.cif.g09.slc.cpg/sg57_4_cif.got.tgz:7555.got - 2010.04.16 15:48:40.
