data_PCOD8230869
_publ_section_title
;
Structure prediction by ZEFSAII (Michael W. Deem and Ramdas Pophale) SiO2 
 PCOD8230869
Probable space group: P B C M
;
_chemical_formula_sum "Si O2"
_cell_formula_units_Z 64
_cell_length_a 14.877309
_cell_length_b 9.553004
_cell_length_c 27.251870
_cell_angle_alpha 90.000000
_cell_angle_beta 90.000000
_cell_angle_gamma 90.000000
_cell_volume 3873.117313
_symmetry_space_group_name_H-M "P B C M"
_symmetry_group_IT_number 57
_symmetry_cell_setting 'orthorhombic'
loop_
_space_group_symop_operation_xyz
x,y,z
-x,-y,1/2+z
x,1/2-y,-z
-x,1/2+y,1/2-z
-x,-y,-z
x,y,1/2-z
-x,1/2+y,z
x,1/2-y,1/2+z
loop_
_atom_site_type_symbol
_atom_site_label
_atom_site_fract_x
_atom_site_fract_y
_atom_site_fract_z
Si Si1 0.913080 0.130607 0.691652
Si Si2 0.251643 0.132410 0.807240
Si Si3 0.608122 0.704927 0.614572
Si Si4 0.258088 0.692251 0.192620
Si Si5 0.606131 0.957029 0.944712
Si Si6 0.400794 0.946022 0.545935
Si Si7 0.080105 0.310961 0.808240
Si Si8 0.598148 0.281195 0.382936
O O1 0.918215 0.126251 0.750000
O O2 0.822146 0.207245 0.674345
O O3 0.994834 0.224911 0.670853
O O4 0.917449 0.970798 0.670978
O O5 0.270746 0.153533 0.750000
O O6 0.337842 0.193522 0.835019
O O7 0.167144 0.223948 0.824995
O O8 0.233788 0.969087 0.819362
O O9 0.651668 0.816399 0.576243
O O10 0.613901 0.559030 0.587673
O O11 0.506594 0.752038 0.627820
O O12 0.276162 0.711655 0.250000
O O13 0.348209 0.742229 0.165846
O O14 0.506148 0.920484 0.963309
O O15 0.610139 0.058619 0.897966
O O16 0.651302 0.017361 0.994889
O O17 0.363397 0.803576 0.569849
O O18 0.074321 0.317836 0.750000
#
# Coordination Sequence:
#
# PCOD8230869 Si02
#       8
#     8   8   8   8   8   8   8   8
#     4   9  17  30  49  71  93 119 154 197 242 282
#     4  10  20  33  47  65  96 135 167 195 229 276
#     4  10  19  31  47  68  96 129 164 199 235 281
#     4  10  20  33  47  65  96 135 167 195 229 276
#     4   9  18  28  49  69  90 117 157 207 253 284
#     4   9  16  32  47  67  90 121 157 201 251 290
#     4   9  17  30  49  71  93 119 154 197 242 282
#     4  10  19  31  47  68  96 129 164 199 235 281
#
# _framework density 16.524158
#
# number of rings (size 3 to 8) (size 9 to 14) (size 15 to 20)
#    0.000    2.500    1.250    1.500    1.750    6.500 
#    0.000    0.000    0.000    0.000    0.000    0.000 
#    0.000    6.000    0.000    0.000    0.000    0.000 
#
# Total GULP energy -793154.937767 kJ/mol
# GULP energy per Si atom -12393.045903 kJ/mol
# Density = 1.648655 g / cm^3
# Si number density = 16.524158 Si / 1000 Ang^3
#
#
#
# Elastic Constant Matrix: (Units=GPa)
#
#
# Indices 1 2 3 4 5 6 
#
# 1 78.9067 39.6256 35.2790 0.0000 0.0000 0.0000
# 2 39.6256 85.6525 15.8804 0.0000 0.0000 0.0000
# 3 35.2790 15.8804 48.6864 0.0000 0.0000 0.0000
# 4 0.0000 0.0000 0.0000 21.4726 0.0000 0.0000
# 5 0.0000 0.0000 0.0000 0.0000 2.8967 0.0000
# 6 0.0000 0.0000 0.0000 0.0000 0.0000 26.0280
#
#
#
# Elastic Compliance Matrix: (Units=1/GPa)
#
#
# Indices 1 2 3 4 5 6 
#
# 1 0.022979 -0.008029 -0.014032 0.000000 0.000000 0.000000
# 2 -0.008029 0.015232 0.000850 0.000000 0.000000 0.000000
# 3 -0.014032 0.000850 0.030430 0.000000 0.000000 0.000000
# 4 0.000000 0.000000 0.000000 0.046571 0.000000 0.000000
# 5 0.000000 0.000000 0.000000 0.000000 0.345217 0.000000
# 6 0.000000 0.000000 0.000000 0.000000 0.000000 0.038420
#
#
# Mechanical properties :
#
#
# Convention : Reuss Voigt Hill
#
# Bulk Modulus (GPa) = 38.14114 43.86840 41.00477
# Shear Modulus (GPa) = 9.09070 18.24349 13.66709
#
# Velocity S-wave (km/s) = 2.34806 3.32633 2.87905
# Velocity P-wave (km/s) = 5.52117 6.43104 5.99340
#
# Compressibility (1/GPa) = 0.02621841
#
# Stress axis : x y z
#
# Youngs Moduli (GPa) = 43.51789 65.65077 32.86190
#
# Poissons Ratio (x) = 0.52712 0.46112
# Poissons Ratio (y) = 0.34941 -0.02792
# Poissons Ratio (z) = 0.61065 -0.05579
#
# Static dielectric constant tensor:
#      x y z
#    x 2.902930 0.000000 0.000000 
#    y 0.000000 3.392330 0.000000 
#    z 0.000000 0.000000 2.927540 
# 
# 
# High freq. dielectric constant tensor:
#      x y z
#    x 1.597490 0.000000 0.000000 
#    y 0.000000 1.661950 0.000000 
#    z 0.000000 0.000000 1.604180 
# 
# From -- ./inp_files/27461.got.cif
#   From: 2010.03.12/outbox.cif.g09.slc.cpg/sg57_14_cif.got.tgz:27461.got - 2010.04.16 15:48:40.
