data_PCOD8230486
_publ_section_title
;
Structure prediction by ZEFSAII (Michael W. Deem and Ramdas Pophale) SiO2 
 PCOD8230486
Probable space group: P B C M
;
_chemical_formula_sum "Si O2"
_cell_formula_units_Z 48
_cell_length_a 9.056148
_cell_length_b 17.140018
_cell_length_c 16.528265
_cell_angle_alpha 90.000000
_cell_angle_beta 90.000000
_cell_angle_gamma 90.000000
_cell_volume 2565.559271
_symmetry_space_group_name_H-M "P B C M"
_symmetry_group_IT_number 57
_symmetry_cell_setting 'orthorhombic'
loop_
_space_group_symop_operation_xyz
x,y,z
-x,-y,1/2+z
x,1/2-y,-z
-x,1/2+y,1/2-z
-x,-y,-z
x,y,1/2-z
-x,1/2+y,z
x,1/2-y,1/2+z
loop_
_atom_site_type_symbol
_atom_site_label
_atom_site_fract_x
_atom_site_fract_y
_atom_site_fract_z
Si Si1 0.337801 0.566878 0.941634
Si Si2 0.514412 0.674495 0.449346
Si Si3 0.389520 0.447550 0.340055
Si Si4 0.092657 0.840573 0.508025
Si Si5 0.227344 0.404625 0.494625
Si Si6 0.712509 0.375164 0.660129
O O1 0.434012 0.556872 0.860242
O O2 0.452844 0.593709 0.010928
O O3 0.209719 0.633295 0.938327
O O4 0.255329 0.488715 0.967448
O O5 0.466486 0.750000 0.500000
O O6 0.691108 0.661444 0.449129
O O7 0.432951 0.677597 0.362556
O O8 0.369348 0.412291 0.250000
O O9 0.292224 0.397082 0.403172
O O10 0.332103 0.535114 0.341907
O O11 0.058195 0.750000 0.500000
O O12 0.155476 0.859704 0.597282
O O13 0.945020 0.889278 0.494527
O O14 0.764153 0.350595 0.750000
#
# Coordination Sequence:
#
# PCOD8230486 Si02
#       6
#     8   8   8   8   8   8
#     4  10  18  35  56  79 105 143 187 224 267 329
#     4  10  18  33  56  82 107 140 184 225 273 331
#     4  10  19  34  57  88 110 137 185 242 281 314
#     4  11  23  37  56  82 112 153 190 221 274 341
#     4  11  19  36  57  81 110 147 186 224 272 331
#     4  10  19  35  56  81 110 141 183 233 278 323
#
# _framework density 18.70937
#
# number of rings (size 3 to 8) (size 9 to 14) (size 15 to 20)
#    0.000    1.667    5.000    4.000    0.000    0.000 
#    0.000   10.833    0.000    0.000    0.000    0.000 
#    0.000    0.000    0.000    0.000    0.000    0.000 
#
# Total GULP energy -594767.796194 kJ/mol
# GULP energy per Si atom -12390.995754 kJ/mol
# Density = 1.866679 g / cm^3
# Si number density = 18.709370 Si / 1000 Ang^3
#
#
#
# Elastic Constant Matrix: (Units=GPa)
#
#
# Indices 1 2 3 4 5 6 
#
# 1 112.4270 20.6786 51.7906 0.0000 0.0000 0.0000
# 2 20.6786 69.1224 25.8343 0.0000 0.0000 0.0000
# 3 51.7906 25.8343 110.9771 0.0000 0.0000 0.0000
# 4 0.0000 0.0000 0.0000 17.2564 0.0000 0.0000
# 5 0.0000 0.0000 0.0000 0.0000 19.6174 0.0000
# 6 0.0000 0.0000 0.0000 0.0000 0.0000 25.8218
#
#
#
# Elastic Compliance Matrix: (Units=1/GPa)
#
#
# Indices 1 2 3 4 5 6 
#
# 1 0.011484 -0.001569 -0.004994 0.000000 0.000000 0.000000
# 2 -0.001569 0.016060 -0.003006 0.000000 0.000000 0.000000
# 3 -0.004994 -0.003006 0.012041 0.000000 0.000000 0.000000
# 4 0.000000 0.000000 0.000000 0.057949 0.000000 0.000000
# 5 0.000000 0.000000 0.000000 0.000000 0.050975 0.000000
# 6 0.000000 0.000000 0.000000 0.000000 0.000000 0.038727
#
#
# Mechanical properties :
#
#
# Convention : Reuss Voigt Hill
#
# Bulk Modulus (GPa) = 48.90830 54.34816 51.62823
# Shear Modulus (GPa) = 23.45314 25.48732 24.47023
#
# Velocity S-wave (km/s) = 3.54439 3.69491 3.62043
# Velocity P-wave (km/s) = 6.55348 6.87858 6.71799
#
# Compressibility (1/GPa) = 0.02044643
#
# Stress axis : x y z
#
# Youngs Moduli (GPa) = 87.07942 62.26606 83.04745
#
# Poissons Ratio (x) = 0.09769 0.41474
# Poissons Ratio (y) = 0.13663 0.24968
# Poissons Ratio (z) = 0.43487 0.18720
#
# Static dielectric constant tensor:
#      x y z
#    x 3.571880 0.000000 0.000000 
#    y 0.000000 3.383640 0.000000 
#    z 0.000000 0.000000 3.687170 
# 
# 
# High freq. dielectric constant tensor:
#      x y z
#    x 1.726640 0.000000 0.000000 
#    y 0.000000 1.727840 0.000000 
#    z 0.000000 0.000000 1.694670 
# 
# From -- ./inp_files/21294.got.cif
#   From: 2010.03.12/outbox.cif.g09.slc.cpg/sg57_11_cif.got.tgz:21294.got - 2010.04.16 15:48:40.
