data_PCOD8230631
_publ_section_title
;
Structure prediction by ZEFSAII (Michael W. Deem and Ramdas Pophale) SiO2 
 PCOD8230631
Probable space group: P B C M
;
_chemical_formula_sum "Si O2"
_cell_formula_units_Z 64
_cell_length_a 18.518763
_cell_length_b 24.786814
_cell_length_c 9.157157
_cell_angle_alpha 90.000000
_cell_angle_beta 90.000000
_cell_angle_gamma 90.000000
_cell_volume 4203.328590
_symmetry_space_group_name_H-M "P B C M"
_symmetry_group_IT_number 57
_symmetry_cell_setting 'orthorhombic'
loop_
_space_group_symop_operation_xyz
x,y,z
-x,-y,1/2+z
x,1/2-y,-z
-x,1/2+y,1/2-z
-x,-y,-z
x,y,1/2-z
-x,1/2+y,z
x,1/2-y,1/2+z
loop_
_atom_site_type_symbol
_atom_site_label
_atom_site_fract_x
_atom_site_fract_y
_atom_site_fract_z
Si Si1 0.506234 0.418683 0.920365
Si Si2 0.729078 0.197684 0.420193
Si Si3 0.045513 0.562556 0.915901
Si Si4 0.894559 0.963609 0.417087
Si Si5 0.187674 0.888862 0.411770
Si Si6 0.761037 0.511073 0.083282
Si Si7 0.563756 0.303137 0.579121
Si Si8 0.611062 0.985569 0.420733
O O1 0.485957 0.422654 0.750000
O O2 0.521709 0.357166 0.968146
O O3 0.576501 0.455640 0.952640
O O4 0.439611 0.438675 0.016060
O O5 0.761065 0.250000 0.500000
O O6 0.736706 0.206799 0.250000
O O7 0.775268 0.146188 0.464606
O O8 0.646570 0.188155 0.467985
O O9 0.055269 0.538734 0.750000
O O10 0.100366 0.613251 0.931913
O O11 0.960854 0.579631 0.937648
O O12 0.068528 0.519833 0.038175
O O13 0.868490 0.966566 0.250000
O O14 0.824110 0.950833 0.515050
O O15 0.209371 0.867908 0.250000
O O16 0.213844 0.949853 0.432403
O O17 0.748735 0.528352 0.250000
O O18 0.687669 0.519412 0.996741
O O19 0.531409 0.250000 0.500000
O O20 0.556631 0.293082 0.750000
O O21 0.620919 0.975578 0.250000
#
# Coordination Sequence:
#
# PCOD8230631 Si02
#       8
#     8   8   8   8   8   8   8   8
#     4   9  18  32  46  62  87 114 140 176 220 260
#     4  10  19  30  43  60  82 108 139 175 212 247
#     4   8  15  26  38  55  80 108 136 167 204 240
#     4   9  15  24  39  57  79 107 138 170 200 236
#     4   9  17  28  41  58  81 110 142 173 207 248
#     4  10  19  29  41  59  85 114 142 174 213 252
#     4   9  18  31  46  63  84 110 141 177 215 255
#     4  10  19  30  45  64  85 113 149 181 212 258
#
# _framework density 15.226029
#
# number of rings (size 3 to 8) (size 9 to 14) (size 15 to 20)
#    0.000    2.750    0.000    3.000    0.000    5.500 
#    0.000    0.000    0.000    0.000    0.000    0.000 
#    0.000    1.000    0.000    7.250    0.000    3.875 
#
# Total GULP energy -793195.580368 kJ/mol
# GULP energy per Si atom -12393.680943 kJ/mol
# Density = 1.519137 g / cm^3
# Si number density = 15.226029 Si / 1000 Ang^3
#
#
#
# Elastic Constant Matrix: (Units=GPa)
#
#
# Indices 1 2 3 4 5 6 
#
# 1 112.7389 35.3780 54.4616 0.0000 0.0000 0.0000
# 2 35.3780 67.8090 33.7991 0.0000 0.0000 0.0000
# 3 54.4616 33.7991 79.2451 0.0000 0.0000 0.0000
# 4 0.0000 0.0000 0.0000 21.9213 0.0000 0.0000
# 5 0.0000 0.0000 0.0000 0.0000 27.7596 0.0000
# 6 0.0000 0.0000 0.0000 0.0000 0.0000 15.4895
#
#
#
# Elastic Compliance Matrix: (Units=1/GPa)
#
#
# Indices 1 2 3 4 5 6 
#
# 1 0.013785 -0.003137 -0.008136 0.000000 0.000000 0.000000
# 2 -0.003137 0.019443 -0.006137 0.000000 0.000000 0.000000
# 3 -0.008136 -0.006137 0.020828 0.000000 0.000000 0.000000
# 4 0.000000 0.000000 0.000000 0.045618 0.000000 0.000000
# 5 0.000000 0.000000 0.000000 0.000000 0.036024 0.000000
# 6 0.000000 0.000000 0.000000 0.000000 0.000000 0.064560
#
#
# Mechanical properties :
#
#
# Convention : Reuss Voigt Hill
#
# Bulk Modulus (GPa) = 51.98414 56.34117 54.16265
# Shear Modulus (GPa) = 20.70505 22.11101 21.40803
#
# Velocity S-wave (km/s) = 3.69161 3.81489 3.75375
# Velocity P-wave (km/s) = 7.23784 7.51585 7.37816
#
# Compressibility (1/GPa) = 0.01923664
#
# Stress axis : x y z
#
# Youngs Moduli (GPa) = 72.54522 51.43322 48.01265
#
# Poissons Ratio (x) = 0.16133 0.39062
# Poissons Ratio (y) = 0.22755 0.29465
# Poissons Ratio (z) = 0.59020 0.31564
#
# Static dielectric constant tensor:
#      x y z
#    x 3.129740 0.000000 0.000000 
#    y 0.000000 2.679550 0.000000 
#    z 0.000000 0.000000 3.021130 
# 
# 
# High freq. dielectric constant tensor:
#      x y z
#    x 1.583100 0.000000 0.000000 
#    y 0.000000 1.533060 0.000000 
#    z 0.000000 0.000000 1.597790 
# 
# From -- ./inp_files/7357.got.cif
#   From: 2010.03.12/outbox.cif.g09.slc.cpg/sg57_4_cif.got.tgz:7357.got - 2010.04.16 15:48:40.
