data_PCOD8230920
_publ_section_title
;
Structure prediction by ZEFSAII (Michael W. Deem and Ramdas Pophale) SiO2 
 PCOD8230920
Probable space group: P B C M
;
_chemical_formula_sum "Si O2"
_cell_formula_units_Z 56
_cell_length_a 15.157349
_cell_length_b 20.664102
_cell_length_c 8.821267
_cell_angle_alpha 90.000000
_cell_angle_beta 90.000000
_cell_angle_gamma 90.000000
_cell_volume 2762.935552
_symmetry_space_group_name_H-M "P B C M"
_symmetry_group_IT_number 57
_symmetry_cell_setting 'orthorhombic'
loop_
_space_group_symop_operation_xyz
x,y,z
-x,-y,1/2+z
x,1/2-y,-z
-x,1/2+y,1/2-z
-x,-y,-z
x,y,1/2-z
-x,1/2+y,z
x,1/2-y,1/2+z
loop_
_atom_site_type_symbol
_atom_site_label
_atom_site_fract_x
_atom_site_fract_y
_atom_site_fract_z
Si Si1 0.349297 0.185555 0.072968
Si Si2 0.966161 0.682242 0.429557
Si Si3 0.418434 0.959671 0.929142
Si Si4 0.801229 0.870918 0.419358
Si Si5 0.944984 0.058728 0.570999
Si Si6 0.552440 0.315502 0.573787
Si Si7 0.778440 0.484579 0.580191
O O1 0.332180 0.182993 0.250000
O O2 0.450508 0.180020 0.029822
O O3 0.308250 0.250000 0.000000
O O4 0.297265 0.128683 0.988571
O O5 0.997851 0.750000 0.500000
O O6 0.979185 0.682606 0.250000
O O7 0.864182 0.669642 0.470344
O O8 0.023476 0.626522 0.505307
O O9 0.435415 0.961418 0.750000
O O10 0.411032 0.884504 0.985396
O O11 0.323417 0.989208 0.976257
O O12 0.500000 0.000000 0.000000
O O13 0.805302 0.841252 0.250000
O O14 0.826246 0.945937 0.414839
O O15 0.958476 0.057114 0.750000
O O16 0.840463 0.056451 0.531479
O O17 0.000000 0.000000 0.500000
O O18 0.594165 0.250000 0.500000
O O19 0.569609 0.307425 0.750000
O O20 0.778853 0.454293 0.750000
#
# Coordination Sequence:
#
# PCOD8230920 Si02
#       7
#     8   8   8   8   8   8   8
#     4  10  19  31  48  73 108 149 194 244 302 367
#     4  12  25  42  64  91 125 163 204 257 314 371
#     4  10  21  38  60  90 125 162 206 263 318 371
#     4  11  21  34  54  82 117 155 199 247 305 375
#     4  12  24  42  67  94 124 162 208 255 308 371
#     4   9  19  35  55  79 111 154 203 253 308 366
#     4  10  22  39  61  88 121 162 207 254 311 375
#
# _framework density 20.268295999999999
#
# number of rings (size 3 to 8) (size 9 to 14) (size 15 to 20)
#    0.000    1.429    1.429    4.714    0.000    2.286 
#    0.000    0.714    0.000    1.714    0.000    0.000 
#    0.000    0.000    0.000    0.000    0.000    0.000 
#
# Total GULP energy -694143.140389 kJ/mol
# GULP energy per Si atom -12395.413221 kJ/mol
# Density = 2.022216 g / cm^3
# Si number density = 20.268296 Si / 1000 Ang^3
#
#
#
# Elastic Constant Matrix: (Units=GPa)
#
#
# Indices 1 2 3 4 5 6 
#
# 1 89.0456 42.8204 52.6531 0.0000 0.0000 0.0000
# 2 42.8204 128.3423 42.7416 0.0000 0.0000 0.0000
# 3 52.6531 42.7416 110.9358 0.0000 0.0000 0.0000
# 4 0.0000 0.0000 0.0000 32.1700 0.0000 0.0000
# 5 0.0000 0.0000 0.0000 0.0000 29.3303 0.0000
# 6 0.0000 0.0000 0.0000 0.0000 0.0000 33.4101
#
#
#
# Elastic Compliance Matrix: (Units=1/GPa)
#
#
# Indices 1 2 3 4 5 6 
#
# 1 0.016802 -0.003384 -0.006671 0.000000 0.000000 0.000000
# 2 -0.003384 0.009620 -0.002100 0.000000 0.000000 0.000000
# 3 -0.006671 -0.002100 0.012990 0.000000 0.000000 0.000000
# 4 0.000000 0.000000 0.000000 0.031085 0.000000 0.000000
# 5 0.000000 0.000000 0.000000 0.000000 0.034094 0.000000
# 6 0.000000 0.000000 0.000000 0.000000 0.000000 0.029931
#
#
# Mechanical properties :
#
#
# Convention : Reuss Voigt Hill
#
# Bulk Modulus (GPa) = 66.21991 67.19489 66.70740
# Shear Modulus (GPa) = 30.51257 31.65598 31.08427
#
# Velocity S-wave (km/s) = 3.88420 3.95631 3.92042
# Velocity P-wave (km/s) = 7.27039 7.35490 7.31277
#
# Compressibility (1/GPa) = 0.01510120
#
# Stress axis : x y z
#
# Youngs Moduli (GPa) = 59.51617 103.94742 76.98496
#
# Poissons Ratio (x) = 0.35179 0.51355
# Poissons Ratio (y) = 0.20142 0.16169
# Poissons Ratio (z) = 0.39702 0.21831
#
# Static dielectric constant tensor:
#      x y z
#    x 3.610600 0.000000 0.000000 
#    y 0.000000 3.898780 0.000000 
#    z 0.000000 0.000000 3.699460 
# 
# 
# High freq. dielectric constant tensor:
#      x y z
#    x 1.780890 0.000000 0.000000 
#    y 0.000000 1.796320 0.000000 
#    z 0.000000 0.000000 1.790800 
# 
# From -- ./inp_files/5112.got.cif
#   From: 2010.03.12/outbox.cif.g09.slc.cpg/sg57_3_cif.got.tgz:5112.got - 2010.04.16 15:48:40.
