data_PCOD8230648
_publ_section_title
;
Structure prediction by ZEFSAII (Michael W. Deem and Ramdas Pophale) SiO2 
 PCOD8230648
Probable space group: P B C M
;
_chemical_formula_sum "Si O2"
_cell_formula_units_Z 64
_cell_length_a 16.972664
_cell_length_b 23.220750
_cell_length_c 9.193813
_cell_angle_alpha 90.000000
_cell_angle_beta 90.000000
_cell_angle_gamma 90.000000
_cell_volume 3623.447078
_symmetry_space_group_name_H-M "P B C M"
_symmetry_group_IT_number 57
_symmetry_cell_setting 'orthorhombic'
loop_
_space_group_symop_operation_xyz
x,y,z
-x,-y,1/2+z
x,1/2-y,-z
-x,1/2+y,1/2-z
-x,-y,-z
x,y,1/2-z
-x,1/2+y,z
x,1/2-y,1/2+z
loop_
_atom_site_type_symbol
_atom_site_label
_atom_site_fract_x
_atom_site_fract_y
_atom_site_fract_z
Si Si1 0.806891 0.897548 0.916275
Si Si2 0.456293 0.692778 0.079827
Si Si3 0.082009 0.002271 0.419174
Si Si4 0.569114 0.616448 0.911650
Si Si5 0.725339 0.193407 0.420130
Si Si6 0.790461 0.073015 0.417004
Si Si7 0.725223 0.807495 0.414747
Si Si8 0.312167 0.029224 0.585445
O O1 0.794658 0.879164 0.750000
O O2 0.888505 0.931844 0.938980
O O3 0.800734 0.840169 0.014522
O O4 0.739103 0.941655 0.961033
O O5 0.470205 0.700934 0.250000
O O6 0.365609 0.682950 0.038756
O O7 0.488797 0.750000 0.000000
O O8 0.504205 0.636744 0.026701
O O9 0.072022 0.986763 0.250000
O O10 0.141927 0.955873 0.487023
O O11 0.000000 0.000000 0.500000
O O12 0.533254 0.623794 0.750000
O O13 0.648690 0.652991 0.928435
O O14 0.596457 0.549381 0.938884
O O15 0.758662 0.250000 0.500000
O O16 0.734857 0.203578 0.250000
O O17 0.774889 0.137915 0.472167
O O18 0.819356 0.073150 0.250000
O O19 0.706067 0.038964 0.428211
O O20 0.706126 0.750000 0.500000
O O21 0.746806 0.792293 0.250000
O O22 0.287495 0.049980 0.750000
#
# Coordination Sequence:
#
# PCOD8230648 Si02
#       8
#     8   8   8   8   8   8   8   8
#     4   9  17  29  45  67  95 123 154 191 227 269
#     4  10  19  30  44  63  89 123 164 209 254 296
#     4  10  20  33  53  81 106 127 152 185 228 278
#     4   9  17  28  42  63  90 122 161 203 246 289
#     4   9  19  34  52  73  96 126 164 205 249 293
#     4   9  17  33  55  75  98 128 161 199 241 288
#     4  10  19  29  43  64  91 126 165 200 237 281
#     4   8  15  28  46  66  90 123 159 194 238 290
#
# _framework density 17.662738999999998
#
# number of rings (size 3 to 8) (size 9 to 14) (size 15 to 20)
#    0.000    2.750    0.000    2.625    0.000    6.000 
#    0.000    0.625    0.000    0.750    0.000    3.500 
#    0.000    0.000    0.000    0.000    0.000    0.000 
#
# Total GULP energy -793112.459910 kJ/mol
# GULP energy per Si atom -12392.382186 kJ/mol
# Density = 1.762254 g / cm^3
# Si number density = 17.662739 Si / 1000 Ang^3
#
#
#
# Elastic Constant Matrix: (Units=GPa)
#
#
# Indices 1 2 3 4 5 6 
#
# 1 58.8500 33.1546 36.0900 0.0000 0.0000 0.0000
# 2 33.1546 89.8679 37.2547 0.0000 0.0000 0.0000
# 3 36.0900 37.2547 94.8007 0.0000 0.0000 0.0000
# 4 0.0000 0.0000 0.0000 27.8832 0.0000 0.0000
# 5 0.0000 0.0000 0.0000 0.0000 22.5916 0.0000
# 6 0.0000 0.0000 0.0000 0.0000 0.0000 21.1563
#
#
#
# Elastic Compliance Matrix: (Units=1/GPa)
#
#
# Indices 1 2 3 4 5 6 
#
# 1 0.024798 -0.006254 -0.006983 0.000000 0.000000 0.000000
# 2 -0.006254 0.014870 -0.003463 0.000000 0.000000 0.000000
# 3 -0.006983 -0.003463 0.014568 0.000000 0.000000 0.000000
# 4 0.000000 0.000000 0.000000 0.035864 0.000000 0.000000
# 5 0.000000 0.000000 0.000000 0.000000 0.044264 0.000000
# 6 0.000000 0.000000 0.000000 0.000000 0.000000 0.047267
#
#
# Mechanical properties :
#
#
# Convention : Reuss Voigt Hill
#
# Bulk Modulus (GPa) = 47.99241 50.72414 49.35827
# Shear Modulus (GPa) = 22.52500 23.46083 22.99291
#
# Velocity S-wave (km/s) = 3.57499 3.64849 3.61193
# Velocity P-wave (km/s) = 6.65366 6.82123 6.73797
#
# Compressibility (1/GPa) = 0.02083663
#
# Stress axis : x y z
#
# Youngs Moduli (GPa) = 40.32609 67.24863 68.64565
#
# Poissons Ratio (x) = 0.42057 0.47933
# Poissons Ratio (y) = 0.25219 0.23771
# Poissons Ratio (z) = 0.28159 0.23287
#
# Static dielectric constant tensor:
#      x y z
#    x 2.989360 0.000000 0.000000 
#    y 0.000000 3.466840 0.000000 
#    z 0.000000 0.000000 3.351410 
# 
# 
# High freq. dielectric constant tensor:
#      x y z
#    x 1.642820 0.000000 0.000000 
#    y 0.000000 1.679030 0.000000 
#    z 0.000000 0.000000 1.692220 
# 
# From -- ./inp_files/5679.got.cif
#   From: 2010.03.12/outbox.cif.g09.slc.cpg/sg57_3_cif.got.tgz:5679.got - 2010.04.16 15:48:40.
