data_PCOD8230323
_publ_section_title
;
Structure prediction by ZEFSAII (Michael W. Deem and Ramdas Pophale) SiO2 
 PCOD8230323
Probable space group: P B C M
;
_chemical_formula_sum "Si O2"
_cell_formula_units_Z 56
_cell_length_a 18.047173
_cell_length_b 20.356220
_cell_length_c 8.699862
_cell_angle_alpha 90.000000
_cell_angle_beta 90.000000
_cell_angle_gamma 90.000000
_cell_volume 3196.087651
_symmetry_space_group_name_H-M "P B C M"
_symmetry_group_IT_number 57
_symmetry_cell_setting 'orthorhombic'
loop_
_space_group_symop_operation_xyz
x,y,z
-x,-y,1/2+z
x,1/2-y,-z
-x,1/2+y,1/2-z
-x,-y,-z
x,y,1/2-z
-x,1/2+y,z
x,1/2-y,1/2+z
loop_
_atom_site_type_symbol
_atom_site_label
_atom_site_fract_x
_atom_site_fract_y
_atom_site_fract_z
Si Si1 0.186821 0.467218 0.431602
Si Si2 0.663281 0.942423 0.578089
Si Si3 0.961972 0.563899 0.431217
Si Si4 0.796529 0.109432 0.565894
Si Si5 0.484141 0.070872 0.933911
Si Si6 0.638184 0.402444 0.079429
Si Si7 0.929759 0.181846 0.069418
O O1 0.184615 0.473818 0.250000
O O2 0.261871 0.430150 0.482106
O O3 0.118013 0.424361 0.492065
O O4 0.177241 0.539367 0.503029
O O5 0.674280 0.915088 0.750000
O O6 0.594115 0.903085 0.500431
O O7 0.646197 0.019127 0.580361
O O8 0.953538 0.554987 0.250000
O O9 0.000000 0.500000 0.500000
O O10 0.010711 0.626907 0.474451
O O11 0.795743 0.105446 0.750000
O O12 0.712948 0.125793 0.499525
O O13 0.850716 0.165719 0.507282
O O14 0.480571 0.068055 0.750000
O O15 0.556279 0.114647 0.990214
O O16 0.500000 0.000000 0.000000
O O17 0.637967 0.373807 0.250000
O O18 0.918268 0.187939 0.250000
O O19 0.958931 0.250000 0.000000
#
# Coordination Sequence:
#
# PCOD8230323 Si02
#       7
#     8   8   8   8   8   8   8
#     4  11  20  30  47  72  98 128 168 209 254 306
#     4   9  16  26  38  57  88 124 161 201 248 293
#     4  11  22  36  55  77 102 132 170 213 260 313
#     4  10  18  31  50  70  97 130 166 208 252 298
#     4   9  14  22  35  54  84 121 160 197 239 292
#     4   7  13  23  37  58  84 119 158 195 237 285
#     4  11  24  39  55  76 102 134 172 212 261 314
#
# _framework density 17.521421
#
# number of rings (size 3 to 8) (size 9 to 14) (size 15 to 20)
#    0.000    2.286    1.429    5.143    0.000    1.714 
#    0.000    2.143    0.000    0.000    0.000    0.000 
#    0.000    1.143    0.000    8.286    0.000    5.857 
#
# Total GULP energy -693788.674563 kJ/mol
# GULP energy per Si atom -12389.083474 kJ/mol
# Density = 1.748154 g / cm^3
# Si number density = 17.521421 Si / 1000 Ang^3
#
#
#
# Elastic Constant Matrix: (Units=GPa)
#
#
# Indices 1 2 3 4 5 6 
#
# 1 168.8064 46.0882 54.1326 0.0000 0.0000 0.0000
# 2 46.0882 55.6051 32.3742 0.0000 0.0000 0.0000
# 3 54.1326 32.3742 97.9825 0.0000 0.0000 0.0000
# 4 0.0000 0.0000 0.0000 16.3257 0.0000 0.0000
# 5 0.0000 0.0000 0.0000 0.0000 32.7561 0.0000
# 6 0.0000 0.0000 0.0000 0.0000 0.0000 11.3264
#
#
#
# Elastic Compliance Matrix: (Units=1/GPa)
#
#
# Indices 1 2 3 4 5 6 
#
# 1 0.008252 -0.005182 -0.002847 0.000000 0.000000 0.000000
# 2 -0.005182 0.025522 -0.005570 0.000000 0.000000 0.000000
# 3 -0.002847 -0.005570 0.013619 0.000000 0.000000 0.000000
# 4 0.000000 0.000000 0.000000 0.061253 0.000000 0.000000
# 5 0.000000 0.000000 0.000000 0.000000 0.030529 0.000000
# 6 0.000000 0.000000 0.000000 0.000000 0.000000 0.088290
#
#
# Mechanical properties :
#
#
# Convention : Reuss Voigt Hill
#
# Bulk Modulus (GPa) = 49.51561 65.28711 57.40136
# Shear Modulus (GPa) = 19.12836 24.73490 21.93163
#
# Velocity S-wave (km/s) = 3.30769 3.76133 3.54178
# Velocity P-wave (km/s) = 6.55051 7.49704 7.03970
#
# Compressibility (1/GPa) = 0.02019565
#
# Stress axis : x y z
#
# Youngs Moduli (GPa) = 121.18863 39.18221 73.42765
#
# Poissons Ratio (x) = 0.20304 0.20902
# Poissons Ratio (y) = 0.62800 0.40897
# Poissons Ratio (z) = 0.34498 0.21823
#
# Static dielectric constant tensor:
#      x y z
#    x 4.064760 0.000000 0.000000 
#    y 0.000000 2.685140 0.000000 
#    z 0.000000 0.000000 3.349330 
# 
# 
# High freq. dielectric constant tensor:
#      x y z
#    x 1.709390 0.000000 0.000000 
#    y 0.000000 1.594170 0.000000 
#    z 0.000000 0.000000 1.681850 
# 
# From -- ./inp_files/7056.got.cif
#   From: 2010.03.12/outbox.cif.g09.slc.cpg/sg57_4_cif.got.tgz:7056.got - 2010.04.16 15:48:40.
