data_PCOD8230246
_publ_section_title
;
Structure prediction by ZEFSAII (Michael W. Deem and Ramdas Pophale) SiO2 
 PCOD8230246
Probable space group: P B C M
;
_chemical_formula_sum "Si O2"
_cell_formula_units_Z 48
_cell_length_a 10.215276
_cell_length_b 29.745423
_cell_length_c 9.033184
_cell_angle_alpha 90.000000
_cell_angle_beta 90.000000
_cell_angle_gamma 90.000000
_cell_volume 2744.802565
_symmetry_space_group_name_H-M "P B C M"
_symmetry_group_IT_number 57
_symmetry_cell_setting 'orthorhombic'
loop_
_space_group_symop_operation_xyz
x,y,z
-x,-y,1/2+z
x,1/2-y,-z
-x,1/2+y,1/2-z
-x,-y,-z
x,y,1/2-z
-x,1/2+y,z
x,1/2-y,1/2+z
loop_
_atom_site_type_symbol
_atom_site_label
_atom_site_fract_x
_atom_site_fract_y
_atom_site_fract_z
Si Si1 0.973936 0.206176 0.082141
Si Si2 0.277559 0.383019 0.077726
Si Si3 0.285673 0.206242 0.083911
Si Si4 0.624130 0.978715 0.076576
Si Si5 0.027722 0.616292 0.923709
Si Si6 0.111768 0.529027 0.425168
O O1 0.920506 0.204214 0.250000
O O2 0.129876 0.207750 0.082028
O O3 0.917133 0.250000 0.000000
O O4 0.924118 0.163530 0.989734
O O5 0.297107 0.373299 0.250000
O O6 0.356093 0.427098 0.024548
O O7 0.125165 0.391626 0.043455
O O8 0.334056 0.339780 0.992271
O O9 0.340729 0.207155 0.250000
O O10 0.342286 0.250000 0.000000
O O11 0.600821 0.979989 0.250000
O O12 0.750042 0.007554 0.032244
O O13 0.500000 0.000000 0.000000
O O14 0.058281 0.614704 0.750000
O O15 0.110953 0.578813 0.008270
O O16 0.088114 0.529921 0.250000
O O17 0.000000 0.500000 0.500000
#
# Coordination Sequence:
#
# PCOD8230246 Si02
#       6
#     8   8   8   8   8   8
#     4   9  16  26  40  64  97 133 167 204 252 305
#     4   9  17  31  47  67  99 132 164 207 253 297
#     4   9  16  25  40  65  94 127 164 201 247 299
#     4  10  22  38  53  74 103 137 174 215 260 307
#     4  10  18  30  48  72 100 132 169 212 258 304
#     4  11  21  35  53  76 103 133 172 214 257 306
#
# _framework density 17.487594999999999
#
# number of rings (size 3 to 8) (size 9 to 14) (size 15 to 20)
#    0.000    2.333    1.667    2.000    0.000    6.667 
#    0.000    0.000    0.000    0.000    0.000    1.167 
#    0.000    2.667    0.000    0.000    0.000    0.000 
#
# Total GULP energy -595216.171319 kJ/mol
# GULP energy per Si atom -12400.336902 kJ/mol
# Density = 1.744779 g / cm^3
# Si number density = 17.487595 Si / 1000 Ang^3
#
#
#
# Elastic Constant Matrix: (Units=GPa)
#
#
# Indices 1 2 3 4 5 6 
#
# 1 59.0365 56.3515 44.8253 0.0000 0.0000 0.0000
# 2 56.3515 190.1248 81.4128 0.0000 0.0000 0.0000
# 3 44.8253 81.4128 110.3214 0.0000 0.0000 0.0000
# 4 0.0000 0.0000 0.0000 41.1874 0.0000 0.0000
# 5 0.0000 0.0000 0.0000 0.0000 19.7872 0.0000
# 6 0.0000 0.0000 0.0000 0.0000 0.0000 15.4854
#
#
#
# Elastic Compliance Matrix: (Units=1/GPa)
#
#
# Indices 1 2 3 4 5 6 
#
# 1 0.027279 -0.004882 -0.007481 0.000000 0.000000 0.000000
# 2 -0.004882 0.008563 -0.004336 0.000000 0.000000 0.000000
# 3 -0.007481 -0.004336 0.015304 0.000000 0.000000 0.000000
# 4 0.000000 0.000000 0.000000 0.024279 0.000000 0.000000
# 5 0.000000 0.000000 0.000000 0.000000 0.050538 0.000000
# 6 0.000000 0.000000 0.000000 0.000000 0.000000 0.064577
#
#
# Mechanical properties :
#
#
# Convention : Reuss Voigt Hill
#
# Bulk Modulus (GPa) = 56.34359 80.51799 68.43079
# Shear Modulus (GPa) = 21.75299 27.08488 24.41893
#
# Velocity S-wave (km/s) = 3.53074 3.93976 3.74084
# Velocity P-wave (km/s) = 6.99361 8.17548 7.60753
#
# Compressibility (1/GPa) = 0.01774825
#
# Stress axis : x y z
#
# Youngs Moduli (GPa) = 36.65857 116.77859 65.34293
#
# Poissons Ratio (x) = 0.57007 0.48885
# Poissons Ratio (y) = 0.17895 0.28332
# Poissons Ratio (z) = 0.27425 0.50633
#
# Static dielectric constant tensor:
#      x y z
#    x 2.268880 0.000000 0.000000 
#    y 0.000000 3.043040 0.000000 
#    z 0.000000 0.000000 3.381220 
# 
# 
# High freq. dielectric constant tensor:
#      x y z
#    x 1.607350 0.000000 0.000000 
#    y 0.000000 1.698530 0.000000 
#    z 0.000000 0.000000 1.688230 
# 
# From -- ./inp_files/2008.got.cif
#   From: 2010.03.12/outbox.cif.g09.slc.cpg/sg57_2_cif.got.tgz:2008.got - 2010.04.16 15:48:40.
