data_PCOD8230152
_publ_section_title
;
Structure prediction by ZEFSAII (Michael W. Deem and Ramdas Pophale) SiO2 
 PCOD8230152
Probable space group: P B C M
;
_chemical_formula_sum "Si O2"
_cell_formula_units_Z 48
_cell_length_a 28.061474
_cell_length_b 8.477537
_cell_length_c 9.643032
_cell_angle_alpha 90.000000
_cell_angle_beta 90.000000
_cell_angle_gamma 90.000000
_cell_volume 2294.001944
_symmetry_space_group_name_H-M "P B C M"
_symmetry_group_IT_number 57
_symmetry_cell_setting 'orthorhombic'
loop_
_space_group_symop_operation_xyz
x,y,z
-x,-y,1/2+z
x,1/2-y,-z
-x,1/2+y,1/2-z
-x,-y,-z
x,y,1/2-z
-x,1/2+y,z
x,1/2-y,1/2+z
loop_
_atom_site_type_symbol
_atom_site_label
_atom_site_fract_x
_atom_site_fract_y
_atom_site_fract_z
Si Si1 0.609726 0.564624 0.519351
Si Si2 0.936149 0.065896 0.250000
Si Si3 0.288095 0.086445 0.913958
Si Si4 0.794550 0.910737 0.587871
Si Si5 0.540229 0.883271 0.250000
Si Si6 0.897375 0.563698 0.479978
Si Si7 0.437540 0.484755 0.750000
Si Si8 0.962171 0.428946 0.250000
O O1 0.615765 0.750000 0.500000
O O2 0.660547 0.499143 0.575065
O O3 0.565333 0.533162 0.620168
O O4 0.595900 0.474055 0.379627
O O5 0.952760 0.244477 0.250000
O O6 0.902192 0.030057 0.378254
O O7 0.981235 0.949754 0.250000
O O8 0.275736 0.109203 0.750000
O O9 0.291135 0.250000 0.000000
O O10 0.246245 0.992175 0.999467
O O11 0.800055 0.750000 0.500000
O O12 0.779537 0.886788 0.750000
O O13 0.846557 0.991060 0.584643
O O14 0.547605 0.696986 0.250000
O O15 0.484079 0.908208 0.250000
O O16 0.900971 0.750000 0.500000
O O17 0.940706 0.511556 0.384213
#
# Coordination Sequence:
#
# PCOD8230152 Si02
#       8
#     8   4   8   8   4   8   4   4
#     4   9  18  29  46  71 104 137 175 224 278 330
#     4  12  26  40  69  88 126 166 205 256 301 356
#     4  10  18  28  48  77 113 144 181 227 288 345
#     4  10  20  32  54  84 119 149 188 236 291 350
#     4  10  18  34  45  74  98 138 175 224 271 328
#     4  11  23  40  63  92 128 162 200 248 302 361
#     4  10  20  30  51  68 104 136 181 222 277 332
#     4  12  24  46  61  96 124 162 213 250 303 356
#
# _framework density 20.924133999999999
#
# number of rings (size 3 to 8) (size 9 to 14) (size 15 to 20)
#    0.000    1.667    1.667    5.000    9.333    0.000 
#    0.000    0.000    0.000    0.000    0.000    7.000 
#    0.000    0.000    0.000    0.000    0.000    0.000 
#
# Total GULP energy -594710.913129 kJ/mol
# GULP energy per Si atom -12389.810690 kJ/mol
# Density = 2.087651 g / cm^3
# Si number density = 20.924134 Si / 1000 Ang^3
#
#
#
# Elastic Constant Matrix: (Units=GPa)
#
#
# Indices 1 2 3 4 5 6 
#
# 1 126.7605 10.7657 47.0832 0.0000 0.0000 0.0000
# 2 10.7657 48.6442 13.0048 0.0000 0.0000 0.0000
# 3 47.0832 13.0048 182.5840 0.0000 0.0000 0.0000
# 4 0.0000 0.0000 0.0000 19.7388 0.0000 0.0000
# 5 0.0000 0.0000 0.0000 0.0000 42.4349 0.0000
# 6 0.0000 0.0000 0.0000 0.0000 0.0000 16.2862
#
#
#
# Elastic Compliance Matrix: (Units=1/GPa)
#
#
# Indices 1 2 3 4 5 6 
#
# 1 0.008813 -0.001369 -0.002175 0.000000 0.000000 0.000000
# 2 -0.001369 0.021169 -0.001155 0.000000 0.000000 0.000000
# 3 -0.002175 -0.001155 0.006120 0.000000 0.000000 0.000000
# 4 0.000000 0.000000 0.000000 0.050662 0.000000 0.000000
# 5 0.000000 0.000000 0.000000 0.000000 0.023566 0.000000
# 6 0.000000 0.000000 0.000000 0.000000 0.000000 0.061402
#
#
# Mechanical properties :
#
#
# Convention : Reuss Voigt Hill
#
# Bulk Modulus (GPa) = 37.44682 55.52180 46.48431
# Shear Modulus (GPa) = 26.31155 34.83430 30.57292
#
# Velocity S-wave (km/s) = 3.54993 4.08461 3.82662
# Velocity P-wave (km/s) = 5.89390 6.98841 6.46436
#
# Compressibility (1/GPa) = 0.02670454
#
# Stress axis : x y z
#
# Youngs Moduli (GPa) = 113.46776 47.23858 163.39634
#
# Poissons Ratio (x) = 0.06467 0.35541
# Poissons Ratio (y) = 0.15533 0.18869
# Poissons Ratio (z) = 0.24681 0.05455
#
# Static dielectric constant tensor:
#      x y z
#    x 4.915960 0.000000 0.000000 
#    y 0.000000 3.127600 0.000000 
#    z 0.000000 0.000000 4.094240 
# 
# 
# High freq. dielectric constant tensor:
#      x y z
#    x 1.848120 0.000000 0.000000 
#    y 0.000000 1.745190 0.000000 
#    z 0.000000 0.000000 1.841000 
# 
# From -- ./inp_files/10213.got.cif
#   From: 2010.03.12/outbox.cif.g09.slc.cpg/sg57_6_cif.got.tgz:10213.got - 2010.04.16 15:48:40.
