data_PCOD8230367
_publ_section_title
;
Structure prediction by ZEFSAII (Michael W. Deem and Ramdas Pophale) SiO2 
 PCOD8230367
Probable space group: P B C M
;
_chemical_formula_sum "Si O2"
_cell_formula_units_Z 64
_cell_length_a 24.230116
_cell_length_b 17.735031
_cell_length_c 8.885553
_cell_angle_alpha 90.000000
_cell_angle_beta 90.000000
_cell_angle_gamma 90.000000
_cell_volume 3818.316348
_symmetry_space_group_name_H-M "P B C M"
_symmetry_group_IT_number 57
_symmetry_cell_setting 'orthorhombic'
loop_
_space_group_symop_operation_xyz
x,y,z
-x,-y,1/2+z
x,1/2-y,-z
-x,1/2+y,1/2-z
-x,-y,-z
x,y,1/2-z
-x,1/2+y,z
x,1/2-y,1/2+z
loop_
_atom_site_type_symbol
_atom_site_label
_atom_site_fract_x
_atom_site_fract_y
_atom_site_fract_z
Si Si1 0.541113 0.169587 0.574421
Si Si2 0.839991 0.026632 0.579872
Si Si3 0.567202 0.890400 0.925842
Si Si4 0.897289 0.172277 0.920392
Si Si5 0.373871 0.956852 0.421970
Si Si6 0.328266 0.175326 0.573417
Si Si7 0.948156 0.459525 0.928356
Si Si8 0.728270 0.980192 0.424734
O O1 0.550025 0.250000 0.500000
O O2 0.528439 0.179280 0.750000
O O3 0.491402 0.124345 0.500029
O O4 0.596933 0.122552 0.546424
O O5 0.845597 0.996204 0.750000
O O6 0.842627 0.118684 0.578130
O O7 0.892430 0.996526 0.482561
O O8 0.783521 0.997775 0.512609
O O9 0.563970 0.872251 0.750000
O O10 0.582839 0.976851 0.959329
O O11 0.611928 0.835333 0.999547
O O12 0.917101 0.187746 0.750000
O O13 0.882257 0.250000 0.000000
O O14 0.945698 0.127070 0.009892
O O15 0.354008 0.963915 0.250000
O O16 0.320077 0.962763 0.526226
O O17 0.301201 0.250000 0.500000
O O18 0.335747 0.185936 0.750000
O O19 0.288798 0.105160 0.535531
O O20 0.952764 0.460176 0.750000
O O21 0.000000 0.500000 0.000000
O O22 0.739405 0.991909 0.250000
#
# Coordination Sequence:
#
# PCOD8230367 Si02
#       8
#     8   8   8   8   8   8   8   8
#     4  11  22  35  50  70  97 128 161 201 251 307
#     4   9  19  33  52  77 106 139 178 214 257 308
#     4  10  19  33  53  74  95 123 159 204 254 304
#     4   9  18  31  50  78 107 140 177 218 263 303
#     4   9  20  36  53  71  95 127 165 205 252 305
#     4  10  20  33  50  75 102 129 163 205 252 305
#     4  10  18  31  52  79 111 143 178 217 259 308
#     4  10  20  34  54  77 100 130 170 213 256 302
#
# _framework density 16.761313999999999
#
# number of rings (size 3 to 8) (size 9 to 14) (size 15 to 20)
#    0.750    1.500    0.000    3.750    0.000    3.000 
#    0.000    0.625    0.000    0.750    0.000    3.500 
#    0.000    0.000    0.000    0.000    0.000    0.000 
#
# Total GULP energy -793384.242639 kJ/mol
# GULP energy per Si atom -12396.628791 kJ/mol
# Density = 1.672316 g / cm^3
# Si number density = 16.761314 Si / 1000 Ang^3
#
#
#
# Elastic Constant Matrix: (Units=GPa)
#
#
# Indices 1 2 3 4 5 6 
#
# 1 94.6832 37.0191 58.5273 0.0000 0.0000 0.0000
# 2 37.0191 59.3942 39.9681 0.0000 0.0000 0.0000
# 3 58.5273 39.9681 132.9309 0.0000 0.0000 0.0000
# 4 0.0000 0.0000 0.0000 29.0742 0.0000 0.0000
# 5 0.0000 0.0000 0.0000 0.0000 32.7147 0.0000
# 6 0.0000 0.0000 0.0000 0.0000 0.0000 16.7488
#
#
#
# Elastic Compliance Matrix: (Units=1/GPa)
#
#
# Indices 1 2 3 4 5 6 
#
# 1 0.016406 -0.006726 -0.005201 0.000000 0.000000 0.000000
# 2 -0.006726 0.023864 -0.004214 0.000000 0.000000 0.000000
# 3 -0.005201 -0.004214 0.011080 0.000000 0.000000 0.000000
# 4 0.000000 0.000000 0.000000 0.034395 0.000000 0.000000
# 5 0.000000 0.000000 0.000000 0.000000 0.030567 0.000000
# 6 0.000000 0.000000 0.000000 0.000000 0.000000 0.059706
#
#
# Mechanical properties :
#
#
# Convention : Reuss Voigt Hill
#
# Bulk Modulus (GPa) = 52.44242 62.00416 57.22329
# Shear Modulus (GPa) = 23.29307 25.80710 24.55009
#
# Velocity S-wave (km/s) = 3.73190 3.92814 3.83128
# Velocity P-wave (km/s) = 7.06577 7.59252 7.33388
#
# Compressibility (1/GPa) = 0.01906853
#
# Stress axis : x y z
#
# Youngs Moduli (GPa) = 60.95273 41.90354 90.25465
#
# Poissons Ratio (x) = 0.28182 0.46943
# Poissons Ratio (y) = 0.40994 0.38034
# Poissons Ratio (z) = 0.31703 0.17659
#
# Static dielectric constant tensor:
#      x y z
#    x 2.905610 0.000000 0.000000 
#    y 0.000000 3.103360 0.000000 
#    z 0.000000 0.000000 3.338140 
# 
# 
# High freq. dielectric constant tensor:
#      x y z
#    x 1.623190 0.000000 0.000000 
#    y 0.000000 1.636110 0.000000 
#    z 0.000000 0.000000 1.667170 
# 
# From -- ./inp_files/9815.got.cif
#   From: 2010.03.12/outbox.cif.g09.slc.cpg/sg57_5_cif.got.tgz:9815.got - 2010.04.16 15:48:40.
