data_PCOD8230111
_publ_section_title
;
Structure prediction by ZEFSAII (Michael W. Deem and Ramdas Pophale) SiO2 
 PCOD8230111
Probable space group: P B C M
;
_chemical_formula_sum "Si O2"
_cell_formula_units_Z 64
_cell_length_a 18.829449
_cell_length_b 21.158319
_cell_length_c 9.268298
_cell_angle_alpha 90.000000
_cell_angle_beta 90.000000
_cell_angle_gamma 90.000000
_cell_volume 3692.485183
_symmetry_space_group_name_H-M "P B C M"
_symmetry_group_IT_number 57
_symmetry_cell_setting 'orthorhombic'
loop_
_space_group_symop_operation_xyz
x,y,z
-x,-y,1/2+z
x,1/2-y,-z
-x,1/2+y,1/2-z
-x,-y,-z
x,y,1/2-z
-x,1/2+y,z
x,1/2-y,1/2+z
loop_
_atom_site_type_symbol
_atom_site_label
_atom_site_fract_x
_atom_site_fract_y
_atom_site_fract_z
Si Si1 0.448679 0.949611 0.577217
Si Si2 0.514995 0.309422 0.910347
Si Si3 0.652620 0.808592 0.911640
Si Si4 0.875664 0.906539 0.914928
Si Si5 0.743429 0.607695 0.588992
Si Si6 0.839208 0.445625 0.409843
Si Si7 0.992966 0.066264 0.578439
Si Si8 0.710967 0.462711 0.591869
O O1 0.457647 0.957553 0.750000
O O2 0.466310 0.878274 0.524795
O O3 0.367865 0.961481 0.523796
O O4 0.500000 0.000000 0.500000
O O5 0.547274 0.303953 0.750000
O O6 0.431091 0.303796 0.905414
O O7 0.546759 0.250000 0.000000
O O8 0.684238 0.810322 0.750000
O O9 0.685542 0.750000 0.000000
O O10 0.674310 0.870733 0.000048
O O11 0.881450 0.882441 0.750000
O O12 0.858455 0.980637 0.919357
O O13 0.812773 0.870417 0.999419
O O14 0.948330 0.889409 0.001527
O O15 0.745044 0.637351 0.750000
O O16 0.739070 0.533213 0.601617
O O17 0.814934 0.427995 0.250000
O O18 0.912371 0.408119 0.449182
O O19 0.771603 0.424482 0.505206
O O20 0.007991 0.059346 0.750000
O O21 0.000000 0.000000 0.500000
O O22 0.706637 0.431580 0.750000
#
# Coordination Sequence:
#
# PCOD8230111 Si02
#       8
#     8   8   8   8   8   8   8   8
#     4  10  20  33  48  70  96 123 155 194 237 284
#     4   9  19  34  51  69  92 121 156 196 238 281
#     4  10  19  31  46  63  82 109 144 183 223 265
#     4   9  16  25  37  55  79 110 144 177 211 253
#     4  10  18  28  42  61  86 116 146 179 217 262
#     4   8  15  25  37  54  79 110 143 176 212 254
#     4   9  15  23  35  53  77 107 142 178 212 253
#     4   9  18  29  42  61  87 116 146 179 220 268
#
# _framework density 17.332501000000001
#
# number of rings (size 3 to 8) (size 9 to 14) (size 15 to 20)
#    0.000    2.750    0.000    3.000    0.000    5.500 
#    0.000    0.000    0.000    0.000    0.000    0.000 
#    0.000    1.000    0.000    5.250    0.000    6.500 
#
# Total GULP energy -792931.473954 kJ/mol
# GULP energy per Si atom -12389.554281 kJ/mol
# Density = 1.729305 g / cm^3
# Si number density = 17.332501 Si / 1000 Ang^3
#
#
#
# Elastic Constant Matrix: (Units=GPa)
#
#
# Indices 1 2 3 4 5 6 
#
# 1 93.9994 20.3507 52.1999 0.0000 0.0000 0.0000
# 2 20.3507 48.2620 27.4606 0.0000 0.0000 0.0000
# 3 52.1999 27.4606 118.8643 0.0000 0.0000 0.0000
# 4 0.0000 0.0000 0.0000 19.0429 0.0000 0.0000
# 5 0.0000 0.0000 0.0000 0.0000 30.1037 0.0000
# 6 0.0000 0.0000 0.0000 0.0000 0.0000 8.8190
#
#
#
# Elastic Compliance Matrix: (Units=1/GPa)
#
#
# Indices 1 2 3 4 5 6 
#
# 1 0.014402 -0.002849 -0.005667 0.000000 0.000000 0.000000
# 2 -0.002849 0.024420 -0.004391 0.000000 0.000000 0.000000
# 3 -0.005667 -0.004391 0.011916 0.000000 0.000000 0.000000
# 4 0.000000 0.000000 0.000000 0.052513 0.000000 0.000000
# 5 0.000000 0.000000 0.000000 0.000000 0.033218 0.000000
# 6 0.000000 0.000000 0.000000 0.000000 0.000000 0.113392
#
#
# Mechanical properties :
#
#
# Convention : Reuss Voigt Hill
#
# Bulk Modulus (GPa) = 40.11912 51.23869 45.67891
# Shear Modulus (GPa) = 17.60685 22.33410 19.97047
#
# Velocity S-wave (km/s) = 3.19066 3.59356 3.39809
# Velocity P-wave (km/s) = 6.06389 6.84431 6.46589
#
# Compressibility (1/GPa) = 0.02492577
#
# Stress axis : x y z
#
# Youngs Moduli (GPa) = 69.43551 40.95071 83.92237
#
# Poissons Ratio (x) = 0.11665 0.47555
# Poissons Ratio (y) = 0.19780 0.36846
# Poissons Ratio (z) = 0.39346 0.17980
#
# Static dielectric constant tensor:
#      x y z
#    x 3.544770 0.000000 0.000000 
#    y 0.000000 2.774530 0.000000 
#    z 0.000000 0.000000 3.579280 
# 
# 
# High freq. dielectric constant tensor:
#      x y z
#    x 1.672850 0.000000 0.000000 
#    y 0.000000 1.602310 0.000000 
#    z 0.000000 0.000000 1.681080 
# 
# From -- ./inp_files/7430.got.cif
#   From: 2010.03.12/outbox.cif.g09.slc.cpg/sg57_4_cif.got.tgz:7430.got - 2010.04.16 15:48:40.
