data_PCOD8230391
_publ_section_title
;
Structure prediction by ZEFSAII (Michael W. Deem and Ramdas Pophale) SiO2 
 PCOD8230391
Probable space group: P B C M
;
_chemical_formula_sum "Si O2"
_cell_formula_units_Z 48
_cell_length_a 17.237064
_cell_length_b 15.531163
_cell_length_c 8.629334
_cell_angle_alpha 90.000000
_cell_angle_beta 90.000000
_cell_angle_gamma 90.000000
_cell_volume 2310.173249
_symmetry_space_group_name_H-M "P B C M"
_symmetry_group_IT_number 57
_symmetry_cell_setting 'orthorhombic'
loop_
_space_group_symop_operation_xyz
x,y,z
-x,-y,1/2+z
x,1/2-y,-z
-x,1/2+y,1/2-z
-x,-y,-z
x,y,1/2-z
-x,1/2+y,z
x,1/2-y,1/2+z
loop_
_atom_site_type_symbol
_atom_site_label
_atom_site_fract_x
_atom_site_fract_y
_atom_site_fract_z
Si Si1 0.677055 0.839230 0.068311
Si Si2 0.168679 0.102932 0.431459
Si Si3 0.674626 0.159465 0.430990
Si Si4 0.414706 0.000504 0.067251
Si Si5 0.002677 0.407203 0.929615
Si Si6 0.164036 0.916765 0.570205
O O1 0.662951 0.841413 0.250000
O O2 0.644117 0.750000 0.000000
O O3 0.768429 0.845802 0.031076
O O4 0.631780 0.917503 0.992390
O O5 0.185779 0.118415 0.250000
O O6 0.082711 0.139094 0.485487
O O7 0.174233 0.000925 0.464736
O O8 0.647235 0.250000 0.500000
O O9 0.655208 0.155581 0.250000
O O10 0.766264 0.148477 0.464312
O O11 0.627968 0.085706 0.516803
O O12 0.418999 0.004803 0.250000
O O13 0.500000 0.000000 0.000000
O O14 0.014989 0.419812 0.750000
O O15 0.917868 0.365786 0.967158
O O16 0.000000 0.500000 0.000000
O O17 0.165121 0.946510 0.750000
#
# Coordination Sequence:
#
# PCOD8230391 Si02
#       6
#     8   8   8   8   8   8
#     4  12  25  43  66  95 129 167 211 258 314 374
#     4  10  18  31  55  86 122 164 212 260 313 369
#     4  11  23  40  64  95 130 170 213 259 311 368
#     4  12  26  47  73 100 129 161 201 250 311 378
#     4   8  15  27  47  79 116 159 210 260 307 361
#     4   9  17  32  55  82 120 166 213 261 311 366
#
# _framework density 20.777663
#
# number of rings (size 3 to 8) (size 9 to 14) (size 15 to 20)
#    0.000    1.667    1.667    4.000    0.000    2.000 
#    0.000    4.167    0.000    2.000    0.000    0.000 
#    0.000    0.000    0.000    0.000    0.000    0.000 
#
# Total GULP energy -594845.108603 kJ/mol
# GULP energy per Si atom -12392.606429 kJ/mol
# Density = 2.073037 g / cm^3
# Si number density = 20.777663 Si / 1000 Ang^3
#
#
#
# Elastic Constant Matrix: (Units=GPa)
#
#
# Indices 1 2 3 4 5 6 
#
# 1 152.4039 56.6107 55.9600 0.0000 0.0000 0.0000
# 2 56.6107 122.3731 49.5319 0.0000 0.0000 0.0000
# 3 55.9600 49.5319 127.2105 0.0000 0.0000 0.0000
# 4 0.0000 0.0000 0.0000 30.2677 0.0000 0.0000
# 5 0.0000 0.0000 0.0000 0.0000 27.7973 0.0000
# 6 0.0000 0.0000 0.0000 0.0000 0.0000 -6.5008
#
#
#
# Elastic Compliance Matrix: (Units=1/GPa)
#
#
# Indices 1 2 3 4 5 6 
#
# 1 0.008619 -0.002911 -0.002658 0.000000 0.000000 0.000000
# 2 -0.002911 0.010684 -0.002879 0.000000 0.000000 0.000000
# 3 -0.002658 -0.002879 0.010151 0.000000 0.000000 0.000000
# 4 0.000000 0.000000 0.000000 0.033039 0.000000 0.000000
# 5 0.000000 0.000000 0.000000 0.000000 0.035975 0.000000
# 6 0.000000 0.000000 0.000000 0.000000 0.000000 -0.153827
#
#
# Mechanical properties :
#
#
# Convention : Reuss Voigt Hill
#
# Bulk Modulus (GPa) = 79.63623 80.68810 80.16217
# Shear Modulus (GPa) = -145.87270 26.30516 -59.78377
#
# Velocity S-wave (km/s) = -8.38802 3.56199 -5.36988
# Velocity P-wave (km/s) = 7.44318 7.47231 0.46613
#
# Compressibility (1/GPa) = 0.01255710
#
# Stress axis : x y z
#
# Youngs Moduli (GPa) = 116.02474 93.59816 98.50965
#
# Poissons Ratio (x) = 0.27250 0.26182
# Poissons Ratio (y) = 0.33779 0.28364
# Poissons Ratio (z) = 0.30838 0.26950
#
# Static dielectric constant tensor:
#      x y z
#    x 4.360110 0.000000 0.000000 
#    y 0.000000 3.465100 0.000000 
#    z 0.000000 0.000000 3.744280 
# 
# 
# High freq. dielectric constant tensor:
#      x y z
#    x 1.834000 0.000000 0.000000 
#    y 0.000000 1.785260 0.000000 
#    z 0.000000 0.000000 1.820070 
# 
# From -- ./inp_files/6521.got.cif
#   From: 2010.03.12/outbox.cif.g09.slc.cpg/sg57_4_cif.got.tgz:6521.got - 2010.04.16 15:48:40.
