data_PCOD8230096
_publ_section_title
;
Structure prediction by ZEFSAII (Michael W. Deem and Ramdas Pophale) SiO2 
 PCOD8230096
Probable space group: P B C M
;
_chemical_formula_sum "Si O2"
_cell_formula_units_Z 64
_cell_length_a 18.815577
_cell_length_b 25.083734
_cell_length_c 8.830149
_cell_angle_alpha 90.000000
_cell_angle_beta 90.000000
_cell_angle_gamma 90.000000
_cell_volume 4167.520642
_symmetry_space_group_name_H-M "P B C M"
_symmetry_group_IT_number 57
_symmetry_cell_setting 'orthorhombic'
loop_
_space_group_symop_operation_xyz
x,y,z
-x,-y,1/2+z
x,1/2-y,-z
-x,1/2+y,1/2-z
-x,-y,-z
x,y,1/2-z
-x,1/2+y,z
x,1/2-y,1/2+z
loop_
_atom_site_type_symbol
_atom_site_label
_atom_site_fract_x
_atom_site_fract_y
_atom_site_fract_z
Si Si1 0.110417 0.986153 0.073441
Si Si2 0.260934 0.511119 0.071870
Si Si3 0.781697 0.803906 0.430739
Si Si4 0.065344 0.195725 0.071248
Si Si5 0.395460 0.959810 0.423111
Si Si6 0.687382 0.897514 0.074777
Si Si7 0.455955 0.437874 0.424664
Si Si8 0.990827 0.580382 0.426249
O O1 0.123641 0.981539 0.250000
O O2 0.057017 0.939562 0.023569
O O3 0.078549 0.044601 0.030234
O O4 0.184633 0.974205 0.993075
O O5 0.255694 0.513708 0.250000
O O6 0.284186 0.453377 0.007311
O O7 0.324083 0.551821 0.019850
O O8 0.750453 0.750000 0.500000
O O9 0.783433 0.800937 0.250000
O O10 0.859823 0.814814 0.492764
O O11 0.729953 0.849035 0.499400
O O12 0.075470 0.204115 0.250000
O O13 0.019249 0.142960 0.036518
O O14 0.030762 0.250000 0.000000
O O15 0.371170 0.958308 0.250000
O O16 0.462088 0.918662 0.454100
O O17 0.432494 0.015877 0.461279
O O18 0.707125 0.897677 0.250000
O O19 0.602102 0.890745 0.049018
O O20 0.448682 0.458307 0.250000
O O21 0.007994 0.571614 0.250000
#
# Coordination Sequence:
#
# PCOD8230096 Si02
#       8
#     8   8   8   8   8   8   8   8
#     4  10  19  30  45  64  85 111 144 176 208 251
#     4  10  18  28  41  57  81 110 139 168 203 245
#     4  10  18  28  41  57  79 105 136 171 206 240
#     4  10  19  31  46  63  84 109 140 175 211 249
#     4   9  15  23  37  56  78 102 130 164 197 232
#     4   8  15  26  40  56  75 106 141 168 197 240
#     4   8  14  25  38  53  75 103 133 162 195 233
#     4   9  19  33  46  62  86 113 139 173 214 253
#
# _framework density 15.356852
#
# number of rings (size 3 to 8) (size 9 to 14) (size 15 to 20)
#    0.000    2.750    0.000    4.125    0.000    2.000 
#    0.000    5.625    0.000    0.000    0.000    0.000 
#    0.000    1.000    0.000    9.250    0.000    2.875 
#
# Total GULP energy -792855.637302 kJ/mol
# GULP energy per Si atom -12388.369333 kJ/mol
# Density = 1.532190 g / cm^3
# Si number density = 15.356852 Si / 1000 Ang^3
#
#
#
# Elastic Constant Matrix: (Units=GPa)
#
#
# Indices 1 2 3 4 5 6 
#
# 1 112.8107 32.1372 41.6913 0.0000 0.0000 0.0000
# 2 32.1372 65.6792 25.2788 0.0000 0.0000 0.0000
# 3 41.6913 25.2788 64.3155 0.0000 0.0000 0.0000
# 4 0.0000 0.0000 0.0000 16.3163 0.0000 0.0000
# 5 0.0000 0.0000 0.0000 0.0000 24.7026 0.0000
# 6 0.0000 0.0000 0.0000 0.0000 0.0000 20.9102
#
#
#
# Elastic Compliance Matrix: (Units=1/GPa)
#
#
# Indices 1 2 3 4 5 6 
#
# 1 0.012295 -0.003474 -0.006604 0.000000 0.000000 0.000000
# 2 -0.003474 0.018921 -0.005185 0.000000 0.000000 0.000000
# 3 -0.006604 -0.005185 0.021867 0.000000 0.000000 0.000000
# 4 0.000000 0.000000 0.000000 0.061288 0.000000 0.000000
# 5 0.000000 0.000000 0.000000 0.000000 0.040482 0.000000
# 6 0.000000 0.000000 0.000000 0.000000 0.000000 0.047824
#
#
# Mechanical properties :
#
#
# Convention : Reuss Voigt Hill
#
# Bulk Modulus (GPa) = 44.33279 49.00221 46.66750
# Shear Modulus (GPa) = 20.77083 21.96569 21.36826
#
# Velocity S-wave (km/s) = 3.68169 3.78610 3.73426
# Velocity P-wave (km/s) = 6.85596 7.14780 7.00340
#
# Compressibility (1/GPa) = 0.02255667
#
# Stress axis : x y z
#
# Youngs Moduli (GPa) = 81.33476 52.85161 45.73013
#
# Poissons Ratio (x) = 0.18361 0.30202
# Poissons Ratio (y) = 0.28256 0.23710
# Poissons Ratio (z) = 0.53717 0.27402
#
# Static dielectric constant tensor:
#      x y z
#    x 3.150280 0.000000 0.000000 
#    y 0.000000 2.860330 0.000000 
#    z 0.000000 0.000000 2.952880 
# 
# 
# High freq. dielectric constant tensor:
#      x y z
#    x 1.590910 0.000000 0.000000 
#    y 0.000000 1.540840 0.000000 
#    z 0.000000 0.000000 1.594990 
# 
# From -- ./inp_files/7475.got.cif
#   From: 2010.03.12/outbox.cif.g09.slc.cpg/sg57_4_cif.got.tgz:7475.got - 2010.04.16 15:48:40.
