data_PCOD8230102
_publ_section_title
;
Structure prediction by ZEFSAII (Michael W. Deem and Ramdas Pophale) SiO2 
 PCOD8230102
Probable space group: P B C M
;
_chemical_formula_sum "Si O2"
_cell_formula_units_Z 64
_cell_length_a 18.708040
_cell_length_b 25.161788
_cell_length_c 8.734573
_cell_angle_alpha 90.000000
_cell_angle_beta 90.000000
_cell_angle_gamma 90.000000
_cell_volume 4111.605776
_symmetry_space_group_name_H-M "P B C M"
_symmetry_group_IT_number 57
_symmetry_cell_setting 'orthorhombic'
loop_
_space_group_symop_operation_xyz
x,y,z
-x,-y,1/2+z
x,1/2-y,-z
-x,1/2+y,1/2-z
-x,-y,-z
x,y,1/2-z
-x,1/2+y,z
x,1/2-y,1/2+z
loop_
_atom_site_type_symbol
_atom_site_label
_atom_site_fract_x
_atom_site_fract_y
_atom_site_fract_z
Si Si1 0.241858 0.511088 0.929609
Si Si2 0.812216 0.602526 0.072797
Si Si3 0.486597 0.414763 0.070570
Si Si4 0.894507 0.459671 0.924771
Si Si5 0.956042 0.937950 0.926817
Si Si6 0.394293 0.513916 0.429815
Si Si7 0.279779 0.196287 0.430936
Si Si8 0.557113 0.805384 0.569472
O O1 0.257292 0.514144 0.750000
O O2 0.215638 0.453821 0.990021
O O3 0.176126 0.551177 0.972375
O O4 0.313309 0.524688 0.020624
O O5 0.792574 0.604069 0.250000
O O6 0.897890 0.609155 0.045479
O O7 0.768383 0.649865 0.993666
O O8 0.488831 0.404380 0.250000
O O9 0.420206 0.453935 0.026470
O O10 0.559234 0.442884 0.019035
O O11 0.483421 0.357611 0.989336
O O12 0.868973 0.456948 0.750000
O O13 0.961535 0.418739 0.956375
O O14 0.932674 0.515682 0.958255
O O15 0.948139 0.957962 0.750000
O O16 0.403506 0.523526 0.250000
O O17 0.248380 0.250000 0.500000
O O18 0.273631 0.198997 0.250000
O O19 0.361094 0.187574 0.483681
O O20 0.526253 0.750000 0.500000
O O21 0.548433 0.801957 0.750000
#
# Coordination Sequence:
#
# PCOD8230102 Si02
#       8
#     8   8   8   8   8   8   8   8
#     4  10  18  28  42  59  81 110 143 174 209 253
#     4   8  14  25  40  56  76 107 142 171 202 245
#     4  10  20  33  48  66  89 116 146 181 221 265
#     4   9  15  23  36  55  79 104 132 167 203 239
#     4   8  14  24  37  53  75 105 137 165 197 239
#     4  10  20  32  46  65  89 117 148 181 218 263
#     4   9  17  28  41  57  79 106 137 173 210 245
#     4  10  19  31  47  66  88 116 150 186 223 261
#
# _framework density 15.565694000000001
#
# number of rings (size 3 to 8) (size 9 to 14) (size 15 to 20)
#    0.000    2.750    0.000    3.375    0.000    3.500 
#    0.000    3.125    0.000    0.000    0.000    0.000 
#    0.000    1.000    0.000    7.000    0.000    3.625 
#
# Total GULP energy -792940.613301 kJ/mol
# GULP energy per Si atom -12389.697083 kJ/mol
# Density = 1.553027 g / cm^3
# Si number density = 15.565694 Si / 1000 Ang^3
#
#
#
# Elastic Constant Matrix: (Units=GPa)
#
#
# Indices 1 2 3 4 5 6 
#
# 1 93.9028 30.3031 16.2065 0.0000 0.0000 0.0000
# 2 30.3031 74.5064 20.2314 0.0000 0.0000 0.0000
# 3 16.2065 20.2314 39.2242 0.0000 0.0000 0.0000
# 4 0.0000 0.0000 0.0000 19.8218 0.0000 0.0000
# 5 0.0000 0.0000 0.0000 0.0000 23.0747 0.0000
# 6 0.0000 0.0000 0.0000 0.0000 0.0000 17.9823
#
#
#
# Elastic Compliance Matrix: (Units=1/GPa)
#
#
# Indices 1 2 3 4 5 6 
#
# 1 0.012548 -0.004298 -0.002968 0.000000 0.000000 0.000000
# 2 -0.004298 0.017080 -0.007034 0.000000 0.000000 0.000000
# 3 -0.002968 -0.007034 0.030349 0.000000 0.000000 0.000000
# 4 0.000000 0.000000 0.000000 0.050449 0.000000 0.000000
# 5 0.000000 0.000000 0.000000 0.000000 0.043337 0.000000
# 6 0.000000 0.000000 0.000000 0.000000 0.000000 0.055610
#
#
# Mechanical properties :
#
#
# Convention : Reuss Voigt Hill
#
# Bulk Modulus (GPa) = 31.86969 37.90170 34.88570
# Shear Modulus (GPa) = 20.12622 21.56859 20.84741
#
# Velocity S-wave (km/s) = 3.59971 3.72647 3.66364
# Velocity P-wave (km/s) = 6.14785 6.55117 6.35271
#
# Compressibility (1/GPa) = 0.03137777
#
# Stress axis : x y z
#
# Youngs Moduli (GPa) = 79.69106 58.54948 32.95041
#
# Poissons Ratio (x) = 0.25163 0.09780
# Poissons Ratio (y) = 0.34249 0.23176
# Poissons Ratio (z) = 0.23652 0.41182
#
# Static dielectric constant tensor:
#      x y z
#    x 3.202170 0.000000 0.000000 
#    y 0.000000 2.836920 0.000000 
#    z 0.000000 0.000000 2.928050 
# 
# 
# High freq. dielectric constant tensor:
#      x y z
#    x 1.599330 0.000000 0.000000 
#    y 0.000000 1.548580 0.000000 
#    z 0.000000 0.000000 1.600330 
# 
# From -- ./inp_files/7419.got.cif
#   From: 2010.03.12/outbox.cif.g09.slc.cpg/sg57_4_cif.got.tgz:7419.got - 2010.04.16 15:48:40.
