data_PCOD8230164
_publ_section_title
;
Structure prediction by ZEFSAII (Michael W. Deem and Ramdas Pophale) SiO2 
 PCOD8230164
Probable space group: P B C M
;
_chemical_formula_sum "Si O2"
_cell_formula_units_Z 56
_cell_length_a 20.450365
_cell_length_b 18.378365
_cell_length_c 8.893147
_cell_angle_alpha 90.000000
_cell_angle_beta 90.000000
_cell_angle_gamma 90.000000
_cell_volume 3342.438363
_symmetry_space_group_name_H-M "P B C M"
_symmetry_group_IT_number 57
_symmetry_cell_setting 'orthorhombic'
loop_
_space_group_symop_operation_xyz
x,y,z
-x,-y,1/2+z
x,1/2-y,-z
-x,1/2+y,1/2-z
-x,-y,-z
x,y,1/2-z
-x,1/2+y,z
x,1/2-y,1/2+z
loop_
_atom_site_type_symbol
_atom_site_label
_atom_site_fract_x
_atom_site_fract_y
_atom_site_fract_z
Si Si1 0.438161 0.962614 0.926651
Si Si2 0.057324 0.956195 0.076253
Si Si3 0.753270 0.826738 0.072305
Si Si4 0.619295 0.891384 0.425649
Si Si5 0.867122 0.906833 0.578528
Si Si6 0.997310 0.327794 0.925843
Si Si7 0.517784 0.326999 0.429006
O O1 0.449154 0.950022 0.750000
O O2 0.379863 0.021070 0.956367
O O3 0.428230 0.885005 0.009149
O O4 0.500000 0.000000 0.000000
O O5 0.040465 0.943936 0.250000
O O6 0.122260 0.005965 0.058351
O O7 0.061136 0.877950 0.994330
O O8 0.000000 0.000000 0.000000
O O9 0.750129 0.818175 0.250000
O O10 0.684308 0.855522 0.004003
O O11 0.771267 0.750000 0.000000
O O12 0.809210 0.884188 0.031660
O O13 0.619411 0.876759 0.250000
O O14 0.554010 0.851935 0.489003
O O15 0.847623 0.888770 0.750000
O O16 0.932533 0.862723 0.535295
O O17 0.985673 0.320948 0.750000
O O18 0.992481 0.250000 0.000000
O O19 0.535768 0.250000 0.500000
O O20 0.522027 0.323577 0.250000
#
# Coordination Sequence:
#
# PCOD8230164 Si02
#       7
#     8   8   8   8   8   8   8
#     4   9  16  29  46  64  88 116 148 186 226 270
#     4   9  17  30  47  65  88 116 149 186 226 269
#     4  11  21  32  46  65  90 122 156 187 218 256
#     4   8  17  31  45  63  89 120 153 186 220 261
#     4   9  19  33  46  64  90 121 153 186 220 260
#     4  10  19  30  46  68  94 120 149 184 226 269
#     4  10  18  29  45  67  93 119 149 185 227 271
#
# _framework density 16.754235999999999
#
# number of rings (size 3 to 8) (size 9 to 14) (size 15 to 20)
#    0.000    2.571    0.000    4.714    0.000    4.571 
#    0.000    7.857    0.000    0.000    0.000    1.000 
#    0.000    6.857    0.000    0.000    0.000    0.000 
#
# Total GULP energy -694000.583463 kJ/mol
# GULP energy per Si atom -12392.867562 kJ/mol
# Density = 1.671610 g / cm^3
# Si number density = 16.754236 Si / 1000 Ang^3
#
#
#
# Elastic Constant Matrix: (Units=GPa)
#
#
# Indices 1 2 3 4 5 6 
#
# 1 36.8012 20.9790 19.8415 0.0000 0.0000 0.0000
# 2 20.9790 118.2590 44.0210 0.0000 0.0000 0.0000
# 3 19.8415 44.0210 82.8133 0.0000 0.0000 0.0000
# 4 0.0000 0.0000 0.0000 33.3279 0.0000 0.0000
# 5 0.0000 0.0000 0.0000 0.0000 17.2306 0.0000
# 6 0.0000 0.0000 0.0000 0.0000 0.0000 23.2509
#
#
#
# Elastic Compliance Matrix: (Units=1/GPa)
#
#
# Indices 1 2 3 4 5 6 
#
# 1 0.032362 -0.003559 -0.005862 0.000000 0.000000 0.000000
# 2 -0.003559 0.010933 -0.004959 0.000000 0.000000 0.000000
# 3 -0.005862 -0.004959 0.016116 0.000000 0.000000 0.000000
# 4 0.000000 0.000000 0.000000 0.030005 0.000000 0.000000
# 5 0.000000 0.000000 0.000000 0.000000 0.058036 0.000000
# 6 0.000000 0.000000 0.000000 0.000000 0.000000 0.043009
#
#
# Mechanical properties :
#
#
# Convention : Reuss Voigt Hill
#
# Bulk Modulus (GPa) = 32.62476 45.28406 38.95441
# Shear Modulus (GPa) = 21.79223 24.96399 23.37811
#
# Velocity S-wave (km/s) = 3.61043 3.86425 3.73950
# Velocity P-wave (km/s) = 6.07414 6.85544 6.47658
#
# Compressibility (1/GPa) = 0.03065157
#
# Stress axis : x y z
#
# Youngs Moduli (GPa) = 30.90004 91.46304 62.05022
#
# Poissons Ratio (x) = 0.32551 0.36374
# Poissons Ratio (y) = 0.10997 0.30772
# Poissons Ratio (z) = 0.18114 0.45358
#
# Static dielectric constant tensor:
#      x y z
#    x 3.023980 0.000000 0.000000 
#    y 0.000000 3.616390 0.000000 
#    z 0.000000 0.000000 3.377010 
# 
# 
# High freq. dielectric constant tensor:
#      x y z
#    x 1.594660 0.000000 0.000000 
#    y 0.000000 1.656880 0.000000 
#    z 0.000000 0.000000 1.651680 
# 
# From -- ./inp_files/9517.got.cif
#   From: 2010.03.12/outbox.cif.g09.slc.cpg/sg57_5_cif.got.tgz:9517.got - 2010.04.16 15:48:40.
