data_PCOD8230777
_publ_section_title
;
Structure prediction by ZEFSAII (Michael W. Deem and Ramdas Pophale) SiO2 
 PCOD8230777
Probable space group: P B C M
;
_chemical_formula_sum "Si O2"
_cell_formula_units_Z 64
_cell_length_a 30.359984
_cell_length_b 13.758555
_cell_length_c 8.820978
_cell_angle_alpha 90.000000
_cell_angle_beta 90.000000
_cell_angle_gamma 90.000000
_cell_volume 3684.606395
_symmetry_space_group_name_H-M "P B C M"
_symmetry_group_IT_number 57
_symmetry_cell_setting 'orthorhombic'
loop_
_space_group_symop_operation_xyz
x,y,z
-x,-y,1/2+z
x,1/2-y,-z
-x,1/2+y,1/2-z
-x,-y,-z
x,y,1/2-z
-x,1/2+y,z
x,1/2-y,1/2+z
loop_
_atom_site_type_symbol
_atom_site_label
_atom_site_fract_x
_atom_site_fract_y
_atom_site_fract_z
Si Si1 0.110631 0.346973 0.420443
Si Si2 0.354778 0.150389 0.927016
Si Si3 0.254279 0.353373 0.070148
Si Si4 0.518345 0.146030 0.572652
Si Si5 0.181332 0.476904 0.570106
Si Si6 0.954818 0.482440 0.583093
Si Si7 0.874301 0.356684 0.932080
Si Si8 0.565572 0.522666 0.927947
O O1 0.094035 0.250000 0.500000
O O2 0.129191 0.329632 0.250000
O O3 0.148086 0.391507 0.526006
O O4 0.068289 0.414086 0.412149
O O5 0.358877 0.166543 0.750000
O O6 0.304874 0.125850 0.974231
O O7 0.386906 0.063639 0.979485
O O8 0.371253 0.250000 0.000000
O O9 0.246532 0.350333 0.250000
O O10 0.238865 0.250000 0.000000
O O11 0.228339 0.443695 0.995985
O O12 0.523874 0.250000 0.500000
O O13 0.522388 0.157833 0.750000
O O14 0.471583 0.100481 0.523840
O O15 0.558024 0.077892 0.515020
O O16 0.183670 0.490287 0.750000
O O17 0.166013 0.578266 0.494229
O O18 0.966940 0.445413 0.750000
O O19 0.920932 0.403246 0.511100
O O20 0.000000 0.500000 0.500000
O O21 0.871994 0.356127 0.750000
O O22 0.869717 0.250000 0.000000
O O23 0.563455 0.501637 0.750000
#
# Coordination Sequence:
#
# PCOD8230777 Si02
#       8
#     8   8   8   8   8   8   8   8
#     4  10  20  34  50  72  99 129 162 198 239 285
#     4   9  18  31  49  72 100 133 165 201 245 294
#     4  10  19  32  50  75 105 135 165 200 246 300
#     4  10  19  30  47  70  96 128 165 207 251 294
#     4  11  21  34  53  76 101 131 163 201 245 290
#     4   9  20  35  51  72 101 132 165 202 240 284
#     4  10  21  38  57  79 103 132 169 209 250 293
#     4   9  18  32  48  69  97 129 166 205 247 296
#
# _framework density 17.369562999999999
#
# number of rings (size 3 to 8) (size 9 to 14) (size 15 to 20)
#    0.000    2.250    0.000    4.125    0.000    5.000 
#    0.000    2.500    0.000    0.750    0.000    3.500 
#    0.000    0.000    0.000    0.000    0.000    0.000 
#
# Total GULP energy -793514.297302 kJ/mol
# GULP energy per Si atom -12398.660895 kJ/mol
# Density = 1.733003 g / cm^3
# Si number density = 17.369563 Si / 1000 Ang^3
#
#
#
# Elastic Constant Matrix: (Units=GPa)
#
#
# Indices 1 2 3 4 5 6 
#
# 1 100.0392 60.2400 41.1176 0.0000 0.0000 0.0000
# 2 60.2400 139.3583 53.7592 0.0000 0.0000 0.0000
# 3 41.1176 53.7592 84.1317 0.0000 0.0000 0.0000
# 4 0.0000 0.0000 0.0000 32.5579 0.0000 0.0000
# 5 0.0000 0.0000 0.0000 0.0000 25.8298 0.0000
# 6 0.0000 0.0000 0.0000 0.0000 0.0000 21.3790
#
#
#
# Elastic Compliance Matrix: (Units=1/GPa)
#
#
# Indices 1 2 3 4 5 6 
#
# 1 0.014502 -0.004691 -0.004090 0.000000 0.000000 0.000000
# 2 -0.004691 0.011041 -0.004762 0.000000 0.000000 0.000000
# 3 -0.004090 -0.004762 0.016928 0.000000 0.000000 0.000000
# 4 0.000000 0.000000 0.000000 0.030715 0.000000 0.000000
# 5 0.000000 0.000000 0.000000 0.000000 0.038715 0.000000
# 6 0.000000 0.000000 0.000000 0.000000 0.000000 0.046775
#
#
# Mechanical properties :
#
#
# Convention : Reuss Voigt Hill
#
# Bulk Modulus (GPa) = 65.00198 70.41810 67.71004
# Shear Modulus (GPa) = 26.19322 27.18083 26.68702
#
# Velocity S-wave (km/s) = 3.88750 3.96011 3.92398
# Velocity P-wave (km/s) = 7.59305 7.84469 7.71989
#
# Compressibility (1/GPa) = 0.01538415
#
# Stress axis : x y z
#
# Youngs Moduli (GPa) = 68.95684 90.57530 59.07358
#
# Poissons Ratio (x) = 0.42488 0.24161
# Poissons Ratio (y) = 0.32347 0.28132
# Poissons Ratio (z) = 0.28204 0.43134
#
# Static dielectric constant tensor:
#      x y z
#    x 3.315460 0.000000 0.000000 
#    y 0.000000 3.259330 0.000000 
#    z 0.000000 0.000000 3.361460 
# 
# 
# High freq. dielectric constant tensor:
#      x y z
#    x 1.662620 0.000000 0.000000 
#    y 0.000000 1.662960 0.000000 
#    z 0.000000 0.000000 1.680790 
# 
# From -- ./inp_files/10335.got.cif
#   From: 2010.03.12/outbox.cif.g09.slc.cpg/sg57_6_cif.got.tgz:10335.got - 2010.04.16 15:48:40.
