data_PCOD8230402
_publ_section_title
;
Structure prediction by ZEFSAII (Michael W. Deem and Ramdas Pophale) SiO2 
 PCOD8230402
Probable space group: P B C M
;
_chemical_formula_sum "Si O2"
_cell_formula_units_Z 48
_cell_length_a 15.264562
_cell_length_b 21.011583
_cell_length_c 8.762108
_cell_angle_alpha 90.000000
_cell_angle_beta 90.000000
_cell_angle_gamma 90.000000
_cell_volume 2810.293780
_symmetry_space_group_name_H-M "P B C M"
_symmetry_group_IT_number 57
_symmetry_cell_setting 'orthorhombic'
loop_
_space_group_symop_operation_xyz
x,y,z
-x,-y,1/2+z
x,1/2-y,-z
-x,1/2+y,1/2-z
-x,-y,-z
x,y,1/2-z
-x,1/2+y,z
x,1/2-y,1/2+z
loop_
_atom_site_type_symbol
_atom_site_label
_atom_site_fract_x
_atom_site_fract_y
_atom_site_fract_z
Si Si1 0.389024 0.054078 0.924579
Si Si2 0.014912 0.068446 0.570724
Si Si3 0.199926 0.035116 0.928822
Si Si4 0.442197 0.908428 0.576723
Si Si5 0.694760 0.317623 0.429684
Si Si6 0.152004 0.605144 0.068959
O O1 0.397927 0.076840 0.750000
O O2 0.290624 0.065043 0.991960
O O3 0.407747 0.979586 0.939206
O O4 0.456452 0.095064 0.024844
O O5 0.995955 0.067252 0.750000
O O6 0.118287 0.083047 0.537687
O O7 0.948141 0.117535 0.489429
O O8 0.000000 0.000000 0.500000
O O9 0.213044 0.024966 0.750000
O O10 0.182616 0.964045 0.994322
O O11 0.434403 0.883922 0.750000
O O12 0.384291 0.864871 0.467983
O O13 0.670684 0.250000 0.500000
O O14 0.705448 0.311979 0.250000
O O15 0.786132 0.341137 0.500142
O O16 0.154331 0.609811 0.250000
#
# Coordination Sequence:
#
# PCOD8230402 Si02
#       6
#     8   8   8   8   8   8
#     4   9  16  29  48  70  99 134 165 199 247 297
#     4   9  16  26  42  67  96 130 164 197 238 285
#     4   8  14  26  45  68  98 131 161 195 238 286
#     4  10  19  32  48  70  99 129 164 207 249 294
#     4  12  24  37  53  72  95 129 169 208 250 300
#     4  10  18  32  48  67  97 130 162 204 246 290
#
# _framework density 17.080065000000001
#
# number of rings (size 3 to 8) (size 9 to 14) (size 15 to 20)
#    0.000    2.333    1.667    4.000    0.000    0.667 
#    0.000    1.667    0.000    0.000    0.000    1.167 
#    0.000    0.000    0.000    0.000    0.000    0.000 
#
# Total GULP energy -594895.245919 kJ/mol
# GULP energy per Si atom -12393.650957 kJ/mol
# Density = 1.704119 g / cm^3
# Si number density = 17.080065 Si / 1000 Ang^3
#
#
#
# Elastic Constant Matrix: (Units=GPa)
#
#
# Indices 1 2 3 4 5 6 
#
# 1 148.3734 18.9300 43.7982 0.0000 0.0000 0.0000
# 2 18.9300 26.9918 21.8491 0.0000 0.0000 0.0000
# 3 43.7982 21.8491 93.6168 0.0000 0.0000 0.0000
# 4 0.0000 0.0000 0.0000 19.9884 0.0000 0.0000
# 5 0.0000 0.0000 0.0000 0.0000 29.0020 0.0000
# 6 0.0000 0.0000 0.0000 0.0000 0.0000 9.9958
#
#
#
# Elastic Compliance Matrix: (Units=1/GPa)
#
#
# Indices 1 2 3 4 5 6 
#
# 1 0.008037 -0.003197 -0.003014 0.000000 0.000000 0.000000
# 2 -0.003197 0.046949 -0.009462 0.000000 0.000000 0.000000
# 3 -0.003014 -0.009462 0.014300 0.000000 0.000000 0.000000
# 4 0.000000 0.000000 0.000000 0.050029 0.000000 0.000000
# 5 0.000000 0.000000 0.000000 0.000000 0.034480 0.000000
# 6 0.000000 0.000000 0.000000 0.000000 0.000000 0.100042
#
#
# Mechanical properties :
#
#
# Convention : Reuss Voigt Hill
#
# Bulk Modulus (GPa) = 26.35650 48.68186 37.51918
# Shear Modulus (GPa) = 16.78802 24.09087 20.43944
#
# Velocity S-wave (km/s) = 3.13853 3.75969 3.46307
# Velocity P-wave (km/s) = 5.34775 6.88557 6.16480
#
# Compressibility (1/GPa) = 0.03794130
#
# Stress axis : x y z
#
# Youngs Moduli (GPa) = 124.41885 21.29954 69.92886
#
# Poissons Ratio (x) = 0.06809 0.21077
# Poissons Ratio (y) = 0.39776 0.66165
# Poissons Ratio (z) = 0.37501 0.20153
#
# Static dielectric constant tensor:
#      x y z
#    x 3.882560 0.000000 0.000000 
#    y 0.000000 2.740700 0.000000 
#    z 0.000000 0.000000 3.225760 
# 
# 
# High freq. dielectric constant tensor:
#      x y z
#    x 1.682180 0.000000 0.000000 
#    y 0.000000 1.591330 0.000000 
#    z 0.000000 0.000000 1.658850 
# 
# From -- ./inp_files/4891.got.cif
#   From: 2010.03.12/outbox.cif.g09.slc.cpg/sg57_3_cif.got.tgz:4891.got - 2010.04.16 15:48:40.
