data_PCOD8230052
_publ_section_title
;
Structure prediction by ZEFSAII (Michael W. Deem and Ramdas Pophale) SiO2 
 PCOD8230052
Probable space group: P B C M
;
_chemical_formula_sum "Si O2"
_cell_formula_units_Z 56
_cell_length_a 14.308444
_cell_length_b 26.005554
_cell_length_c 9.439192
_cell_angle_alpha 90.000000
_cell_angle_beta 90.000000
_cell_angle_gamma 90.000000
_cell_volume 3512.314028
_symmetry_space_group_name_H-M "P B C M"
_symmetry_group_IT_number 57
_symmetry_cell_setting 'orthorhombic'
loop_
_space_group_symop_operation_xyz
x,y,z
-x,-y,1/2+z
x,1/2-y,-z
-x,1/2+y,1/2-z
-x,-y,-z
x,y,1/2-z
-x,1/2+y,z
x,1/2-y,1/2+z
loop_
_atom_site_type_symbol
_atom_site_label
_atom_site_fract_x
_atom_site_fract_y
_atom_site_fract_z
Si Si1 0.947866 0.568469 0.410423
Si Si2 0.385131 0.197963 0.084725
Si Si3 0.489137 0.626144 0.590738
Si Si4 0.883831 0.454585 0.413778
Si Si5 0.758097 0.610952 0.088980
Si Si6 0.673768 0.442561 0.414415
Si Si7 0.635380 0.961550 0.088001
O O1 0.983811 0.567221 0.250000
O O2 0.898068 0.514537 0.449943
O O3 0.870428 0.613470 0.433140
O O4 0.038220 0.579350 0.506110
O O5 0.403838 0.208826 0.250000
O O6 0.289794 0.165939 0.060336
O O7 0.371010 0.250000 0.000000
O O8 0.474577 0.167554 0.022447
O O9 0.503390 0.648360 0.750000
O O10 0.380280 0.611869 0.563069
O O11 0.542505 0.572207 0.574531
O O12 0.897193 0.442665 0.250000
O O13 0.781055 0.436963 0.465022
O O14 0.735851 0.592830 0.250000
O O15 0.721033 0.568815 0.981039
O O16 0.669996 0.459391 0.250000
O O17 0.620333 0.485327 0.506065
O O18 0.660929 0.973379 0.250000
#
# Coordination Sequence:
#
# PCOD8230052 Si02
#       7
#     8   8   8   8   8   8   8
#     4   9  16  28  43  61  87 119 156 190 221 260
#     4  10  20  34  53  72  93 116 145 186 232 281
#     4   9  19  32  46  65  90 120 154 189 228 270
#     4   9  17  27  41  61  88 123 158 187 219 257
#     4   9  17  31  48  65  88 123 155 183 227 278
#     4  10  18  30  44  60  90 129 159 187 222 268
#     4  10  18  26  40  65  92 119 154 193 223 259
#
# _framework density 15.943905000000001
#
# number of rings (size 3 to 8) (size 9 to 14) (size 15 to 20)
#    0.000    2.571    1.429    1.286    0.000    2.857 
#    0.000    0.000    0.000    0.000    0.000    1.000 
#    0.000    4.571    0.000    0.000    0.000    0.000 
#
# Total GULP energy -694225.758852 kJ/mol
# GULP energy per Si atom -12396.888551 kJ/mol
# Density = 1.590762 g / cm^3
# Si number density = 15.943905 Si / 1000 Ang^3
#
#
#
# Elastic Constant Matrix: (Units=GPa)
#
#
# Indices 1 2 3 4 5 6 
#
# 1 100.9310 34.1952 41.3902 0.0000 0.0000 0.0000
# 2 34.1952 61.7719 41.3318 0.0000 0.0000 0.0000
# 3 41.3902 41.3318 82.5167 0.0000 0.0000 0.0000
# 4 0.0000 0.0000 0.0000 23.7947 0.0000 0.0000
# 5 0.0000 0.0000 0.0000 0.0000 24.5986 0.0000
# 6 0.0000 0.0000 0.0000 0.0000 0.0000 13.6906
#
#
#
# Elastic Compliance Matrix: (Units=1/GPa)
#
#
# Indices 1 2 3 4 5 6 
#
# 1 0.013200 -0.004327 -0.004454 0.000000 0.000000 0.000000
# 2 -0.004327 0.025768 -0.010736 0.000000 0.000000 0.000000
# 3 -0.004454 -0.010736 0.019730 0.000000 0.000000 0.000000
# 4 0.000000 0.000000 0.000000 0.042026 0.000000 0.000000
# 5 0.000000 0.000000 0.000000 0.000000 0.040653 0.000000
# 6 0.000000 0.000000 0.000000 0.000000 0.000000 0.073043
#
#
# Mechanical properties :
#
#
# Convention : Reuss Voigt Hill
#
# Bulk Modulus (GPa) = 50.85466 53.22823 52.04145
# Shear Modulus (GPa) = 19.23009 20.97027 20.10018
#
# Velocity S-wave (km/s) = 3.47668 3.63058 3.55446
# Velocity P-wave (km/s) = 6.93409 7.14366 7.03966
#
# Compressibility (1/GPa) = 0.01966388
#
# Stress axis : x y z
#
# Youngs Moduli (GPa) = 75.75624 38.80822 50.68315
#
# Poissons Ratio (x) = 0.16793 0.22573
# Poissons Ratio (y) = 0.32782 0.54415
# Poissons Ratio (z) = 0.33740 0.41665
#
# Static dielectric constant tensor:
#      x y z
#    x 3.150290 0.000000 0.000000 
#    y 0.000000 2.670380 0.000000 
#    z 0.000000 0.000000 3.123920 
# 
# 
# High freq. dielectric constant tensor:
#      x y z
#    x 1.611870 0.000000 0.000000 
#    y 0.000000 1.562030 0.000000 
#    z 0.000000 0.000000 1.621220 
# 
# From -- ./inp_files/5920.got.cif
#   From: 2010.03.12/outbox.cif.g09.slc.cpg/sg57_3_cif.got.tgz:5920.got - 2010.04.16 15:48:40.
