data_PCOD8230881
_publ_section_title
;
Structure prediction by ZEFSAII (Michael W. Deem and Ramdas Pophale) SiO2 
 PCOD8230881
Probable space group: P B C M
;
_chemical_formula_sum "Si O2"
_cell_formula_units_Z 64
_cell_length_a 15.770051
_cell_length_b 28.381404
_cell_length_c 8.814246
_cell_angle_alpha 90.000000
_cell_angle_beta 90.000000
_cell_angle_gamma 90.000000
_cell_volume 3945.046629
_symmetry_space_group_name_H-M "P B C M"
_symmetry_group_IT_number 57
_symmetry_cell_setting 'orthorhombic'
loop_
_space_group_symop_operation_xyz
x,y,z
-x,-y,1/2+z
x,1/2-y,-z
-x,1/2+y,1/2-z
-x,-y,-z
x,y,1/2-z
-x,1/2+y,z
x,1/2-y,1/2+z
loop_
_atom_site_type_symbol
_atom_site_label
_atom_site_fract_x
_atom_site_fract_y
_atom_site_fract_z
Si Si1 0.600206 0.949286 0.424443
Si Si2 0.996587 0.699623 0.072504
Si Si3 0.348289 0.651495 0.426639
Si Si4 0.506518 0.800474 0.429609
Si Si5 0.654810 0.639661 0.071301
Si Si6 0.422866 0.946716 0.924213
Si Si7 0.186257 0.198875 0.428977
Si Si8 0.821243 0.301014 0.928563
O O1 0.613481 0.935646 0.250000
O O2 0.659281 0.915436 0.526005
O O3 0.502069 0.941278 0.465037
O O4 0.625188 0.003818 0.455927
O O5 0.995647 0.706851 0.250000
O O6 0.906251 0.676022 0.024565
O O7 0.086630 0.675454 0.024808
O O8 0.997423 0.750000 0.000000
O O9 0.362784 0.663427 0.250000
O O10 0.413448 0.682753 0.522064
O O11 0.358646 0.595875 0.457820
O O12 0.253586 0.664350 0.482275
O O13 0.528239 0.750000 0.500000
O O14 0.511648 0.796606 0.250000
O O15 0.574445 0.837939 0.488400
O O16 0.642693 0.645207 0.250000
O O17 0.741103 0.663807 0.012247
O O18 0.455575 0.945397 0.750000
O O19 0.200664 0.250000 0.500000
O O20 0.193391 0.205185 0.250000
O O21 0.816943 0.293776 0.750000
O O22 0.807848 0.250000 0.000000
#
# Coordination Sequence:
#
# PCOD8230881 Si02
#       8
#     8   8   8   8   8   8   8   8
#     4  10  19  31  48  69  88 115 153 192 234 276
#     4   8  14  27  44  64  88 114 146 185 222 264
#     4  10  19  32  48  68  92 121 152 186 226 269
#     4  12  24  35  46  63  90 126 159 187 219 264
#     4  11  21  33  47  66  91 121 153 190 230 272
#     4   9  18  32  49  66  90 118 150 192 233 272
#     4   9  18  30  46  66  90 119 151 185 226 268
#     4   9  17  28  45  67  92 120 150 182 221 265
#
# _framework density 16.222874999999998
#
# number of rings (size 3 to 8) (size 9 to 14) (size 15 to 20)
#    0.000    2.250    1.250    2.625    0.000    4.000 
#    0.000    0.000    0.000    0.000    0.000    0.875 
#    0.000    0.000    0.000    0.000    0.000    0.000 
#
# Total GULP energy -793080.477945 kJ/mol
# GULP energy per Si atom -12391.882468 kJ/mol
# Density = 1.618595 g / cm^3
# Si number density = 16.222875 Si / 1000 Ang^3
#
#
#
# Elastic Constant Matrix: (Units=GPa)
#
#
# Indices 1 2 3 4 5 6 
#
# 1 118.0475 41.3829 24.6028 0.0000 0.0000 0.0000
# 2 41.3829 85.8327 21.8344 0.0000 0.0000 0.0000
# 3 24.6028 21.8344 48.0383 0.0000 0.0000 0.0000
# 4 0.0000 0.0000 0.0000 22.6557 0.0000 0.0000
# 5 0.0000 0.0000 0.0000 0.0000 11.6789 0.0000
# 6 0.0000 0.0000 0.0000 0.0000 0.0000 13.4459
#
#
#
# Elastic Compliance Matrix: (Units=1/GPa)
#
#
# Indices 1 2 3 4 5 6 
#
# 1 0.010703 -0.004258 -0.003546 0.000000 0.000000 0.000000
# 2 -0.004258 0.014868 -0.004577 0.000000 0.000000 0.000000
# 3 -0.003546 -0.004577 0.024713 0.000000 0.000000 0.000000
# 4 0.000000 0.000000 0.000000 0.044139 0.000000 0.000000
# 5 0.000000 0.000000 0.000000 0.000000 0.085625 0.000000
# 6 0.000000 0.000000 0.000000 0.000000 0.000000 0.074372
#
#
# Mechanical properties :
#
#
# Convention : Reuss Voigt Hill
#
# Bulk Modulus (GPa) = 39.18251 47.50650 43.34451
# Shear Modulus (GPa) = 17.37984 20.49599 18.93792
#
# Velocity S-wave (km/s) = 3.27665 3.55829 3.42037
# Velocity P-wave (km/s) = 6.20647 6.79920 6.50959
#
# Compressibility (1/GPa) = 0.02552159
#
# Stress axis : x y z
#
# Youngs Moduli (GPa) = 93.43185 67.25901 40.46431
#
# Poissons Ratio (x) = 0.28640 0.14349
# Poissons Ratio (y) = 0.39785 0.18520
# Poissons Ratio (z) = 0.33132 0.30784
#
# Static dielectric constant tensor:
#      x y z
#    x 3.557590 0.000000 0.000000 
#    y 0.000000 3.099670 0.000000 
#    z 0.000000 0.000000 2.754730 
# 
# 
# High freq. dielectric constant tensor:
#      x y z
#    x 1.618170 0.000000 0.000000 
#    y 0.000000 1.602200 0.000000 
#    z 0.000000 0.000000 1.628100 
# 
# From -- ./inp_files/6013.got.cif
#   From: 2010.03.12/outbox.cif.g09.slc.cpg/sg57_4_cif.got.tgz:6013.got - 2010.04.16 15:48:40.
