data_PCOD8230966
_publ_section_title
;
Structure prediction by ZEFSAII (Michael W. Deem and Ramdas Pophale) SiO2 
 PCOD8230966
Probable space group: P B C M
;
_chemical_formula_sum "Si O2"
_cell_formula_units_Z 64
_cell_length_a 16.384601
_cell_length_b 23.047933
_cell_length_c 9.036258
_cell_angle_alpha 90.000000
_cell_angle_beta 90.000000
_cell_angle_gamma 90.000000
_cell_volume 3412.372826
_symmetry_space_group_name_H-M "P B C M"
_symmetry_group_IT_number 57
_symmetry_cell_setting 'orthorhombic'
loop_
_space_group_symop_operation_xyz
x,y,z
-x,-y,1/2+z
x,1/2-y,-z
-x,1/2+y,1/2-z
-x,-y,-z
x,y,1/2-z
-x,1/2+y,z
x,1/2-y,1/2+z
loop_
_atom_site_type_symbol
_atom_site_label
_atom_site_fract_x
_atom_site_fract_y
_atom_site_fract_z
Si Si1 0.775378 0.083095 0.575688
Si Si2 0.445684 0.424294 0.418315
Si Si3 0.116732 0.812303 0.421162
Si Si4 0.395653 0.942104 0.919409
Si Si5 0.707577 0.591458 0.413950
Si Si6 0.047929 0.372901 0.076752
Si Si7 0.156695 0.478424 0.425376
Si Si8 0.821621 0.697616 0.410953
O O1 0.768471 0.070834 0.750000
O O2 0.801823 0.150055 0.546120
O O3 0.689729 0.071712 0.496893
O O4 0.845820 0.040399 0.508624
O O5 0.447889 0.402201 0.250000
O O6 0.532980 0.409606 0.490861
O O7 0.418129 0.490798 0.427951
O O8 0.378200 0.390789 0.513458
O O9 0.117973 0.750000 0.500000
O O10 0.107827 0.797167 0.250000
O O11 0.044106 0.856627 0.468916
O O12 0.392226 0.920427 0.750000
O O13 0.696103 0.562393 0.250000
O O14 0.758122 0.550078 0.523225
O O15 0.752503 0.651043 0.392605
O O16 0.063155 0.368338 0.250000
O O17 0.079098 0.437736 0.027241
O O18 0.100374 0.324149 0.998723
O O19 0.160084 0.488368 0.250000
O O20 0.781418 0.750000 0.500000
O O21 0.852032 0.718268 0.250000
#
# Coordination Sequence:
#
# PCOD8230966 Si02
#       8
#     8   8   8   8   8   8   8   8
#     4  11  22  36  55  79 112 144 177 223 273 324
#     4  10  19  31  51  79 110 142 176 214 261 317
#     4  10  23  41  59  80 104 140 186 233 277 317
#     4  10  20  33  52  79 109 141 177 213 261 319
#     4  10  19  31  49  74 108 144 177 217 262 314
#     4   9  19  36  56  78 108 140 177 225 271 321
#     4  10  19  32  52  80 111 144 177 213 267 325
#     4  10  20  32  49  75 104 140 182 221 267 317
#
# _framework density 18.755277
#
# number of rings (size 3 to 8) (size 9 to 14) (size 15 to 20)
#    0.000    2.000    1.250    2.625    0.000    6.000 
#    0.000    0.000    0.000    0.750    0.000    5.250 
#    0.000    0.000    0.000    0.000    0.000    0.000 
#
# Total GULP energy -793191.117012 kJ/mol
# GULP energy per Si atom -12393.611203 kJ/mol
# Density = 1.871259 g / cm^3
# Si number density = 18.755277 Si / 1000 Ang^3
#
#
#
# Elastic Constant Matrix: (Units=GPa)
#
#
# Indices 1 2 3 4 5 6 
#
# 1 90.0061 36.8917 45.3874 0.0000 0.0000 0.0000
# 2 36.8917 79.3590 39.4766 0.0000 0.0000 0.0000
# 3 45.3874 39.4766 98.9894 0.0000 0.0000 0.0000
# 4 0.0000 0.0000 0.0000 27.3600 0.0000 0.0000
# 5 0.0000 0.0000 0.0000 0.0000 25.4738 0.0000
# 6 0.0000 0.0000 0.0000 0.0000 0.0000 4.8020
#
#
#
# Elastic Compliance Matrix: (Units=1/GPa)
#
#
# Indices 1 2 3 4 5 6 
#
# 1 0.015712 -0.004641 -0.005353 0.000000 0.000000 0.000000
# 2 -0.004641 0.017090 -0.004688 0.000000 0.000000 0.000000
# 3 -0.005353 -0.004688 0.014426 0.000000 0.000000 0.000000
# 4 0.000000 0.000000 0.000000 0.036550 0.000000 0.000000
# 5 0.000000 0.000000 0.000000 0.000000 0.039256 0.000000
# 6 0.000000 0.000000 0.000000 0.000000 0.000000 0.208247
#
#
# Mechanical properties :
#
#
# Convention : Reuss Voigt Hill
#
# Bulk Modulus (GPa) = 55.97700 56.87400 56.42550
# Shear Modulus (GPa) = 13.63883 21.30041 17.46962
#
# Velocity S-wave (km/s) = 2.69959 3.37367 3.05528
# Velocity P-wave (km/s) = 6.29506 6.75023 6.52662
#
# Compressibility (1/GPa) = 0.01786448
#
# Stress axis : x y z
#
# Youngs Moduli (GPa) = 63.64488 58.51273 69.31943
#
# Poissons Ratio (x) = 0.27157 0.37108
# Poissons Ratio (y) = 0.29539 0.32494
# Poissons Ratio (z) = 0.34071 0.27428
#
# Static dielectric constant tensor:
#      x y z
#    x 3.498680 0.000000 0.000000 
#    y 0.000000 3.225120 0.000000 
#    z 0.000000 0.000000 3.985250 
# 
# 
# High freq. dielectric constant tensor:
#      x y z
#    x 1.723300 0.000000 0.000000 
#    y 0.000000 1.699010 0.000000 
#    z 0.000000 0.000000 1.744280 
# 
# From -- ./inp_files/5610.got.cif
#   From: 2010.03.12/outbox.cif.g09.slc.cpg/sg57_3_cif.got.tgz:5610.got - 2010.04.16 15:48:40.
