data_PCOD8230873
_publ_section_title
;
Structure prediction by ZEFSAII (Michael W. Deem and Ramdas Pophale) SiO2 
 PCOD8230873
Probable space group: P B C M
;
_chemical_formula_sum "Si O2"
_cell_formula_units_Z 56
_cell_length_a 18.320498
_cell_length_b 19.165447
_cell_length_c 9.052082
_cell_angle_alpha 90.000000
_cell_angle_beta 90.000000
_cell_angle_gamma 90.000000
_cell_volume 3178.371861
_symmetry_space_group_name_H-M "P B C M"
_symmetry_group_IT_number 57
_symmetry_cell_setting 'orthorhombic'
loop_
_space_group_symop_operation_xyz
x,y,z
-x,-y,1/2+z
x,1/2-y,-z
-x,1/2+y,1/2-z
-x,-y,-z
x,y,1/2-z
-x,1/2+y,z
x,1/2-y,1/2+z
loop_
_atom_site_type_symbol
_atom_site_label
_atom_site_fract_x
_atom_site_fract_y
_atom_site_fract_z
Si Si1 0.929452 0.583044 0.583616
Si Si2 0.928718 0.416917 0.916944
Si Si3 0.337986 0.825336 0.924389
Si Si4 0.784838 0.920428 0.922312
Si Si5 0.217224 0.582607 0.923200
Si Si6 0.654070 0.824429 0.576411
Si Si7 0.503585 0.178222 0.419446
O O1 0.932739 0.612127 0.750000
O O2 0.931856 0.499945 0.582751
O O3 0.855148 0.609156 0.507746
O O4 0.998428 0.613300 0.493573
O O5 0.923723 0.388116 0.750000
O O6 0.859168 0.390649 0.009628
O O7 0.322437 0.817749 0.750000
O O8 0.419107 0.859648 0.954571
O O9 0.330418 0.750000 0.000000
O O10 0.282069 0.877981 0.996769
O O11 0.799314 0.908814 0.750000
O O12 0.714613 0.878416 0.981299
O O13 0.771248 0.001284 0.956976
O O14 0.217687 0.599091 0.750000
O O15 0.664853 0.750000 0.500000
O O16 0.663249 0.812595 0.750000
O O17 0.573715 0.858987 0.539121
O O18 0.505020 0.250000 0.500000
O O19 0.501791 0.198098 0.250000
#
# Coordination Sequence:
#
# PCOD8230873 Si02
#       7
#     8   8   8   8   8   8   8
#     4   9  16  26  43  67  93 121 156 195 232 274
#     4   9  16  27  44  66  92 122 156 193 233 277
#     4  10  19  32  50  71  94 122 157 196 237 281
#     4   9  18  31  47  68  97 129 158 191 235 284
#     4  10  19  31  47  69  97 127 158 193 234 280
#     4   9  17  31  50  71  94 123 159 197 236 278
#     4   8  15  28  47  68  90 118 155 196 233 273
#
# _framework density 17.619084000000001
#
# number of rings (size 3 to 8) (size 9 to 14) (size 15 to 20)
#    0.000    2.857    0.000    1.714    0.000    5.143 
#    0.000    0.714    0.000    0.857    0.000    4.000 
#    0.000    0.000    0.000    0.000    0.000    0.000 
#
# Total GULP energy -693883.640873 kJ/mol
# GULP energy per Si atom -12390.779301 kJ/mol
# Density = 1.757898 g / cm^3
# Si number density = 17.619084 Si / 1000 Ang^3
#
#
#
# Elastic Constant Matrix: (Units=GPa)
#
#
# Indices 1 2 3 4 5 6 
#
# 1 207.2289 53.7959 82.9770 0.0000 0.0000 0.0000
# 2 53.7959 37.5881 31.7846 0.0000 0.0000 0.0000
# 3 82.9770 31.7846 99.6111 0.0000 0.0000 0.0000
# 4 0.0000 0.0000 0.0000 19.3694 0.0000 0.0000
# 5 0.0000 0.0000 0.0000 0.0000 27.5458 0.0000
# 6 0.0000 0.0000 0.0000 0.0000 0.0000 -5.9140
#
#
#
# Elastic Compliance Matrix: (Units=1/GPa)
#
#
# Indices 1 2 3 4 5 6 
#
# 1 0.009016 -0.008974 -0.004647 0.000000 0.000000 0.000000
# 2 -0.008974 0.045368 -0.007001 0.000000 0.000000 0.000000
# 3 -0.004647 -0.007001 0.016144 0.000000 0.000000 0.000000
# 4 0.000000 0.000000 0.000000 0.051628 0.000000 0.000000
# 5 0.000000 0.000000 0.000000 0.000000 0.036303 0.000000
# 6 0.000000 0.000000 0.000000 0.000000 0.000000 -0.169089
#
#
# Mechanical properties :
#
#
# Convention : Reuss Voigt Hill
#
# Bulk Modulus (GPa) = 34.14834 75.72702 54.93768
# Shear Modulus (GPa) = 123.84240 19.92493 71.88366
#
# Velocity S-wave (km/s) = 8.39294 3.36649 6.39432
# Velocity P-wave (km/s) = 10.64638 7.62787 9.26093
#
# Compressibility (1/GPa) = 0.02928400
#
# Stress axis : x y z
#
# Youngs Moduli (GPa) = 110.91581 22.04213 61.94368
#
# Poissons Ratio (x) = 0.19781 0.28784
# Poissons Ratio (y) = 0.99537 0.43365
# Poissons Ratio (z) = 0.51540 0.15431
#
# Static dielectric constant tensor:
#      x y z
#    x 3.961220 0.000000 0.000000 
#    y 0.000000 2.756370 0.000000 
#    z 0.000000 0.000000 3.373280 
# 
# 
# High freq. dielectric constant tensor:
#      x y z
#    x 1.708100 0.000000 0.000000 
#    y 0.000000 1.617790 0.000000 
#    z 0.000000 0.000000 1.692810 
# 
# From -- ./inp_files/7326.got.cif
#   From: 2010.03.12/outbox.cif.g09.slc.cpg/sg57_4_cif.got.tgz:7326.got - 2010.04.16 15:48:40.
