data_PCOD8230591
_publ_section_title
;
Structure prediction by ZEFSAII (Michael W. Deem and Ramdas Pophale) SiO2 
 PCOD8230591
Probable space group: P B C M
;
_chemical_formula_sum "Si O2"
_cell_formula_units_Z 52
_cell_length_a 8.728248
_cell_length_b 15.245797
_cell_length_c 19.674463
_cell_angle_alpha 90.000000
_cell_angle_beta 90.000000
_cell_angle_gamma 90.000000
_cell_volume 2618.063029
_symmetry_space_group_name_H-M "P B C M"
_symmetry_group_IT_number 57
_symmetry_cell_setting 'orthorhombic'
loop_
_space_group_symop_operation_xyz
x,y,z
-x,-y,1/2+z
x,1/2-y,-z
-x,1/2+y,1/2-z
-x,-y,-z
x,y,1/2-z
-x,1/2+y,z
x,1/2-y,1/2+z
loop_
_atom_site_type_symbol
_atom_site_label
_atom_site_fract_x
_atom_site_fract_y
_atom_site_fract_z
Si Si1 0.570798 0.605931 0.619144
Si Si2 0.749610 0.569233 0.494779
Si Si3 0.802946 0.697671 0.250000
Si Si4 0.221340 0.102118 0.750000
Si Si5 0.930987 0.982321 0.750000
Si Si6 0.223666 0.565768 0.620238
Si Si7 0.996008 0.810907 0.441512
Si Si8 0.704299 0.784706 0.891631
O O1 0.631031 0.546708 0.555930
O O2 0.676294 0.588236 0.683899
O O3 0.397865 0.586046 0.638702
O O4 0.582729 0.707393 0.596046
O O5 0.788121 0.483472 0.451846
O O6 0.906666 0.606589 0.525936
O O7 0.668381 0.640120 0.445564
O O8 0.856497 0.800411 0.250000
O O9 0.940006 0.624813 0.250000
O O10 0.693880 0.678991 0.185086
O O11 0.097375 0.025085 0.750000
O O12 0.842737 0.010344 0.817903
O O13 0.126807 0.655050 0.609764
O O14 0.071104 0.750000 0.500000
O O15 0.877252 0.751981 0.399339
#
# Coordination Sequence:
#
# PCOD8230591 Si02
#       8
#     8   8   4   4   4   8   8   8
#     4  10  21  37  58  79 116 158 189 235 296 358
#     4  10  19  36  58  83 116 157 194 229 286 361
#     4  10  18  36  62  86 108 156 199 239 289 356
#     4  10  23  43  63  82 118 158 201 235 305 365
#     4  12  23  37  65  88 118 148 200 256 286 347
#     4  12  22  35  58  92 118 146 197 250 296 335
#     4   9  20  35  56  85 116 151 196 248 288 339
#     4   9  18  37  58  80 112 157 202 224 289 363
#
# _framework density 19.862012
#
# number of rings (size 3 to 8) (size 9 to 14) (size 15 to 20)
#    0.000    1.846    1.538    5.538    0.000    1.231 
#    0.000    0.000    3.385    0.000    0.000    0.000 
#    0.000    0.000    0.000    0.000    0.000    0.000 
#
# Total GULP energy -644647.890455 kJ/mol
# GULP energy per Si atom -12397.074816 kJ/mol
# Density = 1.981680 g / cm^3
# Si number density = 19.862012 Si / 1000 Ang^3
#
#
#
# Elastic Constant Matrix: (Units=GPa)
#
#
# Indices 1 2 3 4 5 6 
#
# 1 94.8486 30.6703 30.0670 0.0000 0.0000 0.0000
# 2 30.6703 56.8394 20.8514 0.0000 0.0000 0.0000
# 3 30.0670 20.8514 124.2815 0.0000 0.0000 0.0000
# 4 0.0000 0.0000 0.0000 25.0114 0.0000 0.0000
# 5 0.0000 0.0000 0.0000 0.0000 25.6785 0.0000
# 6 0.0000 0.0000 0.0000 0.0000 0.0000 14.5220
#
#
#
# Elastic Compliance Matrix: (Units=1/GPa)
#
#
# Indices 1 2 3 4 5 6 
#
# 1 0.013287 -0.006383 -0.002143 0.000000 0.000000 0.000000
# 2 -0.006383 0.021814 -0.002116 0.000000 0.000000 0.000000
# 3 -0.002143 -0.002116 0.008920 0.000000 0.000000 0.000000
# 4 0.000000 0.000000 0.000000 0.039982 0.000000 0.000000
# 5 0.000000 0.000000 0.000000 0.000000 0.038943 0.000000
# 6 0.000000 0.000000 0.000000 0.000000 0.000000 0.068861
#
#
# Mechanical properties :
#
#
# Convention : Reuss Voigt Hill
#
# Bulk Modulus (GPa) = 43.98325 48.79409 46.38867
# Shear Modulus (GPa) = 22.65836 26.00109 24.32973
#
# Velocity S-wave (km/s) = 3.38122 3.62206 3.50371
# Velocity P-wave (km/s) = 6.11850 6.48940 6.30667
#
# Compressibility (1/GPa) = 0.02273593
#
# Stress axis : x y z
#
# Youngs Moduli (GPa) = 75.26364 45.84252 112.11068
#
# Poissons Ratio (x) = 0.29262 0.24030
# Poissons Ratio (y) = 0.48041 0.23718
# Poissons Ratio (z) = 0.16132 0.09698
#
# Static dielectric constant tensor:
#      x y z
#    x 3.251010 0.000000 0.000000 
#    y 0.000000 3.582550 0.000000 
#    z 0.000000 0.000000 3.966740 
# 
# 
# High freq. dielectric constant tensor:
#      x y z
#    x 1.737560 0.000000 0.000000 
#    y 0.000000 1.764050 0.000000 
#    z 0.000000 0.000000 1.801700 
# 
# From -- ./inp_files/24377.got.cif
#   From: 2010.03.12/outbox.cif.g09.slc.cpg/sg57_13_cif.got.tgz:24377.got - 2010.04.16 15:48:40.
