data_PCOD8230485
_publ_section_title
;
Structure prediction by ZEFSAII (Michael W. Deem and Ramdas Pophale) SiO2 
 PCOD8230485
Probable space group: P B C M
;
_chemical_formula_sum "Si O2"
_cell_formula_units_Z 56
_cell_length_a 15.336848
_cell_length_b 12.799526
_cell_length_c 14.581170
_cell_angle_alpha 90.000000
_cell_angle_beta 90.000000
_cell_angle_gamma 90.000000
_cell_volume 2862.347606
_symmetry_space_group_name_H-M "P B C M"
_symmetry_group_IT_number 57
_symmetry_cell_setting 'orthorhombic'
loop_
_space_group_symop_operation_xyz
x,y,z
-x,-y,1/2+z
x,1/2-y,-z
-x,1/2+y,1/2-z
-x,-y,-z
x,y,1/2-z
-x,1/2+y,z
x,1/2-y,1/2+z
loop_
_atom_site_type_symbol
_atom_site_label
_atom_site_fract_x
_atom_site_fract_y
_atom_site_fract_z
Si Si1 0.911356 0.981686 0.146575
Si Si2 0.101530 0.467939 0.851504
Si Si3 0.770503 0.027455 0.496702
Si Si4 0.403985 0.629561 0.001991
Si Si5 0.523573 0.970374 0.142795
Si Si6 0.329077 0.332387 0.070838
Si Si7 0.151168 0.240703 0.891923
O O1 0.901169 0.022654 0.250000
O O2 0.905108 0.856247 0.143844
O O3 0.835230 0.037917 0.089439
O O4 0.005475 0.014003 0.106284
O O5 0.106149 0.516885 0.750000
O O6 0.118526 0.344609 0.843630
O O7 0.173054 0.528058 0.911110
O O8 0.701276 0.121810 0.496859
O O9 0.716613 0.920085 0.492214
O O10 0.438410 0.571332 0.910335
O O11 0.431312 0.750000 0.000000
O O12 0.444565 0.577020 0.093726
O O13 0.502612 0.991885 0.250000
O O14 0.598373 0.881894 0.136354
O O15 0.253676 0.278033 0.131842
O O16 0.372886 0.250000 0.000000
O O17 0.138613 0.250000 0.000000
#
# Coordination Sequence:
#
# PCOD8230485 Si02
#       7
#     8   8   8   8   8   8   8
#     4  10  21  36  56  80 112 150 194 242 288 344
#     4  11  21  35  54  82 114 149 192 243 294 342
#     4  10  20  37  57  80 114 153 193 235 287 347
#     4  10  23  43  62  88 125 159 196 244 295 355
#     4  10  22  39  65  92 118 155 200 244 291 351
#     4   9  16  33  57  86 117 143 189 237 288 344
#     4  10  18  33  56  80 110 147 185 238 294 341
#
# _framework density 19.564361000000002
#
# number of rings (size 3 to 8) (size 9 to 14) (size 15 to 20)
#    0.000    2.000    4.286    1.286    0.000    6.857 
#    2.571    0.000    0.000    0.000    0.000    0.000 
#    0.000    0.000    0.000    0.000    0.000    0.000 
#
# Total GULP energy -694293.491146 kJ/mol
# GULP energy per Si atom -12398.098056 kJ/mol
# Density = 1.951983 g / cm^3
# Si number density = 19.564361 Si / 1000 Ang^3
#
#
#
# Elastic Constant Matrix: (Units=GPa)
#
#
# Indices 1 2 3 4 5 6 
#
# 1 107.6729 32.5623 42.1025 0.0000 0.0000 0.0000
# 2 32.5623 79.5860 20.2172 0.0000 0.0000 0.0000
# 3 42.1025 20.2172 124.3474 0.0000 0.0000 0.0000
# 4 0.0000 0.0000 0.0000 14.9491 0.0000 0.0000
# 5 0.0000 0.0000 0.0000 0.0000 -36.8260 0.0000
# 6 0.0000 0.0000 0.0000 0.0000 0.0000 20.8360
#
#
#
# Elastic Compliance Matrix: (Units=1/GPa)
#
#
# Indices 1 2 3 4 5 6 
#
# 1 0.011799 -0.003977 -0.003349 0.000000 0.000000 0.000000
# 2 -0.003977 0.014447 -0.001002 0.000000 0.000000 0.000000
# 3 -0.003349 -0.001002 0.009339 0.000000 0.000000 0.000000
# 4 0.000000 0.000000 0.000000 0.066894 0.000000 0.000000
# 5 0.000000 0.000000 0.000000 0.000000 -0.027155 0.000000
# 6 0.000000 0.000000 0.000000 0.000000 0.000000 0.047994
#
#
# Mechanical properties :
#
#
# Convention : Reuss Voigt Hill
#
# Bulk Modulus (GPa) = 52.82830 55.70781 54.26805
# Shear Modulus (GPa) = 34.18027 14.24011 24.21019
#
# Velocity S-wave (km/s) = 4.18433 2.70081 3.52158
# Velocity P-wave (km/s) = 7.09970 6.18561 6.65836
#
# Compressibility (1/GPa) = 0.01892925
#
# Stress axis : x y z
#
# Youngs Moduli (GPa) = 84.74941 69.21928 107.08109
#
# Poissons Ratio (x) = 0.27529 0.35857
# Poissons Ratio (y) = 0.33706 0.10732
# Poissons Ratio (z) = 0.28379 0.06938
#
# Static dielectric constant tensor:
#      x y z
#    x 3.834190 0.000000 0.000000 
#    y 0.000000 3.583290 0.000000 
#    z 0.000000 0.000000 3.397160 
# 
# 
# High freq. dielectric constant tensor:
#      x y z
#    x 1.768530 0.000000 0.000000 
#    y 0.000000 1.742540 0.000000 
#    z 0.000000 0.000000 1.754140 
# 
# From -- ./inp_files/18608.got.cif
#   From: 2010.03.12/outbox.cif.g09.slc.cpg/sg57_10_cif.got.tgz:18608.got - 2010.04.16 15:48:40.
