data_PCOD8230008
_publ_section_title
;
Structure prediction by ZEFSAII (Michael W. Deem and Ramdas Pophale) SiO2 
 PCOD8230008
Probable space group: P B C M
;
_chemical_formula_sum "Si O2"
_cell_formula_units_Z 56
_cell_length_a 15.413896
_cell_length_b 12.978720
_cell_length_c 14.348744
_cell_angle_alpha 90.000000
_cell_angle_beta 90.000000
_cell_angle_gamma 90.000000
_cell_volume 2870.504122
_symmetry_space_group_name_H-M "P B C M"
_symmetry_group_IT_number 57
_symmetry_cell_setting 'orthorhombic'
loop_
_space_group_symop_operation_xyz
x,y,z
-x,-y,1/2+z
x,1/2-y,-z
-x,1/2+y,1/2-z
-x,-y,-z
x,y,1/2-z
-x,1/2+y,z
x,1/2-y,1/2+z
loop_
_atom_site_type_symbol
_atom_site_label
_atom_site_fract_x
_atom_site_fract_y
_atom_site_fract_z
Si Si1 0.908977 0.989223 0.140757
Si Si2 0.101893 0.447476 0.859798
Si Si3 0.771660 0.032187 0.500904
Si Si4 0.403239 0.630595 0.998818
Si Si5 0.527352 0.971050 0.141544
Si Si6 0.325029 0.337323 0.067892
Si Si7 0.149745 0.227702 0.856256
O O1 0.889377 0.999242 0.250000
O O2 0.901815 0.871127 0.104330
O O3 0.833755 0.053107 0.088386
O O4 0.003430 0.028004 0.113274
O O5 0.118334 0.455383 0.750000
O O6 0.167235 0.528221 0.907779
O O7 0.119841 0.334108 0.904051
O O8 0.716934 0.926983 0.494213
O O9 0.701617 0.123857 0.506831
O O10 0.440909 0.576720 0.092365
O O11 0.430197 0.750000 0.000000
O O12 0.441149 0.571781 0.908339
O O13 0.508063 0.993806 0.250000
O O14 0.600528 0.882954 0.133370
O O15 0.252515 0.285541 0.132691
O O16 0.364950 0.250000 0.000000
O O17 0.123960 0.239561 0.750000
#
# Coordination Sequence:
#
# PCOD8230008 Si02
#       7
#     8   8   8   8   8   8   8
#     4   9  19  34  53  77 109 149 194 241 285 341
#     4  10  19  33  51  78 113 146 188 240 291 342
#     4  10  20  35  55  78 110 151 189 231 287 346
#     4  10  23  43  61  87 125 155 193 245 295 354
#     4  10  22  40  65  90 116 155 199 241 289 351
#     4  10  17  31  56  85 116 143 187 238 286 341
#     4   9  17  30  50  76 108 144 185 234 288 334
#
# _framework density 19.508768
#
# number of rings (size 3 to 8) (size 9 to 14) (size 15 to 20)
#    0.000    2.286    1.429    1.286    0.000    4.571 
#    2.571    0.000    0.000    0.000    0.000    0.000 
#    0.000    0.000    0.000    0.000    0.000    0.000 
#
# Total GULP energy -694222.682648 kJ/mol
# GULP energy per Si atom -12396.833619 kJ/mol
# Density = 1.946437 g / cm^3
# Si number density = 19.508768 Si / 1000 Ang^3
#
#
#
# Elastic Constant Matrix: (Units=GPa)
#
#
# Indices 1 2 3 4 5 6 
#
# 1 117.9220 37.9161 49.6360 0.0000 0.0000 0.0000
# 2 37.9161 82.1711 32.6490 0.0000 0.0000 0.0000
# 3 49.6360 32.6490 94.6680 0.0000 0.0000 0.0000
# 4 0.0000 0.0000 0.0000 17.0555 0.0000 0.0000
# 5 0.0000 0.0000 0.0000 0.0000 30.5582 0.0000
# 6 0.0000 0.0000 0.0000 0.0000 0.0000 20.6826
#
#
#
# Elastic Compliance Matrix: (Units=1/GPa)
#
#
# Indices 1 2 3 4 5 6 
#
# 1 0.011655 -0.003418 -0.004932 0.000000 0.000000 0.000000
# 2 -0.003418 0.015105 -0.003417 0.000000 0.000000 0.000000
# 3 -0.004932 -0.003417 0.014328 0.000000 0.000000 0.000000
# 4 0.000000 0.000000 0.000000 0.058632 0.000000 0.000000
# 5 0.000000 0.000000 0.000000 0.000000 0.032724 0.000000
# 6 0.000000 0.000000 0.000000 0.000000 0.000000 0.048350
#
#
# Mechanical properties :
#
#
# Convention : Reuss Voigt Hill
#
# Bulk Modulus (GPa) = 56.97132 59.46258 58.21695
# Shear Modulus (GPa) = 23.78908 25.29657 24.54283
#
# Velocity S-wave (km/s) = 3.49579 3.60485 3.55074
# Velocity P-wave (km/s) = 6.74984 6.91901 6.83495
#
# Compressibility (1/GPa) = 0.01755269
#
# Stress axis : x y z
#
# Youngs Moduli (GPa) = 85.79725 66.20427 69.79493
#
# Poissons Ratio (x) = 0.22631 0.34424
# Poissons Ratio (y) = 0.29329 0.23849
# Poissons Ratio (z) = 0.42317 0.22622
#
# Static dielectric constant tensor:
#      x y z
#    x 3.657410 0.000000 0.000000 
#    y 0.000000 3.587280 0.000000 
#    z 0.000000 0.000000 3.439730 
# 
# 
# High freq. dielectric constant tensor:
#      x y z
#    x 1.763740 0.000000 0.000000 
#    y 0.000000 1.742570 0.000000 
#    z 0.000000 0.000000 1.755490 
# 
# From -- ./inp_files/18609.got.cif
#   From: 2010.03.12/outbox.cif.g09.slc.cpg/sg57_10_cif.got.tgz:18609.got - 2010.04.16 15:48:40.
