data_PCOD8230646
_publ_section_title
;
Structure prediction by ZEFSAII (Michael W. Deem and Ramdas Pophale) SiO2 
 PCOD8230646
Probable space group: P B C M
;
_chemical_formula_sum "Si O2"
_cell_formula_units_Z 64
_cell_length_a 26.029865
_cell_length_b 18.393919
_cell_length_c 8.942963
_cell_angle_alpha 90.000000
_cell_angle_beta 90.000000
_cell_angle_gamma 90.000000
_cell_volume 4281.812240
_symmetry_space_group_name_H-M "P B C M"
_symmetry_group_IT_number 57
_symmetry_cell_setting 'orthorhombic'
loop_
_space_group_symop_operation_xyz
x,y,z
-x,-y,1/2+z
x,1/2-y,-z
-x,1/2+y,1/2-z
-x,-y,-z
x,y,1/2-z
-x,1/2+y,z
x,1/2-y,1/2+z
loop_
_atom_site_type_symbol
_atom_site_label
_atom_site_fract_x
_atom_site_fract_y
_atom_site_fract_z
Si Si1 0.104484 0.407769 0.080028
Si Si2 0.493834 0.174526 0.922437
Si Si3 0.603064 0.582727 0.575234
Si Si4 0.451240 0.965340 0.423105
Si Si5 0.002166 0.672448 0.924486
Si Si6 0.701704 0.825978 0.073064
Si Si7 0.807699 0.673307 0.072688
Si Si8 0.955461 0.455735 0.577198
O O1 0.121371 0.390273 0.250000
O O2 0.095770 0.494838 0.060748
O O3 0.052931 0.363365 0.041348
O O4 0.148824 0.385281 0.965590
O O5 0.485119 0.191589 0.750000
O O6 0.441612 0.136943 0.985105
O O7 0.543500 0.121766 0.947435
O O8 0.505934 0.250000 0.000000
O O9 0.595540 0.570408 0.750000
O O10 0.598849 0.503100 0.497008
O O11 0.658421 0.615052 0.535795
O O12 0.451707 0.985000 0.250000
O O13 0.500000 0.000000 0.500000
O O14 0.012760 0.680143 0.750000
O O15 0.004520 0.750000 0.000000
O O16 0.047638 0.622419 0.995414
O O17 0.709340 0.815248 0.250000
O O18 0.684768 0.750000 0.000000
O O19 0.754184 0.853918 0.997931
O O20 0.802304 0.681844 0.250000
O O21 0.823679 0.750000 0.000000
O O22 0.969172 0.443551 0.750000
O O23 0.000000 0.500000 0.500000
#
# Coordination Sequence:
#
# PCOD8230646 Si02
#       8
#     8   8   8   8   8   8   8   8
#     4   9  18  31  45  61  82 111 144 176 211 249
#     4   9  17  27  39  59  83 107 137 168 200 239
#     4   9  18  30  43  60  81 108 141 172 206 246
#     4   9  17  28  41  58  81 107 137 171 204 242
#     4  10  19  29  43  63  87 114 144 176 210 250
#     4  10  19  31  45  61  84 110 140 177 211 247
#     4  11  21  31  44  61  83 111 143 178 213 248
#     4   9  17  29  44  61  83 110 140 174 211 251
#
# _framework density 14.946942
#
# number of rings (size 3 to 8) (size 9 to 14) (size 15 to 20)
#    0.000    2.500    0.000    5.625    0.000    7.500 
#    0.000    0.000    0.000    0.000    0.000    0.000 
#    0.000    1.000    0.000    7.000    0.000    5.125 
#
# Total GULP energy -793225.570405 kJ/mol
# GULP energy per Si atom -12394.149538 kJ/mol
# Density = 1.491292 g / cm^3
# Si number density = 14.946942 Si / 1000 Ang^3
#
#
#
# Elastic Constant Matrix: (Units=GPa)
#
#
# Indices 1 2 3 4 5 6 
#
# 1 66.5247 46.5349 43.5865 0.0000 0.0000 0.0000
# 2 46.5349 104.6066 55.7426 0.0000 0.0000 0.0000
# 3 43.5865 55.7426 97.1751 0.0000 0.0000 0.0000
# 4 0.0000 0.0000 0.0000 29.5350 0.0000 0.0000
# 5 0.0000 0.0000 0.0000 0.0000 21.8135 0.0000
# 6 0.0000 0.0000 0.0000 0.0000 0.0000 24.2507
#
#
#
# Elastic Compliance Matrix: (Units=1/GPa)
#
#
# Indices 1 2 3 4 5 6 
#
# 1 0.024636 -0.007304 -0.006861 0.000000 0.000000 0.000000
# 2 -0.007304 0.015934 -0.005864 0.000000 0.000000 0.000000
# 3 -0.006861 -0.005864 0.016732 0.000000 0.000000 0.000000
# 4 0.000000 0.000000 0.000000 0.033858 0.000000 0.000000
# 5 0.000000 0.000000 0.000000 0.000000 0.045843 0.000000
# 6 0.000000 0.000000 0.000000 0.000000 0.000000 0.041236
#
#
# Mechanical properties :
#
#
# Convention : Reuss Voigt Hill
#
# Bulk Modulus (GPa) = 57.98849 62.22606 60.10727
# Shear Modulus (GPa) = 22.31716 23.28267 22.79991
#
# Velocity S-wave (km/s) = 3.86825 3.95104 3.90986
# Velocity P-wave (km/s) = 7.67017 7.90797 7.78998
#
# Compressibility (1/GPa) = 0.01724480
#
# Stress axis : x y z
#
# Youngs Moduli (GPa) = 40.59105 62.76084 59.76699
#
# Poissons Ratio (x) = 0.45838 0.41003
# Poissons Ratio (y) = 0.29646 0.35047
# Poissons Ratio (z) = 0.27848 0.36803
#
# Static dielectric constant tensor:
#      x y z
#    x 2.744430 0.000000 0.000000 
#    y 0.000000 3.128170 0.000000 
#    z 0.000000 0.000000 3.152920 
# 
# 
# High freq. dielectric constant tensor:
#      x y z
#    x 1.534560 0.000000 0.000000 
#    y 0.000000 1.563630 0.000000 
#    z 0.000000 0.000000 1.588330 
# 
# From -- ./inp_files/9817.got.cif
#   From: 2010.03.12/outbox.cif.g09.slc.cpg/sg57_5_cif.got.tgz:9817.got - 2010.04.16 15:48:40.
