data_PCOD8230239
_publ_section_title
;
Structure prediction by ZEFSAII (Michael W. Deem and Ramdas Pophale) SiO2 
 PCOD8230239
Probable space group: P B C M
;
_chemical_formula_sum "Si O2"
_cell_formula_units_Z 40
_cell_length_a 5.193617
_cell_length_b 20.879328
_cell_length_c 23.742702
_cell_angle_alpha 90.000000
_cell_angle_beta 90.000000
_cell_angle_gamma 90.000000
_cell_volume 2574.640391
_symmetry_space_group_name_H-M "P B C M"
_symmetry_group_IT_number 57
_symmetry_cell_setting 'orthorhombic'
loop_
_space_group_symop_operation_xyz
x,y,z
-x,-y,1/2+z
x,1/2-y,-z
-x,1/2+y,1/2-z
-x,-y,-z
x,y,1/2-z
-x,1/2+y,z
x,1/2-y,1/2+z
loop_
_atom_site_type_symbol
_atom_site_label
_atom_site_fract_x
_atom_site_fract_y
_atom_site_fract_z
Si Si1 0.864932 0.418863 0.314757
Si Si2 0.047921 0.487486 0.412811
Si Si3 0.619112 0.677019 0.983981
Si Si4 0.642754 0.882046 0.369270
Si Si5 0.880615 0.399269 0.988912
O O1 0.876363 0.439413 0.250000
O O2 0.890120 0.483179 0.353499
O O3 0.599864 0.382644 0.327889
O O4 0.100495 0.370839 0.331201
O O5 0.881754 0.448746 0.459198
O O6 0.319677 0.449597 0.403618
O O7 0.096063 0.560366 0.430828
O O8 0.609958 0.673299 0.915854
O O9 0.388582 0.637317 0.012142
O O10 0.888417 0.651270 0.008001
O O11 0.585057 0.750000 0.000000
#
# Coordination Sequence:
#
# PCOD8230239 Si02
#       5
#     8   8   8   8   8
#     4  10  18  30  47  72  98 122 155 200 246 284
#     4   8  19  29  49  71 101 119 158 186 252 292
#     4  11  20  32  47  71 100 132 159 194 236 288
#     4   9  18  31  45  71  99 118 158 198 236 291
#     4  10  19  30  49  69 102 130 147 196 242 294
#
# _framework density 15.536149999999999
#
# number of rings (size 3 to 8) (size 9 to 14) (size 15 to 20)
#    1.200    1.200    2.000    1.200    2.800    2.400 
#    0.000    0.000    0.000    0.000    0.000    8.400 
#    0.000    0.000    0.000    0.000    0.000    0.000 
#
# Total GULP energy -495585.214253 kJ/mol
# GULP energy per Si atom -12389.630356 kJ/mol
# Density = 1.550079 g / cm^3
# Si number density = 15.536150 Si / 1000 Ang^3
#
#
#
# Elastic Constant Matrix: (Units=GPa)
#
#
# Indices 1 2 3 4 5 6 
#
# 1 89.6251 6.2059 23.5253 0.0000 0.0000 0.0000
# 2 6.2059 52.2101 29.8068 0.0000 0.0000 0.0000
# 3 23.5253 29.8068 106.9342 0.0000 0.0000 0.0000
# 4 0.0000 0.0000 0.0000 16.0228 0.0000 0.0000
# 5 0.0000 0.0000 0.0000 0.0000 17.0123 0.0000
# 6 0.0000 0.0000 0.0000 0.0000 0.0000 17.5757
#
#
#
# Elastic Compliance Matrix: (Units=1/GPa)
#
#
# Indices 1 2 3 4 5 6 
#
# 1 0.011842 0.000095 -0.002632 0.000000 0.000000 0.000000
# 2 0.000095 0.022779 -0.006370 0.000000 0.000000 0.000000
# 3 -0.002632 -0.006370 0.011706 0.000000 0.000000 0.000000
# 4 0.000000 0.000000 0.000000 0.062411 0.000000 0.000000
# 5 0.000000 0.000000 0.000000 0.000000 0.058781 0.000000
# 6 0.000000 0.000000 0.000000 0.000000 0.000000 0.056897
#
#
# Mechanical properties :
#
#
# Convention : Reuss Voigt Hill
#
# Bulk Modulus (GPa) = 35.07201 40.87171 37.97186
# Shear Modulus (GPa) = 19.86227 22.73761 21.29994
#
# Velocity S-wave (km/s) = 3.57943 3.82976 3.70671
# Velocity P-wave (km/s) = 6.30131 6.77648 6.54321
#
# Compressibility (1/GPa) = 0.02851276
#
# Stress axis : x y z
#
# Youngs Moduli (GPa) = 84.44681 43.90028 85.42536
#
# Poissons Ratio (x) = -0.00416 0.22480
# Poissons Ratio (y) = -0.00801 0.54418
# Poissons Ratio (z) = 0.22223 0.27966
#
# Static dielectric constant tensor:
#      x y z
#    x 3.032470 0.000000 0.000000 
#    y 0.000000 2.628380 0.000000 
#    z 0.000000 0.000000 2.871700 
# 
# 
# High freq. dielectric constant tensor:
#      x y z
#    x 1.614320 0.000000 0.000000 
#    y 0.000000 1.547180 0.000000 
#    z 0.000000 0.000000 1.581640 
# 
# From -- ./inp_files/28019.got.cif
#   From: 2010.03.12/outbox.cif.g09.slc.cpg/sg57_15_cif.got.tgz:28019.got - 2010.04.16 15:48:40.
