data_PCOD8230789
_publ_section_title
;
Structure prediction by ZEFSAII (Michael W. Deem and Ramdas Pophale) SiO2 
 PCOD8230789
Probable space group: P B C M
;
_chemical_formula_sum "Si O2"
_cell_formula_units_Z 56
_cell_length_a 17.010672
_cell_length_b 21.725340
_cell_length_c 8.840222
_cell_angle_alpha 90.000000
_cell_angle_beta 90.000000
_cell_angle_gamma 90.000000
_cell_volume 3267.015717
_symmetry_space_group_name_H-M "P B C M"
_symmetry_group_IT_number 57
_symmetry_cell_setting 'orthorhombic'
loop_
_space_group_symop_operation_xyz
x,y,z
-x,-y,1/2+z
x,1/2-y,-z
-x,1/2+y,1/2-z
-x,-y,-z
x,y,1/2-z
-x,1/2+y,z
x,1/2-y,1/2+z
loop_
_atom_site_type_symbol
_atom_site_label
_atom_site_fract_x
_atom_site_fract_y
_atom_site_fract_z
Si Si1 0.911614 0.307424 0.924755
Si Si2 0.580503 0.314971 0.070116
Si Si3 0.123966 0.473866 0.581793
Si Si4 0.444301 0.947545 0.568722
Si Si5 0.730823 0.475119 0.582380
Si Si6 0.257628 0.834303 0.579749
Si Si7 0.992966 0.412194 0.083568
O O1 0.905602 0.297757 0.750000
O O2 0.822657 0.308035 0.990017
O O3 0.956065 0.250000 0.000000
O O4 0.961560 0.366994 0.957464
O O5 0.565846 0.315292 0.250000
O O6 0.546229 0.250000 0.000000
O O7 0.541971 0.377968 0.998932
O O8 0.673317 0.316050 0.034542
O O9 0.129985 0.445302 0.750000
O O10 0.212871 0.486680 0.528375
O O11 0.081945 0.428234 0.464490
O O12 0.068041 0.532534 0.586726
O O13 0.453698 0.942499 0.750000
O O14 0.358546 0.972946 0.522528
O O15 0.500000 0.000000 0.500000
O O16 0.734581 0.504801 0.750000
O O17 0.761222 0.406085 0.588616
O O18 0.279223 0.810961 0.750000
O O19 0.997140 0.382005 0.250000
#
# Coordination Sequence:
#
# PCOD8230789 Si02
#       7
#     8   8   8   8   8   8   8
#     4  11  21  32  45  63  92 128 167 207 249 296
#     4  11  21  33  51  74 103 139 177 215 255 307
#     4  10  19  30  48  71  94 123 161 204 247 291
#     4  10  21  37  55  79 109 141 175 215 264 314
#     4   9  17  31  50  72 100 131 164 204 250 298
#     4   9  18  31  46  67  97 132 169 208 245 292
#     4  10  20  32  46  66  93 125 163 205 248 289
#
# _framework density 17.141024999999999
#
# number of rings (size 3 to 8) (size 9 to 14) (size 15 to 20)
#    0.000    2.000    1.429    4.286    0.000    6.286 
#    0.000    0.000    0.000    0.000    0.000    1.000 
#    0.000    6.857    0.000    0.000    0.000    0.000 
#
# Total GULP energy -693830.545438 kJ/mol
# GULP energy per Si atom -12389.831169 kJ/mol
# Density = 1.710201 g / cm^3
# Si number density = 17.141025 Si / 1000 Ang^3
#
#
#
# Elastic Constant Matrix: (Units=GPa)
#
#
# Indices 1 2 3 4 5 6 
#
# 1 69.3910 36.2903 37.3922 0.0000 0.0000 0.0000
# 2 36.2903 77.6269 39.9978 0.0000 0.0000 0.0000
# 3 37.3922 39.9978 88.8707 0.0000 0.0000 0.0000
# 4 0.0000 0.0000 0.0000 28.7860 0.0000 0.0000
# 5 0.0000 0.0000 0.0000 0.0000 45.5482 0.0000
# 6 0.0000 0.0000 0.0000 0.0000 0.0000 24.2164
#
#
#
# Elastic Compliance Matrix: (Units=1/GPa)
#
#
# Indices 1 2 3 4 5 6 
#
# 1 0.021139 -0.006900 -0.005789 0.000000 0.000000 0.000000
# 2 -0.006900 0.019023 -0.005659 0.000000 0.000000 0.000000
# 3 -0.005789 -0.005659 0.016235 0.000000 0.000000 0.000000
# 4 0.000000 0.000000 0.000000 0.034739 0.000000 0.000000
# 5 0.000000 0.000000 0.000000 0.000000 0.021955 0.000000
# 6 0.000000 0.000000 0.000000 0.000000 0.000000 0.041294
#
#
# Mechanical properties :
#
#
# Convention : Reuss Voigt Hill
#
# Bulk Modulus (GPa) = 50.75489 51.47213 51.11351
# Shear Modulus (GPa) = 25.29758 27.85733 26.57746
#
# Velocity S-wave (km/s) = 3.84585 4.03573 3.94193
# Velocity P-wave (km/s) = 7.02817 7.19792 7.11355
#
# Compressibility (1/GPa) = 0.01970253
#
# Stress axis : x y z
#
# Youngs Moduli (GPa) = 47.30625 52.56683 61.59606
#
# Poissons Ratio (x) = 0.36269 0.35657
# Poissons Ratio (y) = 0.32639 0.34856
# Poissons Ratio (z) = 0.27385 0.29747
#
# Static dielectric constant tensor:
#      x y z
#    x 2.995470 0.000000 0.000000 
#    y 0.000000 3.261200 0.000000 
#    z 0.000000 0.000000 3.344790 
# 
# 
# High freq. dielectric constant tensor:
#      x y z
#    x 1.628040 0.000000 0.000000 
#    y 0.000000 1.643290 0.000000 
#    z 0.000000 0.000000 1.675870 
# 
# From -- ./inp_files/7005.got.cif
#   From: 2010.03.12/outbox.cif.g09.slc.cpg/sg57_4_cif.got.tgz:7005.got - 2010.04.16 15:48:40.
