data_PCOD8230270
_publ_section_title
;
Structure prediction by ZEFSAII (Michael W. Deem and Ramdas Pophale) SiO2 
 PCOD8230270
Probable space group: P B C M
;
_chemical_formula_sum "Si O2"
_cell_formula_units_Z 64
_cell_length_a 24.955816
_cell_length_b 14.565239
_cell_length_c 8.710734
_cell_angle_alpha 90.000000
_cell_angle_beta 90.000000
_cell_angle_gamma 90.000000
_cell_volume 3166.242267
_symmetry_space_group_name_H-M "P B C M"
_symmetry_group_IT_number 57
_symmetry_cell_setting 'orthorhombic'
loop_
_space_group_symop_operation_xyz
x,y,z
-x,-y,1/2+z
x,1/2-y,-z
-x,1/2+y,1/2-z
-x,-y,-z
x,y,1/2-z
-x,1/2+y,z
x,1/2-y,1/2+z
loop_
_atom_site_type_symbol
_atom_site_label
_atom_site_fract_x
_atom_site_fract_y
_atom_site_fract_z
Si Si1 0.913175 0.338443 0.569809
Si Si2 0.473810 0.845235 0.067768
Si Si3 0.830701 0.035696 0.572797
Si Si4 0.727017 0.148597 0.932032
Si Si5 0.128285 0.343055 0.572327
Si Si6 0.374227 0.961829 0.431008
Si Si7 0.016557 0.096700 0.568675
Si Si8 0.589361 0.654677 0.431422
O O1 0.881509 0.250000 0.500000
O O2 0.921264 0.331767 0.750000
O O3 0.879848 0.429213 0.529989
O O4 0.970102 0.334574 0.483779
O O5 0.479629 0.838205 0.250000
O O6 0.431176 0.921555 0.014679
O O7 0.452018 0.750000 0.000000
O O8 0.530906 0.869156 0.995653
O O9 0.842626 0.059467 0.750000
O O10 0.776331 0.084064 0.517075
O O11 0.828609 0.925458 0.548687
O O12 0.723975 0.157878 0.750000
O O13 0.674696 0.097034 0.001573
O O14 0.732723 0.250000 0.000000
O O15 0.152697 0.250000 0.500000
O O16 0.116661 0.326088 0.750000
O O17 0.072556 0.367207 0.493221
O O18 0.369667 0.953283 0.250000
O O19 0.371878 0.069700 0.478357
O O20 0.019867 0.088697 0.750000
O O21 0.000000 0.000000 0.500000
O O22 0.612182 0.750000 0.500000
O O23 0.584942 0.665528 0.250000
#
# Coordination Sequence:
#
# PCOD8230270 Si02
#       8
#     8   8   8   8   8   8   8   8
#     4  12  24  38  59  85 117 153 189 232 280 336
#     4  10  18  30  49  77 110 146 184 228 276 335
#     4  10  22  40  62  84 112 147 188 234 283 339
#     4  10  21  40  62  86 112 144 182 229 285 340
#     4  11  23  40  61  86 117 153 193 237 284 338
#     4   9  19  34  54  78 109 146 186 228 281 338
#     4  12  23  38  59  87 120 155 191 231 281 338
#     4  10  19  33  51  75 108 148 187 230 275 328
#
# _framework density 20.213235999999998
#
# number of rings (size 3 to 8) (size 9 to 14) (size 15 to 20)
#    0.000    1.500    1.250    5.625    0.000    2.000 
#    0.000    4.375    0.000    0.000    0.000    0.000 
#    0.000    0.000    0.000    0.000    0.000    0.000 
#
# Total GULP energy -793511.708092 kJ/mol
# GULP energy per Si atom -12398.620439 kJ/mol
# Density = 2.016723 g / cm^3
# Si number density = 20.213236 Si / 1000 Ang^3
#
#
#
# Elastic Constant Matrix: (Units=GPa)
#
#
# Indices 1 2 3 4 5 6 
#
# 1 84.3339 62.8546 31.5232 0.0000 0.0000 0.0000
# 2 62.8546 168.5960 52.0733 0.0000 0.0000 0.0000
# 3 31.5232 52.0733 108.9896 0.0000 0.0000 0.0000
# 4 0.0000 0.0000 0.0000 34.0959 0.0000 0.0000
# 5 0.0000 0.0000 0.0000 0.0000 17.3717 0.0000
# 6 0.0000 0.0000 0.0000 0.0000 0.0000 41.9810
#
#
#
# Elastic Compliance Matrix: (Units=1/GPa)
#
#
# Indices 1 2 3 4 5 6 
#
# 1 0.016857 -0.005606 -0.002197 0.000000 0.000000 0.000000
# 2 -0.005606 0.008822 -0.002594 0.000000 0.000000 0.000000
# 3 -0.002197 -0.002594 0.011050 0.000000 0.000000 0.000000
# 4 0.000000 0.000000 0.000000 0.029329 0.000000 0.000000
# 5 0.000000 0.000000 0.000000 0.000000 0.057565 0.000000
# 6 0.000000 0.000000 0.000000 0.000000 0.000000 0.023820
#
#
# Mechanical properties :
#
#
# Convention : Reuss Voigt Hill
#
# Bulk Modulus (GPa) = 62.75235 72.75798 67.75516
# Shear Modulus (GPa) = 28.81029 33.05428 30.93228
#
# Velocity S-wave (km/s) = 3.77943 4.04825 3.91615
# Velocity P-wave (km/s) = 7.08224 7.61081 7.35127
#
# Compressibility (1/GPa) = 0.01593566
#
# Stress axis : x y z
#
# Youngs Moduli (GPa) = 59.32252 113.34783 90.49806
#
# Poissons Ratio (x) = 0.63541 0.19884
# Poissons Ratio (y) = 0.33255 0.23473
# Poissons Ratio (z) = 0.13034 0.29400
#
# Static dielectric constant tensor:
#      x y z
#    x 3.618850 0.000000 0.000000 
#    y 0.000000 4.078600 0.000000 
#    z 0.000000 0.000000 -1.327250 
# 
# 
# High freq. dielectric constant tensor:
#      x y z
#    x 1.764870 0.000000 0.000000 
#    y 0.000000 1.812150 0.000000 
#    z 0.000000 0.000000 1.783240 
# 
# From -- ./inp_files/9426.got.cif
#   From: 2010.03.12/outbox.cif.g09.slc.cpg/sg57_5_cif.got.tgz:9426.got - 2010.04.16 15:48:40.
