data_PCOD8230779
_publ_section_title
;
Structure prediction by ZEFSAII (Michael W. Deem and Ramdas Pophale) SiO2 
 PCOD8230779
Probable space group: P B C M
;
_chemical_formula_sum "Si O2"
_cell_formula_units_Z 56
_cell_length_a 20.931260
_cell_length_b 14.875456
_cell_length_c 9.158489
_cell_angle_alpha 90.000000
_cell_angle_beta 90.000000
_cell_angle_gamma 90.000000
_cell_volume 2851.605792
_symmetry_space_group_name_H-M "P B C M"
_symmetry_group_IT_number 57
_symmetry_cell_setting 'orthorhombic'
loop_
_space_group_symop_operation_xyz
x,y,z
-x,-y,1/2+z
x,1/2-y,-z
-x,1/2+y,1/2-z
-x,-y,-z
x,y,1/2-z
-x,1/2+y,z
x,1/2-y,1/2+z
loop_
_atom_site_type_symbol
_atom_site_label
_atom_site_fract_x
_atom_site_fract_y
_atom_site_fract_z
Si Si1 0.654013 0.097089 0.586435
Si Si2 0.765416 0.020234 0.080914
Si Si3 0.088972 0.503180 0.079990
Si Si4 0.015572 0.349278 0.923796
Si Si5 0.589586 0.905947 0.589037
Si Si6 0.298877 0.334811 0.081061
Si Si7 0.539593 0.332402 0.581948
O O1 0.662337 0.135060 0.750000
O O2 0.724070 0.089917 0.514356
O O3 0.609047 0.159205 0.490133
O O4 0.616524 0.004708 0.585846
O O5 0.751854 0.040910 0.250000
O O6 0.839220 0.031375 0.040074
O O7 0.744718 0.919496 0.040778
O O8 0.081527 0.477544 0.250000
O O9 0.048193 0.592569 0.041569
O O10 0.071547 0.413317 0.988065
O O11 0.025225 0.335462 0.750000
O O12 0.013315 0.250000 0.000000
O O13 0.600556 0.862896 0.750000
O O14 0.628070 0.847677 0.471107
O O15 0.513106 0.910950 0.558073
O O16 0.299395 0.314169 0.250000
O O17 0.267312 0.250000 0.000000
O O18 0.505496 0.250000 0.500000
O O19 0.552722 0.312652 0.750000
#
# Coordination Sequence:
#
# PCOD8230779 Si02
#       7
#     8   8   8   8   8   8   8
#     4  10  20  35  54  76 101 131 169 211 257 312
#     4   9  19  36  55  75 103 141 179 216 260 309
#     4   9  19  37  59  83 113 149 188 228 270 317
#     4  10  20  35  58  87 118 149 182 224 270 320
#     4   9  19  34  52  73  97 127 166 212 262 317
#     4  10  19  30  47  71 101 135 171 214 264 318
#     4  11  22  35  51  72  98 129 167 214 265 313
#
# _framework density 19.638057
#
# number of rings (size 3 to 8) (size 9 to 14) (size 15 to 20)
#    0.000    2.286    0.000    2.571    0.000    5.143 
#    0.000    2.143    0.000    1.714    0.000    0.000 
#    0.000    0.000    0.000    0.000    0.000    0.000 
#
# Total GULP energy -693966.896188 kJ/mol
# GULP energy per Si atom -12392.266003 kJ/mol
# Density = 1.959336 g / cm^3
# Si number density = 19.638057 Si / 1000 Ang^3
#
#
#
# Elastic Constant Matrix: (Units=GPa)
#
#
# Indices 1 2 3 4 5 6 
#
# 1 116.6451 21.7259 41.1275 0.0000 0.0000 0.0000
# 2 21.7259 60.8552 30.0958 0.0000 0.0000 0.0000
# 3 41.1275 30.0958 95.4905 0.0000 0.0000 0.0000
# 4 0.0000 0.0000 0.0000 32.2342 0.0000 0.0000
# 5 0.0000 0.0000 0.0000 0.0000 29.9005 0.0000
# 6 0.0000 0.0000 0.0000 0.0000 0.0000 11.9251
#
#
#
# Elastic Compliance Matrix: (Units=1/GPa)
#
#
# Indices 1 2 3 4 5 6 
#
# 1 0.010263 -0.001751 -0.003868 0.000000 0.000000 0.000000
# 2 -0.001751 0.019765 -0.005475 0.000000 0.000000 0.000000
# 3 -0.003868 -0.005475 0.013864 0.000000 0.000000 0.000000
# 4 0.000000 0.000000 0.000000 0.031023 0.000000 0.000000
# 5 0.000000 0.000000 0.000000 0.000000 0.033444 0.000000
# 6 0.000000 0.000000 0.000000 0.000000 0.000000 0.083857
#
#
# Mechanical properties :
#
#
# Convention : Reuss Voigt Hill
#
# Bulk Modulus (GPa) = 46.07638 50.98770 48.53204
# Shear Modulus (GPa) = 22.55909 26.81474 24.68692
#
# Velocity S-wave (km/s) = 3.39299 3.69921 3.54940
# Velocity P-wave (km/s) = 6.23407 6.65324 6.44706
#
# Compressibility (1/GPa) = 0.02170309
#
# Stress axis : x y z
#
# Youngs Moduli (GPa) = 97.43645 50.59355 72.12891
#
# Poissons Ratio (x) = 0.08858 0.27903
# Poissons Ratio (y) = 0.17060 0.39493
# Poissons Ratio (z) = 0.37693 0.27702
#
# Static dielectric constant tensor:
#      x y z
#    x 3.561130 0.000000 0.000000 
#    y 0.000000 3.071850 0.000000 
#    z 0.000000 0.000000 3.759090 
# 
# 
# High freq. dielectric constant tensor:
#      x y z
#    x 1.757270 0.000000 0.000000 
#    y 0.000000 1.754390 0.000000 
#    z 0.000000 0.000000 1.773730 
# 
# From -- ./inp_files/8166.got.cif
#   From: 2010.03.12/outbox.cif.g09.slc.cpg/sg57_5_cif.got.tgz:8166.got - 2010.04.16 15:48:40.
