data_PCOD8230824
_publ_section_title
;
Structure prediction by ZEFSAII (Michael W. Deem and Ramdas Pophale) SiO2 
 PCOD8230824
Probable space group: P B C M
;
_chemical_formula_sum "Si O2"
_cell_formula_units_Z 40
_cell_length_a 11.995971
_cell_length_b 13.417158
_cell_length_c 13.975660
_cell_angle_alpha 90.000000
_cell_angle_beta 90.000000
_cell_angle_gamma 90.000000
_cell_volume 2249.408168
_symmetry_space_group_name_H-M "P B C M"
_symmetry_group_IT_number 57
_symmetry_cell_setting 'orthorhombic'
loop_
_space_group_symop_operation_xyz
x,y,z
-x,-y,1/2+z
x,1/2-y,-z
-x,1/2+y,1/2-z
-x,-y,-z
x,y,1/2-z
-x,1/2+y,z
x,1/2-y,1/2+z
loop_
_atom_site_type_symbol
_atom_site_label
_atom_site_fract_x
_atom_site_fract_y
_atom_site_fract_z
Si Si1 0.095523 0.580767 0.003400
Si Si2 0.344843 0.974345 0.984054
Si Si3 0.500613 0.588985 0.861121
Si Si4 0.871965 0.245874 0.641798
Si Si5 0.379674 0.788450 0.643450
O O1 0.212689 0.522374 0.003192
O O2 0.087435 0.649213 0.097844
O O3 0.077291 0.650891 0.911636
O O4 0.000000 0.500000 0.000000
O O5 0.391115 0.873272 0.935123
O O6 0.382544 0.065954 0.915523
O O7 0.404519 0.978210 0.087704
O O8 0.506431 0.557501 0.750000
O O9 0.475421 0.706367 0.871364
O O10 0.914169 0.243463 0.750000
O O11 0.739150 0.233956 0.631146
O O12 0.387268 0.835379 0.750000
#
# Coordination Sequence:
#
# PCOD8230824 Si02
#       5
#     8   8   8   8   8
#     4  10  20  34  56  81 107 141 180 223 271 322
#     4  10  19  32  51  77 105 136 173 219 265 309
#     4  10  19  30  50  77 104 134 172 215 262 313
#     4   9  18  34  55  79 104 135 181 225 264 317
#     4   9  16  30  53  76 100 132 172 215 259 311
#
# _framework density 17.782454999999999
#
# number of rings (size 3 to 8) (size 9 to 14) (size 15 to 20)
#    0.000    2.400    2.000    1.200    0.000    1.600 
#    0.000    0.000   17.600    0.000    0.000    0.000 
#    0.000    0.000    0.000    0.000    0.000    0.000 
#
# Total GULP energy -495910.940009 kJ/mol
# GULP energy per Si atom -12397.773500 kJ/mol
# Density = 1.774198 g / cm^3
# Si number density = 17.782455 Si / 1000 Ang^3
#
#
#
# Elastic Constant Matrix: (Units=GPa)
#
#
# Indices 1 2 3 4 5 6 
#
# 1 98.5893 48.6593 33.6076 0.0000 0.0000 0.0000
# 2 48.6593 68.3538 23.4852 0.0000 0.0000 0.0000
# 3 33.6076 23.4852 116.9292 0.0000 0.0000 0.0000
# 4 0.0000 0.0000 0.0000 20.5260 0.0000 0.0000
# 5 0.0000 0.0000 0.0000 0.0000 18.1307 0.0000
# 6 0.0000 0.0000 0.0000 0.0000 0.0000 35.2436
#
#
#
# Elastic Compliance Matrix: (Units=1/GPa)
#
#
# Indices 1 2 3 4 5 6 
#
# 1 0.016305 -0.010738 -0.002530 0.000000 0.000000 0.000000
# 2 -0.010738 0.022786 -0.001490 0.000000 0.000000 0.000000
# 3 -0.002530 -0.001490 0.009579 0.000000 0.000000 0.000000
# 4 0.000000 0.000000 0.000000 0.048719 0.000000 0.000000
# 5 0.000000 0.000000 0.000000 0.000000 0.055155 0.000000
# 6 0.000000 0.000000 0.000000 0.000000 0.000000 0.028374
#
#
# Mechanical properties :
#
#
# Convention : Reuss Voigt Hill
#
# Bulk Modulus (GPa) = 52.20914 55.04184 53.62549
# Shear Modulus (GPa) = 23.06079 26.65474 24.85777
#
# Velocity S-wave (km/s) = 3.60506 3.87581 3.74288
# Velocity P-wave (km/s) = 6.83756 7.14488 6.99291
#
# Compressibility (1/GPa) = 0.01915373
#
# Stress axis : x y z
#
# Youngs Moduli (GPa) = 61.32976 43.88658 104.39970
#
# Poissons Ratio (x) = 0.47126 0.26410
# Poissons Ratio (y) = 0.65857 0.15558
# Poissons Ratio (z) = 0.15514 0.06540
#
# Static dielectric constant tensor:
#      x y z
#    x 3.018300 0.000000 0.000000 
#    y 0.000000 3.106560 0.000000 
#    z 0.000000 0.000000 3.625350 
# 
# 
# High freq. dielectric constant tensor:
#      x y z
#    x 1.653500 0.000000 0.000000 
#    y 0.000000 1.672340 0.000000 
#    z 0.000000 0.000000 1.708580 
# 
# From -- ./inp_files/16114.got.cif
#   From: 2010.03.12/outbox.cif.g09.slc.cpg/sg57_9_cif.got.tgz:16114.got - 2010.04.16 15:48:40.
