data_PCOD8230708
_publ_section_title
;
Structure prediction by ZEFSAII (Michael W. Deem and Ramdas Pophale) SiO2 
 PCOD8230708
Probable space group: P B C M
;
_chemical_formula_sum "Si O2"
_cell_formula_units_Z 48
_cell_length_a 13.800753
_cell_length_b 23.731140
_cell_length_c 8.952867
_cell_angle_alpha 90.000000
_cell_angle_beta 90.000000
_cell_angle_gamma 90.000000
_cell_volume 2932.131998
_symmetry_space_group_name_H-M "P B C M"
_symmetry_group_IT_number 57
_symmetry_cell_setting 'orthorhombic'
loop_
_space_group_symop_operation_xyz
x,y,z
-x,-y,1/2+z
x,1/2-y,-z
-x,1/2+y,1/2-z
-x,-y,-z
x,y,1/2-z
-x,1/2+y,z
x,1/2-y,1/2+z
loop_
_atom_site_type_symbol
_atom_site_label
_atom_site_fract_x
_atom_site_fract_y
_atom_site_fract_z
Si Si1 0.641141 0.193508 0.925581
Si Si2 0.542831 0.079552 0.577027
Si Si3 0.846224 0.191997 0.428152
Si Si4 0.352875 0.018648 0.574166
Si Si5 0.966570 0.083869 0.425114
Si Si6 0.137980 0.470349 0.074038
O O1 0.659540 0.202810 0.750000
O O2 0.562652 0.144900 0.956342
O O3 0.598216 0.250000 0.000000
O O4 0.741600 0.177265 0.004429
O O5 0.555977 0.065138 0.750000
O O6 0.433294 0.064736 0.525065
O O7 0.620905 0.042308 0.490324
O O8 0.885600 0.250000 0.500000
O O9 0.837929 0.197717 0.250000
O O10 0.918964 0.142452 0.476361
O O11 0.347814 0.011080 0.750000
O O12 0.247736 0.037883 0.514584
O O13 0.982878 0.082811 0.250000
O O14 0.071494 0.077901 0.501327
O O15 0.897681 0.032393 0.475962
O O16 0.131590 0.462914 0.250000
#
# Coordination Sequence:
#
# PCOD8230708 Si02
#       6
#     8   8   8   8   8   8
#     4  10  19  30  45  66  91 118 148 181 219 261
#     4   9  18  30  45  67  92 117 146 182 221 262
#     4  10  19  31  47  67  91 118 148 182 221 263
#     4   9  17  30  47  67  91 118 148 180 218 264
#     4   9  18  30  44  65  91 116 144 180 219 260
#     4   9  17  29  46  66  88 117 148 178 216 260
#
# _framework density 16.370342000000001
#
# number of rings (size 3 to 8) (size 9 to 14) (size 15 to 20)
#    0.000    2.667    0.000    3.000    0.000    4.667 
#    0.000    3.333    0.000    1.000    0.000    4.667 
#    0.000    0.000    0.000    0.000    0.000    0.000 
#
# Total GULP energy -595130.901552 kJ/mol
# GULP energy per Si atom -12398.560449 kJ/mol
# Density = 1.633308 g / cm^3
# Si number density = 16.370342 Si / 1000 Ang^3
#
#
#
# Elastic Constant Matrix: (Units=GPa)
#
#
# Indices 1 2 3 4 5 6 
#
# 1 119.5866 66.5939 33.8643 0.0000 0.0000 0.0000
# 2 66.5939 116.0749 37.0976 0.0000 0.0000 0.0000
# 3 33.8643 37.0976 45.3113 0.0000 0.0000 0.0000
# 4 0.0000 0.0000 0.0000 25.5596 0.0000 0.0000
# 5 0.0000 0.0000 0.0000 0.0000 23.3585 0.0000
# 6 0.0000 0.0000 0.0000 0.0000 0.0000 27.7327
#
#
#
# Elastic Compliance Matrix: (Units=1/GPa)
#
#
# Indices 1 2 3 4 5 6 
#
# 1 0.013046 -0.005917 -0.004906 0.000000 0.000000 0.000000
# 2 -0.005917 0.014352 -0.007328 0.000000 0.000000 0.000000
# 3 -0.004906 -0.007328 0.031736 0.000000 0.000000 0.000000
# 4 0.000000 0.000000 0.000000 0.039124 0.000000 0.000000
# 5 0.000000 0.000000 0.000000 0.000000 0.042811 0.000000
# 6 0.000000 0.000000 0.000000 0.000000 0.000000 0.036059
#
#
# Mechanical properties :
#
#
# Convention : Reuss Voigt Hill
#
# Bulk Modulus (GPa) = 43.79845 61.78715 52.79280
# Shear Modulus (GPa) = 22.62027 24.89131 23.75579
#
# Velocity S-wave (km/s) = 3.72127 3.90361 3.81353
# Velocity P-wave (km/s) = 6.72879 7.62514 7.19095
#
# Compressibility (1/GPa) = 0.02283186
#
# Stress axis : x y z
#
# Youngs Moduli (GPa) = 76.64970 69.67770 31.51000
#
# Poissons Ratio (x) = 0.41227 0.15459
# Poissons Ratio (y) = 0.45353 0.23091
# Poissons Ratio (z) = 0.37605 0.51061
#
# Static dielectric constant tensor:
#      x y z
#    x 3.189920 0.000000 0.000000 
#    y 0.000000 3.125020 0.000000 
#    z 0.000000 0.000000 3.087060 
# 
# 
# High freq. dielectric constant tensor:
#      x y z
#    x 1.621080 0.000000 0.000000 
#    y 0.000000 1.619960 0.000000 
#    z 0.000000 0.000000 1.633170 
# 
# From -- ./inp_files/5345.got.cif
#   From: 2010.03.12/outbox.cif.g09.slc.cpg/sg57_3_cif.got.tgz:5345.got - 2010.04.16 15:48:40.
