data_PCOD8230060
_publ_section_title
;
Structure prediction by ZEFSAII (Michael W. Deem and Ramdas Pophale) SiO2 
 PCOD8230060
Probable space group: P B C M
;
_chemical_formula_sum "Si O2"
_cell_formula_units_Z 60
_cell_length_a 11.129646
_cell_length_b 22.134532
_cell_length_c 14.025167
_cell_angle_alpha 90.000000
_cell_angle_beta 90.000000
_cell_angle_gamma 90.000000
_cell_volume 3455.092956
_symmetry_space_group_name_H-M "P B C M"
_symmetry_group_IT_number 57
_symmetry_cell_setting 'orthorhombic'
loop_
_space_group_symop_operation_xyz
x,y,z
-x,-y,1/2+z
x,1/2-y,-z
-x,1/2+y,1/2-z
-x,-y,-z
x,y,1/2-z
-x,1/2+y,z
x,1/2-y,1/2+z
loop_
_atom_site_type_symbol
_atom_site_label
_atom_site_fract_x
_atom_site_fract_y
_atom_site_fract_z
Si Si1 0.932177 0.582062 0.145633
Si Si2 0.327693 0.363015 0.641733
Si Si3 0.621651 0.535444 0.014525
Si Si4 0.227334 0.104852 0.636746
Si Si5 0.032419 0.250000 0.500000
Si Si6 0.029797 0.878477 0.042671
Si Si7 0.801955 0.036805 0.643149
Si Si8 0.764462 0.759689 0.359005
O O1 0.980064 0.602936 0.250000
O O2 0.808733 0.616337 0.120123
O O3 0.911155 0.510405 0.147648
O O4 0.029383 0.594046 0.063860
O O5 0.363171 0.378460 0.750000
O O6 0.410574 0.402935 0.572430
O O7 0.339586 0.290700 0.621787
O O8 0.698321 0.489173 0.076938
O O9 0.500000 0.500000 0.000000
O O10 0.690707 0.555004 0.917025
O O11 0.232544 0.091700 0.750000
O O12 0.090416 0.103092 0.600286
O O13 0.277083 0.172720 0.611476
O O14 0.951514 0.193191 0.529747
O O15 0.118190 0.265333 0.588456
O O16 0.146206 0.901501 0.098892
O O17 0.751774 0.049220 0.750000
O O18 0.803239 0.759704 0.250000
#
# Coordination Sequence:
#
# PCOD8230060 Si02
#       8
#     8   8   8   8   4   8   8   8
#     4   9  16  27  47  72 101 134 167 201 238 293
#     4   9  15  29  51  74  99 132 169 206 252 309
#     4  11  22  36  52  71  98 136 179 225 265 307
#     4  10  20  31  48  79 111 133 163 214 268 315
#     4  10  18  26  46  74 108 142 170 202 248 302
#     4  11  18  32  50  76 110 141 170 210 254 312
#     4  10  21  36  53  74 101 138 175 205 252 315
#     4   9  16  28  47  74 108 136 161 203 261 313
#
# _framework density 17.365669
#
# number of rings (size 3 to 8) (size 9 to 14) (size 15 to 20)
#    0.000    2.133    4.000    2.800    0.000    1.600 
#    0.000    0.000    0.000    1.600    0.000    0.000 
#    0.000    0.000    0.000    0.000    0.000    0.000 
#
# Total GULP energy -743467.011524 kJ/mol
# GULP energy per Si atom -12391.116859 kJ/mol
# Density = 1.732614 g / cm^3
# Si number density = 17.365669 Si / 1000 Ang^3
#
#
#
# Elastic Constant Matrix: (Units=GPa)
#
#
# Indices 1 2 3 4 5 6 
#
# 1 50.9775 47.8148 42.2975 0.0000 0.0000 0.0000
# 2 47.8148 105.6893 52.9789 0.0000 0.0000 0.0000
# 3 42.2975 52.9789 119.4849 0.0000 0.0000 0.0000
# 4 0.0000 0.0000 0.0000 25.9587 0.0000 0.0000
# 5 0.0000 0.0000 0.0000 0.0000 10.2283 0.0000
# 6 0.0000 0.0000 0.0000 0.0000 0.0000 23.0748
#
#
#
# Elastic Compliance Matrix: (Units=1/GPa)
#
#
# Indices 1 2 3 4 5 6 
#
# 1 0.038865 -0.013740 -0.007666 0.000000 0.000000 0.000000
# 2 -0.013740 0.017023 -0.002684 0.000000 0.000000 0.000000
# 3 -0.007666 -0.002684 0.012273 0.000000 0.000000 0.000000
# 4 0.000000 0.000000 0.000000 0.038523 0.000000 0.000000
# 5 0.000000 0.000000 0.000000 0.000000 0.097768 0.000000
# 6 0.000000 0.000000 0.000000 0.000000 0.000000 0.043337
#
#
# Mechanical properties :
#
#
# Convention : Reuss Voigt Hill
#
# Bulk Modulus (GPa) = 50.04718 62.48155 56.26437
# Shear Modulus (GPa) = 16.52188 20.72307 18.62248
#
# Velocity S-wave (km/s) = 3.08784 3.45822 3.27826
# Velocity P-wave (km/s) = 6.44943 7.21136 6.84101
#
# Compressibility (1/GPa) = 0.01998115
#
# Stress axis : x y z
#
# Youngs Moduli (GPa) = 25.73030 58.74305 81.47962
#
# Poissons Ratio (x) = 0.80714 0.62460
# Poissons Ratio (y) = 0.35354 0.21869
# Poissons Ratio (z) = 0.19724 0.15767
#
# Static dielectric constant tensor:
#      x y z
#    x 2.552210 0.000000 0.000000 
#    y 0.000000 3.536030 0.000000 
#    z 0.000000 0.000000 3.553300 
# 
# 
# High freq. dielectric constant tensor:
#      x y z
#    x 1.583190 0.000000 0.000000 
#    y 0.000000 1.680390 0.000000 
#    z 0.000000 0.000000 1.697610 
# 
# From -- ./inp_files/18041.got.cif
#   From: 2010.03.12/outbox.cif.g09.slc.cpg/sg57_10_cif.got.tgz:18041.got - 2010.04.16 15:48:40.
