data_PCOD8230735
_publ_section_title
;
Structure prediction by ZEFSAII (Michael W. Deem and Ramdas Pophale) SiO2 
 PCOD8230735
Probable space group: P B C M
;
_chemical_formula_sum "Si O2"
_cell_formula_units_Z 64
_cell_length_a 30.421942
_cell_length_b 13.714682
_cell_length_c 8.827990
_cell_angle_alpha 90.000000
_cell_angle_beta 90.000000
_cell_angle_gamma 90.000000
_cell_volume 3683.278082
_symmetry_space_group_name_H-M "P B C M"
_symmetry_group_IT_number 57
_symmetry_cell_setting 'orthorhombic'
loop_
_space_group_symop_operation_xyz
x,y,z
-x,-y,1/2+z
x,1/2-y,-z
-x,1/2+y,1/2-z
-x,-y,-z
x,y,1/2-z
-x,1/2+y,z
x,1/2-y,1/2+z
loop_
_atom_site_type_symbol
_atom_site_label
_atom_site_fract_x
_atom_site_fract_y
_atom_site_fract_z
Si Si1 0.899748 0.852189 0.578226
Si Si2 0.352150 0.150232 0.926782
Si Si3 0.437524 0.044430 0.573070
Si Si4 0.118627 0.854126 0.069125
Si Si5 0.952845 0.018030 0.428869
Si Si6 0.516033 0.149627 0.427526
Si Si7 0.816847 0.524896 0.418774
Si Si8 0.253547 0.352508 0.428091
O O1 0.904792 0.750000 0.500000
O O2 0.919180 0.852671 0.750000
O O3 0.925167 0.923339 0.467159
O O4 0.849142 0.882701 0.583908
O O5 0.351148 0.169007 0.750000
O O6 0.386608 0.064772 0.969216
O O7 0.303176 0.122433 0.982848
O O8 0.368837 0.250000 0.000000
O O9 0.446706 0.060383 0.750000
O O10 0.467720 0.121278 0.485020
O O11 0.449091 0.934062 0.524865
O O12 0.114482 0.850134 0.250000
O O13 0.157348 0.929226 0.019897
O O14 0.131221 0.750000 0.000000
O O15 0.071624 0.888411 0.002232
O O16 0.956666 0.034215 0.250000
O O17 0.000000 0.000000 0.500000
O O18 0.532540 0.250000 0.500000
O O19 0.513829 0.164129 0.250000
O O20 0.799202 0.503528 0.250000
O O21 0.775952 0.555145 0.522943
O O22 0.237945 0.250000 0.500000
O O23 0.249790 0.340404 0.250000
#
# Coordination Sequence:
#
# PCOD8230735 Si02
#       8
#     8   8   8   8   8   8   8   8
#     4  10  20  34  51  74 101 130 162 197 238 285
#     4   9  18  31  46  68  96 127 160 196 239 288
#     4   9  18  32  48  66  92 125 161 201 244 289
#     4  10  21  38  58  80 103 131 168 209 250 293
#     4  11  22  37  55  76 103 134 167 204 244 288
#     4  10  19  30  46  68  93 122 158 201 245 291
#     4   9  19  34  52  74 102 129 158 198 240 284
#     4  10  19  30  48  73 101 131 163 197 240 293
#
# _framework density 17.375827000000001
#
# number of rings (size 3 to 8) (size 9 to 14) (size 15 to 20)
#    0.000    2.250    0.000    4.125    0.000    7.000 
#    0.000    2.500    0.000    0.750    0.000    3.500 
#    0.000    0.000    0.000    0.000    0.000    0.000 
#
# Total GULP energy -793478.587267 kJ/mol
# GULP energy per Si atom -12398.102926 kJ/mol
# Density = 1.733628 g / cm^3
# Si number density = 17.375827 Si / 1000 Ang^3
#
#
#
# Elastic Constant Matrix: (Units=GPa)
#
#
# Indices 1 2 3 4 5 6 
#
# 1 104.8526 52.1337 40.6376 0.0000 0.0000 0.0000
# 2 52.1337 105.9410 39.6112 0.0000 0.0000 0.0000
# 3 40.6376 39.6112 80.4840 0.0000 0.0000 0.0000
# 4 0.0000 0.0000 0.0000 31.1435 0.0000 0.0000
# 5 0.0000 0.0000 0.0000 0.0000 24.0643 0.0000
# 6 0.0000 0.0000 0.0000 0.0000 0.0000 19.4266
#
#
#
# Elastic Compliance Matrix: (Units=1/GPa)
#
#
# Indices 1 2 3 4 5 6 
#
# 1 0.013814 -0.005135 -0.004448 0.000000 0.000000 0.000000
# 2 -0.005135 0.013477 -0.004040 0.000000 0.000000 0.000000
# 3 -0.004448 -0.004040 0.016659 0.000000 0.000000 0.000000
# 4 0.000000 0.000000 0.000000 0.032109 0.000000 0.000000
# 5 0.000000 0.000000 0.000000 0.000000 0.041555 0.000000
# 6 0.000000 0.000000 0.000000 0.000000 0.000000 0.051476
#
#
# Mechanical properties :
#
#
# Convention : Reuss Voigt Hill
#
# Bulk Modulus (GPa) = 59.86470 61.78252 60.82361
# Shear Modulus (GPa) = 24.76427 25.51990 25.14208
#
# Velocity S-wave (km/s) = 3.77930 3.83652 3.80802
# Velocity P-wave (km/s) = 7.31927 7.43364 7.37668
#
# Compressibility (1/GPa) = 0.01670434
#
# Stress axis : x y z
#
# Youngs Moduli (GPa) = 72.38958 74.20218 60.02801
#
# Poissons Ratio (x) = 0.38103 0.26699
# Poissons Ratio (y) = 0.37172 0.24251
# Poissons Ratio (z) = 0.32197 0.29978
#
# Static dielectric constant tensor:
#      x y z
#    x 3.405230 0.000000 0.000000 
#    y 0.000000 3.262780 0.000000 
#    z 0.000000 0.000000 3.256130 
# 
# 
# High freq. dielectric constant tensor:
#      x y z
#    x 1.661230 0.000000 0.000000 
#    y 0.000000 1.661550 0.000000 
#    z 0.000000 0.000000 1.681370 
# 
# From -- ./inp_files/10303.got.cif
#   From: 2010.03.12/outbox.cif.g09.slc.cpg/sg57_6_cif.got.tgz:10303.got - 2010.04.16 15:48:40.
