data_PCOD8230737
_publ_section_title
;
Structure prediction by ZEFSAII (Michael W. Deem and Ramdas Pophale) SiO2 
 PCOD8230737
Probable space group: P B C M
;
_chemical_formula_sum "Si O2"
_cell_formula_units_Z 48
_cell_length_a 23.548729
_cell_length_b 13.698962
_cell_length_c 8.945262
_cell_angle_alpha 90.000000
_cell_angle_beta 90.000000
_cell_angle_gamma 90.000000
_cell_volume 2885.680190
_symmetry_space_group_name_H-M "P B C M"
_symmetry_group_IT_number 57
_symmetry_cell_setting 'orthorhombic'
loop_
_space_group_symop_operation_xyz
x,y,z
-x,-y,1/2+z
x,1/2-y,-z
-x,1/2+y,1/2-z
-x,-y,-z
x,y,1/2-z
-x,1/2+y,z
x,1/2-y,1/2+z
loop_
_atom_site_type_symbol
_atom_site_label
_atom_site_fract_x
_atom_site_fract_y
_atom_site_fract_z
Si Si1 0.681644 0.852546 0.427163
Si Si2 0.020185 0.849623 0.924974
Si Si3 0.475200 0.645738 0.075430
Si Si4 0.920074 0.955266 0.423713
Si Si5 0.587210 0.974788 0.924454
Si Si6 0.190320 0.348783 0.423149
O O1 0.663608 0.750000 0.500000
O O2 0.672482 0.845760 0.250000
O O3 0.643737 0.937953 0.495017
O O4 0.746329 0.879224 0.473003
O O5 0.015921 0.832369 0.750000
O O6 0.065968 0.933201 0.967290
O O7 0.041288 0.750000 0.000000
O O8 0.958366 0.880273 0.983522
O O9 0.461327 0.653669 0.250000
O O10 0.537685 0.603313 0.046832
O O11 0.471697 0.750000 0.000000
O O12 0.428456 0.577737 0.997968
O O13 0.933400 0.936661 0.250000
O O14 0.854055 0.935012 0.462433
O O15 0.598812 0.990514 0.750000
O O16 0.169641 0.250000 0.500000
O O17 0.190430 0.324872 0.250000
#
# Coordination Sequence:
#
# PCOD8230737 Si02
#       6
#     8   8   8   8   8   8
#     4  10  19  31  48  70  96 125 157 193 235 280
#     4  10  19  30  46  68  94 122 152 189 232 278
#     4  10  20  33  50  72  98 127 158 194 235 279
#     4   9  18  32  48  67  92 122 156 192 231 275
#     4  10  20  33  50  72  98 127 159 194 233 278
#     4   9  18  31  47  68  93 122 154 190 232 276
#
# _framework density 16.633859999999999
#
# number of rings (size 3 to 8) (size 9 to 14) (size 15 to 20)
#    0.000    2.333    0.000    3.000    0.000    6.667 
#    0.000    0.000    0.000    1.000    0.000    2.333 
#    0.000    0.000    0.000    0.000    0.000    0.000 
#
# Total GULP energy -595279.855400 kJ/mol
# GULP energy per Si atom -12401.663654 kJ/mol
# Density = 1.659600 g / cm^3
# Si number density = 16.633860 Si / 1000 Ang^3
#
#
#
# Elastic Constant Matrix: (Units=GPa)
#
#
# Indices 1 2 3 4 5 6 
#
# 1 93.3030 58.9079 45.0640 0.0000 0.0000 0.0000
# 2 58.9079 127.6245 58.4918 0.0000 0.0000 0.0000
# 3 45.0640 58.4918 84.4355 0.0000 0.0000 0.0000
# 4 0.0000 0.0000 0.0000 33.0370 0.0000 0.0000
# 5 0.0000 0.0000 0.0000 0.0000 23.3247 0.0000
# 6 0.0000 0.0000 0.0000 0.0000 0.0000 26.8499
#
#
#
# Elastic Compliance Matrix: (Units=1/GPa)
#
#
# Indices 1 2 3 4 5 6 
#
# 1 0.016543 -0.005259 -0.005186 0.000000 0.000000 0.000000
# 2 -0.005259 0.013152 -0.006304 0.000000 0.000000 0.000000
# 3 -0.005186 -0.006304 0.018978 0.000000 0.000000 0.000000
# 4 0.000000 0.000000 0.000000 0.030269 0.000000 0.000000
# 5 0.000000 0.000000 0.000000 0.000000 0.042873 0.000000
# 6 0.000000 0.000000 0.000000 0.000000 0.000000 0.037244
#
#
# Mechanical properties :
#
#
# Convention : Reuss Voigt Hill
#
# Bulk Modulus (GPa) = 65.89790 70.03226 67.96508
# Shear Modulus (GPa) = 25.30157 26.16895 25.73526
#
# Velocity S-wave (km/s) = 3.90434 3.97070 3.93766
# Velocity P-wave (km/s) = 7.74777 7.95083 7.84995
#
# Compressibility (1/GPa) = 0.01517499
#
# Stress axis : x y z
#
# Youngs Moduli (GPa) = 60.44933 76.03301 52.69145
#
# Poissons Ratio (x) = 0.39985 0.27326
# Poissons Ratio (y) = 0.31790 0.33218
# Poissons Ratio (z) = 0.31349 0.47934
#
# Static dielectric constant tensor:
#      x y z
#    x 3.191880 0.000000 0.000000 
#    y 0.000000 3.115650 0.000000 
#    z 0.000000 0.000000 3.244470 
# 
# 
# High freq. dielectric constant tensor:
#      x y z
#    x 1.629920 0.000000 0.000000 
#    y 0.000000 1.631710 0.000000 
#    z 0.000000 0.000000 1.655190 
# 
# From -- ./inp_files/7851.got.cif
#   From: 2010.03.12/outbox.cif.g09.slc.cpg/sg57_4_cif.got.tgz:7851.got - 2010.04.16 15:48:40.
