data_PCOD8230819
_publ_section_title
;
Structure prediction by ZEFSAII (Michael W. Deem and Ramdas Pophale) SiO2 
 PCOD8230819
Probable space group: P B C M
;
_chemical_formula_sum "Si O2"
_cell_formula_units_Z 56
_cell_length_a 13.952583
_cell_length_b 20.687747
_cell_length_c 8.939220
_cell_angle_alpha 90.000000
_cell_angle_beta 90.000000
_cell_angle_gamma 90.000000
_cell_volume 2580.283568
_symmetry_space_group_name_H-M "P B C M"
_symmetry_group_IT_number 57
_symmetry_cell_setting 'orthorhombic'
loop_
_space_group_symop_operation_xyz
x,y,z
-x,-y,1/2+z
x,1/2-y,-z
-x,1/2+y,1/2-z
-x,-y,-z
x,y,1/2-z
-x,1/2+y,z
x,1/2-y,1/2+z
loop_
_atom_site_type_symbol
_atom_site_label
_atom_site_fract_x
_atom_site_fract_y
_atom_site_fract_z
Si Si1 0.080029 0.684240 0.428431
Si Si2 0.208308 0.008625 0.424670
Si Si3 0.457003 0.818262 0.573776
Si Si4 0.948059 0.917386 0.416989
Si Si5 0.346294 0.378585 0.922006
Si Si6 0.199881 0.305463 0.089283
Si Si7 0.263230 0.863768 0.072864
O O1 0.035474 0.750000 0.500000
O O2 0.071470 0.687689 0.250000
O O3 0.189452 0.681425 0.483656
O O4 0.029520 0.618664 0.487897
O O5 0.190364 0.017291 0.250000
O O6 0.102583 0.021462 0.500444
O O7 0.296520 0.054636 0.478953
O O8 0.240845 0.937516 0.468263
O O9 0.486047 0.750000 0.500000
O O10 0.435495 0.808584 0.750000
O O11 0.540022 0.872467 0.549544
O O12 0.367291 0.846934 0.486656
O O13 0.986951 0.935767 0.250000
O O14 0.860444 0.869371 0.399941
O O15 0.321363 0.370288 0.750000
O O16 0.299568 0.318501 0.006808
O O17 0.224782 0.277021 0.250000
O O18 0.142126 0.250000 0.000000
O O19 0.255699 0.850445 0.250000
#
# Coordination Sequence:
#
# PCOD8230819 Si02
#       7
#     8   8   8   8   8   8   8
#     4  12  25  42  64  89 119 155 198 247 299 353
#     4   9  20  40  63  89 121 158 198 240 292 352
#     4  11  23  39  60  87 119 155 198 246 297 351
#     4  10  21  37  59  88 120 154 194 240 292 351
#     4   9  19  36  58  84 116 152 191 238 290 347
#     4  10  19  30  49  79 114 151 189 233 285 343
#     4  11  24  42  63  86 117 157 201 248 296 350
#
# _framework density 21.703042
#
# number of rings (size 3 to 8) (size 9 to 14) (size 15 to 20)
#    0.000    1.714    0.000    4.286    0.000    7.429 
#    0.000    0.000    0.000    0.000    0.000    0.000 
#    0.000    0.000    0.000    0.000    0.000    0.000 
#
# Total GULP energy -694113.262687 kJ/mol
# GULP energy per Si atom -12394.879691 kJ/mol
# Density = 2.165365 g / cm^3
# Si number density = 21.703042 Si / 1000 Ang^3
#
#
#
# Elastic Constant Matrix: (Units=GPa)
#
#
# Indices 1 2 3 4 5 6 
#
# 1 92.2293 2.3639 27.1734 0.0000 0.0000 0.0000
# 2 2.3639 56.8910 19.2294 0.0000 0.0000 0.0000
# 3 27.1734 19.2294 120.8889 0.0000 0.0000 0.0000
# 4 0.0000 0.0000 0.0000 30.2666 0.0000 0.0000
# 5 0.0000 0.0000 0.0000 0.0000 38.2276 0.0000
# 6 0.0000 0.0000 0.0000 0.0000 0.0000 15.4980
#
#
#
# Elastic Compliance Matrix: (Units=1/GPa)
#
#
# Indices 1 2 3 4 5 6 
#
# 1 0.011621 0.000423 -0.002679 0.000000 0.000000 0.000000
# 2 0.000423 0.018592 -0.003052 0.000000 0.000000 0.000000
# 3 -0.002679 -0.003052 0.009360 0.000000 0.000000 0.000000
# 4 0.000000 0.000000 0.000000 0.033040 0.000000 0.000000
# 5 0.000000 0.000000 0.000000 0.000000 0.026159 0.000000
# 6 0.000000 0.000000 0.000000 0.000000 0.000000 0.064524
#
#
# Mechanical properties :
#
#
# Convention : Reuss Voigt Hill
#
# Bulk Modulus (GPa) = 34.53679 40.83805 37.68742
# Shear Modulus (GPa) = 27.23825 31.54794 29.39309
#
# Velocity S-wave (km/s) = 3.54650 3.81677 3.68412
# Velocity P-wave (km/s) = 5.71998 6.18718 5.95816
#
# Compressibility (1/GPa) = 0.02895463
#
# Stress axis : x y z
#
# Youngs Moduli (GPa) = 86.05002 53.78768 106.83909
#
# Poissons Ratio (x) = -0.02274 0.28627
# Poissons Ratio (y) = -0.03638 0.32611
# Poissons Ratio (z) = 0.23057 0.16418
#
# Static dielectric constant tensor:
#      x y z
#    x 3.907340 0.000000 0.000000 
#    y 0.000000 4.216540 0.000000 
#    z 0.000000 0.000000 4.223060 
# 
# 
# High freq. dielectric constant tensor:
#      x y z
#    x 1.855850 0.000000 0.000000 
#    y 0.000000 1.856790 0.000000 
#    z 0.000000 0.000000 1.857010 
# 
# From -- ./inp_files/5165.got.cif
#   From: 2010.03.12/outbox.cif.g09.slc.cpg/sg57_3_cif.got.tgz:5165.got - 2010.04.16 15:48:40.
