data_PCOD8230113
_publ_section_title
;
Structure prediction by ZEFSAII (Michael W. Deem and Ramdas Pophale) SiO2 
 PCOD8230113
Probable space group: P B C M
;
_chemical_formula_sum "Si O2"
_cell_formula_units_Z 64
_cell_length_a 18.451973
_cell_length_b 24.433414
_cell_length_c 9.047086
_cell_angle_alpha 90.000000
_cell_angle_beta 90.000000
_cell_angle_gamma 90.000000
_cell_volume 4078.830732
_symmetry_space_group_name_H-M "P B C M"
_symmetry_group_IT_number 57
_symmetry_cell_setting 'orthorhombic'
loop_
_space_group_symop_operation_xyz
x,y,z
-x,-y,1/2+z
x,1/2-y,-z
-x,1/2+y,1/2-z
-x,-y,-z
x,y,1/2-z
-x,1/2+y,z
x,1/2-y,1/2+z
loop_
_atom_site_type_symbol
_atom_site_label
_atom_site_fract_x
_atom_site_fract_y
_atom_site_fract_z
Si Si1 0.492962 0.086741 0.423014
Si Si2 0.039321 0.421805 0.416624
Si Si3 0.905059 0.045376 0.084129
Si Si4 0.558610 0.694270 0.923221
Si Si5 0.393223 0.513577 0.923078
Si Si6 0.173895 0.110921 0.416999
Si Si7 0.771859 0.012215 0.915992
Si Si8 0.727141 0.804801 0.422176
O O1 0.500178 0.098898 0.250000
O O2 0.483906 0.143470 0.508169
O O3 0.566323 0.059055 0.480949
O O4 0.425353 0.046634 0.456825
O O5 0.035064 0.399125 0.250000
O O6 0.066900 0.483657 0.417270
O O7 0.094359 0.384528 0.510658
O O8 0.959797 0.417498 0.488873
O O9 0.902624 0.068548 0.250000
O O10 0.824267 0.049204 0.016901
O O11 0.542135 0.698027 0.750000
O O12 0.643081 0.685527 0.956609
O O13 0.531124 0.750000 0.000000
O O14 0.402198 0.527110 0.750000
O O15 0.310062 0.514726 0.975564
O O16 0.170017 0.133592 0.250000
O O17 0.230368 0.144361 0.512902
O O18 0.201391 0.049474 0.418687
O O19 0.775811 0.035476 0.750000
O O20 0.755448 0.750000 0.500000
O O21 0.743059 0.799688 0.250000
#
# Coordination Sequence:
#
# PCOD8230113 Si02
#       8
#     8   8   8   8   8   8   8   8
#     4  10  19  31  47  66  89 117 150 187 226 268
#     4   9  16  26  39  56  80 110 142 172 205 246
#     4   9  16  25  38  57  81 108 139 175 210 244
#     4  10  20  33  49  67  88 115 148 186 226 268
#     4   9  18  31  45  63  89 121 153 184 222 269
#     4  10  18  28  43  62  85 113 145 180 216 255
#     4   9  17  28  42  60  84 115 147 178 215 259
#     4  10  20  32  45  62  84 111 143 179 218 257
#
# _framework density 15.690772000000001
#
# number of rings (size 3 to 8) (size 9 to 14) (size 15 to 20)
#    0.000    2.500    0.000    3.000    0.000    7.000 
#    0.000    0.000    0.000    0.000    0.000    0.000 
#    0.000    1.000    0.000    5.500    0.000    6.125 
#
# Total GULP energy -793633.450764 kJ/mol
# GULP energy per Si atom -12400.522668 kJ/mol
# Density = 1.565506 g / cm^3
# Si number density = 15.690772 Si / 1000 Ang^3
#
#
#
# Elastic Constant Matrix: (Units=GPa)
#
#
# Indices 1 2 3 4 5 6 
#
# 1 103.3170 22.9217 48.7038 0.0000 0.0000 0.0000
# 2 22.9217 54.6065 32.5166 0.0000 0.0000 0.0000
# 3 48.7038 32.5166 95.1523 0.0000 0.0000 0.0000
# 4 0.0000 0.0000 0.0000 24.3582 0.0000 0.0000
# 5 0.0000 0.0000 0.0000 0.0000 28.6641 0.0000
# 6 0.0000 0.0000 0.0000 0.0000 0.0000 14.0976
#
#
#
# Elastic Compliance Matrix: (Units=1/GPa)
#
#
# Indices 1 2 3 4 5 6 
#
# 1 0.012906 -0.001863 -0.005969 0.000000 0.000000 0.000000
# 2 -0.001863 0.023260 -0.006995 0.000000 0.000000 0.000000
# 3 -0.005969 -0.006995 0.015955 0.000000 0.000000 0.000000
# 4 0.000000 0.000000 0.000000 0.041054 0.000000 0.000000
# 5 0.000000 0.000000 0.000000 0.000000 0.034887 0.000000
# 6 0.000000 0.000000 0.000000 0.000000 0.000000 0.070934
#
#
# Mechanical properties :
#
#
# Convention : Reuss Voigt Hill
#
# Bulk Modulus (GPa) = 44.51026 51.26224 47.88625
# Shear Modulus (GPa) = 21.17380 23.35289 22.26334
#
# Velocity S-wave (km/s) = 3.67746 3.86206 3.77089
# Velocity P-wave (km/s) = 6.81618 7.25456 7.03878
#
# Compressibility (1/GPa) = 0.02246673
#
# Stress axis : x y z
#
# Youngs Moduli (GPa) = 77.48172 42.99176 62.67452
#
# Poissons Ratio (x) = 0.08009 0.37413
# Poissons Ratio (y) = 0.14434 0.43842
# Poissons Ratio (z) = 0.46253 0.30074
#
# Static dielectric constant tensor:
#      x y z
#    x 3.004990 0.000000 0.000000 
#    y 0.000000 2.668430 0.000000 
#    z 0.000000 0.000000 3.195670 
# 
# 
# High freq. dielectric constant tensor:
#      x y z
#    x 1.595620 0.000000 0.000000 
#    y 0.000000 1.556100 0.000000 
#    z 0.000000 0.000000 1.620640 
# 
# From -- ./inp_files/7397.got.cif
#   From: 2010.03.12/outbox.cif.g09.slc.cpg/sg57_4_cif.got.tgz:7397.got - 2010.04.16 15:48:40.
