data_PCOD8230121
_publ_section_title
;
Structure prediction by ZEFSAII (Michael W. Deem and Ramdas Pophale) SiO2 
 PCOD8230121
Probable space group: P B C M
;
_chemical_formula_sum "Si O2"
_cell_formula_units_Z 64
_cell_length_a 21.723427
_cell_length_b 18.273300
_cell_length_c 8.921370
_cell_angle_alpha 90.000000
_cell_angle_beta 90.000000
_cell_angle_gamma 90.000000
_cell_volume 3541.415425
_symmetry_space_group_name_H-M "P B C M"
_symmetry_group_IT_number 57
_symmetry_cell_setting 'orthorhombic'
loop_
_space_group_symop_operation_xyz
x,y,z
-x,-y,1/2+z
x,1/2-y,-z
-x,1/2+y,1/2-z
-x,-y,-z
x,y,1/2-z
-x,1/2+y,z
x,1/2-y,1/2+z
loop_
_atom_site_type_symbol
_atom_site_label
_atom_site_fract_x
_atom_site_fract_y
_atom_site_fract_z
Si Si1 0.620853 0.170163 0.427237
Si Si2 0.941342 0.535544 0.075456
Si Si3 0.118843 0.172421 0.573189
Si Si4 0.185997 0.534015 0.579730
Si Si5 0.244844 0.403637 0.423549
Si Si6 0.740322 0.327179 0.076410
Si Si7 0.510485 0.827147 0.576453
Si Si8 0.643788 0.671129 0.425667
O O1 0.619610 0.250000 0.500000
O O2 0.631931 0.174242 0.250000
O O3 0.679946 0.132198 0.504457
O O4 0.554160 0.131045 0.465153
O O5 0.953820 0.549801 0.250000
O O6 0.886056 0.478081 0.049485
O O7 0.926646 0.612780 0.997816
O O8 0.000000 0.500000 0.000000
O O9 0.103523 0.250000 0.500000
O O10 0.107059 0.175556 0.750000
O O11 0.189479 0.151820 0.536210
O O12 0.202651 0.511066 0.750000
O O13 0.225956 0.485366 0.467255
O O14 0.201871 0.618984 0.551224
O O15 0.261264 0.400909 0.250000
O O16 0.305471 0.383870 0.514749
O O17 0.727283 0.312753 0.250000
O O18 0.756256 0.250000 0.000000
O O19 0.510826 0.750000 0.500000
O O20 0.508252 0.809445 0.750000
O O21 0.576064 0.865322 0.537082
O O22 0.651699 0.750000 0.500000
O O23 0.653086 0.682014 0.250000
#
# Coordination Sequence:
#
# PCOD8230121 Si02
#       8
#     8   8   8   8   8   8   8   8
#     4   9  15  25  42  65  92 122 158 201 248 295
#     4  10  20  37  59  81 107 140 174 208 248 296
#     4  10  20  34  53  79 108 138 174 214 253 295
#     4   9  20  37  55  74 100 133 165 199 243 296
#     4  10  20  32  49  73 100 131 168 209 253 300
#     4  10  19  32  51  76 101 126 159 201 249 297
#     4   8  15  25  38  59  88 123 161 201 245 293
#     4  10  18  28  43  65  96 131 167 207 250 296
#
# _framework density 18.071869
#
# number of rings (size 3 to 8) (size 9 to 14) (size 15 to 20)
#    0.000    2.500    0.000    3.375    0.000    5.000 
#    0.000    0.625    0.000    2.250    0.000    0.000 
#    0.000    0.000    0.000    0.000    0.000    0.000 
#
# Total GULP energy -793001.171754 kJ/mol
# GULP energy per Si atom -12390.643309 kJ/mol
# Density = 1.803074 g / cm^3
# Si number density = 18.071869 Si / 1000 Ang^3
#
#
#
# Elastic Constant Matrix: (Units=GPa)
#
#
# Indices 1 2 3 4 5 6 
#
# 1 129.4032 63.0687 57.6146 0.0000 0.0000 0.0000
# 2 63.0687 83.0666 46.3146 0.0000 0.0000 0.0000
# 3 57.6146 46.3146 95.5670 0.0000 0.0000 0.0000
# 4 0.0000 0.0000 0.0000 25.7623 0.0000 0.0000
# 5 0.0000 0.0000 0.0000 0.0000 29.2962 0.0000
# 6 0.0000 0.0000 0.0000 0.0000 0.0000 77.0992
#
#
#
# Elastic Compliance Matrix: (Units=1/GPa)
#
#
# Indices 1 2 3 4 5 6 
#
# 1 0.013460 -0.007804 -0.004333 0.000000 0.000000 0.000000
# 2 -0.007804 0.021021 -0.005482 0.000000 0.000000 0.000000
# 3 -0.004333 -0.005482 0.015733 0.000000 0.000000 0.000000
# 4 0.000000 0.000000 0.000000 0.038816 0.000000 0.000000
# 5 0.000000 0.000000 0.000000 0.000000 0.034134 0.000000
# 6 0.000000 0.000000 0.000000 0.000000 0.000000 0.012970
#
#
# Mechanical properties :
#
#
# Convention : Reuss Voigt Hill
#
# Bulk Modulus (GPa) = 66.77611 71.33695 69.05653
# Shear Modulus (GPa) = 28.35030 35.83415 32.09222
#
# Velocity S-wave (km/s) = 3.96505 4.45777 4.21861
# Velocity P-wave (km/s) = 7.61529 8.12745 7.87553
#
# Compressibility (1/GPa) = 0.01497542
#
# Stress axis : x y z
#
# Youngs Moduli (GPa) = 74.29158 47.57250 63.56114
#
# Poissons Ratio (x) = 0.37126 0.27540
# Poissons Ratio (y) = 0.57978 0.34846
# Poissons Ratio (z) = 0.32189 0.26081
#
# Static dielectric constant tensor:
#      x y z
#    x 3.831050 0.000000 0.000000 
#    y 0.000000 2.947070 0.000000 
#    z 0.000000 0.000000 3.468810 
# 
# 
# High freq. dielectric constant tensor:
#      x y z
#    x 1.709820 0.000000 0.000000 
#    y 0.000000 1.657280 0.000000 
#    z 0.000000 0.000000 1.716020 
# 
# From -- ./inp_files/8607.got.cif
#   From: 2010.03.12/outbox.cif.g09.slc.cpg/sg57_5_cif.got.tgz:8607.got - 2010.04.16 15:48:40.
