data_PCOD8230217
_publ_section_title
;
Structure prediction by ZEFSAII (Michael W. Deem and Ramdas Pophale) SiO2 
 PCOD8230217
Probable space group: P B C M
;
_chemical_formula_sum "Si O2"
_cell_formula_units_Z 64
_cell_length_a 8.482477
_cell_length_b 20.381725
_cell_length_c 19.928756
_cell_angle_alpha 90.000000
_cell_angle_beta 90.000000
_cell_angle_gamma 90.000000
_cell_volume 3445.433073
_symmetry_space_group_name_H-M "P B C M"
_symmetry_group_IT_number 57
_symmetry_cell_setting 'orthorhombic'
loop_
_space_group_symop_operation_xyz
x,y,z
-x,-y,1/2+z
x,1/2-y,-z
-x,1/2+y,1/2-z
-x,-y,-z
x,y,1/2-z
-x,1/2+y,z
x,1/2-y,1/2+z
loop_
_atom_site_type_symbol
_atom_site_label
_atom_site_fract_x
_atom_site_fract_y
_atom_site_fract_z
Si Si1 0.912649 0.816291 0.043510
Si Si2 0.132905 0.622615 0.058429
Si Si3 0.437556 0.561745 0.039974
Si Si4 0.915259 0.634080 0.324513
Si Si5 0.560769 0.685219 0.958838
Si Si6 0.039521 0.774764 0.177909
Si Si7 0.444873 0.111241 0.172701
Si Si8 0.653680 0.271883 0.625870
O O1 0.735253 0.836610 0.065139
O O2 0.009139 0.818664 0.113013
O O3 0.922419 0.750000 0.000000
O O4 0.999797 0.869999 0.998077
O O5 0.247087 0.562658 0.037593
O O6 0.243535 0.687851 0.069629
O O7 0.043133 0.601578 0.126449
O O8 0.487818 0.559024 0.118685
O O9 0.500000 0.500000 0.000000
O O10 0.497362 0.628305 0.006027
O O11 0.956408 0.609043 0.250000
O O12 0.738737 0.616021 0.344740
O O13 0.924725 0.712506 0.329690
O O14 0.435375 0.706542 0.901885
O O15 0.591692 0.750000 0.000000
O O16 0.004371 0.809667 0.250000
O O17 0.222475 0.753356 0.180672
O O18 0.472238 0.088228 0.250000
O O19 0.527259 0.181456 0.161862
#
# Coordination Sequence:
#
# PCOD8230217 Si02
#       8
#     8   8   8   8   8   8   8   8
#     4  11  19  30  52  78 107 145 182 222 282 331
#     4  10  19  31  52  78 107 140 180 224 273 328
#     4  11  24  38  56  84 115 150 195 237 283 337
#     4   9  17  29  48  80 112 140 175 226 278 332
#     4  11  20  34  57  82 112 145 182 232 276 333
#     4  10  19  28  44  75 116 142 175 225 281 337
#     4  10  19  33  55  80 113 148 186 231 283 340
#     4  10  18  29  50  83 110 144 175 227 275 329
#
# _framework density 18.575313000000001
#
# number of rings (size 3 to 8) (size 9 to 14) (size 15 to 20)
#    0.000    1.750    5.000    2.625    0.000    3.000 
#    0.000    3.125    0.000    4.500    0.000    0.000 
#    0.000    0.000    0.000    0.000    0.000    0.000 
#
# Total GULP energy -792964.380323 kJ/mol
# GULP energy per Si atom -12390.068443 kJ/mol
# Density = 1.853304 g / cm^3
# Si number density = 18.575313 Si / 1000 Ang^3
#
#
#
# Elastic Constant Matrix: (Units=GPa)
#
#
# Indices 1 2 3 4 5 6 
#
# 1 101.6088 15.6841 36.7389 0.0000 0.0000 0.0000
# 2 15.6841 31.7316 25.3347 0.0000 0.0000 0.0000
# 3 36.7389 25.3347 118.9370 0.0000 0.0000 0.0000
# 4 0.0000 0.0000 0.0000 16.1218 0.0000 0.0000
# 5 0.0000 0.0000 0.0000 0.0000 27.7907 0.0000
# 6 0.0000 0.0000 0.0000 0.0000 0.0000 -24.2939
#
#
#
# Elastic Compliance Matrix: (Units=1/GPa)
#
#
# Indices 1 2 3 4 5 6 
#
# 1 0.011375 -0.003394 -0.002791 0.000000 0.000000 0.000000
# 2 -0.003394 0.038985 -0.007256 0.000000 0.000000 0.000000
# 3 -0.002791 -0.007256 0.010815 0.000000 0.000000 0.000000
# 4 0.000000 0.000000 0.000000 0.062028 0.000000 0.000000
# 5 0.000000 0.000000 0.000000 0.000000 0.035983 0.000000
# 6 0.000000 0.000000 0.000000 0.000000 0.000000 -0.041163
#
#
# Mechanical properties :
#
#
# Convention : Reuss Voigt Hill
#
# Bulk Modulus (GPa) = 29.15964 45.31032 37.23498
# Shear Modulus (GPa) = 31.98253 15.55838 23.77045
#
# Velocity S-wave (km/s) = 4.15393 2.89724 3.58114
# Velocity P-wave (km/s) = 6.22407 5.96974 6.09823
#
# Compressibility (1/GPa) = 0.03429398
#
# Stress axis : x y z
#
# Youngs Moduli (GPa) = 87.91545 25.65094 92.46139
#
# Poissons Ratio (x) = 0.08706 0.25802
# Poissons Ratio (y) = 0.29840 0.67087
# Poissons Ratio (z) = 0.24533 0.18612
#
# Static dielectric constant tensor:
#      x y z
#    x 3.860330 0.000000 0.000000 
#    y 0.000000 2.681670 0.000000 
#    z 0.000000 0.000000 3.548470 
# 
# 
# High freq. dielectric constant tensor:
#      x y z
#    x 1.748460 0.000000 0.000000 
#    y 0.000000 1.637420 0.000000 
#    z 0.000000 0.000000 1.725050 
# 
# From -- ./inp_files/24709.got.cif
#   From: 2010.03.12/outbox.cif.g09.slc.cpg/sg57_13_cif.got.tgz:24709.got - 2010.04.16 15:48:40.
