data_PCOD8230763
_publ_section_title
;
Structure prediction by ZEFSAII (Michael W. Deem and Ramdas Pophale) SiO2 
 PCOD8230763
Probable space group: P B C M
;
_chemical_formula_sum "Si O2"
_cell_formula_units_Z 64
_cell_length_a 23.209268
_cell_length_b 17.370517
_cell_length_c 9.014454
_cell_angle_alpha 90.000000
_cell_angle_beta 90.000000
_cell_angle_gamma 90.000000
_cell_volume 3634.240090
_symmetry_space_group_name_H-M "P B C M"
_symmetry_group_IT_number 57
_symmetry_cell_setting 'orthorhombic'
loop_
_space_group_symop_operation_xyz
x,y,z
-x,-y,1/2+z
x,1/2-y,-z
-x,1/2+y,1/2-z
-x,-y,-z
x,y,1/2-z
-x,1/2+y,z
x,1/2-y,1/2+z
loop_
_atom_site_type_symbol
_atom_site_label
_atom_site_fract_x
_atom_site_fract_y
_atom_site_fract_z
Si Si1 0.567279 0.602782 0.425705
Si Si2 0.634606 0.451836 0.080229
Si Si3 0.065719 0.330976 0.925254
Si Si4 0.865131 0.969369 0.075309
Si Si5 0.736255 0.520100 0.577707
Si Si6 0.032727 0.566257 0.420029
Si Si7 0.328592 0.175524 0.575643
Si Si8 0.458826 0.667969 0.576476
O O1 0.562478 0.615113 0.250000
O O2 0.590521 0.518641 0.470181
O O3 0.609877 0.665749 0.495856
O O4 0.505339 0.612565 0.500525
O O5 0.650742 0.464334 0.250000
O O6 0.603864 0.370260 0.051893
O O7 0.694941 0.455507 0.993209
O O8 0.076298 0.323664 0.750000
O O9 0.997988 0.352548 0.963063
O O10 0.080563 0.250000 0.000000
O O11 0.107443 0.397174 0.989102
O O12 0.864528 0.948532 0.250000
O O13 0.800982 0.984934 0.014301
O O14 0.899521 0.050795 0.045963
O O15 0.736104 0.502612 0.750000
O O16 0.712904 0.604596 0.539709
O O17 0.020050 0.552012 0.250000
O O18 0.000000 0.500000 0.500000
O O19 0.299136 0.250000 0.500000
O O20 0.337608 0.187331 0.750000
O O21 0.458517 0.750000 0.500000
O O22 0.473238 0.676274 0.750000
#
# Coordination Sequence:
#
# PCOD8230763 Si02
#       8
#     8   8   8   8   8   8   8   8
#     4  10  19  33  52  73  95 123 156 194 240 290
#     4   9  20  36  53  72  97 127 161 199 240 285
#     4  10  19  30  46  72 102 133 161 193 238 285
#     4   9  17  32  51  72  96 125 162 203 239 281
#     4   9  19  33  51  72  94 124 163 200 239 281
#     4   8  15  28  47  68  93 123 157 192 230 273
#     4  10  19  31  45  65  94 127 159 193 232 281
#     4  11  22  35  51  74  99 124 155 196 244 294
#
# _framework density 17.610282999999999
#
# number of rings (size 3 to 8) (size 9 to 14) (size 15 to 20)
#    0.000    2.500    0.000    2.250    0.000    3.500 
#    0.000    1.250    0.000    0.750    0.000    3.500 
#    0.000    0.000    0.000    0.000    0.000    0.000 
#
# Total GULP energy -793135.568275 kJ/mol
# GULP energy per Si atom -12392.743254 kJ/mol
# Density = 1.757020 g / cm^3
# Si number density = 17.610283 Si / 1000 Ang^3
#
#
#
# Elastic Constant Matrix: (Units=GPa)
#
#
# Indices 1 2 3 4 5 6 
#
# 1 128.3718 38.2039 44.5532 0.0000 0.0000 0.0000
# 2 38.2039 45.9782 24.4539 0.0000 0.0000 0.0000
# 3 44.5532 24.4539 67.1971 0.0000 0.0000 0.0000
# 4 0.0000 0.0000 0.0000 21.9819 0.0000 0.0000
# 5 0.0000 0.0000 0.0000 0.0000 24.0607 0.0000
# 6 0.0000 0.0000 0.0000 0.0000 0.0000 14.7452
#
#
#
# Elastic Compliance Matrix: (Units=1/GPa)
#
#
# Indices 1 2 3 4 5 6 
#
# 1 0.011656 -0.006913 -0.005213 0.000000 0.000000 0.000000
# 2 -0.006913 0.031069 -0.006723 0.000000 0.000000 0.000000
# 3 -0.005213 -0.006723 0.020784 0.000000 0.000000 0.000000
# 4 0.000000 0.000000 0.000000 0.045492 0.000000 0.000000
# 5 0.000000 0.000000 0.000000 0.000000 0.041562 0.000000
# 6 0.000000 0.000000 0.000000 0.000000 0.000000 0.067819
#
#
# Mechanical properties :
#
#
# Convention : Reuss Voigt Hill
#
# Bulk Modulus (GPa) = 38.74094 50.66323 44.70208
# Shear Modulus (GPa) = 18.89048 21.11331 20.00190
#
# Velocity S-wave (km/s) = 3.27876 3.46630 3.37383
# Velocity P-wave (km/s) = 6.03162 6.69715 6.37308
#
# Compressibility (1/GPa) = 0.02581249
#
# Stress axis : x y z
#
# Youngs Moduli (GPa) = 85.79014 32.18615 48.11316
#
# Poissons Ratio (x) = 0.22250 0.25080
# Poissons Ratio (y) = 0.59307 0.32347
# Poissons Ratio (z) = 0.44720 0.21639
#
# Static dielectric constant tensor:
#      x y z
#    x 3.573590 0.000000 0.000000 
#    y 0.000000 3.265610 0.000000 
#    z 0.000000 0.000000 3.303660 
# 
# 
# High freq. dielectric constant tensor:
#      x y z
#    x 1.673980 0.000000 0.000000 
#    y 0.000000 1.661070 0.000000 
#    z 0.000000 0.000000 1.688680 
# 
# From -- ./inp_files/9487.got.cif
#   From: 2010.03.12/outbox.cif.g09.slc.cpg/sg57_5_cif.got.tgz:9487.got - 2010.04.16 15:48:40.
