data_PCOD8230260
_publ_section_title
;
Structure prediction by ZEFSAII (Michael W. Deem and Ramdas Pophale) SiO2 
 PCOD8230260
Probable space group: P B C M
;
_chemical_formula_sum "Si O2"
_cell_formula_units_Z 48
_cell_length_a 15.358606
_cell_length_b 9.530673
_cell_length_c 16.381525
_cell_angle_alpha 90.000000
_cell_angle_beta 90.000000
_cell_angle_gamma 90.000000
_cell_volume 2397.892434
_symmetry_space_group_name_H-M "P B C M"
_symmetry_group_IT_number 57
_symmetry_cell_setting 'orthorhombic'
loop_
_space_group_symop_operation_xyz
x,y,z
-x,-y,1/2+z
x,1/2-y,-z
-x,1/2+y,1/2-z
-x,-y,-z
x,y,1/2-z
-x,1/2+y,z
x,1/2-y,1/2+z
loop_
_atom_site_type_symbol
_atom_site_label
_atom_site_fract_x
_atom_site_fract_y
_atom_site_fract_z
Si Si1 0.939615 0.741893 0.846821
Si Si2 0.718888 0.473535 0.843820
Si Si3 0.541456 0.524076 0.912029
Si Si4 0.586868 0.820914 0.657435
Si Si5 0.239238 0.226360 0.095551
Si Si6 0.093994 0.930206 0.652941
O O1 0.939725 0.748348 0.750000
O O2 0.856333 0.830952 0.880273
O O3 0.934717 0.583171 0.881138
O O4 0.027463 0.813916 0.881541
O O5 0.694555 0.437797 0.750000
O O6 0.635646 0.446251 0.902222
O O7 0.745479 0.635594 0.849996
O O8 0.806312 0.389832 0.872870
O O9 0.477078 0.453142 0.847019
O O10 0.550912 0.689488 0.895266
O O11 0.500000 0.500000 0.000000
O O12 0.595654 0.770227 0.750000
O O13 0.680569 0.873986 0.622031
O O14 0.245383 0.250000 0.000000
O O15 0.090160 0.938012 0.750000
#
# Coordination Sequence:
#
# PCOD8230260 Si02
#       6
#     8   8   8   8   8   8
#     4   9  16  30  49  72  96 126 164 205 247 298
#     4   9  17  33  52  71  97 137 175 205 251 321
#     4  11  21  35  55  80 108 138 174 221 271 319
#     4  11  21  36  56  79 104 139 181 221 261 316
#     4  10  18  30  49  73 100 133 169 210 257 307
#     4   8  15  28  51  73  94 125 167 208 246 295
#
# _framework density 20.017579999999999
#
# number of rings (size 3 to 8) (size 9 to 14) (size 15 to 20)
#    0.000    2.333    0.000    7.500    0.000    0.000 
#    0.000    5.000    0.000    6.000    0.000    0.000 
#    0.000    0.000    0.000    0.000    0.000    0.000 
#
# Total GULP energy -594757.438922 kJ/mol
# GULP energy per Si atom -12390.779978 kJ/mol
# Density = 1.997202 g / cm^3
# Si number density = 20.017580 Si / 1000 Ang^3
#
#
#
# Elastic Constant Matrix: (Units=GPa)
#
#
# Indices 1 2 3 4 5 6 
#
# 1 176.7541 22.1062 50.6593 0.0000 0.0000 0.0000
# 2 22.1062 26.9419 16.6363 0.0000 0.0000 0.0000
# 3 50.6593 16.6363 77.8380 0.0000 0.0000 0.0000
# 4 0.0000 0.0000 0.0000 15.1510 0.0000 0.0000
# 5 0.0000 0.0000 0.0000 0.0000 30.0170 0.0000
# 6 0.0000 0.0000 0.0000 0.0000 0.0000 32.0954
#
#
#
# Elastic Compliance Matrix: (Units=1/GPa)
#
#
# Indices 1 2 3 4 5 6 
#
# 1 0.007228 -0.003486 -0.003959 0.000000 0.000000 0.000000
# 2 -0.003486 0.044442 -0.007230 0.000000 0.000000 0.000000
# 3 -0.003959 -0.007230 0.016969 0.000000 0.000000 0.000000
# 4 0.000000 0.000000 0.000000 0.066002 0.000000 0.000000
# 5 0.000000 0.000000 0.000000 0.000000 0.033314 0.000000
# 6 0.000000 0.000000 0.000000 0.000000 0.000000 0.031157
#
#
# Mechanical properties :
#
#
# Convention : Reuss Voigt Hill
#
# Bulk Modulus (GPa) = 25.45242 51.14860 38.30051
# Shear Modulus (GPa) = 20.69884 28.26149 24.48016
#
# Velocity S-wave (km/s) = 3.21913 3.76151 3.50084
# Velocity P-wave (km/s) = 5.15361 6.66878 5.95954
#
# Compressibility (1/GPa) = 0.03928899
#
# Stress axis : x y z
#
# Youngs Moduli (GPa) = 138.34395 22.50147 58.93018
#
# Poissons Ratio (x) = 0.07844 0.23332
# Poissons Ratio (y) = 0.48228 0.42604
# Poissons Ratio (z) = 0.54775 0.16268
#
# Static dielectric constant tensor:
#      x y z
#    x 4.530430 0.000000 0.000000 
#    y 0.000000 3.357170 0.000000 
#    z 0.000000 0.000000 3.378110 
# 
# 
# High freq. dielectric constant tensor:
#      x y z
#    x 1.810650 0.000000 0.000000 
#    y 0.000000 1.725650 0.000000 
#    z 0.000000 0.000000 1.766080 
# 
# From -- ./inp_files/18385.got.cif
#   From: 2010.03.12/outbox.cif.g09.slc.cpg/sg57_10_cif.got.tgz:18385.got - 2010.04.16 15:48:40.
