data_PCOD8230550
_publ_section_title
;
Structure prediction by ZEFSAII (Michael W. Deem and Ramdas Pophale) SiO2 
 PCOD8230550
Probable space group: P B C M
;
_chemical_formula_sum "Si O2"
_cell_formula_units_Z 56
_cell_length_a 9.252185
_cell_length_b 16.586528
_cell_length_c 19.436704
_cell_angle_alpha 90.000000
_cell_angle_beta 90.000000
_cell_angle_gamma 90.000000
_cell_volume 2982.788191
_symmetry_space_group_name_H-M "P B C M"
_symmetry_group_IT_number 57
_symmetry_cell_setting 'orthorhombic'
loop_
_space_group_symop_operation_xyz
x,y,z
-x,-y,1/2+z
x,1/2-y,-z
-x,1/2+y,1/2-z
-x,-y,-z
x,y,1/2-z
-x,1/2+y,z
x,1/2-y,1/2+z
loop_
_atom_site_type_symbol
_atom_site_label
_atom_site_fract_x
_atom_site_fract_y
_atom_site_fract_z
Si Si1 0.551971 0.945901 0.908212
Si Si2 0.162446 0.342531 0.421103
Si Si3 0.292515 0.017702 0.671828
Si Si4 0.884217 0.385351 0.890968
Si Si5 0.199137 0.341859 0.918932
Si Si6 0.860926 0.286009 0.072303
Si Si7 0.684402 0.412872 0.012642
O O1 0.661606 0.878842 0.879366
O O2 0.457046 0.900803 0.966203
O O3 0.450783 0.986522 0.851122
O O4 0.662653 0.010196 0.940316
O O5 0.245825 0.407048 0.374668
O O6 0.203221 0.361146 0.499704
O O7 0.209164 0.252213 0.401681
O O8 0.989720 0.345878 0.403489
O O9 0.302229 0.047211 0.750000
O O10 0.178742 0.943578 0.667878
O O11 0.829212 0.292179 0.879935
O O12 0.825329 0.421697 0.963623
O O13 0.056830 0.384413 0.887944
O O14 0.922839 0.250000 0.000000
O O15 0.711720 0.334937 0.061604
#
# Coordination Sequence:
#
# PCOD8230550 Si02
#       7
#     8   8   8   8   8   8   8
#     4  10  21  34  51  84 115 153 184 227 274 341
#     4  10  18  34  61  89 118 140 178 240 299 348
#     4  11  25  43  53  72 115 166 203 228 273 341
#     4   9  18  34  60  87 113 143 182 237 291 338
#     4  10  18  35  61  98 114 133 181 246 311 339
#     4   9  15  32  54  93 119 137 165 233 300 344
#     4   9  16  31  54  88 117 141 172 217 299 340
#
# _framework density 18.774381000000002
#
# number of rings (size 3 to 8) (size 9 to 14) (size 15 to 20)
#    0.000    2.286    4.286    2.571    2.000    1.143 
#   23.143    4.286    0.000    0.000    0.000    0.000 
#    0.000    0.000    0.000    0.000    0.000    0.000 
#
# Total GULP energy -693906.737087 kJ/mol
# GULP energy per Si atom -12391.191734 kJ/mol
# Density = 1.873165 g / cm^3
# Si number density = 18.774381 Si / 1000 Ang^3
#
#
#
# Elastic Constant Matrix: (Units=GPa)
#
#
# Indices 1 2 3 4 5 6 
#
# 1 103.8985 70.2969 25.8291 0.0000 0.0000 0.0000
# 2 70.2969 98.7857 37.6900 0.0000 0.0000 0.0000
# 3 25.8291 37.6900 52.7655 0.0000 0.0000 0.0000
# 4 0.0000 0.0000 0.0000 13.7085 0.0000 0.0000
# 5 0.0000 0.0000 0.0000 0.0000 11.1359 0.0000
# 6 0.0000 0.0000 0.0000 0.0000 0.0000 45.9981
#
#
#
# Elastic Compliance Matrix: (Units=1/GPa)
#
#
# Indices 1 2 3 4 5 6 
#
# 1 0.018570 -0.013398 0.000480 0.000000 0.000000 0.000000
# 2 -0.013398 0.023581 -0.010286 0.000000 0.000000 0.000000
# 3 0.000480 -0.010286 0.026064 0.000000 0.000000 0.000000
# 4 0.000000 0.000000 0.000000 0.072947 0.000000 0.000000
# 5 0.000000 0.000000 0.000000 0.000000 0.089800 0.000000
# 6 0.000000 0.000000 0.000000 0.000000 0.000000 0.021740
#
#
# Mechanical properties :
#
#
# Convention : Reuss Voigt Hill
#
# Bulk Modulus (GPa) = 45.85476 58.12020 51.98748
# Shear Modulus (GPa) = 16.31961 22.27742 19.29852
#
# Velocity S-wave (km/s) = 2.95150 3.44842 3.20959
# Velocity P-wave (km/s) = 6.00769 6.84689 6.44097
#
# Compressibility (1/GPa) = 0.02180799
#
# Stress axis : x y z
#
# Youngs Moduli (GPa) = 53.84886 42.40643 38.36728
#
# Poissons Ratio (x) = 0.56816 -0.01840
# Poissons Ratio (y) = 0.72147 0.39463
# Poissons Ratio (z) = -0.02583 0.43617
#
# Static dielectric constant tensor:
#      x y z
#    x 3.492870 0.000000 0.000000 
#    y 0.000000 3.734990 0.000000 
#    z 0.000000 0.000000 2.900540 
# 
# 
# High freq. dielectric constant tensor:
#      x y z
#    x 1.734330 0.000000 0.000000 
#    y 0.000000 1.741600 0.000000 
#    z 0.000000 0.000000 1.657570 
# 
# From -- ./inp_files/24542.got.cif
#   From: 2010.03.12/outbox.cif.g09.slc.cpg/sg57_13_cif.got.tgz:24542.got - 2010.04.16 15:48:40.
