data_PCOD8230649
_publ_section_title
;
Structure prediction by ZEFSAII (Michael W. Deem and Ramdas Pophale) SiO2 
 PCOD8230649
Probable space group: P B C M
;
_chemical_formula_sum "Si O2"
_cell_formula_units_Z 64
_cell_length_a 16.789540
_cell_length_b 23.094919
_cell_length_c 9.048709
_cell_angle_alpha 90.000000
_cell_angle_beta 90.000000
_cell_angle_gamma 90.000000
_cell_volume 3508.664661
_symmetry_space_group_name_H-M "P B C M"
_symmetry_group_IT_number 57
_symmetry_cell_setting 'orthorhombic'
loop_
_space_group_symop_operation_xyz
x,y,z
-x,-y,1/2+z
x,1/2-y,-z
-x,1/2+y,1/2-z
-x,-y,-z
x,y,1/2-z
-x,1/2+y,z
x,1/2-y,1/2+z
loop_
_atom_site_type_symbol
_atom_site_label
_atom_site_fract_x
_atom_site_fract_y
_atom_site_fract_z
Si Si1 0.227754 0.568058 0.077240
Si Si2 0.082685 0.486596 0.075770
Si Si3 0.279298 0.307826 0.082558
Si Si4 0.571284 0.892096 0.417774
Si Si5 0.331632 0.480353 0.584064
Si Si6 0.182660 0.104382 0.416527
Si Si7 0.543912 0.191414 0.076560
Si Si8 0.728912 0.306747 0.920369
O O1 0.246839 0.561355 0.250000
O O2 0.144029 0.538265 0.036592
O O3 0.223234 0.635589 0.030696
O O4 0.301654 0.539066 0.992396
O O5 0.071443 0.479685 0.250000
O O6 0.113367 0.426233 0.009601
O O7 0.000000 0.500000 0.000000
O O8 0.253618 0.294131 0.250000
O O9 0.353881 0.349936 0.078677
O O10 0.305512 0.250000 0.000000
O O11 0.204025 0.335767 0.997958
O O12 0.543714 0.903813 0.250000
O O13 0.594882 0.953169 0.492807
O O14 0.499287 0.864303 0.509055
O O15 0.360450 0.494429 0.750000
O O16 0.259860 0.435385 0.586673
O O17 0.152669 0.117016 0.250000
O O18 0.525488 0.195475 0.250000
O O19 0.636644 0.183569 0.040960
O O20 0.511637 0.250000 0.000000
O O21 0.741193 0.294329 0.750000
O O22 0.763972 0.250000 0.000000
#
# Coordination Sequence:
#
# PCOD8230649 Si02
#       8
#     8   8   8   8   8   8   8   8
#     4   9  18  34  54  75 101 131 161 197 243 295
#     4  10  19  32  53  79 104 127 154 190 235 288
#     4  10  19  29  43  65  93 128 167 202 238 282
#     4  10  19  30  45  66  95 130 168 210 254 297
#     4   9  17  29  47  71  97 126 162 203 246 292
#     4   9  17  30  47  68  96 126 157 195 236 279
#     4  10  19  31  47  67  93 125 165 212 257 299
#     4   9  19  35  54  75  98 127 164 205 249 294
#
# _framework density 18.240556999999999
#
# number of rings (size 3 to 8) (size 9 to 14) (size 15 to 20)
#    0.000    2.500    0.000    2.625    0.000    7.000 
#    0.000    0.625    0.000    0.750    0.000    3.500 
#    0.000    0.000    0.000    0.000    0.000    0.000 
#
# Total GULP energy -793632.425069 kJ/mol
# GULP energy per Si atom -12400.506642 kJ/mol
# Density = 1.819904 g / cm^3
# Si number density = 18.240557 Si / 1000 Ang^3
#
#
#
# Elastic Constant Matrix: (Units=GPa)
#
#
# Indices 1 2 3 4 5 6 
#
# 1 43.2020 22.9267 31.0548 0.0000 0.0000 0.0000
# 2 22.9267 87.4946 43.3406 0.0000 0.0000 0.0000
# 3 31.0548 43.3406 117.5682 0.0000 0.0000 0.0000
# 4 0.0000 0.0000 0.0000 32.5004 0.0000 0.0000
# 5 0.0000 0.0000 0.0000 0.0000 22.1276 0.0000
# 6 0.0000 0.0000 0.0000 0.0000 0.0000 21.2137
#
#
#
# Elastic Compliance Matrix: (Units=1/GPa)
#
#
# Indices 1 2 3 4 5 6 
#
# 1 0.030160 -0.004841 -0.006182 0.000000 0.000000 0.000000
# 2 -0.004841 0.014760 -0.004162 0.000000 0.000000 0.000000
# 3 -0.006182 -0.004162 0.011673 0.000000 0.000000 0.000000
# 4 0.000000 0.000000 0.000000 0.030769 0.000000 0.000000
# 5 0.000000 0.000000 0.000000 0.000000 0.045192 0.000000
# 6 0.000000 0.000000 0.000000 0.000000 0.000000 0.047139
#
#
# Mechanical properties :
#
#
# Convention : Reuss Voigt Hill
#
# Bulk Modulus (GPa) = 38.13552 49.21211 43.67382
# Shear Modulus (GPa) = 22.85152 25.23117 24.04135
#
# Velocity S-wave (km/s) = 3.54331 3.72324 3.63439
# Velocity P-wave (km/s) = 6.13942 6.74695 6.45034
#
# Compressibility (1/GPa) = 0.02622227
#
# Stress axis : x y z
#
# Youngs Moduli (GPa) = 33.15683 67.75284 85.66734
#
# Poissons Ratio (x) = 0.32797 0.52960
# Poissons Ratio (y) = 0.16050 0.35658
# Poissons Ratio (z) = 0.20498 0.28201
#
# Static dielectric constant tensor:
#      x y z
#    x 3.076920 0.000000 0.000000 
#    y 0.000000 3.444420 0.000000 
#    z 0.000000 0.000000 3.582130 
# 
# 
# High freq. dielectric constant tensor:
#      x y z
#    x 1.669910 0.000000 0.000000 
#    y 0.000000 1.701960 0.000000 
#    z 0.000000 0.000000 1.721960 
# 
# From -- ./inp_files/7172.got.cif
#   From: 2010.03.12/outbox.cif.g09.slc.cpg/sg57_4_cif.got.tgz:7172.got - 2010.04.16 15:48:40.
