data_PCOD8230346
_publ_section_title
;
Structure prediction by ZEFSAII (Michael W. Deem and Ramdas Pophale) SiO2 
 PCOD8230346
Probable space group: P B C M
;
_chemical_formula_sum "Si O2"
_cell_formula_units_Z 64
_cell_length_a 20.411711
_cell_length_b 20.297105
_cell_length_c 8.951190
_cell_angle_alpha 90.000000
_cell_angle_beta 90.000000
_cell_angle_gamma 90.000000
_cell_volume 3708.465856
_symmetry_space_group_name_H-M "P B C M"
_symmetry_group_IT_number 57
_symmetry_cell_setting 'orthorhombic'
loop_
_space_group_symop_operation_xyz
x,y,z
-x,-y,1/2+z
x,1/2-y,-z
-x,1/2+y,1/2-z
-x,-y,-z
x,y,1/2-z
-x,1/2+y,z
x,1/2-y,1/2+z
loop_
_atom_site_type_symbol
_atom_site_label
_atom_site_fract_x
_atom_site_fract_y
_atom_site_fract_z
Si Si1 0.083651 0.313591 0.075449
Si Si2 0.940360 0.538374 0.572156
Si Si3 0.785885 0.664772 0.414995
Si Si4 0.192141 0.011616 0.417106
Si Si5 0.483271 0.184334 0.925346
Si Si6 0.339689 0.350084 0.420000
Si Si7 0.449537 0.949795 0.073439
Si Si8 0.320533 0.505421 0.078944
O O1 0.076533 0.305268 0.250000
O O2 0.054397 0.384305 0.024069
O O3 0.047419 0.250000 0.000000
O O4 0.159616 0.309629 0.029206
O O5 0.940953 0.531456 0.750000
O O6 0.874757 0.504372 0.510143
O O7 0.000000 0.500000 0.500000
O O8 0.796462 0.695590 0.250000
O O9 0.788347 0.586900 0.403690
O O10 0.715386 0.685543 0.479892
O O11 0.183203 0.981663 0.250000
O O12 0.250844 0.975035 0.504533
O O13 0.481631 0.194195 0.750000
O O14 0.409798 0.171148 0.985375
O O15 0.529219 0.123790 0.970013
O O16 0.512190 0.250000 0.000000
O O17 0.330074 0.327057 0.250000
O O18 0.334589 0.428390 0.430237
O O19 0.450711 0.961915 0.250000
O O20 0.376745 0.957224 0.011197
O O21 0.500000 0.000000 0.000000
O O22 0.319813 0.529554 0.250000
#
# Coordination Sequence:
#
# PCOD8230346 Si02
#       8
#     8   8   8   8   8   8   8   8
#     4  10  20  33  49  70  98 134 173 211 250 292
#     4  10  20  34  53  78 107 141 175 213 256 302
#     4   9  17  28  44  67  94 128 168 205 242 287
#     4   9  17  30  48  74 104 134 168 207 250 299
#     4  10  22  37  49  67  95 128 165 209 259 311
#     4   9  17  31  46  64  95 130 164 205 247 291
#     4  11  21  35  53  75  99 127 168 215 261 309
#     4  10  18  31  51  75 101 130 166 212 258 300
#
# _framework density 17.257809999999999
#
# number of rings (size 3 to 8) (size 9 to 14) (size 15 to 20)
#    0.000    2.250    1.250    2.250    0.000    7.000 
#    0.000    1.250    0.000    0.000    0.000    0.875 
#    0.000    0.000    0.000    0.000    0.000    0.000 
#
# Total GULP energy -793464.302531 kJ/mol
# GULP energy per Si atom -12397.879727 kJ/mol
# Density = 1.721853 g / cm^3
# Si number density = 17.257810 Si / 1000 Ang^3
#
#
#
# Elastic Constant Matrix: (Units=GPa)
#
#
# Indices 1 2 3 4 5 6 
#
# 1 118.4164 53.2071 52.2655 0.0000 0.0000 0.0000
# 2 53.2071 79.5598 45.8729 0.0000 0.0000 0.0000
# 3 52.2655 45.8729 93.1883 0.0000 0.0000 0.0000
# 4 0.0000 0.0000 0.0000 25.1645 0.0000 0.0000
# 5 0.0000 0.0000 0.0000 0.0000 30.8799 0.0000
# 6 0.0000 0.0000 0.0000 0.0000 0.0000 11.1433
#
#
#
# Elastic Compliance Matrix: (Units=1/GPa)
#
#
# Indices 1 2 3 4 5 6 
#
# 1 0.013184 -0.006358 -0.004264 0.000000 0.000000 0.000000
# 2 -0.006358 0.020617 -0.006583 0.000000 0.000000 0.000000
# 3 -0.004264 -0.006583 0.016363 0.000000 0.000000 0.000000
# 4 0.000000 0.000000 0.000000 0.039739 0.000000 0.000000
# 5 0.000000 0.000000 0.000000 0.000000 0.032384 0.000000
# 6 0.000000 0.000000 0.000000 0.000000 0.000000 0.089740
#
#
# Mechanical properties :
#
#
# Convention : Reuss Voigt Hill
#
# Bulk Modulus (GPa) = 63.47969 65.98394 64.73182
# Shear Modulus (GPa) = 19.86591 22.75880 21.31236
#
# Velocity S-wave (km/s) = 3.39651 3.63540 3.51798
# Velocity P-wave (km/s) = 7.22805 7.47922 7.35471
#
# Compressibility (1/GPa) = 0.01575307
#
# Stress axis : x y z
#
# Youngs Moduli (GPa) = 75.85051 48.50402 61.11288
#
# Poissons Ratio (x) = 0.30840 0.26061
# Poissons Ratio (y) = 0.48227 0.40230
# Poissons Ratio (z) = 0.32346 0.31929
#
# Static dielectric constant tensor:
#      x y z
#    x 3.192550 0.000000 0.000000 
#    y 0.000000 2.857400 0.000000 
#    z 0.000000 0.000000 3.407280 
# 
# 
# High freq. dielectric constant tensor:
#      x y z
#    x 1.648330 0.000000 0.000000 
#    y 0.000000 1.639730 0.000000 
#    z 0.000000 0.000000 1.681170 
# 
# From -- ./inp_files/7274.got.cif
#   From: 2010.03.12/outbox.cif.g09.slc.cpg/sg57_4_cif.got.tgz:7274.got - 2010.04.16 15:48:40.
