data_PCOD8230158
_publ_section_title
;
Structure prediction by ZEFSAII (Michael W. Deem and Ramdas Pophale) SiO2 
 PCOD8230158
Probable space group: P B C M
;
_chemical_formula_sum "Si O2"
_cell_formula_units_Z 56
_cell_length_a 17.727173
_cell_length_b 21.503658
_cell_length_c 9.102590
_cell_angle_alpha 90.000000
_cell_angle_beta 90.000000
_cell_angle_gamma 90.000000
_cell_volume 3469.898802
_symmetry_space_group_name_H-M "P B C M"
_symmetry_group_IT_number 57
_symmetry_cell_setting 'orthorhombic'
loop_
_space_group_symop_operation_xyz
x,y,z
-x,-y,1/2+z
x,1/2-y,-z
-x,1/2+y,1/2-z
-x,-y,-z
x,y,1/2-z
-x,1/2+y,z
x,1/2-y,1/2+z
loop_
_atom_site_type_symbol
_atom_site_label
_atom_site_fract_x
_atom_site_fract_y
_atom_site_fract_z
Si Si1 0.558192 0.582901 0.916398
Si Si2 0.894375 0.463305 0.421404
Si Si3 0.948539 0.582781 0.919633
Si Si4 0.585803 0.436497 0.584812
Si Si5 0.705712 0.603759 0.420977
Si Si6 0.270362 0.541195 0.918446
Si Si7 0.168235 0.315564 0.422795
O O1 0.559249 0.608557 0.750000
O O2 0.570312 0.509449 0.917398
O O3 0.477677 0.598853 0.989897
O O4 0.622978 0.616065 0.011544
O O5 0.893397 0.477670 0.250000
O O6 0.904222 0.529803 0.495259
O O7 0.813048 0.434461 0.465668
O O8 0.962531 0.416415 0.465103
O O9 0.940297 0.565530 0.750000
O O10 0.910632 0.648887 0.954229
O O11 0.583945 0.410291 0.750000
O O12 0.668172 0.423312 0.516733
O O13 0.705029 0.622255 0.250000
O O14 0.728889 0.532601 0.444648
O O15 0.762977 0.646858 0.508479
O O16 0.289376 0.556646 0.750000
O O17 0.160351 0.250000 0.500000
O O18 0.182940 0.307277 0.250000
#
# Coordination Sequence:
#
# PCOD8230158 Si02
#       7
#     8   8   8   8   8   8   8
#     4   9  16  26  39  56  81 113 146 178 211 253
#     4   9  16  28  45  65  88 115 145 181 224 274
#     4   9  18  30  45  64  86 112 147 186 226 270
#     4   9  16  24  36  56  83 114 146 177 209 248
#     4  10  18  29  44  62  84 113 148 183 221 265
#     4   9  16  25  40  61  87 116 144 175 217 269
#     4  11  22  34  47  64  87 117 153 192 230 268
#
# _framework density 16.138798999999999
#
# number of rings (size 3 to 8) (size 9 to 14) (size 15 to 20)
#    0.000    2.571    1.429    1.714    0.000    5.143 
#    0.000    0.000    0.000    0.000    0.000    0.000 
#    0.000    1.143    0.000    8.000    0.000    4.143 
#
# Total GULP energy -694188.784361 kJ/mol
# GULP energy per Si atom -12396.228292 kJ/mol
# Density = 1.610207 g / cm^3
# Si number density = 16.138799 Si / 1000 Ang^3
#
#
#
# Elastic Constant Matrix: (Units=GPa)
#
#
# Indices 1 2 3 4 5 6 
#
# 1 150.4126 31.7155 65.7964 0.0000 0.0000 0.0000
# 2 31.7155 30.7272 27.8295 0.0000 0.0000 0.0000
# 3 65.7964 27.8295 100.3063 0.0000 0.0000 0.0000
# 4 0.0000 0.0000 0.0000 15.9018 0.0000 0.0000
# 5 0.0000 0.0000 0.0000 0.0000 27.8122 0.0000
# 6 0.0000 0.0000 0.0000 0.0000 0.0000 8.7393
#
#
#
# Elastic Compliance Matrix: (Units=1/GPa)
#
#
# Indices 1 2 3 4 5 6 
#
# 1 0.010063 -0.005888 -0.004967 0.000000 0.000000 0.000000
# 2 -0.005888 0.046911 -0.009153 0.000000 0.000000 0.000000
# 3 -0.004967 -0.009153 0.015767 0.000000 0.000000 0.000000
# 4 0.000000 0.000000 0.000000 0.062886 0.000000 0.000000
# 5 0.000000 0.000000 0.000000 0.000000 0.035955 0.000000
# 6 0.000000 0.000000 0.000000 0.000000 0.000000 0.114426
#
#
# Mechanical properties :
#
#
# Convention : Reuss Voigt Hill
#
# Bulk Modulus (GPa) = 30.55750 59.12545 44.84148
# Shear Modulus (GPa) = 14.83974 20.89764 17.86869
#
# Velocity S-wave (km/s) = 3.03563 3.60233 3.33105
# Velocity P-wave (km/s) = 5.59124 7.34966 6.52991
#
# Compressibility (1/GPa) = 0.03272519
#
# Stress axis : x y z
#
# Youngs Moduli (GPa) = 99.37736 21.31674 63.42256
#
# Poissons Ratio (x) = 0.12550 0.31503
# Poissons Ratio (y) = 0.58509 0.58053
# Poissons Ratio (z) = 0.49362 0.19512
#
# Static dielectric constant tensor:
#      x y z
#    x 3.454100 0.000000 0.000000 
#    y 0.000000 2.552710 0.000000 
#    z 0.000000 0.000000 2.979640 
# 
# 
# High freq. dielectric constant tensor:
#      x y z
#    x 1.640190 0.000000 0.000000 
#    y 0.000000 1.543020 0.000000 
#    z 0.000000 0.000000 1.634610 
# 
# From -- ./inp_files/7060.got.cif
#   From: 2010.03.12/outbox.cif.g09.slc.cpg/sg57_4_cif.got.tgz:7060.got - 2010.04.16 15:48:40.
