data_PCOD8230695
_publ_section_title
;
Structure prediction by ZEFSAII (Michael W. Deem and Ramdas Pophale) SiO2 
 PCOD8230695
Probable space group: P B C M
;
_chemical_formula_sum "Si O2"
_cell_formula_units_Z 56
_cell_length_a 16.302394
_cell_length_b 24.583967
_cell_length_c 9.061825
_cell_angle_alpha 90.000000
_cell_angle_beta 90.000000
_cell_angle_gamma 90.000000
_cell_volume 3631.775715
_symmetry_space_group_name_H-M "P B C M"
_symmetry_group_IT_number 57
_symmetry_cell_setting 'orthorhombic'
loop_
_space_group_symop_operation_xyz
x,y,z
-x,-y,1/2+z
x,1/2-y,-z
-x,1/2+y,1/2-z
-x,-y,-z
x,y,1/2-z
-x,1/2+y,z
x,1/2-y,1/2+z
loop_
_atom_site_type_symbol
_atom_site_label
_atom_site_fract_x
_atom_site_fract_y
_atom_site_fract_z
Si Si1 0.966206 0.051778 0.579977
Si Si2 0.580290 0.693848 0.924206
Si Si3 0.801451 0.010168 0.922315
Si Si4 0.518406 0.913303 0.577426
Si Si5 0.617252 0.019369 0.922086
Si Si6 0.769601 0.696150 0.577772
Si Si7 0.870390 0.595593 0.923223
O O1 0.974081 0.037801 0.750000
O O2 0.868749 0.058648 0.542167
O O3 0.030677 0.100326 0.541716
O O4 0.000000 0.000000 0.500000
O O5 0.563552 0.697692 0.750000
O O6 0.675430 0.684038 0.961365
O O7 0.550035 0.750000 0.000000
O O8 0.532377 0.642653 0.990760
O O9 0.798471 0.996344 0.750000
O O10 0.711180 0.028076 0.973483
O O11 0.828779 0.956317 0.004761
O O12 0.511130 0.900128 0.750000
O O13 0.433660 0.938864 0.520738
O O14 0.590857 0.956888 0.546073
O O15 0.603459 0.033225 0.750000
O O16 0.801494 0.750000 0.500000
O O17 0.782478 0.703925 0.750000
O O18 0.825843 0.648363 0.511959
O O19 0.853560 0.591322 0.750000
#
# Coordination Sequence:
#
# PCOD8230695 Si02
#       7
#     8   8   8   8   8   8   8
#     4   8  14  24  38  57  81 106 133 164 196 236
#     4  10  19  31  46  63  85 112 142 175 210 250
#     4   9  16  26  41  61  83 109 140 169 201 244
#     4  10  19  30  44  63  86 112 143 177 215 257
#     4   9  18  30  43  61  87 116 144 176 213 256
#     4   9  18  29  41  59  82 109 139 168 199 238
#     4   9  16  26  40  59  84 111 136 166 205 243
#
# _framework density 15.419454
#
# number of rings (size 3 to 8) (size 9 to 14) (size 15 to 20)
#    0.000    2.857    0.000    1.714    0.000    2.286 
#    0.000    0.000    0.000    0.000    0.000    1.000 
#    0.000    2.286    0.000    0.000    0.000    0.000 
#
# Total GULP energy -693823.276271 kJ/mol
# GULP energy per Si atom -12389.701362 kJ/mol
# Density = 1.538436 g / cm^3
# Si number density = 15.419454 Si / 1000 Ang^3
#
#
#
# Elastic Constant Matrix: (Units=GPa)
#
#
# Indices 1 2 3 4 5 6 
#
# 1 109.4511 49.5519 32.8540 0.0000 0.0000 0.0000
# 2 49.5519 95.0388 37.3417 0.0000 0.0000 0.0000
# 3 32.8540 37.3417 44.7989 0.0000 0.0000 0.0000
# 4 0.0000 0.0000 0.0000 24.7648 0.0000 0.0000
# 5 0.0000 0.0000 0.0000 0.0000 17.6975 0.0000
# 6 0.0000 0.0000 0.0000 0.0000 0.0000 22.9886
#
#
#
# Elastic Compliance Matrix: (Units=1/GPa)
#
#
# Indices 1 2 3 4 5 6 
#
# 1 0.012875 -0.004465 -0.005720 0.000000 0.000000 0.000000
# 2 -0.004465 0.017195 -0.011058 0.000000 0.000000 0.000000
# 3 -0.005720 -0.011058 0.035734 0.000000 0.000000 0.000000
# 4 0.000000 0.000000 0.000000 0.040380 0.000000 0.000000
# 5 0.000000 0.000000 0.000000 0.000000 0.056505 0.000000
# 6 0.000000 0.000000 0.000000 0.000000 0.000000 0.043500
#
#
# Mechanical properties :
#
#
# Convention : Reuss Voigt Hill
#
# Bulk Modulus (GPa) = 42.88646 54.30934 48.59790
# Shear Modulus (GPa) = 19.49709 21.72626 20.61167
#
# Velocity S-wave (km/s) = 3.55976 3.75776 3.66010
# Velocity P-wave (km/s) = 6.69100 7.35700 7.03189
#
# Compressibility (1/GPa) = 0.02331738
#
# Stress axis : x y z
#
# Youngs Moduli (GPa) = 77.66909 58.15635 27.98445
#
# Poissons Ratio (x) = 0.25969 0.16007
# Poissons Ratio (y) = 0.34683 0.30945
# Poissons Ratio (z) = 0.44427 0.64309
#
# Static dielectric constant tensor:
#      x y z
#    x 3.324710 0.000000 0.000000 
#    y 0.000000 2.836710 0.000000 
#    z 0.000000 0.000000 2.957190 
# 
# 
# High freq. dielectric constant tensor:
#      x y z
#    x 1.591150 0.000000 0.000000 
#    y 0.000000 1.561120 0.000000 
#    z 0.000000 0.000000 1.597480 
# 
# From -- ./inp_files/7048.got.cif
#   From: 2010.03.12/outbox.cif.g09.slc.cpg/sg57_4_cif.got.tgz:7048.got - 2010.04.16 15:48:40.
