data_PCOD8230796
_publ_section_title
;
Structure prediction by ZEFSAII (Michael W. Deem and Ramdas Pophale) SiO2 
 PCOD8230796
Probable space group: P B C M
;
_chemical_formula_sum "Si O2"
_cell_formula_units_Z 56
_cell_length_a 17.778153
_cell_length_b 20.132697
_cell_length_c 8.776623
_cell_angle_alpha 90.000000
_cell_angle_beta 90.000000
_cell_angle_gamma 90.000000
_cell_volume 3141.347928
_symmetry_space_group_name_H-M "P B C M"
_symmetry_group_IT_number 57
_symmetry_cell_setting 'orthorhombic'
loop_
_space_group_symop_operation_xyz
x,y,z
-x,-y,1/2+z
x,1/2-y,-z
-x,1/2+y,1/2-z
-x,-y,-z
x,y,1/2-z
-x,1/2+y,z
x,1/2-y,1/2+z
loop_
_atom_site_type_symbol
_atom_site_label
_atom_site_fract_x
_atom_site_fract_y
_atom_site_fract_z
Si Si1 0.360515 0.401454 0.578163
Si Si2 0.184875 0.959815 0.924521
Si Si3 0.966812 0.433486 0.429806
Si Si4 0.931620 0.679274 0.069332
Si Si5 0.209122 0.114708 0.573342
Si Si6 0.505440 0.071849 0.571243
Si Si7 0.332156 0.557670 0.580185
O O1 0.357434 0.374311 0.750000
O O2 0.293312 0.368296 0.481956
O O3 0.441461 0.381474 0.504801
O O4 0.351805 0.480263 0.572237
O O5 0.165518 0.944719 0.750000
O O6 0.188854 0.038135 0.956931
O O7 0.121270 0.928061 0.031041
O O8 0.264702 0.925288 0.964684
O O9 0.979790 0.434316 0.250000
O O10 0.000000 0.500000 0.500000
O O11 0.008628 0.371401 0.501217
O O12 0.938560 0.680845 0.250000
O O13 0.952375 0.750000 0.000000
O O14 0.847242 0.659520 0.023420
O O15 0.201448 0.133083 0.750000
O O16 0.489474 0.066786 0.750000
O O17 0.590955 0.098211 0.539667
O O18 0.500000 0.000000 0.500000
O O19 0.304984 0.576105 0.750000
#
# Coordination Sequence:
#
# PCOD8230796 Si02
#       7
#     8   8   8   8   8   8   8
#     4   9  16  25  39  60  88 124 166 205 248 297
#     4  10  19  30  48  73 100 131 171 215 261 312
#     4  12  23  37  57  80 106 137 177 221 269 321
#     4  12  25  41  59  79 107 139 175 219 269 323
#     4  10  19  32  50  72 100 132 172 213 257 308
#     4   9  15  23  35  54  84 122 163 202 248 300
#     4   8  15  25  37  57  89 126 163 204 252 302
#
# _framework density 17.826740999999998
#
# number of rings (size 3 to 8) (size 9 to 14) (size 15 to 20)
#    0.000    2.000    1.429    5.143    0.000    5.143 
#    0.000    0.000    0.000    0.000    0.000    0.000 
#    0.000    1.143    0.000    4.286    0.000    7.714 
#
# Total GULP energy -694238.307547 kJ/mol
# GULP energy per Si atom -12397.112635 kJ/mol
# Density = 1.778617 g / cm^3
# Si number density = 17.826741 Si / 1000 Ang^3
#
#
#
# Elastic Constant Matrix: (Units=GPa)
#
#
# Indices 1 2 3 4 5 6 
#
# 1 137.4732 39.8898 63.6204 0.0000 0.0000 0.0000
# 2 39.8898 56.3618 39.5225 0.0000 0.0000 0.0000
# 3 63.6204 39.5225 143.0151 0.0000 0.0000 0.0000
# 4 0.0000 0.0000 0.0000 17.8261 0.0000 0.0000
# 5 0.0000 0.0000 0.0000 0.0000 38.9282 0.0000
# 6 0.0000 0.0000 0.0000 0.0000 0.0000 10.0333
#
#
#
# Elastic Compliance Matrix: (Units=1/GPa)
#
#
# Indices 1 2 3 4 5 6 
#
# 1 0.010181 -0.004998 -0.003148 0.000000 0.000000 0.000000
# 2 -0.004998 0.024461 -0.004536 0.000000 0.000000 0.000000
# 3 -0.003148 -0.004536 0.009646 0.000000 0.000000 0.000000
# 4 0.000000 0.000000 0.000000 0.056098 0.000000 0.000000
# 5 0.000000 0.000000 0.000000 0.000000 0.025688 0.000000
# 6 0.000000 0.000000 0.000000 0.000000 0.000000 0.099668
#
#
# Mechanical properties :
#
#
# Convention : Reuss Voigt Hill
#
# Bulk Modulus (GPa) = 52.84445 69.21281 61.02863
# Shear Modulus (GPa) = 19.42383 26.27867 22.85125
#
# Velocity S-wave (km/s) = 3.30447 3.84359 3.58418
# Velocity P-wave (km/s) = 6.65335 7.65553 7.17197
#
# Compressibility (1/GPa) = 0.01892346
#
# Stress axis : x y z
#
# Youngs Moduli (GPa) = 98.21965 40.88126 103.66775
#
# Poissons Ratio (x) = 0.20434 0.32633
# Poissons Ratio (y) = 0.49094 0.47027
# Poissons Ratio (z) = 0.30918 0.18545
#
# Static dielectric constant tensor:
#      x y z
#    x 3.902750 0.000000 0.000000 
#    y 0.000000 2.517530 0.000000 
#    z 0.000000 0.000000 3.491530 
# 
# 
# High freq. dielectric constant tensor:
#      x y z
#    x 1.713550 0.000000 0.000000 
#    y 0.000000 1.609470 0.000000 
#    z 0.000000 0.000000 1.707810 
# 
# From -- ./inp_files/7022.got.cif
#   From: 2010.03.12/outbox.cif.g09.slc.cpg/sg57_4_cif.got.tgz:7022.got - 2010.04.16 15:48:40.
