data_PCOD8230709
_publ_section_title
;
Structure prediction by ZEFSAII (Michael W. Deem and Ramdas Pophale) SiO2 
 PCOD8230709
Probable space group: P B C M
;
_chemical_formula_sum "Si O2"
_cell_formula_units_Z 64
_cell_length_a 28.760613
_cell_length_b 13.948478
_cell_length_c 9.037823
_cell_angle_alpha 90.000000
_cell_angle_beta 90.000000
_cell_angle_gamma 90.000000
_cell_volume 3625.674330
_symmetry_space_group_name_H-M "P B C M"
_symmetry_group_IT_number 57
_symmetry_cell_setting 'orthorhombic'
loop_
_space_group_symop_operation_xyz
x,y,z
-x,-y,1/2+z
x,1/2-y,-z
-x,1/2+y,1/2-z
-x,-y,-z
x,y,1/2-z
-x,1/2+y,z
x,1/2-y,1/2+z
loop_
_atom_site_type_symbol
_atom_site_label
_atom_site_fract_x
_atom_site_fract_y
_atom_site_fract_z
Si Si1 0.847103 0.654003 0.078691
Si Si2 0.573782 0.853086 0.425319
Si Si3 0.983518 0.349154 0.423509
Si Si4 0.666252 0.964603 0.078273
Si Si5 0.485355 0.646751 0.075676
Si Si6 0.616814 0.152039 0.080110
Si Si7 0.742346 0.651388 0.075656
Si Si8 0.064127 0.457631 0.578628
O O1 0.847030 0.678972 0.250000
O O2 0.795126 0.625564 0.027571
O O3 0.882078 0.566397 0.042820
O O4 0.864845 0.750000 0.000000
O O5 0.578003 0.750000 0.500000
O O6 0.567583 0.845636 0.250000
O O7 0.620358 0.907846 0.469263
O O8 0.528174 0.908447 0.493616
O O9 0.968291 0.250000 0.500000
O O10 0.987750 0.330336 0.250000
O O11 0.945078 0.430925 0.460967
O O12 0.032956 0.385907 0.482430
O O13 0.677803 0.947468 0.250000
O O14 0.656969 0.076026 0.042810
O O15 0.709959 0.934002 0.980513
O O16 0.496090 0.653246 0.250000
O O17 0.433851 0.603979 0.044174
O O18 0.484453 0.750000 0.000000
O O19 0.616790 0.180018 0.250000
O O20 0.628450 0.250000 0.000000
O O21 0.736896 0.663098 0.250000
O O22 0.726110 0.750000 0.000000
O O23 0.051952 0.438559 0.750000
#
# Coordination Sequence:
#
# PCOD8230709 Si02
#       8
#     8   8   8   8   8   8   8   8
#     4   9  18  32  50  73  99 127 160 199 241 284
#     4  10  19  30  45  66  94 125 152 182 222 272
#     4  10  19  30  46  70 102 137 171 208 247 288
#     4  10  21  35  50  70  97 125 154 192 237 283
#     4   9  16  28  46  66  90 119 150 185 224 268
#     4   9  19  35  52  70  92 119 153 194 236 277
#     4  10  20  34  53  76 100 126 157 194 239 289
#     4   9  18  32  49  70  98 133 171 209 247 287
#
# _framework density 17.651890000000002
#
# number of rings (size 3 to 8) (size 9 to 14) (size 15 to 20)
#    0.000    2.500    0.000    3.000    0.000    6.000 
#    0.000    0.000    0.000    0.750    0.000    3.500 
#    0.000    0.000    0.000    0.000    0.000    0.000 
#
# Total GULP energy -793309.872703 kJ/mol
# GULP energy per Si atom -12395.466761 kJ/mol
# Density = 1.761171 g / cm^3
# Si number density = 17.651890 Si / 1000 Ang^3
#
#
#
# Elastic Constant Matrix: (Units=GPa)
#
#
# Indices 1 2 3 4 5 6 
#
# 1 108.2997 60.7281 46.1162 0.0000 0.0000 0.0000
# 2 60.7281 92.2245 43.5146 0.0000 0.0000 0.0000
# 3 46.1162 43.5146 74.5023 0.0000 0.0000 0.0000
# 4 0.0000 0.0000 0.0000 24.8208 0.0000 0.0000
# 5 0.0000 0.0000 0.0000 0.0000 22.9353 0.0000
# 6 0.0000 0.0000 0.0000 0.0000 0.0000 53.1843
#
#
#
# Elastic Compliance Matrix: (Units=1/GPa)
#
#
# Indices 1 2 3 4 5 6 
#
# 1 0.015959 -0.008072 -0.005164 0.000000 0.000000 0.000000
# 2 -0.008072 0.019051 -0.006131 0.000000 0.000000 0.000000
# 3 -0.005164 -0.006131 0.020199 0.000000 0.000000 0.000000
# 4 0.000000 0.000000 0.000000 0.040289 0.000000 0.000000
# 5 0.000000 0.000000 0.000000 0.000000 0.043601 0.000000
# 6 0.000000 0.000000 0.000000 0.000000 0.000000 0.018803
#
#
# Mechanical properties :
#
#
# Convention : Reuss Voigt Hill
#
# Bulk Modulus (GPa) = 60.69266 63.97158 62.33212
# Shear Modulus (GPa) = 24.73700 28.49927 26.61814
#
# Velocity S-wave (km/s) = 3.74756 4.02246 3.88744
# Velocity P-wave (km/s) = 7.29269 7.60874 7.45239
#
# Compressibility (1/GPa) = 0.01647646
#
# Stress axis : x y z
#
# Youngs Moduli (GPa) = 62.66126 52.49039 49.50665
#
# Poissons Ratio (x) = 0.42371 0.25563
# Poissons Ratio (y) = 0.50582 0.30350
# Poissons Ratio (z) = 0.32356 0.32180
#
# Static dielectric constant tensor:
#      x y z
#    x 3.494240 0.000000 0.000000 
#    y 0.000000 3.157170 0.000000 
#    z 0.000000 0.000000 3.326500 
# 
# 
# High freq. dielectric constant tensor:
#      x y z
#    x 1.672650 0.000000 0.000000 
#    y 0.000000 1.669000 0.000000 
#    z 0.000000 0.000000 1.689290 
# 
# From -- ./inp_files/10349.got.cif
#   From: 2010.03.12/outbox.cif.g09.slc.cpg/sg57_6_cif.got.tgz:10349.got - 2010.04.16 15:48:40.
