data_PCOD8230714
_publ_section_title
;
Structure prediction by ZEFSAII (Michael W. Deem and Ramdas Pophale) SiO2 
 PCOD8230714
Probable space group: P B C M
;
_chemical_formula_sum "Si O2"
_cell_formula_units_Z 56
_cell_length_a 14.126500
_cell_length_b 26.635964
_cell_length_c 9.070777
_cell_angle_alpha 90.000000
_cell_angle_beta 90.000000
_cell_angle_gamma 90.000000
_cell_volume 3413.087979
_symmetry_space_group_name_H-M "P B C M"
_symmetry_group_IT_number 57
_symmetry_cell_setting 'orthorhombic'
loop_
_space_group_symop_operation_xyz
x,y,z
-x,-y,1/2+z
x,1/2-y,-z
-x,1/2+y,1/2-z
-x,-y,-z
x,y,1/2-z
-x,1/2+y,z
x,1/2-y,1/2+z
loop_
_atom_site_type_symbol
_atom_site_label
_atom_site_fract_x
_atom_site_fract_y
_atom_site_fract_z
Si Si1 0.114281 0.303461 0.075255
Si Si2 0.568468 0.567937 0.422040
Si Si3 0.009869 0.618297 0.079946
Si Si4 0.192493 0.562719 0.419667
Si Si5 0.724806 0.621146 0.914927
Si Si6 0.618667 0.455052 0.077545
Si Si7 0.885997 0.542521 0.915841
O O1 0.103762 0.298464 0.250000
O O2 0.211387 0.331897 0.031698
O O3 0.116051 0.250000 0.000000
O O4 0.023939 0.334525 0.016585
O O5 0.551732 0.574345 0.250000
O O6 0.636064 0.612898 0.477365
O O7 0.468054 0.573656 0.501583
O O8 0.615125 0.514173 0.461061
O O9 0.984051 0.628152 0.250000
O O10 0.122913 0.610540 0.059731
O O11 0.958758 0.567229 0.029240
O O12 0.224310 0.556637 0.250000
O O13 0.284885 0.569651 0.518929
O O14 0.133846 0.513722 0.469843
O O15 0.686582 0.631001 0.750000
O O16 0.786891 0.571258 0.918505
O O17 0.611590 0.445542 0.250000
O O18 0.928618 0.544208 0.750000
#
# Coordination Sequence:
#
# PCOD8230714 Si02
#       7
#     8   8   8   8   8   8   8
#     4  10  21  37  55  75  98 125 157 201 250 296
#     4  10  19  30  45  67  94 128 166 202 240 282
#     4  10  20  31  47  70  96 127 162 200 243 292
#     4  10  19  31  45  65  96 133 168 203 239 279
#     4   9  17  30  49  70  96 127 159 198 244 289
#     4  10  20  30  44  66  94 131 170 205 238 276
#     4   9  17  29  44  64  95 132 165 200 237 277
#
# _framework density 16.407429
#
# number of rings (size 3 to 8) (size 9 to 14) (size 15 to 20)
#    0.000    2.286    1.429    3.000    0.000    5.714 
#    0.000    0.000    0.000    0.000    0.000    1.000 
#    0.000    2.286    0.000    0.000    0.000    0.000 
#
# Total GULP energy -694399.297160 kJ/mol
# GULP energy per Si atom -12399.987449 kJ/mol
# Density = 1.637009 g / cm^3
# Si number density = 16.407429 Si / 1000 Ang^3
#
#
#
# Elastic Constant Matrix: (Units=GPa)
#
#
# Indices 1 2 3 4 5 6 
#
# 1 105.0997 46.9825 62.6479 0.0000 0.0000 0.0000
# 2 46.9825 80.0083 40.0008 0.0000 0.0000 0.0000
# 3 62.6479 40.0008 92.5674 0.0000 0.0000 0.0000
# 4 0.0000 0.0000 0.0000 22.9408 0.0000 0.0000
# 5 0.0000 0.0000 0.0000 0.0000 32.6478 0.0000
# 6 0.0000 0.0000 0.0000 0.0000 0.0000 13.0036
#
#
#
# Elastic Compliance Matrix: (Units=1/GPa)
#
#
# Indices 1 2 3 4 5 6 
#
# 1 0.017737 -0.005630 -0.009571 0.000000 0.000000 0.000000
# 2 -0.005630 0.017730 -0.003851 0.000000 0.000000 0.000000
# 3 -0.009571 -0.003851 0.018945 0.000000 0.000000 0.000000
# 4 0.000000 0.000000 0.000000 0.043590 0.000000 0.000000
# 5 0.000000 0.000000 0.000000 0.000000 0.030630 0.000000
# 6 0.000000 0.000000 0.000000 0.000000 0.000000 0.076902
#
#
# Mechanical properties :
#
#
# Convention : Reuss Voigt Hill
#
# Bulk Modulus (GPa) = 61.32428 64.10419 62.71423
# Shear Modulus (GPa) = 20.07432 22.25473 21.16453
#
# Velocity S-wave (km/s) = 3.50164 3.68690 3.59546
# Velocity P-wave (km/s) = 7.33524 7.56831 7.45269
#
# Compressibility (1/GPa) = 0.01630676
#
# Stress axis : x y z
#
# Youngs Moduli (GPa) = 56.38039 56.40027 52.78565
#
# Poissons Ratio (x) = 0.31755 0.50520
# Poissons Ratio (y) = 0.31744 0.20329
# Poissons Ratio (z) = 0.53961 0.21721
#
# Static dielectric constant tensor:
#      x y z
#    x 3.025090 0.000000 0.000000 
#    y 0.000000 2.796890 0.000000 
#    z 0.000000 0.000000 3.137050 
# 
# 
# High freq. dielectric constant tensor:
#      x y z
#    x 1.625690 0.000000 0.000000 
#    y 0.000000 1.587890 0.000000 
#    z 0.000000 0.000000 1.643300 
# 
# From -- ./inp_files/5897.got.cif
#   From: 2010.03.12/outbox.cif.g09.slc.cpg/sg57_3_cif.got.tgz:5897.got - 2010.04.16 15:48:40.
