data_PCOD8230076
_publ_section_title
;
Structure prediction by ZEFSAII (Michael W. Deem and Ramdas Pophale) SiO2 
 PCOD8230076
Probable space group: P B C M
;
_chemical_formula_sum "Si O2"
_cell_formula_units_Z 56
_cell_length_a 17.578882
_cell_length_b 21.672181
_cell_length_c 8.949473
_cell_angle_alpha 90.000000
_cell_angle_beta 90.000000
_cell_angle_gamma 90.000000
_cell_volume 3409.505004
_symmetry_space_group_name_H-M "P B C M"
_symmetry_group_IT_number 57
_symmetry_cell_setting 'orthorhombic'
loop_
_space_group_symop_operation_xyz
x,y,z
-x,-y,1/2+z
x,1/2-y,-z
-x,1/2+y,1/2-z
-x,-y,-z
x,y,1/2-z
-x,1/2+y,z
x,1/2-y,1/2+z
loop_
_atom_site_type_symbol
_atom_site_label
_atom_site_fract_x
_atom_site_fract_y
_atom_site_fract_z
Si Si1 0.394454 0.045630 0.075475
Si Si2 0.909694 0.560681 0.081639
Si Si3 0.792795 0.393736 0.925747
Si Si4 0.538298 0.085960 0.576996
Si Si5 0.336076 0.815228 0.073955
Si Si6 0.943680 0.416437 0.081397
Si Si7 0.760022 0.965496 0.074695
O O1 0.381382 0.055093 0.250000
O O2 0.415819 0.975587 0.033893
O O3 0.461397 0.090853 0.019677
O O4 0.317188 0.062934 0.990632
O O5 0.903491 0.586010 0.250000
O O6 0.930061 0.489079 0.081682
O O7 0.829943 0.571400 0.998360
O O8 0.975509 0.598386 0.995747
O O9 0.792557 0.381836 0.750000
O O10 0.764202 0.462210 0.966309
O O11 0.739223 0.344649 0.005203
O O12 0.877660 0.382965 0.987572
O O13 0.515213 0.084751 0.750000
O O14 0.590682 0.143576 0.535594
O O15 0.323942 0.808587 0.250000
O O16 0.352111 0.750000 0.000000
O O17 0.944264 0.390526 0.250000
O O18 0.763387 0.954606 0.250000
#
# Coordination Sequence:
#
# PCOD8230076 Si02
#       7
#     8   8   8   8   8   8   8
#     4  10  18  29  47  68  91 119 154 192 233 284
#     4   9  16  25  38  58  86 118 152 185 220 263
#     4  10  19  30  45  64  87 119 157 192 230 275
#     4   9  19  33  47  65  90 119 152 191 237 283
#     4  11  22  36  51  68  92 121 157 198 239 282
#     4   9  16  26  40  58  84 117 151 186 223 264
#     4  10  18  27  42  64  92 122 154 189 229 278
#
# _framework density 16.424671
#
# number of rings (size 3 to 8) (size 9 to 14) (size 15 to 20)
#    0.000    2.286    1.429    2.571    0.000    6.286 
#    0.000    0.000    0.000    0.000    0.000    0.000 
#    0.000    1.143    0.000    9.714    0.000    7.143 
#
# Total GULP energy -694507.341591 kJ/mol
# GULP energy per Si atom -12401.916814 kJ/mol
# Density = 1.638729 g / cm^3
# Si number density = 16.424671 Si / 1000 Ang^3
#
#
#
# Elastic Constant Matrix: (Units=GPa)
#
#
# Indices 1 2 3 4 5 6 
#
# 1 152.6209 37.0596 70.8477 0.0000 0.0000 0.0000
# 2 37.0596 47.2878 30.0650 0.0000 0.0000 0.0000
# 3 70.8477 30.0650 103.4532 0.0000 0.0000 0.0000
# 4 0.0000 0.0000 0.0000 17.6588 0.0000 0.0000
# 5 0.0000 0.0000 0.0000 0.0000 37.9337 0.0000
# 6 0.0000 0.0000 0.0000 0.0000 0.0000 960.8030
#
#
#
# Elastic Compliance Matrix: (Units=1/GPa)
#
#
# Indices 1 2 3 4 5 6 
#
# 1 0.010302 -0.004402 -0.005776 0.000000 0.000000 0.000000
# 2 -0.004402 0.027821 -0.005071 0.000000 0.000000 0.000000
# 3 -0.005776 -0.005071 0.015096 0.000000 0.000000 0.000000
# 4 0.000000 0.000000 0.000000 0.056629 0.000000 0.000000
# 5 0.000000 0.000000 0.000000 0.000000 0.026362 0.000000
# 6 0.000000 0.000000 0.000000 0.000000 0.000000 0.001041
#
#
# Mechanical properties :
#
#
# Convention : Reuss Voigt Hill
#
# Bulk Modulus (GPa) = 44.01127 64.36738 54.18933
# Shear Modulus (GPa) = 28.51919 214.30507 121.41213
#
# Velocity S-wave (km/s) = 4.17149 11.43507 8.60704
# Velocity P-wave (km/s) = 7.07501 14.61582 11.48212
#
# Compressibility (1/GPa) = 0.02272145
#
# Stress axis : x y z
#
# Youngs Moduli (GPa) = 97.06573 35.94466 66.24477
#
# Poissons Ratio (x) = 0.15821 0.38264
# Poissons Ratio (y) = 0.42724 0.33591
# Poissons Ratio (z) = 0.56067 0.18227
#
# Static dielectric constant tensor:
#      x y z
#    x 3.245190 0.000000 0.000000 
#    y 0.000000 2.705350 0.000000 
#    z 0.000000 0.000000 3.233750 
# 
# 
# High freq. dielectric constant tensor:
#      x y z
#    x 1.646920 0.000000 0.000000 
#    y 0.000000 1.557570 0.000000 
#    z 0.000000 0.000000 1.651780 
# 
# From -- ./inp_files/7013.got.cif
#   From: 2010.03.12/outbox.cif.g09.slc.cpg/sg57_4_cif.got.tgz:7013.got - 2010.04.16 15:48:40.
