data_PCOD8230161
_publ_section_title
;
Structure prediction by ZEFSAII (Michael W. Deem and Ramdas Pophale) SiO2 
 PCOD8230161
Probable space group: P B C M
;
_chemical_formula_sum "Si O2"
_cell_formula_units_Z 64
_cell_length_a 20.364836
_cell_length_b 20.580025
_cell_length_c 9.061184
_cell_angle_alpha 90.000000
_cell_angle_beta 90.000000
_cell_angle_gamma 90.000000
_cell_volume 3797.622261
_symmetry_space_group_name_H-M "P B C M"
_symmetry_group_IT_number 57
_symmetry_cell_setting 'orthorhombic'
loop_
_space_group_symop_operation_xyz
x,y,z
-x,-y,1/2+z
x,1/2-y,-z
-x,1/2+y,1/2-z
-x,-y,-z
x,y,1/2-z
-x,1/2+y,z
x,1/2-y,1/2+z
loop_
_atom_site_type_symbol
_atom_site_label
_atom_site_fract_x
_atom_site_fract_y
_atom_site_fract_z
Si Si1 0.443496 0.040813 0.076323
Si Si2 0.982682 0.813820 0.921240
Si Si3 0.684041 0.516053 0.911864
Si Si4 0.825206 0.510239 0.578833
Si Si5 0.581195 0.812315 0.924032
Si Si6 0.162639 0.355781 0.922017
Si Si7 0.287986 0.333586 0.414257
Si Si8 0.957532 0.445770 0.921538
O O1 0.450219 0.033806 0.250000
O O2 0.448330 0.117124 0.028393
O O3 0.374375 0.008206 0.029115
O O4 0.500000 0.000000 0.000000
O O5 0.996737 0.805797 0.750000
O O6 0.905729 0.821038 0.955220
O O7 0.022350 0.875534 0.985045
O O8 0.010228 0.750000 0.000000
O O9 0.659019 0.492444 0.750000
O O10 0.752277 0.480033 0.958211
O O11 0.706776 0.589793 0.901958
O O12 0.826471 0.533258 0.750000
O O13 0.842852 0.570041 0.474106
O O14 0.879796 0.455162 0.550370
O O15 0.577039 0.803990 0.750000
O O16 0.543826 0.750000 0.000000
O O17 0.655923 0.807107 0.978123
O O18 0.180871 0.355606 0.750000
O O19 0.218323 0.316181 0.011799
O O20 0.293783 0.302620 0.250000
O O21 0.975800 0.449815 0.750000
O O22 0.000000 0.500000 0.000000
#
# Coordination Sequence:
#
# PCOD8230161 Si02
#       8
#     8   8   8   8   8   8   8   8
#     4  10  20  33  51  75 102 134 166 201 242 288
#     4  10  22  35  46  64  92 125 161 202 249 300
#     4   8  15  28  45  69  97 125 157 194 238 289
#     4   9  17  29  49  72  95 123 157 201 250 295
#     4  10  20  33  49  71  98 131 169 205 242 285
#     4  10  18  29  44  65  93 124 162 203 240 284
#     4   9  17  29  45  65  92 128 165 200 238 279
#     4  10  19  33  51  73  95 121 161 206 252 299
#
# _framework density 16.852651000000002
#
# number of rings (size 3 to 8) (size 9 to 14) (size 15 to 20)
#    0.000    2.500    1.250    2.250    0.000    6.500 
#    0.000    1.250    0.000    0.000    0.000    0.875 
#    0.000    2.000    0.000    0.000    0.000    0.000 
#
# Total GULP energy -793193.964954 kJ/mol
# GULP energy per Si atom -12393.655702 kJ/mol
# Density = 1.681429 g / cm^3
# Si number density = 16.852651 Si / 1000 Ang^3
#
#
#
# Elastic Constant Matrix: (Units=GPa)
#
#
# Indices 1 2 3 4 5 6 
#
# 1 93.5147 54.6112 41.3876 0.0000 0.0000 0.0000
# 2 54.6112 99.8411 39.8622 0.0000 0.0000 0.0000
# 3 41.3876 39.8622 67.9429 0.0000 0.0000 0.0000
# 4 0.0000 0.0000 0.0000 24.6168 0.0000 0.0000
# 5 0.0000 0.0000 0.0000 0.0000 23.8723 0.0000
# 6 0.0000 0.0000 0.0000 0.0000 0.0000 12.3562
#
#
#
# Elastic Compliance Matrix: (Units=1/GPa)
#
#
# Indices 1 2 3 4 5 6 
#
# 1 0.017771 -0.007050 -0.006689 0.000000 0.000000 0.000000
# 2 -0.007050 0.015876 -0.005020 0.000000 0.000000 0.000000
# 3 -0.006689 -0.005020 0.021738 0.000000 0.000000 0.000000
# 4 0.000000 0.000000 0.000000 0.040623 0.000000 0.000000
# 5 0.000000 0.000000 0.000000 0.000000 0.041890 0.000000
# 6 0.000000 0.000000 0.000000 0.000000 0.000000 0.080931
#
#
# Mechanical properties :
#
#
# Convention : Reuss Voigt Hill
#
# Bulk Modulus (GPa) = 55.96812 59.22453 57.59632
# Shear Modulus (GPa) = 19.06193 20.53157 19.79675
#
# Velocity S-wave (km/s) = 3.36682 3.49420 3.43110
# Velocity P-wave (km/s) = 6.95675 7.17622 7.06734
#
# Compressibility (1/GPa) = 0.01786732
#
# Stress axis : x y z
#
# Youngs Moduli (GPa) = 56.27184 62.98669 46.00153
#
# Poissons Ratio (x) = 0.44403 0.30771
# Poissons Ratio (y) = 0.39670 0.23095
# Poissons Ratio (z) = 0.37641 0.31622
#
# Static dielectric constant tensor:
#      x y z
#    x 3.295810 0.000000 0.000000 
#    y 0.000000 3.202470 0.000000 
#    z 0.000000 0.000000 3.125030 
# 
# 
# High freq. dielectric constant tensor:
#      x y z
#    x 1.633610 0.000000 0.000000 
#    y 0.000000 1.623150 0.000000 
#    z 0.000000 0.000000 1.656580 
# 
# From -- ./inp_files/8733.got.cif
#   From: 2010.03.12/outbox.cif.g09.slc.cpg/sg57_5_cif.got.tgz:8733.got - 2010.04.16 15:48:40.
