data_PCOD8230964
_publ_section_title
;
Structure prediction by ZEFSAII (Michael W. Deem and Ramdas Pophale) SiO2 
 PCOD8230964
Probable space group: P B C M
;
_chemical_formula_sum "Si O2"
_cell_formula_units_Z 48
_cell_length_a 9.574182
_cell_length_b 30.353450
_cell_length_c 9.153252
_cell_angle_alpha 90.000000
_cell_angle_beta 90.000000
_cell_angle_gamma 90.000000
_cell_volume 2660.021572
_symmetry_space_group_name_H-M "P B C M"
_symmetry_group_IT_number 57
_symmetry_cell_setting 'orthorhombic'
loop_
_space_group_symop_operation_xyz
x,y,z
-x,-y,1/2+z
x,1/2-y,-z
-x,1/2+y,1/2-z
-x,-y,-z
x,y,1/2-z
-x,1/2+y,z
x,1/2-y,1/2+z
loop_
_atom_site_type_symbol
_atom_site_label
_atom_site_fract_x
_atom_site_fract_y
_atom_site_fract_z
Si Si1 0.005632 0.127791 0.081229
Si Si2 0.796193 0.204611 0.422920
Si Si3 0.198271 0.570098 0.918628
Si Si4 0.360474 0.486628 0.920394
Si Si5 0.584248 0.354693 0.421696
Si Si6 0.682484 0.886422 0.579296
O O1 0.991340 0.116729 0.250000
O O2 0.167131 0.133769 0.038080
O O3 0.924353 0.172219 0.039214
O O4 0.939516 0.085474 0.002532
O O5 0.835492 0.250000 0.500000
O O6 0.775643 0.210811 0.250000
O O7 0.654086 0.186076 0.493473
O O8 0.160998 0.573610 0.750000
O O9 0.237164 0.520411 0.966001
O O10 0.330490 0.600978 0.957185
O O11 0.391392 0.491357 0.750000
O O12 0.313975 0.437796 0.963936
O O13 0.500000 0.500000 0.000000
O O14 0.579399 0.344080 0.250000
O O15 0.428514 0.360268 0.482394
O O16 0.646252 0.880293 0.750000
#
# Coordination Sequence:
#
# PCOD8230964 Si02
#       6
#     8   8   8   8   8   8
#     4   9  20  36  53  76 106 141 176 215 268 324
#     4  10  20  37  60  82 104 132 170 213 261 318
#     4   9  18  32  49  73 104 139 181 225 262 306
#     4  10  19  31  49  74 105 142 185 229 268 307
#     4  10  19  33  54  79 107 137 174 216 262 312
#     4  10  20  34  52  76 109 145 180 221 269 315
#
# _framework density 18.044967
#
# number of rings (size 3 to 8) (size 9 to 14) (size 15 to 20)
#    0.000    2.333    1.667    1.000    0.000    3.333 
#    0.000    0.833    0.000    2.000    0.000    0.000 
#    0.000    0.000    0.000    0.000    0.000    0.000 
#
# Total GULP energy -595292.583376 kJ/mol
# GULP energy per Si atom -12401.928820 kJ/mol
# Density = 1.800390 g / cm^3
# Si number density = 18.044967 Si / 1000 Ang^3
#
#
#
# Elastic Constant Matrix: (Units=GPa)
#
#
# Indices 1 2 3 4 5 6 
#
# 1 112.6475 45.5478 49.2115 0.0000 0.0000 0.0000
# 2 45.5478 92.8686 41.6951 0.0000 0.0000 0.0000
# 3 49.2115 41.6951 68.6302 0.0000 0.0000 0.0000
# 4 0.0000 0.0000 0.0000 27.6486 0.0000 0.0000
# 5 0.0000 0.0000 0.0000 0.0000 30.3009 0.0000
# 6 0.0000 0.0000 0.0000 0.0000 0.0000 20.1193
#
#
#
# Elastic Compliance Matrix: (Units=1/GPa)
#
#
# Indices 1 2 3 4 5 6 
#
# 1 0.013562 -0.003143 -0.007816 0.000000 0.000000 0.000000
# 2 -0.003143 0.015535 -0.007184 0.000000 0.000000 0.000000
# 3 -0.007816 -0.007184 0.024540 0.000000 0.000000 0.000000
# 4 0.000000 0.000000 0.000000 0.036168 0.000000 0.000000
# 5 0.000000 0.000000 0.000000 0.000000 0.033002 0.000000
# 6 0.000000 0.000000 0.000000 0.000000 0.000000 0.049703
#
#
# Mechanical properties :
#
#
# Convention : Reuss Voigt Hill
#
# Bulk Modulus (GPa) = 57.63197 60.78390 59.20794
# Shear Modulus (GPa) = 23.30131 24.79323 24.04727
#
# Velocity S-wave (km/s) = 3.59735 3.71073 3.65448
# Velocity P-wave (km/s) = 7.01868 7.21922 7.11966
#
# Compressibility (1/GPa) = 0.01735148
#
# Stress axis : x y z
#
# Youngs Moduli (GPa) = 73.73364 64.37136 40.75013
#
# Poissons Ratio (x) = 0.20230 0.31849
# Poissons Ratio (y) = 0.23173 0.29277
# Poissons Ratio (z) = 0.57627 0.46247
#
# Static dielectric constant tensor:
#      x y z
#    x 3.438360 0.000000 0.000000 
#    y 0.000000 3.407550 0.000000 
#    z 0.000000 0.000000 3.333180 
# 
# 
# High freq. dielectric constant tensor:
#      x y z
#    x 1.693990 0.000000 0.000000 
#    y 0.000000 1.690100 0.000000 
#    z 0.000000 0.000000 1.700850 
# 
# From -- ./inp_files/2006.got.cif
#   From: 2010.03.12/outbox.cif.g09.slc.cpg/sg57_2_cif.got.tgz:2006.got - 2010.04.16 15:48:40.
