data_PCOD8230876
_publ_section_title
;
Structure prediction by ZEFSAII (Michael W. Deem and Ramdas Pophale) SiO2 
 PCOD8230876
Probable space group: P B C M
;
_chemical_formula_sum "Si O2"
_cell_formula_units_Z 48
_cell_length_a 18.942077
_cell_length_b 8.639337
_cell_length_c 15.667623
_cell_angle_alpha 90.000000
_cell_angle_beta 90.000000
_cell_angle_gamma 90.000000
_cell_volume 2563.959292
_symmetry_space_group_name_H-M "P B C M"
_symmetry_group_IT_number 57
_symmetry_cell_setting 'orthorhombic'
loop_
_space_group_symop_operation_xyz
x,y,z
-x,-y,1/2+z
x,1/2-y,-z
-x,1/2+y,1/2-z
-x,-y,-z
x,y,1/2-z
-x,1/2+y,z
x,1/2-y,1/2+z
loop_
_atom_site_type_symbol
_atom_site_label
_atom_site_fract_x
_atom_site_fract_y
_atom_site_fract_z
Si Si1 0.683924 0.358458 0.082040
Si Si2 0.422681 0.432112 0.007401
Si Si3 0.922209 0.065276 0.501641
Si Si4 0.172274 0.581414 0.654486
Si Si5 0.171040 0.552734 0.344977
Si Si6 0.668421 0.449979 0.655690
O O1 0.624084 0.485549 0.065163
O O2 0.751237 0.455426 0.114250
O O3 0.658016 0.236745 0.153381
O O4 0.702503 0.250000 0.000000
O O5 0.425558 0.250000 0.000000
O O6 0.500000 0.500000 0.000000
O O7 0.388700 0.465715 0.098456
O O8 0.922535 0.250000 0.500000
O O9 0.885622 0.009196 0.590014
O O10 0.881310 0.993355 0.419314
O O11 0.000000 0.000000 0.500000
O O12 0.164188 0.508775 0.750000
O O13 0.164132 0.764092 0.660462
O O14 0.151945 0.485347 0.250000
O O15 0.251047 0.506553 0.370732
O O16 0.652851 0.509083 0.750000
#
# Coordination Sequence:
#
# PCOD8230876 Si02
#       6
#     8   8   8   8   8   8
#     4   9  16  31  57  80  99 127 169 215 262 310
#     4  11  22  37  54  75 108 146 176 206 253 312
#     4  10  19  31  47  70 100 133 168 204 247 300
#     4   9  16  29  50  75  98 127 167 210 252 304
#     4   8  15  30  54  75  94 125 168 211 254 305
#     4   9  17  34  59  83 101 126 172 226 267 307
#
# _framework density 18.721046000000001
#
# number of rings (size 3 to 8) (size 9 to 14) (size 15 to 20)
#    0.000    2.667    0.000    6.500    0.000    0.667 
#    0.000    9.167    0.000    2.000    0.000    0.000 
#    0.000    0.000    0.000    0.000    0.000    0.000 
#
# Total GULP energy -594837.716702 kJ/mol
# GULP energy per Si atom -12392.452431 kJ/mol
# Density = 1.867844 g / cm^3
# Si number density = 18.721046 Si / 1000 Ang^3
#
#
#
# Elastic Constant Matrix: (Units=GPa)
#
#
# Indices 1 2 3 4 5 6 
#
# 1 169.6296 48.3529 100.6676 0.0000 0.0000 0.0000
# 2 48.3529 57.7462 25.6504 0.0000 0.0000 0.0000
# 3 100.6676 25.6504 142.9869 0.0000 0.0000 0.0000
# 4 0.0000 0.0000 0.0000 14.0618 0.0000 0.0000
# 5 0.0000 0.0000 0.0000 0.0000 15.6302 0.0000
# 6 0.0000 0.0000 0.0000 0.0000 0.0000 30.7179
#
#
#
# Elastic Compliance Matrix: (Units=1/GPa)
#
#
# Indices 1 2 3 4 5 6 
#
# 1 0.012272 -0.006995 -0.007385 0.000000 0.000000 0.000000
# 2 -0.006995 0.022804 0.000834 0.000000 0.000000 0.000000
# 3 -0.007385 0.000834 0.012043 0.000000 0.000000 0.000000
# 4 0.000000 0.000000 0.000000 0.071115 0.000000 0.000000
# 5 0.000000 0.000000 0.000000 0.000000 0.063979 0.000000
# 6 0.000000 0.000000 0.000000 0.000000 0.000000 0.032554
#
#
# Mechanical properties :
#
#
# Convention : Reuss Voigt Hill
#
# Bulk Modulus (GPa) = 49.93270 79.96718 64.94994
# Shear Modulus (GPa) = 20.11792 25.12809 22.62301
#
# Velocity S-wave (km/s) = 3.28169 3.66763 3.48001
# Velocity P-wave (km/s) = 6.41008 7.79379 7.13556
#
# Compressibility (1/GPa) = 0.02002695
#
# Stress axis : x y z
#
# Youngs Moduli (GPa) = 81.48763 43.85178 83.03428
#
# Poissons Ratio (x) = 0.30676 0.61320
# Poissons Ratio (y) = 0.57003 -0.06926
# Poissons Ratio (z) = 0.60178 -0.03658
#
# Static dielectric constant tensor:
#      x y z
#    x 3.453230 0.000000 0.000000 
#    y 0.000000 3.040200 0.000000 
#    z 0.000000 0.000000 2.222650 
# 
# 
# High freq. dielectric constant tensor:
#      x y z
#    x 1.724670 0.000000 0.000000 
#    y 0.000000 1.677550 0.000000 
#    z 0.000000 0.000000 1.739820 
# 
# From -- ./inp_files/18978.got.cif
#   From: 2010.03.12/outbox.cif.g09.slc.cpg/sg57_10_cif.got.tgz:18978.got - 2010.04.16 15:48:40.
