data_PCOD8230681
_publ_section_title
;
Structure prediction by ZEFSAII (Michael W. Deem and Ramdas Pophale) SiO2 
 PCOD8230681
Probable space group: P B C M
;
_chemical_formula_sum "Si O2"
_cell_formula_units_Z 48
_cell_length_a 11.618761
_cell_length_b 22.256946
_cell_length_c 10.298750
_cell_angle_alpha 90.000000
_cell_angle_beta 90.000000
_cell_angle_gamma 90.000000
_cell_volume 2663.237555
_symmetry_space_group_name_H-M "P B C M"
_symmetry_group_IT_number 57
_symmetry_cell_setting 'orthorhombic'
loop_
_space_group_symop_operation_xyz
x,y,z
-x,-y,1/2+z
x,1/2-y,-z
-x,1/2+y,1/2-z
-x,-y,-z
x,y,1/2-z
-x,1/2+y,z
x,1/2-y,1/2+z
loop_
_atom_site_type_symbol
_atom_site_label
_atom_site_fract_x
_atom_site_fract_y
_atom_site_fract_z
Si Si1 0.622103 0.918467 0.501757
Si Si2 0.943707 0.077812 0.104585
Si Si3 0.705748 0.118110 0.395355
Si Si4 0.495801 0.197479 0.399422
Si Si5 0.128714 0.442147 0.101513
Si Si6 0.602222 0.041977 0.887923
O O1 0.594434 0.855593 0.571895
O O2 0.746585 0.917337 0.436051
O O3 0.528023 0.933324 0.391513
O O4 0.608563 0.969835 0.610642
O O5 0.998517 0.080510 0.250000
O O6 0.843408 0.128785 0.091242
O O7 0.881441 0.013610 0.083168
O O8 0.039059 0.090332 0.995848
O O9 0.677363 0.094904 0.250000
O O10 0.628548 0.176764 0.424318
O O11 0.675962 0.065076 0.492864
O O12 0.467632 0.250000 0.500000
O O13 0.480551 0.219204 0.250000
O O14 0.100822 0.423652 0.250000
O O15 0.654860 0.063332 0.750000
#
# Coordination Sequence:
#
# PCOD8230681 Si02
#       6
#     8   8   8   8   8   8
#     4  10  20  33  50  75 109 141 168 210 265 315
#     4   9  18  32  49  73 107 143 174 209 255 308
#     4   9  18  35  54  74 106 140 168 208 262 311
#     4  10  22  38  56  77 103 136 176 218 263 311
#     4  10  19  31  49  75 108 144 176 210 251 306
#     4  10  19  29  50  80 104 133 172 208 251 313
#
# _framework density 18.023174999999998
#
# number of rings (size 3 to 8) (size 9 to 14) (size 15 to 20)
#    0.000    2.333    1.667    1.000    0.000    9.333 
#    0.000    0.000    0.000    1.000    0.000    2.333 
#    0.000    0.000    0.000    0.000    0.000    0.000 
#
# Total GULP energy -594816.028062 kJ/mol
# GULP energy per Si atom -12392.000585 kJ/mol
# Density = 1.798215 g / cm^3
# Si number density = 18.023175 Si / 1000 Ang^3
#
#
#
# Elastic Constant Matrix: (Units=GPa)
#
#
# Indices 1 2 3 4 5 6 
#
# 1 104.6285 18.7581 55.4287 0.0000 0.0000 0.0000
# 2 18.7581 65.4860 42.7325 0.0000 0.0000 0.0000
# 3 55.4287 42.7325 142.0089 0.0000 0.0000 0.0000
# 4 0.0000 0.0000 0.0000 8.5829 0.0000 0.0000
# 5 0.0000 0.0000 0.0000 0.0000 9.4683 0.0000
# 6 0.0000 0.0000 0.0000 0.0000 0.0000 13.9078
#
#
#
# Elastic Compliance Matrix: (Units=1/GPa)
#
#
# Indices 1 2 3 4 5 6 
#
# 1 0.012061 -0.000476 -0.004564 0.000000 0.000000 0.000000
# 2 -0.000476 0.019020 -0.005538 0.000000 0.000000 0.000000
# 3 -0.004564 -0.005538 0.010490 0.000000 0.000000 0.000000
# 4 0.000000 0.000000 0.000000 0.116511 0.000000 0.000000
# 5 0.000000 0.000000 0.000000 0.000000 0.105616 0.000000
# 6 0.000000 0.000000 0.000000 0.000000 0.000000 0.071902
#
#
# Mechanical properties :
#
#
# Convention : Reuss Voigt Hill
#
# Bulk Modulus (GPa) = 48.98456 60.66243 54.82350
# Shear Modulus (GPa) = 13.75284 19.40540 16.57912
#
# Velocity S-wave (km/s) = 2.76536 3.28486 3.03624
# Velocity P-wave (km/s) = 6.11833 6.93672 6.54034
#
# Compressibility (1/GPa) = 0.02041459
#
# Stress axis : x y z
#
# Youngs Moduli (GPa) = 82.91149 52.57517 95.33186
#
# Poissons Ratio (x) = 0.02505 0.43512
# Poissons Ratio (y) = 0.03950 0.52791
# Poissons Ratio (z) = 0.37843 0.29114
#
# Static dielectric constant tensor:
#      x y z
#    x 3.343600 0.000000 0.000000 
#    y 0.000000 2.887660 0.000000 
#    z 0.000000 0.000000 3.431360 
# 
# 
# High freq. dielectric constant tensor:
#      x y z
#    x 1.692280 0.000000 0.000000 
#    y 0.000000 1.642260 0.000000 
#    z 0.000000 0.000000 1.713690 
# 
# From -- ./inp_files/3098.got.cif
#   From: 2010.03.12/outbox.cif.g09.slc.cpg/sg57_2_cif.got.tgz:3098.got - 2010.04.16 15:48:40.
