data_PCOD8230422
_publ_section_title
;
Structure prediction by ZEFSAII (Michael W. Deem and Ramdas Pophale) SiO2 
 PCOD8230422
Probable space group: P B C M
;
_chemical_formula_sum "Si O2"
_cell_formula_units_Z 36
_cell_length_a 9.221640
_cell_length_b 22.971729
_cell_length_c 8.986211
_cell_angle_alpha 90.000000
_cell_angle_beta 90.000000
_cell_angle_gamma 90.000000
_cell_volume 1903.612115
_symmetry_space_group_name_H-M "P B C M"
_symmetry_group_IT_number 57
_symmetry_cell_setting 'orthorhombic'
loop_
_space_group_symop_operation_xyz
x,y,z
-x,-y,1/2+z
x,1/2-y,-z
-x,1/2+y,1/2-z
-x,-y,-z
x,y,1/2-z
-x,1/2+y,z
x,1/2-y,1/2+z
loop_
_atom_site_type_symbol
_atom_site_label
_atom_site_fract_x
_atom_site_fract_y
_atom_site_fract_z
Si Si1 0.946216 0.750000 0.500000
Si Si2 0.975152 0.937864 0.428864
Si Si3 0.511781 0.309340 0.428059
Si Si4 0.824094 0.338529 0.086420
Si Si5 0.753474 0.857455 0.580184
O O1 0.844590 0.796749 0.583135
O O2 0.056992 0.713158 0.602601
O O3 0.965364 0.940745 0.250000
O O4 0.830458 0.910208 0.495290
O O5 0.105799 0.896053 0.486217
O O6 0.000000 0.000000 0.500000
O O7 0.457081 0.250000 0.500000
O O8 0.503770 0.305553 0.250000
O O9 0.673673 0.321527 0.494378
O O10 0.397978 0.355636 0.491340
O O11 0.773909 0.356019 0.250000
O O12 0.724452 0.875354 0.750000
#
# Coordination Sequence:
#
# PCOD8230422 Si02
#       5
#     4   8   8   8   8
#     4  10  18  32  52  82 114 148 184 230 276 336
#     4  10  21  40  62  84 111 145 192 241 287 334
#     4  11  21  35  54  81 117 152 184 223 277 335
#     4   9  19  34  54  80 112 148 183 229 279 333
#     4  11  22  35  56  84 116 151 189 230 281 336
#
# _framework density 18.911418000000001
#
# number of rings (size 3 to 8) (size 9 to 14) (size 15 to 20)
#    0.000    1.778    2.222    2.667    0.000    1.778 
#    0.000    4.444    0.000    0.000    0.000    0.000 
#    0.000    0.000    0.000    0.000    0.000    0.000 
#
# Total GULP energy -446005.512996 kJ/mol
# GULP energy per Si atom -12389.042028 kJ/mol
# Density = 1.886837 g / cm^3
# Si number density = 18.911418 Si / 1000 Ang^3
#
#
#
# Elastic Constant Matrix: (Units=GPa)
#
#
# Indices 1 2 3 4 5 6 
#
# 1 118.6867 28.1139 31.7568 0.0000 0.0000 0.0000
# 2 28.1139 100.0684 25.6513 0.0000 0.0000 0.0000
# 3 31.7568 25.6513 105.4204 0.0000 0.0000 0.0000
# 4 0.0000 0.0000 0.0000 27.6588 0.0000 0.0000
# 5 0.0000 0.0000 0.0000 0.0000 22.2450 0.0000
# 6 0.0000 0.0000 0.0000 0.0000 0.0000 20.0774
#
#
#
# Elastic Compliance Matrix: (Units=1/GPa)
#
#
# Indices 1 2 3 4 5 6 
#
# 1 0.009552 -0.002075 -0.002372 0.000000 0.000000 0.000000
# 2 -0.002075 0.011109 -0.002078 0.000000 0.000000 0.000000
# 3 -0.002372 -0.002078 0.010706 0.000000 0.000000 0.000000
# 4 0.000000 0.000000 0.000000 0.036155 0.000000 0.000000
# 5 0.000000 0.000000 0.000000 0.000000 0.044954 0.000000
# 6 0.000000 0.000000 0.000000 0.000000 0.000000 0.049807
#
#
# Mechanical properties :
#
#
# Convention : Reuss Voigt Hill
#
# Bulk Modulus (GPa) = 54.59861 55.02440 54.81150
# Shear Modulus (GPa) = 27.55741 29.90648 28.73195
#
# Velocity S-wave (km/s) = 3.82145 3.98099 3.90204
# Velocity P-wave (km/s) = 6.95735 7.09155 7.02477
#
# Compressibility (1/GPa) = 0.01831548
#
# Stress axis : x y z
#
# Youngs Moduli (GPa) = 104.69061 90.01806 93.40482
#
# Poissons Ratio (x) = 0.18683 0.22160
# Poissons Ratio (y) = 0.21728 0.19408
# Poissons Ratio (z) = 0.24837 0.18704
#
# Static dielectric constant tensor:
#      x y z
#    x 3.764530 0.000000 0.000000 
#    y 0.000000 3.257790 0.000000 
#    z 0.000000 0.000000 3.281760 
# 
# 
# High freq. dielectric constant tensor:
#      x y z
#    x 1.747700 0.000000 0.000000 
#    y 0.000000 1.715080 0.000000 
#    z 0.000000 0.000000 1.725320 
# 
# From -- ./inp_files/1341.got.cif
#   From: 2010.03.12/outbox.cif.g09.slc.cpg/sg57_1_cif.got.tgz:1341.got - 2010.04.16 15:48:40.
