data_PCOD8230510
_publ_section_title
;
Structure prediction by ZEFSAII (Michael W. Deem and Ramdas Pophale) SiO2 
 PCOD8230510
Probable space group: P B C M
;
_chemical_formula_sum "Si O2"
_cell_formula_units_Z 64
_cell_length_a 11.765536
_cell_length_b 17.711759
_cell_length_c 16.018724
_cell_angle_alpha 90.000000
_cell_angle_beta 90.000000
_cell_angle_gamma 90.000000
_cell_volume 3338.115273
_symmetry_space_group_name_H-M "P B C M"
_symmetry_group_IT_number 57
_symmetry_cell_setting 'orthorhombic'
loop_
_space_group_symop_operation_xyz
x,y,z
-x,-y,1/2+z
x,1/2-y,-z
-x,1/2+y,1/2-z
-x,-y,-z
x,y,1/2-z
-x,1/2+y,z
x,1/2-y,1/2+z
loop_
_atom_site_type_symbol
_atom_site_label
_atom_site_fract_x
_atom_site_fract_y
_atom_site_fract_z
Si Si1 0.486974 0.336264 0.502903
Si Si2 0.958519 0.164657 0.505601
Si Si3 0.504951 0.427956 0.842490
Si Si4 0.328441 0.038662 0.577534
Si Si5 0.254658 0.013023 0.343058
Si Si6 0.030145 0.079374 0.345167
Si Si7 0.718969 0.393809 0.461378
Si Si8 0.091947 0.420986 0.154091
O O1 0.443134 0.250000 0.500000
O O2 0.527815 0.358148 0.596313
O O3 0.389208 0.392726 0.471588
O O4 0.603959 0.345480 0.451853
O O5 0.998678 0.250000 0.500000
O O6 0.979786 0.135141 0.412685
O O7 0.822289 0.159198 0.512826
O O8 0.023456 0.126725 0.584109
O O9 0.531690 0.398788 0.750000
O O10 0.580550 0.501948 0.859596
O O11 0.374710 0.448536 0.854601
O O12 0.224279 0.074540 0.628081
O O13 0.291167 0.971920 0.515036
O O14 0.210992 0.008110 0.250000
O O15 0.155620 0.063541 0.384255
O O16 0.253985 0.926089 0.370449
O O17 0.029815 0.113525 0.250000
O O18 0.955693 0.004499 0.346266
O O19 0.083192 0.387858 0.250000
#
# Coordination Sequence:
#
# PCOD8230510 Si02
#       8
#     8   8   8   8   8   8   8   8
#     4  11  23  38  58  88 126 162 193 245 312 372
#     4  12  25  39  62  89 127 166 197 251 316 369
#     4  10  20  37  60  87 114 152 206 251 295 352
#     4  11  20  38  64  86 115 160 206 250 298 353
#     4  10  18  33  62  88 109 145 206 259 289 334
#     4  10  21  39  62  89 117 157 206 254 297 355
#     4  11  19  39  61  88 115 156 212 249 293 357
#     4  11  23  39  63  90 118 155 206 253 297 358
#
# _framework density 19.172495999999999
#
# number of rings (size 3 to 8) (size 9 to 14) (size 15 to 20)
#    0.000    1.250    5.000    2.625    0.000    1.000 
#    0.000    1.875    0.000    1.500    0.000    0.000 
#    0.000    0.000    0.000    0.000    0.000    0.000 
#
# Total GULP energy -792997.958640 kJ/mol
# GULP energy per Si atom -12390.593104 kJ/mol
# Density = 1.912886 g / cm^3
# Si number density = 19.172496 Si / 1000 Ang^3
#
#
#
# Elastic Constant Matrix: (Units=GPa)
#
#
# Indices 1 2 3 4 5 6 
#
# 1 88.1540 17.3784 27.6066 0.0000 0.0000 0.0000
# 2 17.3784 92.5903 40.6644 0.0000 0.0000 0.0000
# 3 27.6066 40.6644 70.9964 0.0000 0.0000 0.0000
# 4 0.0000 0.0000 0.0000 12.2761 0.0000 0.0000
# 5 0.0000 0.0000 0.0000 0.0000 24.5156 0.0000
# 6 0.0000 0.0000 0.0000 0.0000 0.0000 21.1504
#
#
#
# Elastic Compliance Matrix: (Units=1/GPa)
#
#
# Indices 1 2 3 4 5 6 
#
# 1 0.012923 -0.000292 -0.004858 0.000000 0.000000 0.000000
# 2 -0.000292 0.014437 -0.008155 0.000000 0.000000 0.000000
# 3 -0.004858 -0.008155 0.020645 0.000000 0.000000 0.000000
# 4 0.000000 0.000000 0.000000 0.081459 0.000000 0.000000
# 5 0.000000 0.000000 0.000000 0.000000 0.040790 0.000000
# 6 0.000000 0.000000 0.000000 0.000000 0.000000 0.047280
#
#
# Mechanical properties :
#
#
# Convention : Reuss Voigt Hill
#
# Bulk Modulus (GPa) = 46.74090 47.00439 46.87264
# Shear Modulus (GPa) = 19.89845 22.66118 21.27981
#
# Velocity S-wave (km/s) = 3.22508 3.44170 3.33515
# Velocity P-wave (km/s) = 6.18872 6.35323 6.27152
#
# Compressibility (1/GPa) = 0.02139454
#
# Stress axis : x y z
#
# Youngs Moduli (GPa) = 77.38396 69.26736 48.43743
#
# Poissons Ratio (x) = 0.02023 0.23529
# Poissons Ratio (y) = 0.02260 0.39502
# Poissons Ratio (z) = 0.37590 0.56490
#
# Static dielectric constant tensor:
#      x y z
#    x 3.698130 0.000000 0.000000 
#    y 0.000000 -0.016810 0.000000 
#    z 0.000000 0.000000 3.919380 
# 
# 
# High freq. dielectric constant tensor:
#      x y z
#    x 1.766700 0.000000 0.000000 
#    y 0.000000 1.710360 0.000000 
#    z 0.000000 0.000000 1.756010 
# 
# From -- ./inp_files/18013.got.cif
#   From: 2010.03.12/outbox.cif.g09.slc.cpg/sg57_10_cif.got.tgz:18013.got - 2010.04.16 15:48:40.
