data_PCOD8230265
_publ_section_title
;
Structure prediction by ZEFSAII (Michael W. Deem and Ramdas Pophale) SiO2 
 PCOD8230265
Probable space group: P B C M
;
_chemical_formula_sum "Si O2"
_cell_formula_units_Z 64
_cell_length_a 16.714019
_cell_length_b 23.749325
_cell_length_c 8.909650
_cell_angle_alpha 90.000000
_cell_angle_beta 90.000000
_cell_angle_gamma 90.000000
_cell_volume 3536.655892
_symmetry_space_group_name_H-M "P B C M"
_symmetry_group_IT_number 57
_symmetry_cell_setting 'orthorhombic'
loop_
_space_group_symop_operation_xyz
x,y,z
-x,-y,1/2+z
x,1/2-y,-z
-x,1/2+y,1/2-z
-x,-y,-z
x,y,1/2-z
-x,1/2+y,z
x,1/2-y,1/2+z
loop_
_atom_site_type_symbol
_atom_site_label
_atom_site_fract_x
_atom_site_fract_y
_atom_site_fract_z
Si Si1 0.817940 0.470618 0.923867
Si Si2 0.021508 0.588048 0.419448
Si Si3 0.411057 0.811697 0.926726
Si Si4 0.241644 0.310933 0.573368
Si Si5 0.127090 0.693558 0.421220
Si Si6 0.857796 0.593827 0.922731
Si Si7 0.415147 0.191714 0.422091
Si Si8 0.267977 0.626875 0.927951
O O1 0.806756 0.453097 0.750000
O O2 0.907785 0.453530 0.973369
O O3 0.805887 0.537145 0.949795
O O4 0.752900 0.436812 0.021203
O O5 0.994130 0.573504 0.250000
O O6 0.052384 0.651856 0.428534
O O7 0.948440 0.580633 0.531952
O O8 0.392326 0.806050 0.750000
O O9 0.500275 0.839537 0.953126
O O10 0.401252 0.750000 0.000000
O O11 0.353245 0.856382 0.004412
O O12 0.227501 0.250000 0.500000
O O13 0.230819 0.303881 0.750000
O O14 0.176375 0.355098 0.518542
O O15 0.330312 0.336148 0.527971
O O16 0.097104 0.750000 0.500000
O O17 0.153545 0.704655 0.250000
O O18 0.202860 0.670248 0.510774
O O19 0.855733 0.611473 0.750000
O O20 0.425343 0.250000 0.500000
O O21 0.406222 0.206255 0.250000
O O22 0.271231 0.629850 0.750000
#
# Coordination Sequence:
#
# PCOD8230265 Si02
#       8
#     8   8   8   8   8   8   8   8
#     4   9  20  38  55  73 100 133 169 209 253 298
#     4   9  19  35  53  73  99 132 169 211 254 296
#     4  10  18  30  49  75 106 136 169 207 248 296
#     4  10  20  36  56  79 107 135 167 206 250 300
#     4  10  20  34  50  70 100 137 172 207 251 300
#     4  11  22  35  55  80 103 130 165 206 254 304
#     4   8  16  30  50  74 100 133 167 203 247 293
#     4  11  21  32  49  74 102 134 171 209 250 295
#
# _framework density 18.09619
#
# number of rings (size 3 to 8) (size 9 to 14) (size 15 to 20)
#    0.000    2.250    0.000    4.125    0.000    5.000 
#    0.000    1.250    0.000    0.750    0.000    0.000 
#    0.000    0.000    0.000    0.000    0.000    0.000 
#
# Total GULP energy -793238.030686 kJ/mol
# GULP energy per Si atom -12394.344229 kJ/mol
# Density = 1.805500 g / cm^3
# Si number density = 18.096190 Si / 1000 Ang^3
#
#
#
# Elastic Constant Matrix: (Units=GPa)
#
#
# Indices 1 2 3 4 5 6 
#
# 1 77.3925 31.5220 37.1006 0.0000 0.0000 0.0000
# 2 31.5220 83.0816 39.7045 0.0000 0.0000 0.0000
# 3 37.1006 39.7045 99.6857 0.0000 0.0000 0.0000
# 4 0.0000 0.0000 0.0000 26.8354 0.0000 0.0000
# 5 0.0000 0.0000 0.0000 0.0000 24.0444 0.0000
# 6 0.0000 0.0000 0.0000 0.0000 0.0000 16.7267
#
#
#
# Elastic Compliance Matrix: (Units=1/GPa)
#
#
# Indices 1 2 3 4 5 6 
#
# 1 0.016830 -0.004190 -0.004595 0.000000 0.000000 0.000000
# 2 -0.004190 0.015909 -0.004777 0.000000 0.000000 0.000000
# 3 -0.004595 -0.004777 0.013644 0.000000 0.000000 0.000000
# 4 0.000000 0.000000 0.000000 0.037264 0.000000 0.000000
# 5 0.000000 0.000000 0.000000 0.000000 0.041590 0.000000
# 6 0.000000 0.000000 0.000000 0.000000 0.000000 0.059785
#
#
# Mechanical properties :
#
#
# Convention : Reuss Voigt Hill
#
# Bulk Modulus (GPa) = 51.92140 52.97934 52.45037
# Shear Modulus (GPa) = 22.87633 23.64347 23.25990
#
# Velocity S-wave (km/s) = 3.55935 3.61854 3.58906
# Velocity P-wave (km/s) = 6.75619 6.84094 6.79870
#
# Compressibility (1/GPa) = 0.01925988
#
# Stress axis : x y z
#
# Youngs Moduli (GPa) = 59.41625 62.85761 73.28965
#
# Poissons Ratio (x) = 0.26335 0.33678
# Poissons Ratio (y) = 0.24893 0.35012
# Poissons Ratio (z) = 0.27303 0.30028
#
# Static dielectric constant tensor:
#      x y z
#    x 3.585550 0.000000 0.000000 
#    y 0.000000 3.168900 0.000000 
#    z 0.000000 0.000000 3.399400 
# 
# 
# High freq. dielectric constant tensor:
#      x y z
#    x 1.698780 0.000000 0.000000 
#    y 0.000000 1.677880 0.000000 
#    z 0.000000 0.000000 1.712600 
# 
# From -- ./inp_files/5643.got.cif
#   From: 2010.03.12/outbox.cif.g09.slc.cpg/sg57_3_cif.got.tgz:5643.got - 2010.04.16 15:48:40.
