data_PCOD8230996
_publ_section_title
;
Structure prediction by ZEFSAII (Michael W. Deem and Ramdas Pophale) SiO2 
 PCOD8230996
Probable space group: P B C M
;
_chemical_formula_sum "Si O2"
_cell_formula_units_Z 40
_cell_length_a 9.279184
_cell_length_b 25.836369
_cell_length_c 9.191337
_cell_angle_alpha 90.000000
_cell_angle_beta 90.000000
_cell_angle_gamma 90.000000
_cell_volume 2203.535010
_symmetry_space_group_name_H-M "P B C M"
_symmetry_group_IT_number 57
_symmetry_cell_setting 'orthorhombic'
loop_
_space_group_symop_operation_xyz
x,y,z
-x,-y,1/2+z
x,1/2-y,-z
-x,1/2+y,1/2-z
-x,-y,-z
x,y,1/2-z
-x,1/2+y,z
x,1/2-y,1/2+z
loop_
_atom_site_type_symbol
_atom_site_label
_atom_site_fract_x
_atom_site_fract_y
_atom_site_fract_z
Si Si1 0.835408 0.202648 0.090562
Si Si2 0.156133 0.098540 0.919808
Si Si3 0.822370 0.700961 0.086076
Si Si4 0.351428 0.499656 0.417258
Si Si5 0.860898 0.410653 0.576530
O O1 0.768892 0.209005 0.250000
O O2 0.796346 0.145545 0.029344
O O3 0.006864 0.206839 0.094484
O O4 0.767486 0.250000 0.000000
O O5 0.127411 0.110194 0.750000
O O6 0.274571 0.054721 0.942557
O O7 0.218813 0.149422 0.997897
O O8 0.009542 0.078778 0.993489
O O9 0.758374 0.698452 0.250000
O O10 0.755934 0.750000 0.000000
O O11 0.500000 0.500000 0.500000
O O12 0.385787 0.509644 0.250000
O O13 0.250363 0.545886 0.475449
O O14 0.891547 0.411819 0.750000
#
# Coordination Sequence:
#
# PCOD8230996 Si02
#       5
#     8   8   8   8   8
#     4   8  14  24  41  66  96 124 152 189 236 285
#     4  10  19  31  50  77 103 129 165 209 251 298
#     4   9  16  27  45  71 102 133 162 199 245 293
#     4  10  22  37  52  71  98 131 170 213 256 302
#     4   9  18  33  51  73 100 131 166 206 250 298
#
# _framework density 18.152650999999999
#
# number of rings (size 3 to 8) (size 9 to 14) (size 15 to 20)
#    0.000    2.800    0.000    3.000    0.000    7.200 
#    0.000    0.000    0.000    1.200    0.000    5.600 
#    0.000    0.000    0.000    0.000    0.000    0.000 
#
# Total GULP energy -495861.068985 kJ/mol
# GULP energy per Si atom -12396.526725 kJ/mol
# Density = 1.811133 g / cm^3
# Si number density = 18.152651 Si / 1000 Ang^3
#
#
#
# Elastic Constant Matrix: (Units=GPa)
#
#
# Indices 1 2 3 4 5 6 
#
# 1 61.4884 42.4027 42.8311 0.0000 0.0000 0.0000
# 2 42.4027 129.7197 63.4056 0.0000 0.0000 0.0000
# 3 42.8311 63.4056 100.8076 0.0000 0.0000 0.0000
# 4 0.0000 0.0000 0.0000 33.7822 0.0000 0.0000
# 5 0.0000 0.0000 0.0000 0.0000 23.3936 0.0000
# 6 0.0000 0.0000 0.0000 0.0000 0.0000 1.6687
#
#
#
# Elastic Compliance Matrix: (Units=1/GPa)
#
#
# Indices 1 2 3 4 5 6 
#
# 1 0.024613 -0.004236 -0.007793 0.000000 0.000000 0.000000
# 2 -0.004236 0.011860 -0.005660 0.000000 0.000000 0.000000
# 3 -0.007793 -0.005660 0.016791 0.000000 0.000000 0.000000
# 4 0.000000 0.000000 0.000000 0.029601 0.000000 0.000000
# 5 0.000000 0.000000 0.000000 0.000000 0.042747 0.000000
# 6 0.000000 0.000000 0.000000 0.000000 0.000000 0.599272
#
#
# Mechanical properties :
#
#
# Convention : Reuss Voigt Hill
#
# Bulk Modulus (GPa) = 55.91062 65.47716 60.69389
# Shear Modulus (GPa) = 6.52550 21.32731 13.92641
#
# Velocity S-wave (km/s) = 1.89805 3.43138 2.77281
# Velocity P-wave (km/s) = 5.97249 7.20054 6.61507
#
# Compressibility (1/GPa) = 0.01788569
#
# Stress axis : x y z
#
# Youngs Moduli (GPa) = 40.62888 84.31586 59.55611
#
# Poissons Ratio (x) = 0.35719 0.46412
# Poissons Ratio (y) = 0.17212 0.33708
# Poissons Ratio (z) = 0.31662 0.47721
#
# Static dielectric constant tensor:
#      x y z
#    x 2.785450 0.000000 0.000000 
#    y 0.000000 3.734010 0.000000 
#    z 0.000000 0.000000 3.531280 
# 
# 
# High freq. dielectric constant tensor:
#      x y z
#    x 1.643970 0.000000 0.000000 
#    y 0.000000 1.726200 0.000000 
#    z 0.000000 0.000000 1.708040 
# 
# From -- ./inp_files/1544.got.cif
#   From: 2010.03.12/outbox.cif.g09.slc.cpg/sg57_1_cif.got.tgz:1544.got - 2010.04.16 15:48:40.
