data_PCOD8230089
_publ_section_title
;
Structure prediction by ZEFSAII (Michael W. Deem and Ramdas Pophale) SiO2 
 PCOD8230089
Probable space group: P B C M
;
_chemical_formula_sum "Si O2"
_cell_formula_units_Z 48
_cell_length_a 11.554000
_cell_length_b 26.013841
_cell_length_c 9.044518
_cell_angle_alpha 90.000000
_cell_angle_beta 90.000000
_cell_angle_gamma 90.000000
_cell_volume 2718.455775
_symmetry_space_group_name_H-M "P B C M"
_symmetry_group_IT_number 57
_symmetry_cell_setting 'orthorhombic'
loop_
_space_group_symop_operation_xyz
x,y,z
-x,-y,1/2+z
x,1/2-y,-z
-x,1/2+y,1/2-z
-x,-y,-z
x,y,1/2-z
-x,1/2+y,z
x,1/2-y,1/2+z
loop_
_atom_site_type_symbol
_atom_site_label
_atom_site_fract_x
_atom_site_fract_y
_atom_site_fract_z
Si Si1 0.850877 0.543417 0.077245
Si Si2 0.551391 0.454021 0.587853
Si Si3 0.656767 0.621715 0.412351
Si Si4 0.497323 0.695349 0.575200
Si Si5 0.886012 0.437229 0.921986
Si Si6 0.705961 0.118913 0.576427
O O1 0.828594 0.531996 0.250000
O O2 0.759993 0.586752 0.019417
O O3 0.977561 0.566534 0.048610
O O4 0.835178 0.490245 0.989807
O O5 0.500000 0.500000 0.500000
O O6 0.599043 0.470556 0.750000
O O7 0.455256 0.411900 0.611577
O O8 0.652414 0.433876 0.483545
O O9 0.694258 0.643540 0.250000
O O10 0.615748 0.667632 0.520650
O O11 0.487810 0.750000 0.500000
O O12 0.506798 0.700962 0.750000
O O13 0.377563 0.666093 0.530914
O O14 0.855700 0.436727 0.750000
O O15 0.831742 0.385054 0.997074
O O16 0.723594 0.117152 0.750000
#
# Coordination Sequence:
#
# PCOD8230089 Si02
#       6
#     8   8   8   8   8   8
#     4   9  18  32  49  72 104 139 170 201 239 284
#     4  10  18  27  43  68  97 128 159 195 240 290
#     4   9  18  32  49  69  96 128 161 198 241 290
#     4  10  21  36  55  76  96 121 156 202 255 304
#     4  10  19  30  48  74 103 137 173 205 238 281
#     4  10  20  33  48  68  96 129 164 202 244 291
#
# _framework density 17.657083
#
# number of rings (size 3 to 8) (size 9 to 14) (size 15 to 20)
#    0.000    2.333    0.000    3.000    0.000    5.333 
#    0.000    0.000    0.000    1.000    0.000    2.333 
#    0.000    0.000    0.000    0.000    0.000    0.000 
#
# Total GULP energy -594730.338429 kJ/mol
# GULP energy per Si atom -12390.215384 kJ/mol
# Density = 1.761689 g / cm^3
# Si number density = 17.657083 Si / 1000 Ang^3
#
#
#
# Elastic Constant Matrix: (Units=GPa)
#
#
# Indices 1 2 3 4 5 6 
#
# 1 89.6753 36.5841 40.8521 0.0000 0.0000 0.0000
# 2 36.5841 77.7371 58.0386 0.0000 0.0000 0.0000
# 3 40.8521 58.0386 87.4176 0.0000 0.0000 0.0000
# 4 0.0000 0.0000 0.0000 26.8770 0.0000 0.0000
# 5 0.0000 0.0000 0.0000 0.0000 27.4877 0.0000
# 6 0.0000 0.0000 0.0000 0.0000 0.0000 25.1167
#
#
#
# Elastic Compliance Matrix: (Units=1/GPa)
#
#
# Indices 1 2 3 4 5 6 
#
# 1 0.014641 -0.003533 -0.004496 0.000000 0.000000 0.000000
# 2 -0.003533 0.026360 -0.015850 0.000000 0.000000 0.000000
# 3 -0.004496 -0.015850 0.024064 0.000000 0.000000 0.000000
# 4 0.000000 0.000000 0.000000 0.037207 0.000000 0.000000
# 5 0.000000 0.000000 0.000000 0.000000 0.036380 0.000000
# 6 0.000000 0.000000 0.000000 0.000000 0.000000 0.039814
#
#
# Mechanical properties :
#
#
# Convention : Reuss Voigt Hill
#
# Bulk Modulus (GPa) = 57.78366 58.41993 58.10179
# Shear Modulus (GPa) = 21.55231 23.85329 22.70280
#
# Velocity S-wave (km/s) = 3.49750 3.67947 3.58964
# Velocity P-wave (km/s) = 7.00761 7.15605 7.08222
#
# Compressibility (1/GPa) = 0.01730593
#
# Stress axis : x y z
#
# Youngs Moduli (GPa) = 68.30080 37.93567 41.55640
#
# Poissons Ratio (x) = 0.13404 0.18684
# Poissons Ratio (y) = 0.24134 0.65867
# Poissons Ratio (z) = 0.30709 0.60128
#
# Static dielectric constant tensor:
#      x y z
#    x 3.413670 0.000000 0.000000 
#    y 0.000000 2.935560 0.000000 
#    z 0.000000 0.000000 3.389990 
# 
# 
# High freq. dielectric constant tensor:
#      x y z
#    x 1.685710 0.000000 0.000000 
#    y 0.000000 1.647560 0.000000 
#    z 0.000000 0.000000 1.694610 
# 
# From -- ./inp_files/3097.got.cif
#   From: 2010.03.12/outbox.cif.g09.slc.cpg/sg57_2_cif.got.tgz:3097.got - 2010.04.16 15:48:40.
