data_PCOD8230243
_publ_section_title
;
Structure prediction by ZEFSAII (Michael W. Deem and Ramdas Pophale) SiO2 
 PCOD8230243
Probable space group: P B C M
;
_chemical_formula_sum "Si O2"
_cell_formula_units_Z 48
_cell_length_a 11.706915
_cell_length_b 29.393663
_cell_length_c 8.877188
_cell_angle_alpha 90.000000
_cell_angle_beta 90.000000
_cell_angle_gamma 90.000000
_cell_volume 3054.721300
_symmetry_space_group_name_H-M "P B C M"
_symmetry_group_IT_number 57
_symmetry_cell_setting 'orthorhombic'
loop_
_space_group_symop_operation_xyz
x,y,z
-x,-y,1/2+z
x,1/2-y,-z
-x,1/2+y,1/2-z
-x,-y,-z
x,y,1/2-z
-x,1/2+y,z
x,1/2-y,1/2+z
loop_
_atom_site_type_symbol
_atom_site_label
_atom_site_fract_x
_atom_site_fract_y
_atom_site_fract_z
Si Si1 0.922014 0.038529 0.071517
Si Si2 0.871399 0.702151 0.420576
Si Si3 0.276861 0.378301 0.920461
Si Si4 0.051564 0.117600 0.571233
Si Si5 0.661405 0.475165 0.575001
Si Si6 0.540655 0.568790 0.925334
O O1 0.939233 0.038727 0.250000
O O2 0.791975 0.028754 0.025427
O O3 0.952681 0.087485 0.002732
O O4 0.000000 0.000000 0.000000
O O5 0.857768 0.750000 0.500000
O O6 0.915035 0.709158 0.250000
O O7 0.748131 0.676252 0.421989
O O8 0.961433 0.669659 0.510152
O O9 0.273307 0.397220 0.750000
O O10 0.175049 0.402412 0.017379
O O11 0.399561 0.388176 0.994242
O O12 0.042476 0.115924 0.750000
O O13 0.644096 0.465169 0.750000
O O14 0.587591 0.437605 0.485722
O O15 0.617373 0.525205 0.532237
O O16 0.535446 0.578768 0.750000
#
# Coordination Sequence:
#
# PCOD8230243 Si02
#       6
#     8   8   8   8   8   8
#     4  11  21  33  48  68  96 132 170 206 245 292
#     4   9  18  31  49  74 100 128 158 197 246 297
#     4   9  18  30  47  69  96 125 155 192 240 290
#     4  10  19  31  47  69  98 128 160 200 243 291
#     4   9  20  33  45  63  92 128 164 200 239 283
#     4  10  18  30  48  69  91 122 163 202 241 284
#
# _framework density 15.713381999999999
#
# number of rings (size 3 to 8) (size 9 to 14) (size 15 to 20)
#    1.000    1.333    0.000    4.000    0.000    3.333 
#    0.000    0.000    0.000    0.000    0.000    1.167 
#    0.000    5.333    0.000    0.000    0.000    0.000 
#
# Total GULP energy -594919.911652 kJ/mol
# GULP energy per Si atom -12394.164826 kJ/mol
# Density = 1.567762 g / cm^3
# Si number density = 15.713382 Si / 1000 Ang^3
#
#
#
# Elastic Constant Matrix: (Units=GPa)
#
#
# Indices 1 2 3 4 5 6 
#
# 1 96.7679 42.8849 54.0125 0.0000 0.0000 0.0000
# 2 42.8849 80.6880 44.4725 0.0000 0.0000 0.0000
# 3 54.0125 44.4725 114.7595 0.0000 0.0000 0.0000
# 4 0.0000 0.0000 0.0000 29.1895 0.0000 0.0000
# 5 0.0000 0.0000 0.0000 0.0000 26.1831 0.0000
# 6 0.0000 0.0000 0.0000 0.0000 0.0000 18.5312
#
#
#
# Elastic Compliance Matrix: (Units=1/GPa)
#
#
# Indices 1 2 3 4 5 6 
#
# 1 0.015686 -0.005427 -0.005280 0.000000 0.000000 0.000000
# 2 -0.005427 0.017637 -0.004281 0.000000 0.000000 0.000000
# 3 -0.005280 -0.004281 0.012858 0.000000 0.000000 0.000000
# 4 0.000000 0.000000 0.000000 0.034259 0.000000 0.000000
# 5 0.000000 0.000000 0.000000 0.000000 0.038193 0.000000
# 6 0.000000 0.000000 0.000000 0.000000 0.000000 0.053963
#
#
# Mechanical properties :
#
#
# Convention : Reuss Voigt Hill
#
# Bulk Modulus (GPa) = 61.70448 63.88391 62.79419
# Shear Modulus (GPa) = 24.04170 24.83713 24.43942
#
# Velocity S-wave (km/s) = 3.91578 3.98003 3.94804
# Velocity P-wave (km/s) = 7.73295 7.86542 7.79947
#
# Compressibility (1/GPa) = 0.01620628
#
# Stress axis : x y z
#
# Youngs Moduli (GPa) = 63.75106 56.69848 77.77479
#
# Poissons Ratio (x) = 0.30770 0.41062
# Poissons Ratio (y) = 0.34598 0.33292
# Poissons Ratio (z) = 0.33658 0.24270
#
# Static dielectric constant tensor:
#      x y z
#    x 2.886760 0.000000 0.000000 
#    y 0.000000 2.797800 0.000000 
#    z 0.000000 0.000000 3.066250 
# 
# 
# High freq. dielectric constant tensor:
#      x y z
#    x 1.579410 0.000000 0.000000 
#    y 0.000000 1.577550 0.000000 
#    z 0.000000 0.000000 1.623720 
# 
# From -- ./inp_files/3310.got.cif
#   From: 2010.03.12/outbox.cif.g09.slc.cpg/sg57_2_cif.got.tgz:3310.got - 2010.04.16 15:48:40.
