data_PCOD8230871
_publ_section_title
;
Structure prediction by ZEFSAII (Michael W. Deem and Ramdas Pophale) SiO2 
 PCOD8230871
Probable space group: P B C M
;
_chemical_formula_sum "Si O2"
_cell_formula_units_Z 56
_cell_length_a 20.875949
_cell_length_b 17.374453
_cell_length_c 8.923019
_cell_angle_alpha 90.000000
_cell_angle_beta 90.000000
_cell_angle_gamma 90.000000
_cell_volume 3236.452113
_symmetry_space_group_name_H-M "P B C M"
_symmetry_group_IT_number 57
_symmetry_cell_setting 'orthorhombic'
loop_
_space_group_symop_operation_xyz
x,y,z
-x,-y,1/2+z
x,1/2-y,-z
-x,1/2+y,1/2-z
-x,-y,-z
x,y,1/2-z
-x,1/2+y,z
x,1/2-y,1/2+z
loop_
_atom_site_type_symbol
_atom_site_label
_atom_site_fract_x
_atom_site_fract_y
_atom_site_fract_z
Si Si1 0.934692 0.669320 0.071226
Si Si2 0.033222 0.572410 0.926308
Si Si3 0.588002 0.445212 0.415303
Si Si4 0.851985 0.524405 0.424567
Si Si5 0.357769 0.172707 0.573195
Si Si6 0.709081 0.530423 0.428146
Si Si7 0.475588 0.111647 0.084182
O O1 0.937125 0.675998 0.250000
O O2 0.886501 0.601993 0.012302
O O3 0.912208 0.750000 0.000000
O O4 0.006315 0.648625 0.008905
O O5 0.018175 0.577461 0.750000
O O6 0.108723 0.554927 0.955865
O O7 0.000000 0.500000 0.000000
O O8 0.588246 0.407839 0.250000
O O9 0.661210 0.459793 0.470694
O O10 0.552245 0.526412 0.409277
O O11 0.549083 0.388901 0.525575
O O12 0.847200 0.539692 0.250000
O O13 0.780468 0.511890 0.487834
O O14 0.330328 0.250000 0.500000
O O15 0.353463 0.177267 0.750000
O O16 0.312514 0.106014 0.513732
O O17 0.431804 0.162166 0.525245
O O18 0.705179 0.545325 0.250000
O O19 0.475206 0.148538 0.250000
#
# Coordination Sequence:
#
# PCOD8230871 Si02
#       7
#     8   8   8   8   8   8   8
#     4  10  19  31  47  69  95 124 158 196 236 277
#     4   9  16  29  48  69  92 120 154 193 235 276
#     4   8  14  24  41  63  85 108 136 174 216 254
#     4   8  16  30  48  68  93 124 156 190 230 276
#     4  11  21  32  44  61  87 118 152 185 221 265
#     4   9  17  31  47  65  90 119 150 181 217 263
#     4   9  16  27  43  61  82 109 142 180 218 253
#
# _framework density 17.302897999999999
#
# number of rings (size 3 to 8) (size 9 to 14) (size 15 to 20)
#    0.000    2.857    0.000    4.286    0.000    4.000 
#    0.000    5.714    0.000    0.000    0.000    1.000 
#    0.000    4.571    0.000    0.000    0.000    0.000 
#
# Total GULP energy -693844.223716 kJ/mol
# GULP energy per Si atom -12390.075424 kJ/mol
# Density = 1.726352 g / cm^3
# Si number density = 17.302898 Si / 1000 Ang^3
#
#
#
# Elastic Constant Matrix: (Units=GPa)
#
#
# Indices 1 2 3 4 5 6 
#
# 1 132.4433 21.0760 32.5578 0.0000 0.0000 0.0000
# 2 21.0760 13.1061 5.0563 0.0000 0.0000 0.0000
# 3 32.5578 5.0563 77.8616 0.0000 0.0000 0.0000
# 4 0.0000 0.0000 0.0000 23.2252 0.0000 0.0000
# 5 0.0000 0.0000 0.0000 0.0000 20.3890 0.0000
# 6 0.0000 0.0000 0.0000 0.0000 0.0000 8.8587
#
#
#
# Elastic Compliance Matrix: (Units=1/GPa)
#
#
# Indices 1 2 3 4 5 6 
#
# 1 0.011026 -0.016363 -0.003548 0.000000 0.000000 0.000000
# 2 -0.016363 0.102543 0.000183 0.000000 0.000000 0.000000
# 3 -0.003548 0.000183 0.014315 0.000000 0.000000 0.000000
# 4 0.000000 0.000000 0.000000 0.043057 0.000000 0.000000
# 5 0.000000 0.000000 0.000000 0.000000 0.049046 0.000000
# 6 0.000000 0.000000 0.000000 0.000000 0.000000 0.112884
#
#
# Mechanical properties :
#
#
# Convention : Reuss Voigt Hill
#
# Bulk Modulus (GPa) = 11.30855 37.86568 24.58711
# Shear Modulus (GPa) = 12.44389 21.47597 16.95993
#
# Velocity S-wave (km/s) = 2.68466 3.52686 3.13418
# Velocity P-wave (km/s) = 4.01991 6.20616 5.22858
#
# Compressibility (1/GPa) = 0.08842869
#
# Stress axis : x y z
#
# Youngs Moduli (GPa) = 90.69077 9.75200 69.85649
#
# Poissons Ratio (x) = 0.15957 0.24786
# Poissons Ratio (y) = 1.48396 -0.01279
# Poissons Ratio (z) = 0.32178 -0.00178
#
# Static dielectric constant tensor:
#      x y z
#    x 3.723660 0.000000 0.000000 
#    y 0.000000 3.025660 0.000000 
#    z 0.000000 0.000000 3.284640 
# 
# 
# High freq. dielectric constant tensor:
#      x y z
#    x 1.662220 0.000000 0.000000 
#    y 0.000000 1.625670 0.000000 
#    z 0.000000 0.000000 1.666740 
# 
# From -- ./inp_files/8369.got.cif
#   From: 2010.03.12/outbox.cif.g09.slc.cpg/sg57_5_cif.got.tgz:8369.got - 2010.04.16 15:48:40.
