data_PCOD8230697
_publ_section_title
;
Structure prediction by ZEFSAII (Michael W. Deem and Ramdas Pophale) SiO2 
 PCOD8230697
Probable space group: P B C M
;
_chemical_formula_sum "Si O2"
_cell_formula_units_Z 64
_cell_length_a 22.841891
_cell_length_b 17.509579
_cell_length_c 9.419276
_cell_angle_alpha 90.000000
_cell_angle_beta 90.000000
_cell_angle_gamma 90.000000
_cell_volume 3767.257285
_symmetry_space_group_name_H-M "P B C M"
_symmetry_group_IT_number 57
_symmetry_cell_setting 'orthorhombic'
loop_
_space_group_symop_operation_xyz
x,y,z
-x,-y,1/2+z
x,1/2-y,-z
-x,1/2+y,1/2-z
-x,-y,-z
x,y,1/2-z
-x,1/2+y,z
x,1/2-y,1/2+z
loop_
_atom_site_type_symbol
_atom_site_label
_atom_site_fract_x
_atom_site_fract_y
_atom_site_fract_z
Si Si1 0.038225 0.939637 0.415882
Si Si2 0.260327 0.043253 0.588972
Si Si3 0.060224 0.327676 0.413485
Si Si4 0.378895 0.530833 0.411045
Si Si5 0.308753 0.176121 0.414153
Si Si6 0.569448 0.601578 0.413688
Si Si7 0.550273 0.175561 0.414415
Si Si8 0.872730 0.518795 0.586577
O O1 0.042462 0.960524 0.250000
O O2 0.007140 0.856878 0.435488
O O3 0.101603 0.949425 0.489875
O O4 0.000000 0.000000 0.500000
O O5 0.267072 0.075095 0.750000
O O6 0.268681 0.109300 0.474958
O O7 0.196377 0.008979 0.566213
O O8 0.309534 0.978617 0.559099
O O9 0.071822 0.250000 0.500000
O O10 0.071670 0.307098 0.250000
O O11 0.104477 0.396434 0.460377
O O12 0.394213 0.508867 0.250000
O O13 0.419256 0.476713 0.505330
O O14 0.396412 0.617623 0.442593
O O15 0.290358 0.250000 0.500000
O O16 0.293573 0.187541 0.250000
O O17 0.377163 0.159618 0.438864
O O18 0.562277 0.579592 0.250000
O O19 0.510701 0.640749 0.472242
O O20 0.567262 0.250000 0.500000
O O21 0.543601 0.196955 0.250000
O O22 0.891857 0.506124 0.750000
#
# Coordination Sequence:
#
# PCOD8230697 Si02
#       8
#     8   8   8   8   8   8   8   8
#     4   9  17  30  48  70  95 123 156 190 224 266
#     4   9  18  33  50  67  91 124 160 197 235 277
#     4   9  18  30  45  69  98 123 148 181 222 268
#     4   9  18  32  50  70  92 121 157 195 236 284
#     4  10  19  30  44  64  92 125 158 192 234 283
#     4   9  18  31  47  68  93 120 153 193 237 289
#     4  10  20  32  47  70  95 119 152 194 242 294
#     4   9  18  32  49  70  94 123 160 196 231 273
#
# _framework density 16.988486000000002
#
# number of rings (size 3 to 8) (size 9 to 14) (size 15 to 20)
#    0.000    2.750    0.000    2.250    0.000    5.000 
#    0.000    1.250    0.000    0.750    0.000    3.500 
#    0.000    0.000    0.000    0.000    0.000    0.000 
#
# Total GULP energy -793313.702096 kJ/mol
# GULP energy per Si atom -12395.526595 kJ/mol
# Density = 1.694982 g / cm^3
# Si number density = 16.988486 Si / 1000 Ang^3
#
#
#
# Elastic Constant Matrix: (Units=GPa)
#
#
# Indices 1 2 3 4 5 6 
#
# 1 90.1368 36.0244 34.8536 0.0000 0.0000 0.0000
# 2 36.0244 68.5995 37.1545 0.0000 0.0000 0.0000
# 3 34.8536 37.1545 72.6133 0.0000 0.0000 0.0000
# 4 0.0000 0.0000 0.0000 31.1601 0.0000 0.0000
# 5 0.0000 0.0000 0.0000 0.0000 22.8876 0.0000
# 6 0.0000 0.0000 0.0000 0.0000 0.0000 12.0699
#
#
#
# Elastic Compliance Matrix: (Units=1/GPa)
#
#
# Indices 1 2 3 4 5 6 
#
# 1 0.014985 -0.005497 -0.004380 0.000000 0.000000 0.000000
# 2 -0.005497 0.022182 -0.008712 0.000000 0.000000 0.000000
# 3 -0.004380 -0.008712 0.020331 0.000000 0.000000 0.000000
# 4 0.000000 0.000000 0.000000 0.032092 0.000000 0.000000
# 5 0.000000 0.000000 0.000000 0.000000 0.043692 0.000000
# 6 0.000000 0.000000 0.000000 0.000000 0.000000 0.082851
#
#
# Mechanical properties :
#
#
# Convention : Reuss Voigt Hill
#
# Bulk Modulus (GPa) = 49.20880 49.71271 49.46076
# Shear Modulus (GPa) = 19.22454 21.44467 20.33460
#
# Velocity S-wave (km/s) = 3.36761 3.55675 3.46347
# Velocity P-wave (km/s) = 6.64454 6.79657 6.72099
#
# Compressibility (1/GPa) = 0.02032157
#
# Stress axis : x y z
#
# Youngs Moduli (GPa) = 66.73449 45.08071 49.18478
#
# Poissons Ratio (x) = 0.24780 0.21542
# Poissons Ratio (y) = 0.36683 0.42849
# Poissons Ratio (z) = 0.29229 0.39273
#
# Static dielectric constant tensor:
#      x y z
#    x 3.491860 0.000000 0.000000 
#    y 0.000000 3.030570 0.000000 
#    z 0.000000 0.000000 3.338000 
# 
# 
# High freq. dielectric constant tensor:
#      x y z
#    x 1.650890 0.000000 0.000000 
#    y 0.000000 1.628990 0.000000 
#    z 0.000000 0.000000 1.660710 
# 
# From -- ./inp_files/9536.got.cif
#   From: 2010.03.12/outbox.cif.g09.slc.cpg/sg57_5_cif.got.tgz:9536.got - 2010.04.16 15:48:40.
