data_PCOD8230855
_publ_section_title
;
Structure prediction by ZEFSAII (Michael W. Deem and Ramdas Pophale) SiO2 
 PCOD8230855
Probable space group: P B C M
;
_chemical_formula_sum "Si O2"
_cell_formula_units_Z 56
_cell_length_a 16.926736
_cell_length_b 21.741820
_cell_length_c 8.730050
_cell_angle_alpha 90.000000
_cell_angle_beta 90.000000
_cell_angle_gamma 90.000000
_cell_volume 3212.815954
_symmetry_space_group_name_H-M "P B C M"
_symmetry_group_IT_number 57
_symmetry_cell_setting 'orthorhombic'
loop_
_space_group_symop_operation_xyz
x,y,z
-x,-y,1/2+z
x,1/2-y,-z
-x,1/2+y,1/2-z
-x,-y,-z
x,y,1/2-z
-x,1/2+y,z
x,1/2-y,1/2+z
loop_
_atom_site_type_symbol
_atom_site_label
_atom_site_fract_x
_atom_site_fract_y
_atom_site_fract_z
Si Si1 0.013036 0.410812 0.580410
Si Si2 0.902245 0.693326 0.573629
Si Si3 0.248182 0.347523 0.574437
Si Si4 0.733890 0.972045 0.072929
Si Si5 0.556137 0.947618 0.068055
Si Si6 0.876991 0.470779 0.420816
Si Si7 0.574973 0.685134 0.071817
O O1 0.011988 0.381006 0.750000
O O2 0.045769 0.366631 0.449910
O O3 0.072130 0.467624 0.581066
O O4 0.922819 0.425444 0.535183
O O5 0.951593 0.750000 0.500000
O O6 0.881319 0.701506 0.750000
O O7 0.822807 0.696704 0.469996
O O8 0.241887 0.370248 0.750000
O O9 0.234304 0.404209 0.460162
O O10 0.331177 0.314207 0.545167
O O11 0.743285 0.987979 0.250000
O O12 0.642655 0.972390 0.020234
O O13 0.787193 0.020267 0.979168
O O14 0.546219 0.943553 0.250000
O O15 0.539897 0.878278 0.002480
O O16 0.500000 0.000000 0.000000
O O17 0.872076 0.442946 0.250000
O O18 0.551768 0.684471 0.250000
O O19 0.542377 0.750000 0.000000
#
# Coordination Sequence:
#
# PCOD8230855 Si02
#       7
#     8   8   8   8   8   8   8
#     4  10  20  33  48  68  96 126 164 207 249 290
#     4  12  23  33  46  64  93 130 169 208 250 297
#     4  10  19  31  46  68  98 132 170 207 245 293
#     4  10  19  31  50  74 101 133 168 207 252 302
#     4  10  21  36  54  78 108 141 176 216 265 315
#     4  10  19  31  50  72  97 127 162 204 249 293
#     4  10  20  33  51  74 103 138 176 214 255 308
#
# _framework density 17.430192000000002
#
# number of rings (size 3 to 8) (size 9 to 14) (size 15 to 20)
#    0.000    1.714    1.429    4.286    0.000    5.714 
#    0.000    0.000    0.000    0.000    0.000    1.000 
#    0.000    6.857    0.000    0.000    0.000    0.000 
#
# Total GULP energy -694010.421927 kJ/mol
# GULP energy per Si atom -12393.043249 kJ/mol
# Density = 1.739052 g / cm^3
# Si number density = 17.430192 Si / 1000 Ang^3
#
#
#
# Elastic Constant Matrix: (Units=GPa)
#
#
# Indices 1 2 3 4 5 6 
#
# 1 65.1247 36.2091 32.5384 0.0000 0.0000 0.0000
# 2 36.2091 79.3466 38.5846 0.0000 0.0000 0.0000
# 3 32.5384 38.5846 97.2291 0.0000 0.0000 0.0000
# 4 0.0000 0.0000 0.0000 30.1409 0.0000 0.0000
# 5 0.0000 0.0000 0.0000 0.0000 14.6419 0.0000
# 6 0.0000 0.0000 0.0000 0.0000 0.0000 5.6992
#
#
#
# Elastic Compliance Matrix: (Units=1/GPa)
#
#
# Indices 1 2 3 4 5 6 
#
# 1 0.021853 -0.007950 -0.004158 0.000000 0.000000 0.000000
# 2 -0.007950 0.018509 -0.004684 0.000000 0.000000 0.000000
# 3 -0.004158 -0.004684 0.013536 0.000000 0.000000 0.000000
# 4 0.000000 0.000000 0.000000 0.033178 0.000000 0.000000
# 5 0.000000 0.000000 0.000000 0.000000 0.068297 0.000000
# 6 0.000000 0.000000 0.000000 0.000000 0.000000 0.175464
#
#
# Mechanical properties :
#
#
# Convention : Reuss Voigt Hill
#
# Bulk Modulus (GPa) = 49.23338 50.70717 49.97028
# Shear Modulus (GPa) = 13.47007 19.05428 16.26217
#
# Velocity S-wave (km/s) = 2.78295 3.30991 3.05780
# Velocity P-wave (km/s) = 6.21560 6.61529 6.41856
#
# Compressibility (1/GPa) = 0.02031142
#
# Stress axis : x y z
#
# Youngs Moduli (GPa) = 45.75990 54.02767 73.87937
#
# Poissons Ratio (x) = 0.42954 0.30721
# Poissons Ratio (y) = 0.36381 0.34609
# Poissons Ratio (z) = 0.19028 0.25309
#
# Static dielectric constant tensor:
#      x y z
#    x 3.097010 0.000000 0.000000 
#    y 0.000000 3.218790 0.000000 
#    z 0.000000 0.000000 3.377090 
# 
# 
# High freq. dielectric constant tensor:
#      x y z
#    x 1.640190 0.000000 0.000000 
#    y 0.000000 1.653160 0.000000 
#    z 0.000000 0.000000 1.693580 
# 
# From -- ./inp_files/7063.got.cif
#   From: 2010.03.12/outbox.cif.g09.slc.cpg/sg57_4_cif.got.tgz:7063.got - 2010.04.16 15:48:40.
