data_PCOD8230322
_publ_section_title
;
Structure prediction by ZEFSAII (Michael W. Deem and Ramdas Pophale) SiO2 
 PCOD8230322
Probable space group: P B C M
;
_chemical_formula_sum "Si O2"
_cell_formula_units_Z 48
_cell_length_a 16.509398
_cell_length_b 4.975434
_cell_length_c 29.453507
_cell_angle_alpha 90.000000
_cell_angle_beta 90.000000
_cell_angle_gamma 90.000000
_cell_volume 2419.352893
_symmetry_space_group_name_H-M "P B C M"
_symmetry_group_IT_number 57
_symmetry_cell_setting 'orthorhombic'
loop_
_space_group_symop_operation_xyz
x,y,z
-x,-y,1/2+z
x,1/2-y,-z
-x,1/2+y,1/2-z
-x,-y,-z
x,y,1/2-z
-x,1/2+y,z
x,1/2-y,1/2+z
loop_
_atom_site_type_symbol
_atom_site_label
_atom_site_fract_x
_atom_site_fract_y
_atom_site_fract_z
Si Si1 0.421089 0.872193 0.750000
Si Si2 0.315156 0.142581 0.250000
Si Si3 0.182964 0.731246 0.872764
Si Si4 0.946819 0.050620 0.698518
Si Si5 0.723647 0.757140 0.847410
Si Si6 0.946292 0.268708 0.052430
Si Si7 0.455924 0.039416 0.652733
O O1 0.391815 0.562091 0.750000
O O2 0.339050 0.044203 0.750000
O O3 0.471481 0.977522 0.706428
O O4 0.265291 0.114367 0.296790
O O5 0.125983 0.603308 0.834998
O O6 0.254645 0.509590 0.880248
O O7 0.135546 0.777859 0.919576
O O8 0.215162 0.015073 0.855481
O O9 0.915278 0.084860 0.750000
O O10 0.021220 0.251738 0.689010
O O11 0.633563 0.646807 0.857530
O O12 0.984524 0.554730 0.064913
O O13 0.920944 0.250000 0.000000
O O14 0.521700 0.248834 0.631727
#
# Coordination Sequence:
#
# PCOD8230322 Si02
#       7
#     4   4   8   8   8   8   8
#     4  10  18  31  50  68  90 135 191 240 277 315
#     4  10  20  35  46  68 106 143 187 228 273 321
#     4  12  22  36  56  80 115 144 182 234 286 337
#     4  10  21  35  51  71  99 141 189 220 254 312
#     4  11  24  34  52  79 110 149 191 233 282 340
#     4  10  21  39  64  90 114 144 183 228 288 354
#     4  11  20  34  51  70 102 142 191 237 279 324
#
# _framework density 19.840017
#
# number of rings (size 3 to 8) (size 9 to 14) (size 15 to 20)
#    0.000    1.333    0.000    8.500    2.333    0.000 
#    0.000    0.000    0.000    0.000    0.000    0.000 
#    0.000   13.333    0.000    0.000    0.000    0.000 
#
# Total GULP energy -594922.330358 kJ/mol
# GULP energy per Si atom -12394.215216 kJ/mol
# Density = 1.979486 g / cm^3
# Si number density = 19.840017 Si / 1000 Ang^3
#
#
#
# Elastic Constant Matrix: (Units=GPa)
#
#
# Indices 1 2 3 4 5 6 
#
# 1 81.7948 29.1543 47.2355 0.0000 0.0000 0.0000
# 2 29.1543 100.4570 27.5897 0.0000 0.0000 0.0000
# 3 47.2355 27.5897 54.3341 0.0000 0.0000 0.0000
# 4 0.0000 0.0000 0.0000 16.7031 0.0000 0.0000
# 5 0.0000 0.0000 0.0000 0.0000 20.0567 0.0000
# 6 0.0000 0.0000 0.0000 0.0000 0.0000 34.5078
#
#
#
# Elastic Compliance Matrix: (Units=1/GPa)
#
#
# Indices 1 2 3 4 5 6 
#
# 1 0.024739 -0.001479 -0.020756 0.000000 0.000000 0.000000
# 2 -0.001479 0.011656 -0.004633 0.000000 0.000000 0.000000
# 3 -0.020756 -0.004633 0.038801 0.000000 0.000000 0.000000
# 4 0.000000 0.000000 0.000000 0.059869 0.000000 0.000000
# 5 0.000000 0.000000 0.000000 0.000000 0.049859 0.000000
# 6 0.000000 0.000000 0.000000 0.000000 0.000000 0.028979
#
#
# Mechanical properties :
#
#
# Convention : Reuss Voigt Hill
#
# Bulk Modulus (GPa) = 46.59673 49.39388 47.99530
# Shear Modulus (GPa) = 18.19547 23.09395 20.64471
#
# Velocity S-wave (km/s) = 3.03167 3.41546 3.22927
# Velocity P-wave (km/s) = 5.98263 6.36427 6.17640
#
# Compressibility (1/GPa) = 0.02146074
#
# Stress axis : x y z
#
# Youngs Moduli (GPa) = 40.42135 85.79151 25.77221
#
# Poissons Ratio (x) = 0.12691 0.53493
# Poissons Ratio (y) = 0.05979 0.11940
# Poissons Ratio (z) = 0.83899 0.39745
#
# Static dielectric constant tensor:
#      x y z
#    x 3.497520 0.000000 0.000000 
#    y 0.000000 4.058000 0.000000 
#    z 0.000000 0.000000 3.343660 
# 
# 
# High freq. dielectric constant tensor:
#      x y z
#    x 1.771820 0.000000 0.000000 
#    y 0.000000 1.808330 0.000000 
#    z 0.000000 0.000000 1.709220 
# 
# From -- ./inp_files/29844.got.cif
#   From: 2010.03.12/outbox.cif.g09.slc.cpg/sg57_15_cif.got.tgz:29844.got - 2010.04.16 15:48:40.
