data_PCOD8230611
_publ_section_title
;
Structure prediction by ZEFSAII (Michael W. Deem and Ramdas Pophale) SiO2 
 PCOD8230611
Probable space group: P B C M
;
_chemical_formula_sum "Si O2"
_cell_formula_units_Z 40
_cell_length_a 8.860887
_cell_length_b 13.324105
_cell_length_c 16.245976
_cell_angle_alpha 90.000000
_cell_angle_beta 90.000000
_cell_angle_gamma 90.000000
_cell_volume 1918.054981
_symmetry_space_group_name_H-M "P B C M"
_symmetry_group_IT_number 57
_symmetry_cell_setting 'orthorhombic'
loop_
_space_group_symop_operation_xyz
x,y,z
-x,-y,1/2+z
x,1/2-y,-z
-x,1/2+y,1/2-z
-x,-y,-z
x,y,1/2-z
-x,1/2+y,z
x,1/2-y,1/2+z
loop_
_atom_site_type_symbol
_atom_site_label
_atom_site_fract_x
_atom_site_fract_y
_atom_site_fract_z
Si Si1 0.956044 0.490762 0.750000
Si Si2 0.458031 0.327742 0.111152
Si Si3 0.882132 0.313718 0.250000
Si Si4 0.040509 0.826353 0.887992
Si Si5 0.375354 0.471269 0.250000
Si Si6 0.293010 0.750000 0.000000
Si Si7 0.792972 0.750000 0.500000
Si Si8 0.564393 0.295353 0.750000
O O1 0.099039 0.565911 0.750000
O O2 0.961179 0.425445 0.667228
O O3 0.802123 0.555990 0.750000
O O4 0.454443 0.426896 0.168183
O O5 0.307835 0.321660 0.056983
O O6 0.465454 0.228777 0.169385
O O7 0.604907 0.327505 0.052635
O O8 0.965135 0.272163 0.330977
O O9 0.708396 0.279332 0.250000
O O10 0.895328 0.825497 0.946666
O O11 0.192988 0.822106 0.942133
O O12 0.385499 0.590668 0.250000
#
# Coordination Sequence:
#
# PCOD8230611 Si02
#       8
#     4   8   4   8   4   4   4   4
#     4  11  22  39  66  92 119 165 220 259 310 377
#     4  10  22  40  65  92 128 167 211 255 315 370
#     4  11  20  40  69  87 120 165 216 255 307 370
#     4  10  21  41  66  90 129 167 209 255 318 374
#     4  11  21  41  66  96 122 164 220 258 307 373
#     4  10  18  40  66  88 136 172 194 256 318 380
#     4  10  22  42  60  98 136 164 200 274 316 360
#     4  11  21  44  67  87 123 174 208 262 308 380
#
# _framework density 20.854458999999999
#
# number of rings (size 3 to 8) (size 9 to 14) (size 15 to 20)
#    0.000    1.600    4.000    1.200    0.000    2.400 
#    7.200   22.000    0.000    0.000    0.000    0.000 
#    0.000    0.000    0.000    0.000    0.000    0.000 
#
# Total GULP energy -496025.597553 kJ/mol
# GULP energy per Si atom -12400.639939 kJ/mol
# Density = 2.080699 g / cm^3
# Si number density = 20.854459 Si / 1000 Ang^3
#
#
#
# Elastic Constant Matrix: (Units=GPa)
#
#
# Indices 1 2 3 4 5 6 
#
# 1 133.6725 53.5661 75.0352 0.0000 0.0000 0.0000
# 2 53.5661 111.7766 57.0106 0.0000 0.0000 0.0000
# 3 75.0352 57.0106 155.2749 0.0000 0.0000 0.0000
# 4 0.0000 0.0000 0.0000 17.0611 0.0000 0.0000
# 5 0.0000 0.0000 0.0000 0.0000 29.8549 0.0000
# 6 0.0000 0.0000 0.0000 0.0000 0.0000 24.9230
#
#
#
# Elastic Compliance Matrix: (Units=1/GPa)
#
#
# Indices 1 2 3 4 5 6 
#
# 1 0.011116 -0.003183 -0.004203 0.000000 0.000000 0.000000
# 2 -0.003183 0.011919 -0.002838 0.000000 0.000000 0.000000
# 3 -0.004203 -0.002838 0.009513 0.000000 0.000000 0.000000
# 4 0.000000 0.000000 0.000000 0.058613 0.000000 0.000000
# 5 0.000000 0.000000 0.000000 0.000000 0.033495 0.000000
# 6 0.000000 0.000000 0.000000 0.000000 0.000000 0.040124
#
#
# Mechanical properties :
#
#
# Convention : Reuss Voigt Hill
#
# Bulk Modulus (GPa) = 82.64418 85.77198 84.20808
# Shear Modulus (GPa) = 26.41841 28.70861 27.56351
#
# Velocity S-wave (km/s) = 3.56307 3.71430 3.63947
# Velocity P-wave (km/s) = 7.52611 7.72094 7.62415
#
# Compressibility (1/GPa) = 0.01210007
#
# Stress axis : x y z
#
# Youngs Moduli (GPa) = 89.96187 83.89647 105.11741
#
# Poissons Ratio (x) = 0.26707 0.44179
# Poissons Ratio (y) = 0.28638 0.29832
# Poissons Ratio (z) = 0.37809 0.23810
#
# Static dielectric constant tensor:
#      x y z
#    x 3.901660 0.000000 0.000000 
#    y 0.000000 3.331500 0.000000 
#    z 0.000000 0.000000 4.184210 
# 
# 
# High freq. dielectric constant tensor:
#      x y z
#    x 1.824210 0.000000 0.000000 
#    y 0.000000 1.778110 0.000000 
#    z 0.000000 0.000000 1.843330 
# 
# From -- ./inp_files/20622.got.cif
#   From: 2010.03.12/outbox.cif.g09.slc.cpg/sg57_11_cif.got.tgz:20622.got - 2010.04.16 15:48:40.
