data_PCOD8230082
_publ_section_title
;
Structure prediction by ZEFSAII (Michael W. Deem and Ramdas Pophale) SiO2 
 PCOD8230082
Probable space group: P B C M
;
_chemical_formula_sum "Si O2"
_cell_formula_units_Z 56
_cell_length_a 19.016516
_cell_length_b 18.388579
_cell_length_c 8.879052
_cell_angle_alpha 90.000000
_cell_angle_beta 90.000000
_cell_angle_gamma 90.000000
_cell_volume 3104.886453
_symmetry_space_group_name_H-M "P B C M"
_symmetry_group_IT_number 57
_symmetry_cell_setting 'orthorhombic'
loop_
_space_group_symop_operation_xyz
x,y,z
-x,-y,1/2+z
x,1/2-y,-z
-x,1/2+y,1/2-z
-x,-y,-z
x,y,1/2-z
-x,1/2+y,z
x,1/2-y,1/2+z
loop_
_atom_site_type_symbol
_atom_site_label
_atom_site_fract_x
_atom_site_fract_y
_atom_site_fract_z
Si Si1 0.556952 0.326745 0.574575
Si Si2 0.709327 0.171817 0.071980
Si Si3 0.069438 0.467300 0.571282
Si Si4 0.594304 0.828283 0.574066
Si Si5 0.722002 0.604267 0.579812
Si Si6 0.197463 0.540366 0.423517
Si Si7 0.867916 0.673036 0.928936
O O1 0.550496 0.250000 0.500000
O O2 0.560773 0.313551 0.750000
O O3 0.631964 0.361154 0.523241
O O4 0.482344 0.365711 0.533517
O O5 0.713241 0.180945 0.250000
O O6 0.768932 0.115706 0.018241
O O7 0.724266 0.250000 0.000000
O O8 0.062329 0.460636 0.750000
O O9 0.132442 0.522120 0.530444
O O10 0.081869 0.387803 0.500785
O O11 0.000000 0.500000 0.500000
O O12 0.605451 0.750000 0.500000
O O13 0.601210 0.815718 0.750000
O O14 0.654702 0.883136 0.523501
O O15 0.700767 0.623014 0.750000
O O16 0.742550 0.520418 0.562587
O O17 0.787224 0.654949 0.529425
O O18 0.171503 0.544817 0.250000
O O19 0.879438 0.673368 0.750000
O O20 0.888908 0.750000 0.000000
#
# Coordination Sequence:
#
# PCOD8230082 Si02
#       7
#     8   8   8   8   8   8   8
#     4   8  15  27  43  65  92 126 165 207 254 301
#     4   9  17  32  54  75  98 128 166 212 259 304
#     4  11  22  38  60  83 109 140 172 209 253 305
#     4  10  18  27  42  65  95 129 169 212 253 298
#     4   9  18  31  47  68  98 134 170 206 248 299
#     4   9  19  36  55  75 100 132 167 204 251 310
#     4  10  20  35  55  81 110 141 177 214 254 303
#
# _framework density 18.036086000000001
#
# number of rings (size 3 to 8) (size 9 to 14) (size 15 to 20)
#    0.000    2.571    0.000    3.429    0.000    5.143 
#    0.000    1.429    0.000    1.714    0.000    0.000 
#    0.000    0.000    0.000    0.000    0.000    0.000 
#
# Total GULP energy -693899.724417 kJ/mol
# GULP energy per Si atom -12391.066507 kJ/mol
# Density = 1.799504 g / cm^3
# Si number density = 18.036086 Si / 1000 Ang^3
#
#
#
# Elastic Constant Matrix: (Units=GPa)
#
#
# Indices 1 2 3 4 5 6 
#
# 1 115.7867 69.2398 48.9561 0.0000 0.0000 0.0000
# 2 69.2398 102.9712 41.0755 0.0000 0.0000 0.0000
# 3 48.9561 41.0755 74.4546 0.0000 0.0000 0.0000
# 4 0.0000 0.0000 0.0000 26.4491 0.0000 0.0000
# 5 0.0000 0.0000 0.0000 0.0000 18.7314 0.0000
# 6 0.0000 0.0000 0.0000 0.0000 0.0000 19.8286
#
#
#
# Elastic Compliance Matrix: (Units=1/GPa)
#
#
# Indices 1 2 3 4 5 6 
#
# 1 0.016290 -0.008566 -0.005985 0.000000 0.000000 0.000000
# 2 -0.008566 0.016956 -0.003722 0.000000 0.000000 0.000000
# 3 -0.005985 -0.003722 0.019420 0.000000 0.000000 0.000000
# 4 0.000000 0.000000 0.000000 0.037808 0.000000 0.000000
# 5 0.000000 0.000000 0.000000 0.000000 0.053386 0.000000
# 6 0.000000 0.000000 0.000000 0.000000 0.000000 0.050432
#
#
# Mechanical properties :
#
#
# Convention : Reuss Voigt Hill
#
# Bulk Modulus (GPa) = 62.03799 67.97281 65.00540
# Shear Modulus (GPa) = 21.16745 21.93123 21.54934
#
# Velocity S-wave (km/s) = 3.42953 3.49085 3.46032
# Velocity P-wave (km/s) = 7.08191 7.34962 7.21701
#
# Compressibility (1/GPa) = 0.01611915
#
# Stress axis : x y z
#
# Youngs Moduli (GPa) = 61.38902 58.97585 51.49375
#
# Poissons Ratio (x) = 0.50518 0.30820
# Poissons Ratio (y) = 0.52585 0.19166
# Poissons Ratio (z) = 0.36742 0.21951
#
# Static dielectric constant tensor:
#      x y z
#    x 3.653280 0.000000 0.000000 
#    y 0.000000 3.185930 0.000000 
#    z 0.000000 0.000000 3.312700 
# 
# 
# High freq. dielectric constant tensor:
#      x y z
#    x 1.704120 0.000000 0.000000 
#    y 0.000000 1.674260 0.000000 
#    z 0.000000 0.000000 1.700700 
# 
# From -- ./inp_files/8334.got.cif
#   From: 2010.03.12/outbox.cif.g09.slc.cpg/sg57_5_cif.got.tgz:8334.got - 2010.04.16 15:48:40.
