data_PCOD8230857
_publ_section_title
;
Structure prediction by ZEFSAII (Michael W. Deem and Ramdas Pophale) SiO2 
 PCOD8230857
Probable space group: P B C M
;
_chemical_formula_sum "Si O2"
_cell_formula_units_Z 56
_cell_length_a 12.761256
_cell_length_b 28.637122
_cell_length_c 9.289381
_cell_angle_alpha 90.000000
_cell_angle_beta 90.000000
_cell_angle_gamma 90.000000
_cell_volume 3394.763831
_symmetry_space_group_name_H-M "P B C M"
_symmetry_group_IT_number 57
_symmetry_cell_setting 'orthorhombic'
loop_
_space_group_symop_operation_xyz
x,y,z
-x,-y,1/2+z
x,1/2-y,-z
-x,1/2+y,1/2-z
-x,-y,-z
x,y,1/2-z
-x,1/2+y,z
x,1/2-y,1/2+z
loop_
_atom_site_type_symbol
_atom_site_label
_atom_site_fract_x
_atom_site_fract_y
_atom_site_fract_z
Si Si1 0.606703 0.555335 0.418029
Si Si2 0.997585 0.548374 0.919431
Si Si3 0.806364 0.106684 0.579343
Si Si4 0.876753 0.795114 0.417054
Si Si5 0.790148 0.605398 0.918020
Si Si6 0.881537 0.295145 0.081638
Si Si7 0.603459 0.052453 0.582092
O O1 0.598886 0.566673 0.250000
O O2 0.694523 0.587623 0.487353
O O3 0.634519 0.501258 0.446048
O O4 0.496644 0.567834 0.491074
O O5 0.007637 0.539498 0.750000
O O6 0.094848 0.578065 0.980828
O O7 0.892019 0.575611 0.957858
O O8 0.000000 0.500000 0.000000
O O9 0.811730 0.104594 0.750000
O O10 0.814477 0.160345 0.528082
O O11 0.698705 0.084054 0.523889
O O12 0.831993 0.750000 0.500000
O O13 0.866240 0.784053 0.250000
O O14 0.810067 0.840656 0.459063
O O15 0.997484 0.804518 0.458426
O O16 0.762729 0.600079 0.750000
O O17 0.867635 0.286499 0.250000
O O18 0.837204 0.250000 0.000000
O O19 0.579587 0.061011 0.750000
#
# Coordination Sequence:
#
# PCOD8230857 Si02
#       7
#     8   8   8   8   8   8   8
#     4  10  20  33  50  73  98 125 164 211 248 280
#     4  10  19  31  46  69 101 132 159 191 234 286
#     4   9  16  30  51  70  94 129 163 192 232 290
#     4   9  17  30  48  71  97 128 162 197 237 285
#     4  10  19  32  50  71  99 133 164 194 238 296
#     4   9  16  29  48  70  96 126 159 195 235 283
#     4   9  18  33  52  71  93 128 169 203 240 290
#
# _framework density 16.495992000000001
#
# number of rings (size 3 to 8) (size 9 to 14) (size 15 to 20)
#    0.000    2.571    1.429    1.286    0.000    2.857 
#    0.000    2.143    0.000    0.857    0.000    2.000 
#    0.000    0.000    0.000    0.000    0.000    0.000 
#
# Total GULP energy -694411.607938 kJ/mol
# GULP energy per Si atom -12400.207285 kJ/mol
# Density = 1.645845 g / cm^3
# Si number density = 16.495992 Si / 1000 Ang^3
#
#
#
# Elastic Constant Matrix: (Units=GPa)
#
#
# Indices 1 2 3 4 5 6 
#
# 1 118.4588 80.6449 50.0622 0.0000 0.0000 0.0000
# 2 80.6449 142.8098 53.5881 0.0000 0.0000 0.0000
# 3 50.0622 53.5881 52.0385 0.0000 0.0000 0.0000
# 4 0.0000 0.0000 0.0000 30.6063 0.0000 0.0000
# 5 0.0000 0.0000 0.0000 0.0000 15.3779 0.0000
# 6 0.0000 0.0000 0.0000 0.0000 0.0000 21.5422
#
#
#
# Elastic Compliance Matrix: (Units=1/GPa)
#
#
# Indices 1 2 3 4 5 6 
#
# 1 0.016491 -0.005475 -0.010227 0.000000 0.000000 0.000000
# 2 -0.005475 0.013230 -0.008357 0.000000 0.000000 0.000000
# 3 -0.010227 -0.008357 0.037660 0.000000 0.000000 0.000000
# 4 0.000000 0.000000 0.000000 0.032673 0.000000 0.000000
# 5 0.000000 0.000000 0.000000 0.000000 0.065029 0.000000
# 6 0.000000 0.000000 0.000000 0.000000 0.000000 0.046421
#
#
# Mechanical properties :
#
#
# Convention : Reuss Voigt Hill
#
# Bulk Modulus (GPa) = 51.90909 75.76638 63.83774
# Shear Modulus (GPa) = 18.79406 22.10606 20.45006
#
# Velocity S-wave (km/s) = 3.37903 3.66469 3.52476
# Velocity P-wave (km/s) = 6.83811 7.99603 7.43963
#
# Compressibility (1/GPa) = 0.01926445
#
# Stress axis : x y z
#
# Youngs Moduli (GPa) = 60.63935 75.58658 26.55312
#
# Poissons Ratio (x) = 0.41384 0.27155
# Poissons Ratio (y) = 0.33200 0.22190
# Poissons Ratio (z) = 0.62013 0.63166
#
# Static dielectric constant tensor:
#      x y z
#    x 3.065390 0.000000 0.000000 
#    y 0.000000 3.165340 0.000000 
#    z 0.000000 0.000000 2.957280 
# 
# 
# High freq. dielectric constant tensor:
#      x y z
#    x 1.621550 0.000000 0.000000 
#    y 0.000000 1.638380 0.000000 
#    z 0.000000 0.000000 1.621250 
# 
# From -- ./inp_files/13211.got.cif
#   From: 2010.03.12/outbox.cif.g09.slc.cpg/sg57_7_cif.got.tgz:13211.got - 2010.04.16 15:48:40.
