data_PCOD8230122
_publ_section_title
;
Structure prediction by ZEFSAII (Michael W. Deem and Ramdas Pophale) SiO2 
 PCOD8230122
Probable space group: P B C M
;
_chemical_formula_sum "Si O2"
_cell_formula_units_Z 56
_cell_length_a 17.350901
_cell_length_b 24.714162
_cell_length_c 8.853749
_cell_angle_alpha 90.000000
_cell_angle_beta 90.000000
_cell_angle_gamma 90.000000
_cell_volume 3796.602477
_symmetry_space_group_name_H-M "P B C M"
_symmetry_group_IT_number 57
_symmetry_cell_setting 'orthorhombic'
loop_
_space_group_symop_operation_xyz
x,y,z
-x,-y,1/2+z
x,1/2-y,-z
-x,1/2+y,1/2-z
-x,-y,-z
x,y,1/2-z
-x,1/2+y,z
x,1/2-y,1/2+z
loop_
_atom_site_type_symbol
_atom_site_label
_atom_site_fract_x
_atom_site_fract_y
_atom_site_fract_z
Si Si1 0.270617 0.195630 0.424425
Si Si2 0.688580 0.592535 0.918309
Si Si3 0.267464 0.508398 0.571698
Si Si4 0.419387 0.498508 0.417865
Si Si5 0.909343 0.693238 0.073246
Si Si6 0.026805 0.415596 0.071725
Si Si7 0.887846 0.475183 0.571991
O O1 0.300041 0.250000 0.500000
O O2 0.290514 0.197416 0.250000
O O3 0.321068 0.149687 0.502949
O O4 0.181037 0.185708 0.457071
O O5 0.725021 0.598042 0.750000
O O6 0.604317 0.564823 0.907747
O O7 0.743383 0.554494 0.021755
O O8 0.265609 0.515136 0.750000
O O9 0.350278 0.530108 0.507279
O O10 0.195788 0.539429 0.496883
O O11 0.500000 0.500000 0.500000
O O12 0.427178 0.523631 0.250000
O O13 0.928805 0.694983 0.250000
O O14 0.937689 0.750000 0.000000
O O15 0.950034 0.641934 0.997992
O O16 0.018344 0.408714 0.250000
O O17 0.087735 0.463107 0.031319
O O18 0.945150 0.432160 0.002055
O O19 0.886467 0.465944 0.750000
#
# Coordination Sequence:
#
# PCOD8230122 Si02
#       7
#     8   8   8   8   8   8   8
#     4  10  19  29  43  61  84 114 150 186 221 260
#     4   9  18  29  42  61  86 115 146 180 217 259
#     4  10  18  28  44  63  87 116 147 180 219 267
#     4   9  18  30  45  65  89 117 147 180 218 263
#     4  10  20  32  45  62  84 115 153 192 230 271
#     4  10  20  31  45  63  87 117 151 191 231 272
#     4  10  19  31  45  64  89 118 151 188 229 273
#
# _framework density 14.750029
#
# number of rings (size 3 to 8) (size 9 to 14) (size 15 to 20)
#    0.857    1.429    0.000    4.286    0.000    5.714 
#    0.000    0.000    0.000    0.000    0.000    0.000 
#    0.000    1.143    0.000    8.000    0.000    6.286 
#
# Total GULP energy -693975.467551 kJ/mol
# GULP energy per Si atom -12392.419063 kJ/mol
# Density = 1.471646 g / cm^3
# Si number density = 14.750029 Si / 1000 Ang^3
#
#
#
# Elastic Constant Matrix: (Units=GPa)
#
#
# Indices 1 2 3 4 5 6 
#
# 1 82.2199 14.3369 40.3164 0.0000 0.0000 0.0000
# 2 14.3369 60.6781 33.8960 0.0000 0.0000 0.0000
# 3 40.3164 33.8960 108.6206 0.0000 0.0000 0.0000
# 4 0.0000 0.0000 0.0000 26.8880 0.0000 0.0000
# 5 0.0000 0.0000 0.0000 0.0000 26.0965 0.0000
# 6 0.0000 0.0000 0.0000 0.0000 0.0000 14.9489
#
#
#
# Elastic Compliance Matrix: (Units=1/GPa)
#
#
# Indices 1 2 3 4 5 6 
#
# 1 0.014882 -0.000522 -0.005361 0.000000 0.000000 0.000000
# 2 -0.000522 0.019978 -0.006041 0.000000 0.000000 0.000000
# 3 -0.005361 -0.006041 0.013081 0.000000 0.000000 0.000000
# 4 0.000000 0.000000 0.000000 0.037191 0.000000 0.000000
# 5 0.000000 0.000000 0.000000 0.000000 0.038319 0.000000
# 6 0.000000 0.000000 0.000000 0.000000 0.000000 0.066894
#
#
# Mechanical properties :
#
#
# Convention : Reuss Voigt Hill
#
# Bulk Modulus (GPa) = 41.50255 47.62414 44.56335
# Shear Modulus (GPa) = 22.49971 24.45130 23.47551
#
# Velocity S-wave (km/s) = 3.90988 4.07592 3.99376
# Velocity P-wave (km/s) = 6.97002 7.38298 7.17947
#
# Compressibility (1/GPa) = 0.02409490
#
# Stress axis : x y z
#
# Youngs Moduli (GPa) = 67.19419 50.05476 76.44512
#
# Poissons Ratio (x) = 0.02611 0.40983
# Poissons Ratio (y) = 0.03505 0.46179
# Poissons Ratio (z) = 0.36023 0.30237
#
# Static dielectric constant tensor:
#      x y z
#    x 2.662030 0.000000 0.000000 
#    y 0.000000 2.654960 0.000000 
#    z 0.000000 0.000000 3.016020 
# 
# 
# High freq. dielectric constant tensor:
#      x y z
#    x 1.540880 0.000000 0.000000 
#    y 0.000000 1.532670 0.000000 
#    z 0.000000 0.000000 1.588800 
# 
# From -- ./inp_files/7320.got.cif
#   From: 2010.03.12/outbox.cif.g09.slc.cpg/sg57_4_cif.got.tgz:7320.got - 2010.04.16 15:48:40.
