data_PCOD8230406
_publ_section_title
;
Structure prediction by ZEFSAII (Michael W. Deem and Ramdas Pophale) SiO2 
 PCOD8230406
Probable space group: P B C M
;
_chemical_formula_sum "Si O2"
_cell_formula_units_Z 64
_cell_length_a 14.792510
_cell_length_b 29.179139
_cell_length_c 9.239573
_cell_angle_alpha 90.000000
_cell_angle_beta 90.000000
_cell_angle_gamma 90.000000
_cell_volume 3988.101891
_symmetry_space_group_name_H-M "P B C M"
_symmetry_group_IT_number 57
_symmetry_cell_setting 'orthorhombic'
loop_
_space_group_symop_operation_xyz
x,y,z
-x,-y,1/2+z
x,1/2-y,-z
-x,1/2+y,1/2-z
-x,-y,-z
x,y,1/2-z
-x,1/2+y,z
x,1/2-y,1/2+z
loop_
_atom_site_type_symbol
_atom_site_label
_atom_site_fract_x
_atom_site_fract_y
_atom_site_fract_z
Si Si1 0.172932 0.035176 0.081647
Si Si2 0.791698 0.206402 0.916646
Si Si3 0.461123 0.562322 0.584906
Si Si4 0.715132 0.111025 0.918434
Si Si5 0.861658 0.054473 0.421604
Si Si6 0.622614 0.965562 0.581591
Si Si7 0.965692 0.885731 0.582778
Si Si8 0.997684 0.704358 0.580093
O O1 0.171284 0.020472 0.250000
O O2 0.275511 0.042442 0.026179
O O3 0.121121 0.082580 0.056650
O O4 0.123430 0.995643 0.990045
O O5 0.774947 0.216086 0.750000
O O6 0.737579 0.162085 0.970581
O O7 0.896451 0.198716 0.951831
O O8 0.752277 0.250000 0.000000
O O9 0.491778 0.559243 0.750000
O O10 0.391991 0.604105 0.557617
O O11 0.552598 0.569577 0.493663
O O12 0.406834 0.516748 0.538974
O O13 0.741566 0.103239 0.750000
O O14 0.769827 0.075031 0.014289
O O15 0.853944 0.049550 0.250000
O O16 0.945093 0.086771 0.466513
O O17 0.616725 0.955835 0.750000
O O18 0.974390 0.870947 0.750000
O O19 0.950437 0.840513 0.486427
O O20 0.961025 0.750000 0.500000
O O21 0.975861 0.707933 0.750000
#
# Coordination Sequence:
#
# PCOD8230406 Si02
#       8
#     8   8   8   8   8   8   8   8
#     4  10  20  35  50  64  93 134 166 197 237 285
#     4   9  18  30  47  68  92 123 155 189 229 278
#     4   9  17  29  47  67  90 119 154 193 230 276
#     4  10  18  32  49  67  93 130 162 185 231 289
#     4  11  21  30  44  70  98 126 162 202 231 269
#     4   9  17  30  47  66  89 120 156 193 235 275
#     4  10  21  34  48  69  96 128 165 199 237 282
#     4  10  19  32  51  71  95 125 158 198 240 282
#
# _framework density 16.047733999999998
#
# number of rings (size 3 to 8) (size 9 to 14) (size 15 to 20)
#    0.000    2.250    2.500    1.125    0.000    3.000 
#    0.000    0.000    0.000    0.000    0.000    0.875 
#    0.000    4.000    0.000    0.000    0.000    0.000 
#
# Total GULP energy -793665.706264 kJ/mol
# GULP energy per Si atom -12401.026660 kJ/mol
# Density = 1.601121 g / cm^3
# Si number density = 16.047734 Si / 1000 Ang^3
#
#
#
# Elastic Constant Matrix: (Units=GPa)
#
#
# Indices 1 2 3 4 5 6 
#
# 1 72.0571 36.4741 31.6331 0.0000 0.0000 0.0000
# 2 36.4741 104.1321 48.5057 0.0000 0.0000 0.0000
# 3 31.6331 48.5057 60.8495 0.0000 0.0000 0.0000
# 4 0.0000 0.0000 0.0000 29.5574 0.0000 0.0000
# 5 0.0000 0.0000 0.0000 0.0000 22.2717 0.0000
# 6 0.0000 0.0000 0.0000 0.0000 0.0000 19.7872
#
#
#
# Elastic Compliance Matrix: (Units=1/GPa)
#
#
# Indices 1 2 3 4 5 6 
#
# 1 0.018630 -0.003204 -0.007131 0.000000 0.000000 0.000000
# 2 -0.003204 0.015826 -0.010950 0.000000 0.000000 0.000000
# 3 -0.007131 -0.010950 0.028870 0.000000 0.000000 0.000000
# 4 0.000000 0.000000 0.000000 0.033833 0.000000 0.000000
# 5 0.000000 0.000000 0.000000 0.000000 0.044900 0.000000
# 6 0.000000 0.000000 0.000000 0.000000 0.000000 0.050538
#
#
# Mechanical properties :
#
#
# Convention : Reuss Voigt Hill
#
# Bulk Modulus (GPa) = 48.17864 52.25160 50.21512
# Shear Modulus (GPa) = 20.65387 22.35162 21.50274
#
# Velocity S-wave (km/s) = 3.59141 3.73610 3.66447
# Velocity P-wave (km/s) = 6.87640 7.15836 7.01879
#
# Compressibility (1/GPa) = 0.02075608
#
# Stress axis : x y z
#
# Youngs Moduli (GPa) = 53.67633 63.18706 34.63802
#
# Poissons Ratio (x) = 0.20244 0.24701
# Poissons Ratio (y) = 0.17197 0.37929
# Poissons Ratio (z) = 0.38278 0.69190
#
# Static dielectric constant tensor:
#      x y z
#    x 2.991060 0.000000 0.000000 
#    y 0.000000 3.017650 0.000000 
#    z 0.000000 0.000000 3.030700 
# 
# 
# High freq. dielectric constant tensor:
#      x y z
#    x 1.596730 0.000000 0.000000 
#    y 0.000000 1.601820 0.000000 
#    z 0.000000 0.000000 1.619120 
# 
# From -- ./inp_files/5998.got.cif
#   From: 2010.03.12/outbox.cif.g09.slc.cpg/sg57_3_cif.got.tgz:5998.got - 2010.04.16 15:48:40.
