data_PCOD8230847
_publ_section_title
;
Structure prediction by ZEFSAII (Michael W. Deem and Ramdas Pophale) SiO2 
 PCOD8230847
Probable space group: P B C M
;
_chemical_formula_sum "Si O2"
_cell_formula_units_Z 56
_cell_length_a 19.359092
_cell_length_b 18.283351
_cell_length_c 9.439715
_cell_angle_alpha 90.000000
_cell_angle_beta 90.000000
_cell_angle_gamma 90.000000
_cell_volume 3341.178384
_symmetry_space_group_name_H-M "P B C M"
_symmetry_group_IT_number 57
_symmetry_cell_setting 'orthorhombic'
loop_
_space_group_symop_operation_xyz
x,y,z
-x,-y,1/2+z
x,1/2-y,-z
-x,1/2+y,1/2-z
-x,-y,-z
x,y,1/2-z
-x,1/2+y,z
x,1/2-y,1/2+z
loop_
_atom_site_type_symbol
_atom_site_label
_atom_site_fract_x
_atom_site_fract_y
_atom_site_fract_z
Si Si1 0.986908 0.815747 0.408931
Si Si2 0.547270 0.943806 0.916396
Si Si3 0.062621 0.469494 0.089728
Si Si4 0.802986 0.054407 0.410654
Si Si5 0.645349 0.029333 0.411788
Si Si6 0.560900 0.326387 0.585704
Si Si7 0.856327 0.179694 0.915674
O O1 0.956915 0.750000 0.500000
O O2 0.990239 0.786476 0.250000
O O3 0.934770 0.882354 0.428424
O O4 0.064333 0.839415 0.455257
O O5 0.550671 0.962120 0.750000
O O6 0.515893 0.861901 0.939126
O O7 0.500000 0.000000 0.000000
O O8 0.620982 0.960946 0.989414
O O9 0.045183 0.491805 0.250000
O O10 0.138524 0.495861 0.045076
O O11 0.000000 0.500000 0.000000
O O12 0.816352 0.082899 0.250000
O O13 0.727299 0.021325 0.422714
O O14 0.806834 0.117327 0.526446
O O15 0.619825 0.017063 0.250000
O O16 0.617028 0.110419 0.458994
O O17 0.569654 0.250000 0.500000
O O18 0.571400 0.306006 0.750000
O O19 0.844077 0.190617 0.750000
O O20 0.831747 0.250000 0.000000
#
# Coordination Sequence:
#
# PCOD8230847 Si02
#       7
#     8   8   8   8   8   8   8
#     4   9  18  31  47  68  91 118 156 203 253 304
#     4   9  17  31  51  74  98 128 164 203 239 282
#     4  10  19  32  50  72  96 124 165 214 257 301
#     4  10  20  33  50  71  99 134 168 207 257 303
#     4   9  19  34  49  71 102 135 169 203 244 299
#     4   9  18  31  49  74 102 127 160 198 233 281
#     4  10  19  31  46  66  95 127 163 204 248 303
#
# _framework density 16.760553000000002
#
# number of rings (size 3 to 8) (size 9 to 14) (size 15 to 20)
#    0.000    2.571    1.429    1.714    0.000    5.143 
#    0.000    1.429    0.000    0.857    0.000    4.000 
#    0.000    0.000    0.000    0.000    0.000    0.000 
#
# Total GULP energy -693849.886936 kJ/mol
# GULP energy per Si atom -12390.176552 kJ/mol
# Density = 1.672241 g / cm^3
# Si number density = 16.760553 Si / 1000 Ang^3
#
#
#
# Elastic Constant Matrix: (Units=GPa)
#
#
# Indices 1 2 3 4 5 6 
#
# 1 93.8442 43.0140 43.4554 0.0000 0.0000 0.0000
# 2 43.0140 52.9599 36.7891 0.0000 0.0000 0.0000
# 3 43.4554 36.7891 80.1403 0.0000 0.0000 0.0000
# 4 0.0000 0.0000 0.0000 31.6930 0.0000 0.0000
# 5 0.0000 0.0000 0.0000 0.0000 20.3207 0.0000
# 6 0.0000 0.0000 0.0000 0.0000 0.0000 14.0803
#
#
#
# Elastic Compliance Matrix: (Units=1/GPa)
#
#
# Indices 1 2 3 4 5 6 
#
# 1 0.018008 -0.011515 -0.004479 0.000000 0.000000 0.000000
# 2 -0.011515 0.035086 -0.009863 0.000000 0.000000 0.000000
# 3 -0.004479 -0.009863 0.019434 0.000000 0.000000 0.000000
# 4 0.000000 0.000000 0.000000 0.031553 0.000000 0.000000
# 5 0.000000 0.000000 0.000000 0.000000 0.049211 0.000000
# 6 0.000000 0.000000 0.000000 0.000000 0.000000 0.071021
#
#
# Mechanical properties :
#
#
# Convention : Reuss Voigt Hill
#
# Bulk Modulus (GPa) = 48.04091 52.60683 50.32387
# Shear Modulus (GPa) = 17.67017 20.13117 18.90067
#
# Velocity S-wave (km/s) = 3.25048 3.46945 3.36175
# Velocity P-wave (km/s) = 6.54315 6.89238 6.72003
#
# Compressibility (1/GPa) = 0.02081559
#
# Stress axis : x y z
#
# Youngs Moduli (GPa) = 55.53195 28.50167 51.45597
#
# Poissons Ratio (x) = 0.32819 0.23045
# Poissons Ratio (y) = 0.63944 0.50749
# Poissons Ratio (z) = 0.24870 0.28110
#
# Static dielectric constant tensor:
#      x y z
#    x 3.425710 0.000000 0.000000 
#    y 0.000000 3.237670 0.000000 
#    z 0.000000 0.000000 3.429950 
# 
# 
# High freq. dielectric constant tensor:
#      x y z
#    x 1.628620 0.000000 0.000000 
#    y 0.000000 1.629380 0.000000 
#    z 0.000000 0.000000 1.653770 
# 
# From -- ./inp_files/8292.got.cif
#   From: 2010.03.12/outbox.cif.g09.slc.cpg/sg57_5_cif.got.tgz:8292.got - 2010.04.16 15:48:40.
