data_PCOD8230615
_publ_section_title
;
Structure prediction by ZEFSAII (Michael W. Deem and Ramdas Pophale) SiO2 
 PCOD8230615
Probable space group: P B C M
;
_chemical_formula_sum "Si O2"
_cell_formula_units_Z 64
_cell_length_a 12.244789
_cell_length_b 31.014824
_cell_length_c 9.119152
_cell_angle_alpha 90.000000
_cell_angle_beta 90.000000
_cell_angle_gamma 90.000000
_cell_volume 3463.180134
_symmetry_space_group_name_H-M "P B C M"
_symmetry_group_IT_number 57
_symmetry_cell_setting 'orthorhombic'
loop_
_space_group_symop_operation_xyz
x,y,z
-x,-y,1/2+z
x,1/2-y,-z
-x,1/2+y,1/2-z
-x,-y,-z
x,y,1/2-z
-x,1/2+y,z
x,1/2-y,1/2+z
loop_
_atom_site_type_symbol
_atom_site_label
_atom_site_fract_x
_atom_site_fract_y
_atom_site_fract_z
Si Si1 0.313141 0.294554 0.076573
Si Si2 0.915065 0.390050 0.413142
Si Si3 0.154158 0.370418 0.418059
Si Si4 0.076707 0.527802 0.406538
Si Si5 0.478222 0.352794 0.920135
Si Si6 0.672442 0.392549 0.080494
Si Si7 0.686825 0.569399 0.419843
Si Si8 0.679200 0.483809 0.915559
O O1 0.329424 0.288498 0.250000
O O2 0.213248 0.326286 0.037515
O O3 0.282693 0.250000 0.000000
O O4 0.423448 0.313066 0.005259
O O5 0.924920 0.410487 0.250000
O O6 0.915413 0.424662 0.537427
O O7 0.793350 0.369863 0.428132
O O8 0.023623 0.361266 0.441838
O O9 0.179776 0.382107 0.250000
O O10 0.201191 0.410896 0.511327
O O11 0.020489 0.530211 0.250000
O O12 0.193763 0.505863 0.399900
O O13 0.000000 0.500000 0.500000
O O14 0.492416 0.340514 0.750000
O O15 0.408197 0.395890 0.940147
O O16 0.595515 0.359742 0.993998
O O17 0.636479 0.397531 0.250000
O O18 0.662159 0.439824 0.006125
O O19 0.710172 0.558881 0.250000
O O20 0.637661 0.526313 0.497775
O O21 0.627638 0.479871 0.750000
#
# Coordination Sequence:
#
# PCOD8230615 Si02
#       8
#     8   8   8   8   8   8   8   8
#     4  10  20  36  60  87 111 133 159 196 246 303
#     4   9  18  32  49  70  97 131 169 207 248 295
#     4   9  18  33  53  77 105 135 165 202 253 308
#     4  10  19  28  40  61  90 127 170 214 256 296
#     4  10  21  37  55  76 104 135 170 213 259 307
#     4  10  20  34  52  73  99 136 182 223 258 301
#     4  10  20  32  48  72 100 132 173 221 267 309
#     4  10  20  32  45  64  95 135 177 220 264 308
#
# _framework density 18.480124
#
# number of rings (size 3 to 8) (size 9 to 14) (size 15 to 20)
#    0.000    2.250    0.000    3.000    0.000    8.000 
#    0.000    0.000    0.000    0.750    0.000    1.750 
#    0.000    0.000    0.000    0.000    0.000    0.000 
#
# Total GULP energy -793028.170258 kJ/mol
# GULP energy per Si atom -12391.065160 kJ/mol
# Density = 1.843806 g / cm^3
# Si number density = 18.480124 Si / 1000 Ang^3
#
#
#
# Elastic Constant Matrix: (Units=GPa)
#
#
# Indices 1 2 3 4 5 6 
#
# 1 82.5488 19.3313 32.6400 0.0000 0.0000 0.0000
# 2 19.3313 61.3877 28.7059 0.0000 0.0000 0.0000
# 3 32.6400 28.7059 122.8610 0.0000 0.0000 0.0000
# 4 0.0000 0.0000 0.0000 28.7443 0.0000 0.0000
# 5 0.0000 0.0000 0.0000 0.0000 26.9206 0.0000
# 6 0.0000 0.0000 0.0000 0.0000 0.0000 17.0886
#
#
#
# Elastic Compliance Matrix: (Units=1/GPa)
#
#
# Indices 1 2 3 4 5 6 
#
# 1 0.014011 -0.002999 -0.003022 0.000000 0.000000 0.000000
# 2 -0.002999 0.018930 -0.003626 0.000000 0.000000 0.000000
# 3 -0.003022 -0.003626 0.009789 0.000000 0.000000 0.000000
# 4 0.000000 0.000000 0.000000 0.034789 0.000000 0.000000
# 5 0.000000 0.000000 0.000000 0.000000 0.037146 0.000000
# 6 0.000000 0.000000 0.000000 0.000000 0.000000 0.058519
#
#
# Mechanical properties :
#
#
# Convention : Reuss Voigt Hill
#
# Bulk Modulus (GPa) = 42.66831 47.57242 45.12036
# Shear Modulus (GPa) = 24.96371 26.95873 25.96122
#
# Velocity S-wave (km/s) = 3.67937 3.82356 3.75216
# Velocity P-wave (km/s) = 6.41788 6.72987 6.57573
#
# Compressibility (1/GPa) = 0.02343659
#
# Stress axis : x y z
#
# Youngs Moduli (GPa) = 71.37189 52.82619 102.15324
#
# Poissons Ratio (x) = 0.15844 0.30866
# Poissons Ratio (y) = 0.21406 0.37042
# Poissons Ratio (z) = 0.21565 0.19155
#
# Static dielectric constant tensor:
#      x y z
#    x 3.640090 0.000000 0.000000 
#    y 0.000000 3.028680 0.000000 
#    z 0.000000 0.000000 4.088340 
# 
# 
# High freq. dielectric constant tensor:
#      x y z
#    x 1.719510 0.000000 0.000000 
#    y 0.000000 1.674340 0.000000 
#    z 0.000000 0.000000 1.737100 
# 
# From -- ./inp_files/3770.got.cif
#   From: 2010.03.12/outbox.cif.g09.slc.cpg/sg57_2_cif.got.tgz:3770.got - 2010.04.16 15:48:40.
