data_PCOD8230934
_publ_section_title
;
Structure prediction by ZEFSAII (Michael W. Deem and Ramdas Pophale) SiO2 
 PCOD8230934
Probable space group: P B C M
;
_chemical_formula_sum "Si O2"
_cell_formula_units_Z 64
_cell_length_a 15.377099
_cell_length_b 24.681418
_cell_length_c 8.847988
_cell_angle_alpha 90.000000
_cell_angle_beta 90.000000
_cell_angle_gamma 90.000000
_cell_volume 3358.064570
_symmetry_space_group_name_H-M "P B C M"
_symmetry_group_IT_number 57
_symmetry_cell_setting 'orthorhombic'
loop_
_space_group_symop_operation_xyz
x,y,z
-x,-y,1/2+z
x,1/2-y,-z
-x,1/2+y,1/2-z
-x,-y,-z
x,y,1/2-z
-x,1/2+y,z
x,1/2-y,1/2+z
loop_
_atom_site_type_symbol
_atom_site_label
_atom_site_fract_x
_atom_site_fract_y
_atom_site_fract_z
Si Si1 0.427185 0.693360 0.570327
Si Si2 0.226883 0.385071 0.072093
Si Si3 0.118834 0.806350 0.071488
Si Si4 0.730249 0.116986 0.928175
Si Si5 0.260138 0.998359 0.923421
Si Si6 0.594532 0.850210 0.917817
Si Si7 0.923660 0.806315 0.072235
Si Si8 0.574314 0.530063 0.082251
O O1 0.393674 0.750000 0.500000
O O2 0.426361 0.698099 0.750000
O O3 0.360368 0.645228 0.516564
O O4 0.526918 0.684417 0.517050
O O5 0.245010 0.379648 0.250000
O O6 0.201950 0.448431 0.033606
O O7 0.142210 0.352556 0.017320
O O8 0.309980 0.358139 0.989495
O O9 0.125101 0.800627 0.250000
O O10 0.186896 0.850221 0.009158
O O11 0.021180 0.822725 0.020336
O O12 0.146936 0.750000 0.000000
O O13 0.729658 0.116543 0.750000
O O14 0.748485 0.055638 0.979356
O O15 0.249588 0.981514 0.750000
O O16 0.352019 0.024697 0.958139
O O17 0.605038 0.823956 0.750000
O O18 0.548283 0.907930 0.899348
O O19 0.919603 0.798714 0.250000
O O20 0.894165 0.750000 0.000000
O O21 0.596138 0.505574 0.250000
O O22 0.500000 0.500000 0.000000
#
# Coordination Sequence:
#
# PCOD8230934 Si02
#       8
#     8   8   8   8   8   8   8   8
#     4  11  23  37  53  74 103 138 175 217 264 315
#     4   9  19  36  55  77 108 144 178 216 263 311
#     4   9  18  34  56  81 107 136 172 216 266 318
#     4  10  21  36  54  77 106 140 175 216 268 317
#     4  10  20  33  51  74 102 139 181 220 259 309
#     4  10  21  35  51  73 101 134 171 210 254 305
#     4   9  18  34  57  82 107 135 170 213 261 315
#     4  10  19  31  49  72  98 130 170 214 257 302
#
# _framework density 19.058596000000001
#
# number of rings (size 3 to 8) (size 9 to 14) (size 15 to 20)
#    0.000    2.250    0.000    2.625    0.000    6.500 
#    0.000    1.875    0.000    0.000    0.000    0.000 
#    0.000    0.000    0.000    0.000    0.000    0.000 
#
# Total GULP energy -792863.260060 kJ/mol
# GULP energy per Si atom -12388.488438 kJ/mol
# Density = 1.901522 g / cm^3
# Si number density = 19.058596 Si / 1000 Ang^3
#
#
#
# Elastic Constant Matrix: (Units=GPa)
#
#
# Indices 1 2 3 4 5 6 
#
# 1 86.6912 57.2698 30.3968 0.0000 0.0000 0.0000
# 2 57.2698 117.3656 28.9890 0.0000 0.0000 0.0000
# 3 30.3968 28.9890 41.5187 0.0000 0.0000 0.0000
# 4 0.0000 0.0000 0.0000 32.5867 0.0000 0.0000
# 5 0.0000 0.0000 0.0000 0.0000 19.3151 0.0000
# 6 0.0000 0.0000 0.0000 0.0000 0.0000 8.2544
#
#
#
# Elastic Compliance Matrix: (Units=1/GPa)
#
#
# Indices 1 2 3 4 5 6 
#
# 1 0.019585 -0.007269 -0.009264 0.000000 0.000000 0.000000
# 2 -0.007269 0.012994 -0.003751 0.000000 0.000000 0.000000
# 3 -0.009264 -0.003751 0.033487 0.000000 0.000000 0.000000
# 4 0.000000 0.000000 0.000000 0.030687 0.000000 0.000000
# 5 0.000000 0.000000 0.000000 0.000000 0.051773 0.000000
# 6 0.000000 0.000000 0.000000 0.000000 0.000000 0.121147
#
#
# Mechanical properties :
#
#
# Convention : Reuss Voigt Hill
#
# Bulk Modulus (GPa) = 39.21709 53.20965 46.21337
# Shear Modulus (GPa) = 15.68682 20.62589 18.15636
#
# Velocity S-wave (km/s) = 2.87206 3.29330 3.08987
# Velocity P-wave (km/s) = 5.62317 6.51465 6.08526
#
# Compressibility (1/GPa) = 0.02549909
#
# Stress axis : x y z
#
# Youngs Moduli (GPa) = 51.05898 76.96054 29.86274
#
# Poissons Ratio (x) = 0.55940 0.27664
# Poissons Ratio (y) = 0.37113 0.11201
# Poissons Ratio (z) = 0.47299 0.28866
#
# Static dielectric constant tensor:
#      x y z
#    x 3.485110 0.000000 0.000000 
#    y 0.000000 3.789440 0.000000 
#    z 0.000000 0.000000 3.476610 
# 
# 
# High freq. dielectric constant tensor:
#      x y z
#    x 1.730060 0.000000 0.000000 
#    y 0.000000 1.745210 0.000000 
#    z 0.000000 0.000000 1.740320 
# 
# From -- ./inp_files/5695.got.cif
#   From: 2010.03.12/outbox.cif.g09.slc.cpg/sg57_3_cif.got.tgz:5695.got - 2010.04.16 15:48:40.
