data_PCOD8230250
_publ_section_title
;
Structure prediction by ZEFSAII (Michael W. Deem and Ramdas Pophale) SiO2 
 PCOD8230250
Probable space group: P B C M
;
_chemical_formula_sum "Si O2"
_cell_formula_units_Z 48
_cell_length_a 13.085765
_cell_length_b 7.719032
_cell_length_c 26.635878
_cell_angle_alpha 90.000000
_cell_angle_beta 90.000000
_cell_angle_gamma 90.000000
_cell_volume 2690.475088
_symmetry_space_group_name_H-M "P B C M"
_symmetry_group_IT_number 57
_symmetry_cell_setting 'orthorhombic'
loop_
_space_group_symop_operation_xyz
x,y,z
-x,-y,1/2+z
x,1/2-y,-z
-x,1/2+y,1/2-z
-x,-y,-z
x,y,1/2-z
-x,1/2+y,z
x,1/2-y,1/2+z
loop_
_atom_site_type_symbol
_atom_site_label
_atom_site_fract_x
_atom_site_fract_y
_atom_site_fract_z
Si Si1 0.865122 0.450649 0.554075
Si Si2 0.308357 0.750000 0.500000
Si Si3 0.471472 0.279835 0.250000
Si Si4 0.597949 0.160759 0.900517
Si Si5 0.395151 0.211199 0.356898
Si Si6 0.735280 0.040496 0.355375
Si Si7 0.669042 0.388487 0.750000
Si Si8 0.963491 0.750000 0.500000
O O1 0.762946 0.390866 0.526393
O O2 0.842488 0.445246 0.614107
O O3 0.887373 0.639809 0.533609
O O4 0.965434 0.340640 0.541450
O O5 0.380273 0.846394 0.459915
O O6 0.433757 0.182020 0.300125
O O7 0.423760 0.471384 0.250000
O O8 0.597533 0.285242 0.250000
O O9 0.478826 0.191769 0.891184
O O10 0.654355 0.323920 0.876611
O O11 0.635048 0.977707 0.877600
O O12 0.298850 0.340143 0.359448
O O13 0.745887 0.092340 0.296911
#
# Coordination Sequence:
#
# PCOD8230250 Si02
#       8
#     8   4   4   8   8   8   4   4
#     4   9  19  37  55  82  98 124 168 217 270 328
#     4   9  22  34  47  76 110 130 175 218 246 327
#     4  10  18  30  48  72  98 141 199 212 241 289
#     4  11  20  34  46  70 106 147 184 210 250 300
#     4  11  20  32  49  71 104 150 184 216 252 286
#     4  10  21  34  50  79 107 134 182 220 257 301
#     4  10  18  30  52  72 106 147 177 228 243 289
#     4   9  18  36  65  76  96 128 161 214 288 339
#
# _framework density 17.840713999999998
#
# number of rings (size 3 to 8) (size 9 to 14) (size 15 to 20)
#    0.000    2.000    3.333    1.000    2.333    0.667 
#    0.000    0.000    0.000    1.000    0.000    0.000 
#    0.000    0.000    0.000    0.000    0.000    0.000 
#
# Total GULP energy -594851.523117 kJ/mol
# GULP energy per Si atom -12392.740065 kJ/mol
# Density = 1.780011 g / cm^3
# Si number density = 17.840714 Si / 1000 Ang^3
#
#
#
# Elastic Constant Matrix: (Units=GPa)
#
#
# Indices 1 2 3 4 5 6 
#
# 1 48.0236 5.6683 46.0338 0.0000 0.0000 0.0000
# 2 5.6683 74.2162 26.5122 0.0000 0.0000 0.0000
# 3 46.0338 26.5122 145.1955 0.0000 0.0000 0.0000
# 4 0.0000 0.0000 0.0000 22.4053 0.0000 0.0000
# 5 0.0000 0.0000 0.0000 0.0000 35.1071 0.0000
# 6 0.0000 0.0000 0.0000 0.0000 0.0000 14.9932
#
#
#
# Elastic Compliance Matrix: (Units=1/GPa)
#
#
# Indices 1 2 3 4 5 6 
#
# 1 0.030011 0.001184 -0.009731 0.000000 0.000000 0.000000
# 2 0.001184 0.014461 -0.003016 0.000000 0.000000 0.000000
# 3 -0.009731 -0.003016 0.010523 0.000000 0.000000 0.000000
# 4 0.000000 0.000000 0.000000 0.044632 0.000000 0.000000
# 5 0.000000 0.000000 0.000000 0.000000 0.028484 0.000000
# 6 0.000000 0.000000 0.000000 0.000000 0.000000 0.066697
#
#
# Mechanical properties :
#
#
# Convention : Reuss Voigt Hill
#
# Bulk Modulus (GPa) = 31.37788 47.09597 39.23693
# Shear Modulus (GPa) = 21.87624 27.11587 24.49606
#
# Velocity S-wave (km/s) = 3.50551 3.90280 3.70948
# Velocity P-wave (km/s) = 5.83188 6.83846 6.35513
#
# Compressibility (1/GPa) = 0.03186958
#
# Stress axis : x y z
#
# Youngs Moduli (GPa) = 33.32071 69.15101 95.02789
#
# Poissons Ratio (x) = -0.08188 0.92474
# Poissons Ratio (y) = -0.03946 0.28660
# Poissons Ratio (z) = 0.32425 0.20856
#
# Static dielectric constant tensor:
#      x y z
#    x 3.011330 0.000000 0.000000 
#    y 0.000000 3.401800 0.000000 
#    z 0.000000 0.000000 3.849310 
# 
# 
# High freq. dielectric constant tensor:
#      x y z
#    x 1.647140 0.000000 0.000000 
#    y 0.000000 1.699310 0.000000 
#    z 0.000000 0.000000 1.699080 
# 
# From -- ./inp_files/28545.got.cif
#   From: 2010.03.12/outbox.cif.g09.slc.cpg/sg57_15_cif.got.tgz:28545.got - 2010.04.16 15:48:40.
