data_PCOD8230288
_publ_section_title
;
Structure prediction by ZEFSAII (Michael W. Deem and Ramdas Pophale) SiO2 
 PCOD8230288
Probable space group: P B C M
;
_chemical_formula_sum "Si O2"
_cell_formula_units_Z 40
_cell_length_a 10.599381
_cell_length_b 13.969406
_cell_length_c 12.270740
_cell_angle_alpha 90.000000
_cell_angle_beta 90.000000
_cell_angle_gamma 90.000000
_cell_volume 1816.892353
_symmetry_space_group_name_H-M "P B C M"
_symmetry_group_IT_number 57
_symmetry_cell_setting 'orthorhombic'
loop_
_space_group_symop_operation_xyz
x,y,z
-x,-y,1/2+z
x,1/2-y,-z
-x,1/2+y,1/2-z
-x,-y,-z
x,y,1/2-z
-x,1/2+y,z
x,1/2-y,1/2+z
loop_
_atom_site_type_symbol
_atom_site_label
_atom_site_fract_x
_atom_site_fract_y
_atom_site_fract_z
Si Si1 0.472833 0.886817 0.126576
Si Si2 0.328788 0.456476 0.987136
Si Si3 0.170764 0.909159 0.620790
Si Si4 0.906268 0.504189 0.379155
Si Si5 0.210578 0.803224 0.376757
O O1 0.521694 0.881201 0.250000
O O2 0.593339 0.870343 0.045666
O O3 0.361406 0.810783 0.106890
O O4 0.418054 0.993096 0.102641
O O5 0.293277 0.532658 0.082838
O O6 0.199573 0.421799 0.927156
O O7 0.172501 0.900331 0.750000
O O8 0.171834 0.800022 0.570774
O O9 0.045588 0.967096 0.580778
O O10 0.899694 0.507459 0.250000
O O11 0.862577 0.398032 0.424642
O O12 0.174334 0.801808 0.250000
#
# Coordination Sequence:
#
# PCOD8230288 Si02
#       5
#     8   8   8   8   8
#     4   9  18  32  50  72 101 134 169 215 261 305
#     4  10  18  30  51  76 102 135 175 212 258 311
#     4  10  19  31  52  79 105 138 178 214 255 315
#     4   9  18  32  50  76 110 140 170 216 263 306
#     4   8  16  32  52  74 102 138 175 214 263 309
#
# _framework density 22.015612999999998
#
# number of rings (size 3 to 8) (size 9 to 14) (size 15 to 20)
#    0.000    2.800    0.000    3.000    0.000    3.200 
#    0.000    0.000    0.000   12.000    0.000   36.400 
#    0.000    0.000    0.000    0.000    0.000    0.000 
#
# Total GULP energy -495772.904480 kJ/mol
# GULP energy per Si atom -12394.322612 kJ/mol
# Density = 2.196550 g / cm^3
# Si number density = 22.015613 Si / 1000 Ang^3
#
#
#
# Elastic Constant Matrix: (Units=GPa)
#
#
# Indices 1 2 3 4 5 6 
#
# 1 114.1397 46.0857 37.1121 0.0000 0.0000 0.0000
# 2 46.0857 79.8449 42.1282 0.0000 0.0000 0.0000
# 3 37.1121 42.1282 67.9173 0.0000 0.0000 0.0000
# 4 0.0000 0.0000 0.0000 32.9873 0.0000 0.0000
# 5 0.0000 0.0000 0.0000 0.0000 48.9304 0.0000
# 6 0.0000 0.0000 0.0000 0.0000 0.0000 25.8078
#
#
#
# Elastic Compliance Matrix: (Units=1/GPa)
#
#
# Indices 1 2 3 4 5 6 
#
# 1 0.011911 -0.005115 -0.003336 0.000000 0.000000 0.000000
# 2 -0.005115 0.020814 -0.010116 0.000000 0.000000 0.000000
# 3 -0.003336 -0.010116 0.022821 0.000000 0.000000 0.000000
# 4 0.000000 0.000000 0.000000 0.030315 0.000000 0.000000
# 5 0.000000 0.000000 0.000000 0.000000 0.020437 0.000000
# 6 0.000000 0.000000 0.000000 0.000000 0.000000 0.038748
#
#
# Mechanical properties :
#
#
# Convention : Reuss Voigt Hill
#
# Bulk Modulus (GPa) = 54.30842 56.95042 55.62942
# Shear Modulus (GPa) = 26.55109 30.65016 28.60063
#
# Velocity S-wave (km/s) = 3.47654 3.73527 3.60822
# Velocity P-wave (km/s) = 6.39036 6.67288 6.53315
#
# Compressibility (1/GPa) = 0.01841335
#
# Stress axis : x y z
#
# Youngs Moduli (GPa) = 83.95569 48.04523 43.81893
#
# Poissons Ratio (x) = 0.24574 0.14618
# Poissons Ratio (y) = 0.42942 0.44325
# Poissons Ratio (z) = 0.28007 0.48600
#
# Static dielectric constant tensor:
#      x y z
#    x 4.097570 0.000000 0.000000 
#    y 0.000000 3.708450 0.000000 
#    z 0.000000 0.000000 4.448980 
# 
# 
# High freq. dielectric constant tensor:
#      x y z
#    x 1.860600 0.000000 0.000000 
#    y 0.000000 1.812000 0.000000 
#    z 0.000000 0.000000 1.929200 
# 
# From -- ./inp_files/17411.got.cif
#   From: 2010.03.12/outbox.cif.g09.slc.cpg/sg57_9_cif.got.tgz:17411.got - 2010.04.16 15:48:40.
