data_PCOD8230605
_publ_section_title
;
Structure prediction by ZEFSAII (Michael W. Deem and Ramdas Pophale) SiO2 
 PCOD8230605
Probable space group: P B C M
;
_chemical_formula_sum "Si O2"
_cell_formula_units_Z 64
_cell_length_a 15.837419
_cell_length_b 8.579708
_cell_length_c 23.622403
_cell_angle_alpha 90.000000
_cell_angle_beta 90.000000
_cell_angle_gamma 90.000000
_cell_volume 3209.822289
_symmetry_space_group_name_H-M "P B C M"
_symmetry_group_IT_number 57
_symmetry_cell_setting 'orthorhombic'
loop_
_space_group_symop_operation_xyz
x,y,z
-x,-y,1/2+z
x,1/2-y,-z
-x,1/2+y,1/2-z
-x,-y,-z
x,y,1/2-z
-x,1/2+y,z
x,1/2-y,1/2+z
loop_
_atom_site_type_symbol
_atom_site_label
_atom_site_fract_x
_atom_site_fract_y
_atom_site_fract_z
Si Si1 0.697308 0.514557 0.313943
Si Si2 0.774643 0.130054 0.579483
Si Si3 0.760854 0.648704 0.685239
Si Si4 0.113344 0.070010 0.903248
Si Si5 0.387989 0.986337 0.634417
Si Si6 0.536083 0.174178 0.684565
Si Si7 0.730306 0.029076 0.037419
Si Si8 0.053080 0.737273 0.566326
O O1 0.731419 0.483878 0.250000
O O2 0.741649 0.399813 0.357936
O O3 0.715427 0.690402 0.333655
O O4 0.597708 0.475933 0.315899
O O5 0.726390 0.026390 0.531216
O O6 0.759492 0.307067 0.562597
O O7 0.876347 0.106261 0.582235
O O8 0.781592 0.650468 0.750000
O O9 0.852097 0.620159 0.657879
O O10 0.697758 0.507676 0.670209
O O11 0.041330 0.191373 0.918792
O O12 0.194710 0.089581 0.944945
O O13 0.072936 0.898884 0.902345
O O14 0.452309 0.122765 0.651611
O O15 0.424370 0.817069 0.649585
O O16 0.360710 0.006291 0.567569
O O17 0.516144 0.222940 0.750000
O O18 0.061024 0.750000 0.500000
#
# Coordination Sequence:
#
# PCOD8230605 Si02
#       8
#     8   8   8   8   8   8   8   8
#     4  10  22  38  61  90 118 157 207 253 301 355
#     4  10  18  38  62  86 119 160 195 245 297 374
#     4  10  22  41  59  82 123 162 203 256 304 362
#     4  10  22  36  56  90 115 156 201 247 310 353
#     4  11  21  38  60  89 121 155 205 248 306 361
#     4  11  21  34  59  91 121 158 203 253 300 351
#     4   9  19  37  60  87 121 158 192 242 312 359
#     4  11  21  36  60  89 120 151 198 251 302 357
#
# _framework density 19.938797999999998
#
# number of rings (size 3 to 8) (size 9 to 14) (size 15 to 20)
#    0.000    1.750    3.750    2.250    1.750    1.000 
#    0.000    3.750    0.000    0.000    0.000    0.000 
#    0.000    0.000    0.000    0.000    0.000    0.000 
#
# Total GULP energy -793168.752775 kJ/mol
# GULP energy per Si atom -12393.261762 kJ/mol
# Density = 1.989342 g / cm^3
# Si number density = 19.938798 Si / 1000 Ang^3
#
#
#
# Elastic Constant Matrix: (Units=GPa)
#
#
# Indices 1 2 3 4 5 6 
#
# 1 99.6149 16.3274 43.6674 0.0000 0.0000 0.0000
# 2 16.3274 46.9910 21.7293 0.0000 0.0000 0.0000
# 3 43.6674 21.7293 89.8541 0.0000 0.0000 0.0000
# 4 0.0000 0.0000 0.0000 24.6460 0.0000 0.0000
# 5 0.0000 0.0000 0.0000 0.0000 30.0259 0.0000
# 6 0.0000 0.0000 0.0000 0.0000 0.0000 -31.2761
#
#
#
# Elastic Compliance Matrix: (Units=1/GPa)
#
#
# Indices 1 2 3 4 5 6 
#
# 1 0.012887 -0.001781 -0.005832 0.000000 0.000000 0.000000
# 2 -0.001781 0.024206 -0.004988 0.000000 0.000000 0.000000
# 3 -0.005832 -0.004988 0.015170 0.000000 0.000000 0.000000
# 4 0.000000 0.000000 0.000000 0.040575 0.000000 0.000000
# 5 0.000000 0.000000 0.000000 0.000000 0.033305 0.000000
# 6 0.000000 0.000000 0.000000 0.000000 0.000000 -0.031973
#
#
# Mechanical properties :
#
#
# Convention : Reuss Voigt Hill
#
# Bulk Modulus (GPa) = 36.95445 44.43424 40.69435
# Shear Modulus (GPa) = 38.94330 14.99488 26.96909
#
# Velocity S-wave (km/s) = 4.42423 2.74532 3.68175
# Velocity P-wave (km/s) = 6.68376 5.69058 6.20707
#
# Compressibility (1/GPa) = 0.02706034
#
# Stress axis : x y z
#
# Youngs Moduli (GPa) = 77.59639 41.31195 65.92036
#
# Poissons Ratio (x) = 0.07357 0.38447
# Poissons Ratio (y) = 0.13819 0.32883
# Poissons Ratio (z) = 0.45256 0.20607
#
# Static dielectric constant tensor:
#      x y z
#    x 4.252890 0.000000 0.000000 
#    y 0.000000 3.630170 0.000000 
#    z 0.000000 0.000000 3.684590 
# 
# 
# High freq. dielectric constant tensor:
#      x y z
#    x 1.777930 0.000000 0.000000 
#    y 0.000000 1.771270 0.000000 
#    z 0.000000 0.000000 1.767470 
# 
# From -- ./inp_files/27493.got.cif
#   From: 2010.03.12/outbox.cif.g09.slc.cpg/sg57_14_cif.got.tgz:27493.got - 2010.04.16 15:48:40.
