data_PCOD8230587
_publ_section_title
;
Structure prediction by ZEFSAII (Michael W. Deem and Ramdas Pophale) SiO2 
 PCOD8230587
Probable space group: P B C M
;
_chemical_formula_sum "Si O2"
_cell_formula_units_Z 60
_cell_length_a 9.524753
_cell_length_b 13.180285
_cell_length_c 23.981277
_cell_angle_alpha 90.000000
_cell_angle_beta 90.000000
_cell_angle_gamma 90.000000
_cell_volume 3010.584552
_symmetry_space_group_name_H-M "P B C M"
_symmetry_group_IT_number 57
_symmetry_cell_setting 'orthorhombic'
loop_
_space_group_symop_operation_xyz
x,y,z
-x,-y,1/2+z
x,1/2-y,-z
-x,1/2+y,1/2-z
-x,-y,-z
x,y,1/2-z
-x,1/2+y,z
x,1/2-y,1/2+z
loop_
_atom_site_type_symbol
_atom_site_label
_atom_site_fract_x
_atom_site_fract_y
_atom_site_fract_z
Si Si1 0.276482 0.933527 0.315972
Si Si2 0.026959 0.067210 0.870451
Si Si3 0.662781 0.240743 0.120108
Si Si4 0.438578 0.363344 0.813566
Si Si5 0.705261 0.250000 0.000000
Si Si6 0.038126 0.616031 0.510978
Si Si7 0.031298 0.661242 0.106705
Si Si8 0.178324 0.234862 0.813827
O O1 0.276998 0.913942 0.250000
O O2 0.363818 0.844729 0.346367
O O3 0.117534 0.937989 0.336929
O O4 0.352927 0.037766 0.332405
O O5 0.147862 0.119577 0.833016
O O6 0.013199 0.139889 0.925826
O O7 0.076063 0.956175 0.887549
O O8 0.577215 0.150171 0.149334
O O9 0.829627 0.223873 0.120690
O O10 0.609969 0.244457 0.055647
O O11 0.487530 0.374697 0.750000
O O12 0.340970 0.263591 0.821742
O O13 0.796985 0.145887 0.993123
O O14 0.975751 0.680111 0.457780
O O15 0.000000 0.500000 0.500000
O O16 0.913202 0.686401 0.150929
O O17 0.132952 0.249428 0.750000
#
# Coordination Sequence:
#
# PCOD8230587 Si02
#       8
#     8   8   8   8   4   8   8   8
#     4  11  21  37  63  85 113 157 197 240 300 359
#     4  11  19  35  60  90 116 149 197 244 293 350
#     4  11  22  40  62  87 121 157 202 241 299 359
#     4  10  24  42  58  82 121 159 196 245 300 356
#     4  10  18  36  60  88 120 162 196 250 288 352
#     4   9  18  33  56  88 118 149 186 240 293 342
#     4  10  21  35  61  87 115 151 197 240 290 353
#     4  11  22  36  56  86 118 150 194 251 297 344
#
# _framework density 19.929684000000002
#
# number of rings (size 3 to 8) (size 9 to 14) (size 15 to 20)
#    0.000    1.600    4.000    1.600    0.000    2.133 
#    0.000    3.333    0.000    0.000    0.000    0.000 
#    0.000    0.000    0.000    0.000    0.000    0.000 
#
# Total GULP energy -743569.931301 kJ/mol
# GULP energy per Si atom -12392.832188 kJ/mol
# Density = 1.988432 g / cm^3
# Si number density = 19.929684 Si / 1000 Ang^3
#
#
#
# Elastic Constant Matrix: (Units=GPa)
#
#
# Indices 1 2 3 4 5 6 
#
# 1 44.9236 21.8432 35.1240 0.0000 0.0000 0.0000
# 2 21.8432 66.3944 31.7897 0.0000 0.0000 0.0000
# 3 35.1240 31.7897 146.3033 0.0000 0.0000 0.0000
# 4 0.0000 0.0000 0.0000 31.3514 0.0000 0.0000
# 5 0.0000 0.0000 0.0000 0.0000 25.9531 0.0000
# 6 0.0000 0.0000 0.0000 0.0000 0.0000 28.0148
#
#
#
# Elastic Compliance Matrix: (Units=1/GPa)
#
#
# Indices 1 2 3 4 5 6 
#
# 1 0.030215 -0.007218 -0.005685 0.000000 0.000000 0.000000
# 2 -0.007218 0.018535 -0.002294 0.000000 0.000000 0.000000
# 3 -0.005685 -0.002294 0.008699 0.000000 0.000000 0.000000
# 4 0.000000 0.000000 0.000000 0.031896 0.000000 0.000000
# 5 0.000000 0.000000 0.000000 0.000000 0.038531 0.000000
# 6 0.000000 0.000000 0.000000 0.000000 0.000000 0.035695
#
#
# Mechanical properties :
#
#
# Convention : Reuss Voigt Hill
#
# Bulk Modulus (GPa) = 36.96568 48.34834 42.65701
# Shear Modulus (GPa) = 24.63234 28.32148 26.47691
#
# Velocity S-wave (km/s) = 3.51944 3.77380 3.64884
# Velocity P-wave (km/s) = 5.92483 6.58034 6.26117
#
# Compressibility (1/GPa) = 0.02705212
#
# Stress axis : x y z
#
# Youngs Moduli (GPa) = 33.09613 53.95249 114.96073
#
# Poissons Ratio (x) = 0.38944 0.65361
# Poissons Ratio (y) = 0.23890 0.26377
# Poissons Ratio (z) = 0.18817 0.12379
#
# Static dielectric constant tensor:
#      x y z
#    x 3.161780 0.000000 0.000000 
#    y 0.000000 3.895520 0.000000 
#    z 0.000000 0.000000 4.139040 
# 
# 
# High freq. dielectric constant tensor:
#      x y z
#    x 1.730000 0.000000 0.000000 
#    y 0.000000 1.793230 0.000000 
#    z 0.000000 0.000000 1.803150 
# 
# From -- ./inp_files/26854.got.cif
#   From: 2010.03.12/outbox.cif.g09.slc.cpg/sg57_14_cif.got.tgz:26854.got - 2010.04.16 15:48:40.
