data_PCOD8230132
_publ_section_title
;
Structure prediction by ZEFSAII (Michael W. Deem and Ramdas Pophale) SiO2 
 PCOD8230132
Probable space group: P B C M
;
_chemical_formula_sum "Si O2"
_cell_formula_units_Z 64
_cell_length_a 16.944141
_cell_length_b 26.202091
_cell_length_c 9.116364
_cell_angle_alpha 90.000000
_cell_angle_beta 90.000000
_cell_angle_gamma 90.000000
_cell_volume 4047.409669
_symmetry_space_group_name_H-M "P B C M"
_symmetry_group_IT_number 57
_symmetry_cell_setting 'orthorhombic'
loop_
_space_group_symop_operation_xyz
x,y,z
-x,-y,1/2+z
x,1/2-y,-z
-x,1/2+y,1/2-z
-x,-y,-z
x,y,1/2-z
-x,1/2+y,z
x,1/2-y,1/2+z
loop_
_atom_site_type_symbol
_atom_site_label
_atom_site_fract_x
_atom_site_fract_y
_atom_site_fract_z
Si Si1 0.326186 0.936086 0.920550
Si Si2 0.599033 0.696913 0.075536
Si Si3 0.403657 0.039492 0.584537
Si Si4 0.980093 0.051607 0.080838
Si Si5 0.152228 0.427461 0.917220
Si Si6 0.719087 0.630064 0.582757
Si Si7 0.514576 0.392122 0.918634
Si Si8 0.170815 0.953982 0.422644
O O1 0.301687 0.940843 0.750000
O O2 0.390568 0.890680 0.944621
O O3 0.367019 0.987746 0.978766
O O4 0.249051 0.926041 0.017610
O O5 0.605300 0.703237 0.250000
O O6 0.526982 0.659721 0.026303
O O7 0.578665 0.750000 0.000000
O O8 0.681941 0.675827 0.012970
O O9 0.431872 0.030782 0.750000
O O10 0.336683 0.081699 0.571994
O O11 0.479998 0.057300 0.494986
O O12 0.959502 0.040782 0.250000
O O13 0.058944 0.086127 0.068236
O O14 0.903303 0.074917 0.999884
O O15 0.000000 0.000000 0.000000
O O16 0.180774 0.420508 0.750000
O O17 0.170323 0.485973 0.965684
O O18 0.196566 0.386650 0.018483
O O19 0.729943 0.648777 0.750000
O O20 0.494117 0.399731 0.750000
O O21 0.163961 0.945939 0.250000
#
# Coordination Sequence:
#
# PCOD8230132 Si02
#       8
#     8   8   8   8   8   8   8   8
#     4  10  18  29  42  60  87 118 150 185 223 262
#     4  10  20  35  51  67  88 114 145 185 229 275
#     4   9  17  27  40  60  86 115 147 179 216 260
#     4   9  17  28  41  58  83 117 155 190 222 255
#     4   9  17  28  41  60  86 116 151 186 218 256
#     4  10  18  28  45  68  89 115 148 183 222 264
#     4   9  19  31  45  63  84 112 146 183 225 269
#     4  10  19  28  40  60  86 121 158 189 223 257
#
# _framework density 15.812583
#
# number of rings (size 3 to 8) (size 9 to 14) (size 15 to 20)
#    0.000    2.500    1.250    2.625    0.000    4.500 
#    0.000    0.000    0.000    0.000    0.000    0.000 
#    0.000    1.000    0.000    6.750    0.000    4.875 
#
# Total GULP energy -793328.948807 kJ/mol
# GULP energy per Si atom -12395.764825 kJ/mol
# Density = 1.577659 g / cm^3
# Si number density = 15.812583 Si / 1000 Ang^3
#
#
#
# Elastic Constant Matrix: (Units=GPa)
#
#
# Indices 1 2 3 4 5 6 
#
# 1 112.7609 23.2926 51.7115 0.0000 0.0000 0.0000
# 2 23.2926 42.1159 22.6049 0.0000 0.0000 0.0000
# 3 51.7115 22.6049 82.8875 0.0000 0.0000 0.0000
# 4 0.0000 0.0000 0.0000 17.8648 0.0000 0.0000
# 5 0.0000 0.0000 0.0000 0.0000 29.9577 0.0000
# 6 0.0000 0.0000 0.0000 0.0000 0.0000 12.9580
#
#
#
# Elastic Compliance Matrix: (Units=1/GPa)
#
#
# Indices 1 2 3 4 5 6 
#
# 1 0.012796 -0.003271 -0.007091 0.000000 0.000000 0.000000
# 2 -0.003271 0.028652 -0.005773 0.000000 0.000000 0.000000
# 3 -0.007091 -0.005773 0.018063 0.000000 0.000000 0.000000
# 4 0.000000 0.000000 0.000000 0.055976 0.000000 0.000000
# 5 0.000000 0.000000 0.000000 0.000000 0.033380 0.000000
# 6 0.000000 0.000000 0.000000 0.000000 0.000000 0.077172
#
#
# Mechanical properties :
#
#
# Convention : Reuss Voigt Hill
#
# Bulk Modulus (GPa) = 36.71038 48.10914 42.40976
# Shear Modulus (GPa) = 18.69933 21.49980 20.09956
#
# Velocity S-wave (km/s) = 3.44257 3.69136 3.56913
# Velocity P-wave (km/s) = 6.25044 6.97559 6.62295
#
# Compressibility (1/GPa) = 0.02724025
#
# Stress axis : x y z
#
# Youngs Moduli (GPa) = 78.15024 34.90197 55.36213
#
# Poissons Ratio (x) = 0.11416 0.39257
# Poissons Ratio (y) = 0.25562 0.31962
# Poissons Ratio (z) = 0.55416 0.20150
#
# Static dielectric constant tensor:
#      x y z
#    x 3.057540 0.000000 0.000000 
#    y 0.000000 2.635130 0.000000 
#    z 0.000000 0.000000 3.120490 
# 
# 
# High freq. dielectric constant tensor:
#      x y z
#    x 1.612340 0.000000 0.000000 
#    y 0.000000 1.545070 0.000000 
#    z 0.000000 0.000000 1.618480 
# 
# From -- ./inp_files/7457.got.cif
#   From: 2010.03.12/outbox.cif.g09.slc.cpg/sg57_4_cif.got.tgz:7457.got - 2010.04.16 15:48:40.
