data_PCOD8230783
_publ_section_title
;
Structure prediction by ZEFSAII (Michael W. Deem and Ramdas Pophale) SiO2 
 PCOD8230783
Probable space group: P B C M
;
_chemical_formula_sum "Si O2"
_cell_formula_units_Z 64
_cell_length_a 16.552166
_cell_length_b 21.490731
_cell_length_c 8.913651
_cell_angle_alpha 90.000000
_cell_angle_beta 90.000000
_cell_angle_gamma 90.000000
_cell_volume 3170.747416
_symmetry_space_group_name_H-M "P B C M"
_symmetry_group_IT_number 57
_symmetry_cell_setting 'orthorhombic'
loop_
_space_group_symop_operation_xyz
x,y,z
-x,-y,1/2+z
x,1/2-y,-z
-x,1/2+y,1/2-z
-x,-y,-z
x,y,1/2-z
-x,1/2+y,z
x,1/2-y,1/2+z
loop_
_atom_site_type_symbol
_atom_site_label
_atom_site_fract_x
_atom_site_fract_y
_atom_site_fract_z
Si Si1 0.954235 0.091351 0.083500
Si Si2 0.623281 0.812850 0.576880
Si Si3 0.301842 0.879849 0.426260
Si Si4 0.073646 0.184456 0.928053
Si Si5 0.442173 0.683748 0.427661
Si Si6 0.175144 0.516965 0.926187
Si Si7 0.783242 0.622394 0.075233
Si Si8 0.176650 0.694905 0.086109
O O1 0.987601 0.072592 0.250000
O O2 0.881265 0.137773 0.104771
O O3 0.023329 0.124953 0.987726
O O4 0.912546 0.032506 0.000361
O O5 0.652843 0.750000 0.500000
O O6 0.620194 0.796747 0.750000
O O7 0.533997 0.833650 0.524270
O O8 0.688415 0.866726 0.541849
O O9 0.316107 0.880160 0.250000
O O10 0.388308 0.873293 0.508030
O O11 0.250889 0.940491 0.479537
O O12 0.252074 0.819571 0.478642
O O13 0.064249 0.189518 0.750000
O O14 0.045053 0.250000 0.000000
O O15 0.165677 0.171017 0.976115
O O16 0.417963 0.750000 0.500000
O O17 0.430686 0.688049 0.250000
O O18 0.163516 0.525954 0.750000
O O19 0.196428 0.447422 0.974068
O O20 0.803759 0.633731 0.250000
O O21 0.207461 0.715966 0.250000
O O22 0.128974 0.750000 0.000000
#
# Coordination Sequence:
#
# PCOD8230783 Si02
#       8
#     8   8   8   8   8   8   8   8
#     4  10  21  37  57  81 111 146 184 226 271 322
#     4   9  19  35  57  82 109 141 178 225 280 333
#     4  10  19  32  50  74 105 142 182 222 266 320
#     4  12  25  40  60  87 116 145 180 225 278 332
#     4  10  19  32  51  78 110 143 180 225 277 330
#     4   9  20  38  59  81 110 149 189 228 271 324
#     4  10  21  40  62  83 109 144 187 232 278 328
#     4  10  19  30  47  72 102 138 177 219 267 318
#
# _framework density 20.184515000000001
#
# number of rings (size 3 to 8) (size 9 to 14) (size 15 to 20)
#    0.000    2.000    0.000    3.750    0.000    6.000 
#    0.000    0.625    0.000    0.000    0.000    0.000 
#    0.000    0.000    0.000    0.000    0.000    0.000 
#
# Total GULP energy -793354.985968 kJ/mol
# GULP energy per Si atom -12396.171656 kJ/mol
# Density = 2.013857 g / cm^3
# Si number density = 20.184515 Si / 1000 Ang^3
#
#
#
# Elastic Constant Matrix: (Units=GPa)
#
#
# Indices 1 2 3 4 5 6 
#
# 1 99.2276 21.1547 32.2377 0.0000 0.0000 0.0000
# 2 21.1547 56.3128 25.3617 0.0000 0.0000 0.0000
# 3 32.2377 25.3617 91.5102 0.0000 0.0000 0.0000
# 4 0.0000 0.0000 0.0000 25.0492 0.0000 0.0000
# 5 0.0000 0.0000 0.0000 0.0000 28.9807 0.0000
# 6 0.0000 0.0000 0.0000 0.0000 0.0000 25.8900
#
#
#
# Elastic Compliance Matrix: (Units=1/GPa)
#
#
# Indices 1 2 3 4 5 6 
#
# 1 0.011787 -0.002923 -0.003342 0.000000 0.000000 0.000000
# 2 -0.002923 0.021015 -0.004795 0.000000 0.000000 0.000000
# 3 -0.003342 -0.004795 0.013434 0.000000 0.000000 0.000000
# 4 0.000000 0.000000 0.000000 0.039921 0.000000 0.000000
# 5 0.000000 0.000000 0.000000 0.000000 0.034506 0.000000
# 6 0.000000 0.000000 0.000000 0.000000 0.000000 0.038625
#
#
# Mechanical properties :
#
#
# Convention : Reuss Voigt Hill
#
# Bulk Modulus (GPa) = 41.46481 44.95098 43.20789
# Shear Modulus (GPa) = 26.39269 27.20375 26.79822
#
# Velocity S-wave (km/s) = 3.61996 3.67516 3.64766
# Velocity P-wave (km/s) = 6.16925 6.35039 6.26047
#
# Compressibility (1/GPa) = 0.02411684
#
# Stress axis : x y z
#
# Youngs Moduli (GPa) = 84.84071 47.58449 74.43781
#
# Poissons Ratio (x) = 0.13907 0.24880
# Poissons Ratio (y) = 0.24795 0.35691
# Poissons Ratio (z) = 0.28357 0.22815
#
# Static dielectric constant tensor:
#      x y z
#    x 3.862860 0.000000 0.000000 
#    y 0.000000 3.648370 0.000000 
#    z 0.000000 0.000000 2.879430 
# 
# 
# High freq. dielectric constant tensor:
#      x y z
#    x 1.792730 0.000000 0.000000 
#    y 0.000000 1.772600 0.000000 
#    z 0.000000 0.000000 1.791290 
# 
# From -- ./inp_files/7287.got.cif
#   From: 2010.03.12/outbox.cif.g09.slc.cpg/sg57_4_cif.got.tgz:7287.got - 2010.04.16 15:48:40.
