data_PCOD8230467
_publ_section_title
;
Structure prediction by ZEFSAII (Michael W. Deem and Ramdas Pophale) SiO2 
 PCOD8230467
Probable space group: P B C M
;
_chemical_formula_sum "Si O2"
_cell_formula_units_Z 64
_cell_length_a 11.561030
_cell_length_b 21.722589
_cell_length_c 13.983552
_cell_angle_alpha 90.000000
_cell_angle_beta 90.000000
_cell_angle_gamma 90.000000
_cell_volume 3511.766367
_symmetry_space_group_name_H-M "P B C M"
_symmetry_group_IT_number 57
_symmetry_cell_setting 'orthorhombic'
loop_
_space_group_symop_operation_xyz
x,y,z
-x,-y,1/2+z
x,1/2-y,-z
-x,1/2+y,1/2-z
-x,-y,-z
x,y,1/2-z
-x,1/2+y,z
x,1/2-y,1/2+z
loop_
_atom_site_type_symbol
_atom_site_label
_atom_site_fract_x
_atom_site_fract_y
_atom_site_fract_z
Si Si1 0.823831 0.347715 0.011487
Si Si2 0.080541 0.177339 0.504214
Si Si3 0.733247 0.251261 0.858948
Si Si4 0.739242 0.654296 0.138776
Si Si5 0.629370 0.434746 0.018157
Si Si6 0.528970 0.171132 0.857450
Si Si7 0.727204 0.707882 0.641395
Si Si8 0.441346 0.048980 0.364255
O O1 0.794487 0.312587 0.110213
O O2 0.762905 0.414624 0.002621
O O3 0.960798 0.359086 0.014271
O O4 0.777072 0.307495 0.922484
O O5 0.050145 0.250000 0.500000
O O6 0.138147 0.143336 0.412984
O O7 0.172112 0.169106 0.590046
O O8 0.765887 0.266890 0.750000
O O9 0.594906 0.237312 0.871019
O O10 0.763695 0.649297 0.250000
O O11 0.706786 0.722906 0.102106
O O12 0.635397 0.608724 0.110551
O O13 0.567504 0.376678 0.064139
O O14 0.627554 0.491516 0.091305
O O15 0.566253 0.448079 0.916638
O O16 0.556581 0.147492 0.750000
O O17 0.392933 0.174213 0.872352
O O18 0.767251 0.712029 0.750000
O O19 0.460318 0.041485 0.250000
#
# Coordination Sequence:
#
# PCOD8230467 Si02
#       8
#     8   8   8   8   8   8   8   8
#     4  10  20  34  48  78 108 140 179 205 254 324
#     4  10  18  33  49  73 109 141 171 209 255 305
#     4   9  18  31  49  74 108 142 166 204 255 313
#     4   9  19  33  51  73  99 136 179 219 257 301
#     4  10  21  35  55  78 105 139 172 218 272 317
#     4   9  17  31  52  80 109 135 167 209 264 320
#     4   9  18  30  49  78 106 135 172 212 258 310
#     4  10  21  38  56  76 101 134 181 226 268 316
#
# _framework density 18.224447999999999
#
# number of rings (size 3 to 8) (size 9 to 14) (size 15 to 20)
#    0.000    2.500    1.250    1.125    1.750    2.000 
#    4.500    0.625    0.000    0.000    0.000    3.500 
#    0.000    0.000    0.000    0.000    0.000    0.000 
#
# Total GULP energy -793065.130586 kJ/mol
# GULP energy per Si atom -12391.642665 kJ/mol
# Density = 1.818297 g / cm^3
# Si number density = 18.224448 Si / 1000 Ang^3
#
#
#
# Elastic Constant Matrix: (Units=GPa)
#
#
# Indices 1 2 3 4 5 6 
#
# 1 105.3508 18.6256 42.9023 0.0000 0.0000 0.0000
# 2 18.6256 51.7296 30.8614 0.0000 0.0000 0.0000
# 3 42.9023 30.8614 86.5118 0.0000 0.0000 0.0000
# 4 0.0000 0.0000 0.0000 21.3328 0.0000 0.0000
# 5 0.0000 0.0000 0.0000 0.0000 19.4260 0.0000
# 6 0.0000 0.0000 0.0000 0.0000 0.0000 20.8083
#
#
#
# Elastic Compliance Matrix: (Units=1/GPa)
#
#
# Indices 1 2 3 4 5 6 
#
# 1 0.011933 -0.000973 -0.005570 0.000000 0.000000 0.000000
# 2 -0.000973 0.024637 -0.008306 0.000000 0.000000 0.000000
# 3 -0.005570 -0.008306 0.017285 0.000000 0.000000 0.000000
# 4 0.000000 0.000000 0.000000 0.046876 0.000000 0.000000
# 5 0.000000 0.000000 0.000000 0.000000 0.051478 0.000000
# 6 0.000000 0.000000 0.000000 0.000000 0.000000 0.048058
#
#
# Mechanical properties :
#
#
# Convention : Reuss Voigt Hill
#
# Bulk Modulus (GPa) = 41.39960 47.59675 44.49817
# Shear Modulus (GPa) = 21.00692 22.39361 21.70027
#
# Velocity S-wave (km/s) = 3.39879 3.50918 3.45443
# Velocity P-wave (km/s) = 6.17805 6.52632 6.35457
#
# Compressibility (1/GPa) = 0.02415482
#
# Stress axis : x y z
#
# Youngs Moduli (GPa) = 83.80416 40.58917 57.85499
#
# Poissons Ratio (x) = 0.03950 0.32227
# Poissons Ratio (y) = 0.08156 0.48056
# Poissons Ratio (z) = 0.46682 0.33714
#
# Static dielectric constant tensor:
#      x y z
#    x 3.444230 0.000000 0.000000 
#    y 0.000000 3.192770 0.000000 
#    z 0.000000 0.000000 3.519990 
# 
# 
# High freq. dielectric constant tensor:
#      x y z
#    x 1.701780 0.000000 0.000000 
#    y 0.000000 1.670650 0.000000 
#    z 0.000000 0.000000 1.718240 
# 
# From -- ./inp_files/17953.got.cif
#   From: 2010.03.12/outbox.cif.g09.slc.cpg/sg57_9_cif.got.tgz:17953.got - 2010.04.16 15:48:40.
