data_PCOD8230418
_publ_section_title
;
Structure prediction by ZEFSAII (Michael W. Deem and Ramdas Pophale) SiO2 
 PCOD8230418
Probable space group: P B C M
;
_chemical_formula_sum "Si O2"
_cell_formula_units_Z 64
_cell_length_a 12.517008
_cell_length_b 28.320693
_cell_length_c 9.053069
_cell_angle_alpha 90.000000
_cell_angle_beta 90.000000
_cell_angle_gamma 90.000000
_cell_volume 3209.225516
_symmetry_space_group_name_H-M "P B C M"
_symmetry_group_IT_number 57
_symmetry_cell_setting 'orthorhombic'
loop_
_space_group_symop_operation_xyz
x,y,z
-x,-y,1/2+z
x,1/2-y,-z
-x,1/2+y,1/2-z
-x,-y,-z
x,y,1/2-z
-x,1/2+y,z
x,1/2-y,1/2+z
loop_
_atom_site_type_symbol
_atom_site_label
_atom_site_fract_x
_atom_site_fract_y
_atom_site_fract_z
Si Si1 0.673726 0.361492 0.580819
Si Si2 0.013690 0.935633 0.081482
Si Si3 0.199508 0.452105 0.925685
Si Si4 0.052922 0.327715 0.414215
Si Si5 0.172697 0.704277 0.576734
Si Si6 0.232425 0.958310 0.578296
Si Si7 0.472051 0.199954 0.075670
Si Si8 0.255850 0.152476 0.075988
O O1 0.699229 0.348329 0.750000
O O2 0.767747 0.341890 0.479398
O O3 0.675351 0.418310 0.559601
O O4 0.561473 0.338639 0.532528
O O5 0.023009 0.955021 0.250000
O O6 0.982995 0.881368 0.083816
O O7 0.124017 0.940208 0.995966
O O8 0.919242 0.962194 0.991584
O O9 0.195494 0.455397 0.750000
O O10 0.248487 0.402004 0.978291
O O11 0.272141 0.494033 0.994723
O O12 0.087488 0.312525 0.250000
O O13 0.153536 0.318251 0.519762
O O14 0.951873 0.297468 0.468800
O O15 0.224934 0.750000 0.500000
O O16 0.188573 0.707796 0.750000
O O17 0.211975 0.969228 0.750000
O O18 0.467294 0.208425 0.250000
O O19 0.361853 0.177684 0.014339
O O20 0.496214 0.250000 0.000000
O O21 0.255320 0.153828 0.250000
#
# Coordination Sequence:
#
# PCOD8230418 Si02
#       8
#     8   8   8   8   8   8   8   8
#     4  10  22  39  59  82 112 148 188 234 283 337
#     4  10  18  32  52  77 111 150 189 230 270 322
#     4  10  20  34  53  80 112 151 191 229 275 331
#     4   9  19  34  53  79 112 146 181 226 277 330
#     4  11  22  36  54  80 113 147 183 228 284 343
#     4  11  21  33  52  80 113 151 189 229 278 333
#     4  10  22  42  64  87 110 141 187 238 288 337
#     4   9  20  38  60  82 111 147 187 233 281 335
#
# _framework density 19.942506999999999
#
# number of rings (size 3 to 8) (size 9 to 14) (size 15 to 20)
#    0.000    2.000    1.250    2.250    0.000    5.000 
#    0.000    3.125    0.000    0.000    0.000    0.000 
#    0.000    0.000    0.000    0.000    0.000    0.000 
#
# Total GULP energy -793511.114971 kJ/mol
# GULP energy per Si atom -12398.611171 kJ/mol
# Density = 1.989712 g / cm^3
# Si number density = 19.942507 Si / 1000 Ang^3
#
#
#
# Elastic Constant Matrix: (Units=GPa)
#
#
# Indices 1 2 3 4 5 6 
#
# 1 70.7574 31.9846 33.5711 0.0000 0.0000 0.0000
# 2 31.9846 55.7218 24.5250 0.0000 0.0000 0.0000
# 3 33.5711 24.5250 71.1760 0.0000 0.0000 0.0000
# 4 0.0000 0.0000 0.0000 28.0048 0.0000 0.0000
# 5 0.0000 0.0000 0.0000 0.0000 19.8382 0.0000
# 6 0.0000 0.0000 0.0000 0.0000 0.0000 27.2316
#
#
#
# Elastic Compliance Matrix: (Units=1/GPa)
#
#
# Indices 1 2 3 4 5 6 
#
# 1 0.021690 -0.009368 -0.007002 0.000000 0.000000 0.000000
# 2 -0.009368 0.025201 -0.004265 0.000000 0.000000 0.000000
# 3 -0.007002 -0.004265 0.018822 0.000000 0.000000 0.000000
# 4 0.000000 0.000000 0.000000 0.035708 0.000000 0.000000
# 5 0.000000 0.000000 0.000000 0.000000 0.050408 0.000000
# 6 0.000000 0.000000 0.000000 0.000000 0.000000 0.036722
#
#
# Mechanical properties :
#
#
# Convention : Reuss Voigt Hill
#
# Bulk Modulus (GPa) = 40.91318 41.97964 41.44641
# Shear Modulus (GPa) = 21.01122 22.18655 21.59888
#
# Velocity S-wave (km/s) = 3.24943 3.33907 3.29455
# Velocity P-wave (km/s) = 5.88544 5.99682 5.94140
#
# Compressibility (1/GPa) = 0.02444200
#
# Stress axis : x y z
#
# Youngs Moduli (GPa) = 46.10475 39.68141 53.12960
#
# Poissons Ratio (x) = 0.37174 0.37203
# Poissons Ratio (y) = 0.43191 0.22659
# Poissons Ratio (z) = 0.32284 0.16923
#
# Static dielectric constant tensor:
#      x y z
#    x 3.580740 0.000000 0.000000 
#    y 0.000000 3.855490 0.000000 
#    z 0.000000 0.000000 3.628980 
# 
# 
# High freq. dielectric constant tensor:
#      x y z
#    x 1.753560 0.000000 0.000000 
#    y 0.000000 1.789590 0.000000 
#    z 0.000000 0.000000 1.777820 
# 
# From -- ./inp_files/3856.got.cif
#   From: 2010.03.12/outbox.cif.g09.slc.cpg/sg57_2_cif.got.tgz:3856.got - 2010.04.16 15:48:40.
