data_PCOD8230433
_publ_section_title
;
Structure prediction by ZEFSAII (Michael W. Deem and Ramdas Pophale) SiO2 
 PCOD8230433
Probable space group: P B C M
;
_chemical_formula_sum "Si O2"
_cell_formula_units_Z 48
_cell_length_a 30.707571
_cell_length_b 9.478723
_cell_length_c 8.412509
_cell_angle_alpha 90.000000
_cell_angle_beta 90.000000
_cell_angle_gamma 90.000000
_cell_volume 2448.616877
_symmetry_space_group_name_H-M "P B C M"
_symmetry_group_IT_number 57
_symmetry_cell_setting 'orthorhombic'
loop_
_space_group_symop_operation_xyz
x,y,z
-x,-y,1/2+z
x,1/2-y,-z
-x,1/2+y,1/2-z
-x,-y,-z
x,y,1/2-z
-x,1/2+y,z
x,1/2-y,1/2+z
loop_
_atom_site_type_symbol
_atom_site_label
_atom_site_fract_x
_atom_site_fract_y
_atom_site_fract_z
Si Si1 0.129035 0.091892 0.061859
Si Si2 0.039367 0.092175 0.938320
Si Si3 0.539143 0.592918 0.436028
Si Si4 0.292352 0.898561 0.435891
Si Si5 0.613437 0.096223 0.063810
Si Si6 0.781720 0.908255 0.062931
O O1 0.134431 0.086469 0.250000
O O2 0.125619 0.250000 0.000000
O O3 0.083851 0.020096 0.006477
O O4 0.171645 0.020215 0.981298
O O5 0.041367 0.092611 0.750000
O O6 0.032780 0.250000 0.000000
O O7 0.000000 0.000000 0.000000
O O8 0.535893 0.750000 0.500000
O O9 0.500000 0.500000 0.500000
O O10 0.535104 0.600111 0.250000
O O11 0.584936 0.524489 0.483242
O O12 0.274291 0.750000 0.500000
O O13 0.302485 0.887508 0.250000
O O14 0.336577 0.939120 0.525963
O O15 0.256514 0.015196 0.469551
O O16 0.605120 0.093040 0.250000
O O17 0.599961 0.250000 0.000000
O O18 0.773321 0.915592 0.250000
O O19 0.782351 0.750000 0.000000
#
# Coordination Sequence:
#
# PCOD8230433 Si02
#       6
#     8   8   8   8   8   8
#     4  10  18  32  53  79 108 144 184 228 277 333
#     4  11  21  36  56  81 110 145 184 229 279 335
#     4  12  25  43  64  91 122 157 196 241 289 341
#     4  11  22  39  60  86 117 154 192 234 285 342
#     4  11  22  40  63  89 118 155 195 237 284 339
#     4  11  21  36  57  84 113 147 188 235 281 332
#
# _framework density 19.602903000000001
#
# number of rings (size 3 to 8) (size 9 to 14) (size 15 to 20)
#    0.000    1.000    0.000   12.500    0.000    0.667 
#    0.000    4.167    0.000    0.000    0.000    0.000 
#    0.000    0.000    0.000    0.000    0.000    0.000 
#
# Total GULP energy -595302.145847 kJ/mol
# GULP energy per Si atom -12402.128038 kJ/mol
# Density = 1.955829 g / cm^3
# Si number density = 19.602903 Si / 1000 Ang^3
#
#
#
# Elastic Constant Matrix: (Units=GPa)
#
#
# Indices 1 2 3 4 5 6 
#
# 1 123.4045 66.0051 24.8402 0.0000 0.0000 0.0000
# 2 66.0051 94.7818 31.2568 0.0000 0.0000 0.0000
# 3 24.8402 31.2568 145.8284 0.0000 0.0000 0.0000
# 4 0.0000 0.0000 0.0000 32.7075 0.0000 0.0000
# 5 0.0000 0.0000 0.0000 0.0000 40.0520 0.0000
# 6 0.0000 0.0000 0.0000 0.0000 0.0000 -2.1546
#
#
#
# Elastic Compliance Matrix: (Units=1/GPa)
#
#
# Indices 1 2 3 4 5 6 
#
# 1 0.012925 -0.008904 -0.000293 0.000000 0.000000 0.000000
# 2 -0.008904 0.017487 -0.002231 0.000000 0.000000 0.000000
# 3 -0.000293 -0.002231 0.007386 0.000000 0.000000 0.000000
# 4 0.000000 0.000000 0.000000 0.030574 0.000000 0.000000
# 5 0.000000 0.000000 0.000000 0.000000 0.024968 0.000000
# 6 0.000000 0.000000 0.000000 0.000000 0.000000 -0.464117
#
#
# Mechanical properties :
#
#
# Convention : Reuss Voigt Hill
#
# Bulk Modulus (GPa) = 66.93314 67.57987 67.25651
# Shear Modulus (GPa) = -14.57981 30.24848 7.83434
#
# Velocity S-wave (km/s) = -2.73015 3.93244 2.00130
# Velocity P-wave (km/s) = 4.92751 7.42752 6.30271
#
# Compressibility (1/GPa) = 0.01494028
#
# Stress axis : x y z
#
# Youngs Moduli (GPa) = 77.36954 57.18469 135.39873
#
# Poissons Ratio (x) = 0.50918 0.03969
# Poissons Ratio (y) = 0.68891 0.30214
# Poissons Ratio (z) = 0.02268 0.12761
#
# Static dielectric constant tensor:
#      x y z
#    x 4.078750 0.000000 0.000000 
#    y 0.000000 3.525840 0.000000 
#    z 0.000000 0.000000 3.824470 
# 
# 
# High freq. dielectric constant tensor:
#      x y z
#    x 1.786690 0.000000 0.000000 
#    y 0.000000 1.737470 0.000000 
#    z 0.000000 0.000000 1.791660 
# 
# From -- ./inp_files/10016.got.cif
#   From: 2010.03.12/outbox.cif.g09.slc.cpg/sg57_6_cif.got.tgz:10016.got - 2010.04.16 15:48:40.
