data_PCOD8230542
_publ_section_title
;
Structure prediction by ZEFSAII (Michael W. Deem and Ramdas Pophale) SiO2 
 PCOD8230542
Probable space group: P B C M
;
_chemical_formula_sum "Si O2"
_cell_formula_units_Z 56
_cell_length_a 9.489493
_cell_length_b 15.417631
_cell_length_c 18.894030
_cell_angle_alpha 90.000000
_cell_angle_beta 90.000000
_cell_angle_gamma 90.000000
_cell_volume 2764.300534
_symmetry_space_group_name_H-M "P B C M"
_symmetry_group_IT_number 57
_symmetry_cell_setting 'orthorhombic'
loop_
_space_group_symop_operation_xyz
x,y,z
-x,-y,1/2+z
x,1/2-y,-z
-x,1/2+y,1/2-z
-x,-y,-z
x,y,1/2-z
-x,1/2+y,z
x,1/2-y,1/2+z
loop_
_atom_site_type_symbol
_atom_site_label
_atom_site_fract_x
_atom_site_fract_y
_atom_site_fract_z
Si Si1 0.811199 0.387411 0.068871
Si Si2 0.897236 0.654262 0.512812
Si Si3 0.271167 0.756075 0.830676
Si Si4 0.969276 0.117716 0.365300
Si Si5 0.537396 0.417989 0.668553
Si Si6 0.770922 0.962987 0.674635
Si Si7 0.252013 0.509031 0.069518
O O1 0.710690 0.319631 0.110650
O O2 0.824086 0.471981 0.115849
O O3 0.965806 0.343606 0.063732
O O4 0.748807 0.417299 0.992853
O O5 0.831828 0.750000 0.500000
O O6 0.777485 0.588266 0.541662
O O7 0.953418 0.620350 0.439748
O O8 0.282800 0.720562 0.750000
O O9 0.117065 0.798578 0.840505
O O10 0.395225 0.824157 0.846349
O O11 0.863090 0.035942 0.371327
O O12 0.098497 0.102671 0.311651
O O13 0.568364 0.445979 0.750000
O O14 0.371014 0.412233 0.652120
O O15 0.599898 0.487844 0.612065
O O16 0.741538 0.009985 0.750000
#
# Coordination Sequence:
#
# PCOD8230542 Si02
#       7
#     8   8   8   8   8   8   8
#     4  11  20  35  61  89 116 151 199 241 292 350
#     4  11  19  35  58  85 121 146 185 249 298 345
#     4  10  20  36  58  87 118 156 203 244 287 352
#     4  10  18  34  58  85 114 148 195 236 291 344
#     4   9  22  40  59  82 117 158 197 244 300 353
#     4  11  21  37  59  84 117 157 196 241 293 349
#     4  10  20  37  62  85 116 154 195 244 295 356
#
# _framework density 20.258288
#
# number of rings (size 3 to 8) (size 9 to 14) (size 15 to 20)
#    0.000    1.714    4.286    1.714    0.000    1.143 
#    0.000    1.429    0.000    1.714    0.000    0.000 
#    0.000    0.000    0.000    0.000    0.000    0.000 
#
# Total GULP energy -693795.184333 kJ/mol
# GULP energy per Si atom -12389.199720 kJ/mol
# Density = 2.021218 g / cm^3
# Si number density = 20.258288 Si / 1000 Ang^3
#
#
#
# Elastic Constant Matrix: (Units=GPa)
#
#
# Indices 1 2 3 4 5 6 
#
# 1 92.8358 35.3278 36.9978 0.0000 0.0000 0.0000
# 2 35.3278 96.8787 31.7105 0.0000 0.0000 0.0000
# 3 36.9978 31.7105 87.3422 0.0000 0.0000 0.0000
# 4 0.0000 0.0000 0.0000 26.7199 0.0000 0.0000
# 5 0.0000 0.0000 0.0000 0.0000 20.6071 0.0000
# 6 0.0000 0.0000 0.0000 0.0000 0.0000 5.6725
#
#
#
# Elastic Compliance Matrix: (Units=1/GPa)
#
#
# Indices 1 2 3 4 5 6 
#
# 1 0.013977 -0.003585 -0.004619 0.000000 0.000000 0.000000
# 2 -0.003585 0.012634 -0.003068 0.000000 0.000000 0.000000
# 3 -0.004619 -0.003068 0.014520 0.000000 0.000000 0.000000
# 4 0.000000 0.000000 0.000000 0.037425 0.000000 0.000000
# 5 0.000000 0.000000 0.000000 0.000000 0.048527 0.000000
# 6 0.000000 0.000000 0.000000 0.000000 0.000000 0.176289
#
#
# Mechanical properties :
#
#
# Convention : Reuss Voigt Hill
#
# Bulk Modulus (GPa) = 53.80390 53.90323 53.85357
# Shear Modulus (GPa) = 15.05521 22.13462 18.59491
#
# Velocity S-wave (km/s) = 2.72906 3.30907 3.03296
# Velocity P-wave (km/s) = 6.04541 6.42383 6.23749
#
# Compressibility (1/GPa) = 0.01858601
#
# Stress axis : x y z
#
# Youngs Moduli (GPa) = 71.54780 79.15305 68.87173
#
# Poissons Ratio (x) = 0.28375 0.31811
# Poissons Ratio (y) = 0.25649 0.21132
# Poissons Ratio (z) = 0.33047 0.24286
#
# Static dielectric constant tensor:
#      x y z
#    x 3.799330 0.000000 0.000000 
#    y 0.000000 3.529740 0.000000 
#    z 0.000000 0.000000 4.020530 
# 
# 
# High freq. dielectric constant tensor:
#      x y z
#    x 1.773080 0.000000 0.000000 
#    y 0.000000 1.766710 0.000000 
#    z 0.000000 0.000000 1.805170 
# 
# From -- ./inp_files/24456.got.cif
#   From: 2010.03.12/outbox.cif.g09.slc.cpg/sg57_13_cif.got.tgz:24456.got - 2010.04.16 15:48:40.
