data_PCOD8230812
_publ_section_title
;
Structure prediction by ZEFSAII (Michael W. Deem and Ramdas Pophale) SiO2 
 PCOD8230812
Probable space group: P B C M
;
_chemical_formula_sum "Si O2"
_cell_formula_units_Z 48
_cell_length_a 8.967595
_cell_length_b 20.637623
_cell_length_c 13.381834
_cell_angle_alpha 90.000000
_cell_angle_beta 90.000000
_cell_angle_gamma 90.000000
_cell_volume 2476.573942
_symmetry_space_group_name_H-M "P B C M"
_symmetry_group_IT_number 57
_symmetry_cell_setting 'orthorhombic'
loop_
_space_group_symop_operation_xyz
x,y,z
-x,-y,1/2+z
x,1/2-y,-z
-x,1/2+y,1/2-z
-x,-y,-z
x,y,1/2-z
-x,1/2+y,z
x,1/2-y,1/2+z
loop_
_atom_site_type_symbol
_atom_site_label
_atom_site_fract_x
_atom_site_fract_y
_atom_site_fract_z
Si Si1 0.534398 0.695412 0.135444
Si Si2 0.236187 0.639053 0.136805
Si Si3 0.074819 0.153324 0.448750
Si Si4 0.798630 0.778500 0.361899
Si Si5 0.408965 0.994232 0.637653
Si Si6 0.331479 0.427440 0.545879
O O1 0.563023 0.671426 0.250000
O O2 0.354653 0.698140 0.119178
O O3 0.620565 0.763958 0.117581
O O4 0.597933 0.643700 0.057166
O O5 0.173317 0.641318 0.250000
O O6 0.319435 0.571536 0.117165
O O7 0.102538 0.644435 0.057581
O O8 0.126957 0.172033 0.561055
O O9 0.120900 0.208703 0.370545
O O10 0.156945 0.084211 0.424881
O O11 0.822587 0.805550 0.250000
O O12 0.393335 0.019096 0.750000
O O13 0.345478 0.051513 0.569540
O O14 0.584461 0.980487 0.614243
#
# Coordination Sequence:
#
# PCOD8230812 Si02
#       6
#     8   8   8   8   8   8
#     4   8  15  31  54  74  94 126 166 202 236 283
#     4   9  17  30  49  72  96 123 161 206 246 287
#     4  10  19  30  49  75  99 127 159 199 248 289
#     4   9  18  33  50  70  96 127 164 198 235 288
#     4   9  18  32  49  69  94 129 168 202 239 286
#     4   9  17  30  49  70  95 124 162 206 242 285
#
# _framework density 19.381616000000001
#
# number of rings (size 3 to 8) (size 9 to 14) (size 15 to 20)
#    0.000    3.000    0.000    2.000    0.000    3.333 
#    0.000   10.000    0.000   10.000    0.000    0.000 
#    0.000    0.000    0.000    0.000    0.000    0.000 
#
# Total GULP energy -594627.482094 kJ/mol
# GULP energy per Si atom -12388.072544 kJ/mol
# Density = 1.933750 g / cm^3
# Si number density = 19.381616 Si / 1000 Ang^3
#
#
#
# Elastic Constant Matrix: (Units=GPa)
#
#
# Indices 1 2 3 4 5 6 
#
# 1 136.6795 25.8101 64.9171 0.0000 0.0000 0.0000
# 2 25.8101 33.5121 30.6165 0.0000 0.0000 0.0000
# 3 64.9171 30.6165 90.0897 0.0000 0.0000 0.0000
# 4 0.0000 0.0000 0.0000 29.2473 0.0000 0.0000
# 5 0.0000 0.0000 0.0000 0.0000 25.2719 0.0000
# 6 0.0000 0.0000 0.0000 0.0000 0.0000 18.2771
#
#
#
# Elastic Compliance Matrix: (Units=1/GPa)
#
#
# Indices 1 2 3 4 5 6 
#
# 1 0.011199 -0.001817 -0.007452 0.000000 0.000000 0.000000
# 2 -0.001817 0.043571 -0.013498 0.000000 0.000000 0.000000
# 3 -0.007452 -0.013498 0.021058 0.000000 0.000000 0.000000
# 4 0.000000 0.000000 0.000000 0.034191 0.000000 0.000000
# 5 0.000000 0.000000 0.000000 0.000000 0.039570 0.000000
# 6 0.000000 0.000000 0.000000 0.000000 0.000000 0.054713
#
#
# Mechanical properties :
#
#
# Convention : Reuss Voigt Hill
#
# Bulk Modulus (GPa) = 33.01120 55.88541 44.44831
# Shear Modulus (GPa) = 19.23561 23.82177 21.52869
#
# Velocity S-wave (km/s) = 3.15376 3.50964 3.33645
# Velocity P-wave (km/s) = 5.50734 6.73203 6.15025
#
# Compressibility (1/GPa) = 0.03029275
#
# Stress axis : x y z
#
# Youngs Moduli (GPa) = 89.29333 22.95093 47.48894
#
# Poissons Ratio (x) = 0.04169 0.35391
# Poissons Ratio (y) = 0.16221 0.64103
# Poissons Ratio (z) = 0.66546 0.30980
#
# Static dielectric constant tensor:
#      x y z
#    x 3.707850 0.000000 0.000000 
#    y 0.000000 3.182390 0.000000 
#    z 0.000000 0.000000 3.492650 
# 
# 
# High freq. dielectric constant tensor:
#      x y z
#    x 1.748240 0.000000 0.000000 
#    y 0.000000 1.713530 0.000000 
#    z 0.000000 0.000000 1.753990 
# 
# From -- ./inp_files/16558.got.cif
#   From: 2010.03.12/outbox.cif.g09.slc.cpg/sg57_9_cif.got.tgz:16558.got - 2010.04.16 15:48:40.
