data_PCOD8230315
_publ_section_title
;
Structure prediction by ZEFSAII (Michael W. Deem and Ramdas Pophale) SiO2 
 PCOD8230315
Probable space group: P B C M
;
_chemical_formula_sum "Si O2"
_cell_formula_units_Z 64
_cell_length_a 17.097864
_cell_length_b 25.583139
_cell_length_c 8.715536
_cell_angle_alpha 90.000000
_cell_angle_beta 90.000000
_cell_angle_gamma 90.000000
_cell_volume 3812.323883
_symmetry_space_group_name_H-M "P B C M"
_symmetry_group_IT_number 57
_symmetry_cell_setting 'orthorhombic'
loop_
_space_group_symop_operation_xyz
x,y,z
-x,-y,1/2+z
x,1/2-y,-z
-x,1/2+y,1/2-z
-x,-y,-z
x,y,1/2-z
-x,1/2+y,z
x,1/2-y,1/2+z
loop_
_atom_site_type_symbol
_atom_site_label
_atom_site_fract_x
_atom_site_fract_y
_atom_site_fract_z
Si Si1 0.913125 0.305712 0.570466
Si Si2 0.818957 0.099400 0.568414
Si Si3 0.914638 0.998548 0.568558
Si Si4 0.176235 0.097557 0.931596
Si Si5 0.906479 0.694545 0.070376
Si Si6 0.337074 0.563757 0.431644
Si Si7 0.506619 0.057073 0.569299
Si Si8 0.662578 0.945650 0.429674
O O1 0.890444 0.250000 0.500000
O O2 0.895650 0.304333 0.750000
O O3 0.860737 0.349061 0.491234
O O4 0.003399 0.319336 0.536260
O O5 0.815789 0.101003 0.750000
O O6 0.865875 0.048506 0.509054
O O7 0.731446 0.098647 0.502647
O O8 0.920630 0.998299 0.750000
O O9 0.874916 0.945945 0.513038
O O10 0.000000 0.000000 0.500000
O O11 0.166560 0.092098 0.750000
O O12 0.266265 0.090481 0.986744
O O13 0.148858 0.153833 0.985629
O O14 0.888674 0.694583 0.250000
O O15 0.884320 0.750000 0.000000
O O16 0.332456 0.567242 0.250000
O O17 0.421184 0.587011 0.488025
O O18 0.329732 0.504481 0.498018
O O19 0.522080 0.054772 0.750000
O O20 0.420899 0.082216 0.531241
O O21 0.500000 0.000000 0.500000
O O22 0.668840 0.954147 0.250000
#
# Coordination Sequence:
#
# PCOD8230315 Si02
#       8
#     8   8   8   8   8   8   8   8
#     4  10  21  37  56  74  97 128 167 214 259 301
#     4  11  22  34  50  74 102 133 170 209 251 300
#     4  11  23  35  48  70 100 136 172 207 250 304
#     4  11  20  33  52  74 102 136 169 208 253 301
#     4  10  21  37  55  76  99 130 171 216 260 301
#     4  10  18  31  48  70 100 135 170 206 250 299
#     4   9  16  28  45  68  97 132 170 205 246 297
#     4   8  16  29  46  69  99 134 167 201 246 298
#
# _framework density 16.787661
#
# number of rings (size 3 to 8) (size 9 to 14) (size 15 to 20)
#    0.000    2.000    1.250    4.125    0.000    5.000 
#    0.000    1.875    0.000    0.000    0.000    0.875 
#    0.000    2.000    0.000    0.000    0.000    0.000 
#
# Total GULP energy -793448.546488 kJ/mol
# GULP energy per Si atom -12397.633539 kJ/mol
# Density = 1.674945 g / cm^3
# Si number density = 16.787661 Si / 1000 Ang^3
#
#
#
# Elastic Constant Matrix: (Units=GPa)
#
#
# Indices 1 2 3 4 5 6 
#
# 1 140.5477 48.2515 36.3197 0.0000 0.0000 0.0000
# 2 48.2515 65.9135 18.6131 0.0000 0.0000 0.0000
# 3 36.3197 18.6131 57.6645 0.0000 0.0000 0.0000
# 4 0.0000 0.0000 0.0000 27.2125 0.0000 0.0000
# 5 0.0000 0.0000 0.0000 0.0000 28.2646 0.0000
# 6 0.0000 0.0000 0.0000 0.0000 0.0000 17.9125
#
#
#
# Elastic Compliance Matrix: (Units=1/GPa)
#
#
# Indices 1 2 3 4 5 6 
#
# 1 0.010482 -0.006392 -0.004539 0.000000 0.000000 0.000000
# 2 -0.006392 0.020590 -0.002620 0.000000 0.000000 0.000000
# 3 -0.004539 -0.002620 0.021046 0.000000 0.000000 0.000000
# 4 0.000000 0.000000 0.000000 0.036748 0.000000 0.000000
# 5 0.000000 0.000000 0.000000 0.000000 0.035380 0.000000
# 6 0.000000 0.000000 0.000000 0.000000 0.000000 0.055827
#
#
# Mechanical properties :
#
#
# Convention : Reuss Voigt Hill
#
# Bulk Modulus (GPa) = 39.97336 52.27714 46.12525
# Shear Modulus (GPa) = 23.20021 25.40734 24.30378
#
# Velocity S-wave (km/s) = 3.72153 3.89453 3.80901
# Velocity P-wave (km/s) = 6.50609 7.17154 6.84691
#
# Compressibility (1/GPa) = 0.02501666
#
# Stress axis : x y z
#
# Youngs Moduli (GPa) = 95.39836 48.56624 47.51398
#
# Poissons Ratio (x) = 0.31042 0.21567
# Poissons Ratio (y) = 0.60976 0.12451
# Poissons Ratio (z) = 0.43302 0.12726
#
# Static dielectric constant tensor:
#      x y z
#    x 3.639100 0.000000 0.000000 
#    y 0.000000 2.867770 0.000000 
#    z 0.000000 0.000000 3.223570 
# 
# 
# High freq. dielectric constant tensor:
#      x y z
#    x 1.659060 0.000000 0.000000 
#    y 0.000000 1.609820 0.000000 
#    z 0.000000 0.000000 1.657210 
# 
# From -- ./inp_files/7130.got.cif
#   From: 2010.03.12/outbox.cif.g09.slc.cpg/sg57_4_cif.got.tgz:7130.got - 2010.04.16 15:48:40.
