data_PCOD8230916
_publ_section_title
;
Structure prediction by ZEFSAII (Michael W. Deem and Ramdas Pophale) SiO2 
 PCOD8230916
Probable space group: P B C M
;
_chemical_formula_sum "Si O2"
_cell_formula_units_Z 48
_cell_length_a 10.176104
_cell_length_b 29.840090
_cell_length_c 8.804012
_cell_angle_alpha 90.000000
_cell_angle_beta 90.000000
_cell_angle_gamma 90.000000
_cell_volume 2673.389828
_symmetry_space_group_name_H-M "P B C M"
_symmetry_group_IT_number 57
_symmetry_cell_setting 'orthorhombic'
loop_
_space_group_symop_operation_xyz
x,y,z
-x,-y,1/2+z
x,1/2-y,-z
-x,1/2+y,1/2-z
-x,-y,-z
x,y,1/2-z
-x,1/2+y,z
x,1/2-y,1/2+z
loop_
_atom_site_type_symbol
_atom_site_label
_atom_site_fract_x
_atom_site_fract_y
_atom_site_fract_z
Si Si1 0.731890 0.387678 0.430822
Si Si2 0.970834 0.792486 0.916048
Si Si3 0.381195 0.973010 0.928486
Si Si4 0.984146 0.889529 0.568150
Si Si5 0.118251 0.473209 0.427423
Si Si6 0.282579 0.794412 0.920234
O O1 0.740364 0.388101 0.250000
O O2 0.629242 0.424852 0.489608
O O3 0.872915 0.400451 0.500690
O O4 0.681374 0.338947 0.485233
O O5 0.909033 0.790566 0.750000
O O6 0.935159 0.840587 0.989692
O O7 0.127035 0.788728 0.911198
O O8 0.907507 0.750000 0.000000
O O9 0.403064 0.965587 0.750000
O O10 0.252555 0.001981 0.962978
O O11 0.500000 0.000000 0.000000
O O12 0.997165 0.890983 0.750000
O O13 0.877419 0.924521 0.506772
O O14 0.092408 0.467613 0.250000
O O15 0.000000 0.500000 0.500000
O O16 0.340599 0.798614 0.750000
O O17 0.343046 0.750000 0.000000
#
# Coordination Sequence:
#
# PCOD8230916 Si02
#       6
#     8   8   8   8   8   8
#     4  11  20  31  50  74 103 140 177 215 267 318
#     4   8  15  25  39  62  95 132 165 205 253 304
#     4  11  24  40  56  77 106 140 180 224 270 324
#     4  10  19  31  48  73 104 136 175 219 262 312
#     4  11  22  35  55  79 105 137 176 218 263 315
#     4   9  16  27  43  67 100 134 171 214 261 313
#
# _framework density 17.954733000000001
#
# number of rings (size 3 to 8) (size 9 to 14) (size 15 to 20)
#    0.000    2.000    1.667    4.500    0.000    6.667 
#    0.000    0.000    0.000    0.000    0.000    1.167 
#    0.000    5.333    0.000    0.000    0.000    0.000 
#
# Total GULP energy -595056.162287 kJ/mol
# GULP energy per Si atom -12397.003381 kJ/mol
# Density = 1.791387 g / cm^3
# Si number density = 17.954733 Si / 1000 Ang^3
#
#
#
# Elastic Constant Matrix: (Units=GPa)
#
#
# Indices 1 2 3 4 5 6 
#
# 1 47.6257 39.3130 38.2989 0.0000 0.0000 0.0000
# 2 39.3130 170.6367 68.6206 0.0000 0.0000 0.0000
# 3 38.2989 68.6206 126.1153 0.0000 0.0000 0.0000
# 4 0.0000 0.0000 0.0000 38.5776 0.0000 0.0000
# 5 0.0000 0.0000 0.0000 0.0000 19.3130 0.0000
# 6 0.0000 0.0000 0.0000 0.0000 0.0000 17.5673
#
#
#
# Elastic Compliance Matrix: (Units=1/GPa)
#
#
# Indices 1 2 3 4 5 6 
#
# 1 0.029909 -0.004145 -0.006827 0.000000 0.000000 0.000000
# 2 -0.004145 0.008076 -0.003136 0.000000 0.000000 0.000000
# 3 -0.006827 -0.003136 0.011709 0.000000 0.000000 0.000000
# 4 0.000000 0.000000 0.000000 0.025922 0.000000 0.000000
# 5 0.000000 0.000000 0.000000 0.000000 0.051779 0.000000
# 6 0.000000 0.000000 0.000000 0.000000 0.000000 0.056924
#
#
# Mechanical properties :
#
#
# Convention : Reuss Voigt Hill
#
# Bulk Modulus (GPa) = 46.55974 70.76031 58.66003
# Shear Modulus (GPa) = 22.75893 28.30128 25.53011
#
# Velocity S-wave (km/s) = 3.56416 3.97452 3.77492
# Velocity P-wave (km/s) = 6.55177 7.78192 7.19319
#
# Compressibility (1/GPa) = 0.02147778
#
# Stress axis : x y z
#
# Youngs Moduli (GPa) = 33.43470 123.81786 85.40626
#
# Poissons Ratio (x) = 0.51324 0.58310
# Poissons Ratio (y) = 0.13859 0.26780
# Poissons Ratio (z) = 0.22827 0.38825
#
# Static dielectric constant tensor:
#      x y z
#    x 10.015590 0.000000 0.000000 
#    y 0.000000 1.936280 0.000000 
#    z 0.000000 0.000000 3.531500 
# 
# 
# High freq. dielectric constant tensor:
#      x y z
#    x 1.621800 0.000000 0.000000 
#    y 0.000000 1.722180 0.000000 
#    z 0.000000 0.000000 1.710610 
# 
# From -- ./inp_files/2060.got.cif
#   From: 2010.03.12/outbox.cif.g09.slc.cpg/sg57_2_cif.got.tgz:2060.got - 2010.04.16 15:48:40.
