data_PCOD8230362
_publ_section_title
;
Structure prediction by ZEFSAII (Michael W. Deem and Ramdas Pophale) SiO2 
 PCOD8230362
Probable space group: P B C M
;
_chemical_formula_sum "Si O2"
_cell_formula_units_Z 64
_cell_length_a 11.374318
_cell_length_b 33.336147
_cell_length_c 9.106131
_cell_angle_alpha 90.000000
_cell_angle_beta 90.000000
_cell_angle_gamma 90.000000
_cell_volume 3452.825753
_symmetry_space_group_name_H-M "P B C M"
_symmetry_group_IT_number 57
_symmetry_cell_setting 'orthorhombic'
loop_
_space_group_symop_operation_xyz
x,y,z
-x,-y,1/2+z
x,1/2-y,-z
-x,1/2+y,1/2-z
-x,-y,-z
x,y,1/2-z
-x,1/2+y,z
x,1/2-y,1/2+z
loop_
_atom_site_type_symbol
_atom_site_label
_atom_site_fract_x
_atom_site_fract_y
_atom_site_fract_z
Si Si1 0.777382 0.480585 0.581864
Si Si2 0.558094 0.426990 0.577723
Si Si3 0.073714 0.208745 0.422211
Si Si4 0.079731 0.579801 0.915400
Si Si5 0.696640 0.363520 0.082700
Si Si6 0.862341 0.630242 0.578599
Si Si7 0.199004 0.709503 0.078442
Si Si8 0.322099 0.063873 0.581812
O O1 0.803008 0.471174 0.750000
O O2 0.652780 0.460983 0.535645
O O3 0.887822 0.461539 0.496528
O O4 0.770370 0.528008 0.549084
O O5 0.556722 0.417992 0.750000
O O6 0.587171 0.386265 0.490403
O O7 0.430835 0.441731 0.526727
O O8 0.113285 0.250000 0.500000
O O9 0.100560 0.212440 0.250000
O O10 0.146914 0.171835 0.490100
O O11 0.937117 0.199923 0.454175
O O12 0.048067 0.567671 0.750000
O O13 0.188828 0.609357 0.925728
O O14 0.968058 0.602671 0.985331
O O15 0.665274 0.352315 0.250000
O O16 0.718009 0.324039 0.988937
O O17 0.885375 0.639887 0.750000
O O18 0.741195 0.606330 0.554681
O O19 0.223460 0.713335 0.250000
O O20 0.237302 0.750000 0.000000
O O21 0.366305 0.060289 0.750000
#
# Coordination Sequence:
#
# PCOD8230362 Si02
#       8
#     8   8   8   8   8   8   8   8
#     4   9  19  34  52  75 103 135 173 221 269 312
#     4  10  20  34  53  75 101 133 175 225 267 310
#     4  10  20  33  53  79 108 140 174 212 254 304
#     4   9  18  31  49  74 103 137 172 209 260 313
#     4  10  18  31  52  75 103 136 170 210 258 312
#     4  10  20  35  53  75 108 142 176 217 259 311
#     4  10  19  30  48  77 109 137 167 206 254 308
#     4  10  21  36  53  74 102 139 180 221 264 310
#
# _framework density 18.535543000000001
#
# number of rings (size 3 to 8) (size 9 to 14) (size 15 to 20)
#    0.000    2.250    1.250    1.875    0.000    4.000 
#    0.000    0.000    0.000    0.750    0.000    1.750 
#    0.000    0.000    0.000    0.000    0.000    0.000 
#
# Total GULP energy -793719.682197 kJ/mol
# GULP energy per Si atom -12401.870034 kJ/mol
# Density = 1.849335 g / cm^3
# Si number density = 18.535543 Si / 1000 Ang^3
#
#
#
# Elastic Constant Matrix: (Units=GPa)
#
#
# Indices 1 2 3 4 5 6 
#
# 1 31.3971 13.7466 17.3021 0.0000 0.0000 0.0000
# 2 13.7466 114.3037 49.4738 0.0000 0.0000 0.0000
# 3 17.3021 49.4738 87.8445 0.0000 0.0000 0.0000
# 4 0.0000 0.0000 0.0000 36.4205 0.0000 0.0000
# 5 0.0000 0.0000 0.0000 0.0000 22.5080 0.0000
# 6 0.0000 0.0000 0.0000 0.0000 0.0000 22.0735
#
#
#
# Elastic Compliance Matrix: (Units=1/GPa)
#
#
# Indices 1 2 3 4 5 6 
#
# 1 0.035966 -0.001665 -0.006146 0.000000 0.000000 0.000000
# 2 -0.001665 0.011646 -0.006231 0.000000 0.000000 0.000000
# 3 -0.006146 -0.006231 0.016104 0.000000 0.000000 0.000000
# 4 0.000000 0.000000 0.000000 0.027457 0.000000 0.000000
# 5 0.000000 0.000000 0.000000 0.000000 0.044429 0.000000
# 6 0.000000 0.000000 0.000000 0.000000 0.000000 0.045303
#
#
# Mechanical properties :
#
#
# Convention : Reuss Voigt Hill
#
# Bulk Modulus (GPa) = 28.06547 43.84335 35.95441
# Shear Modulus (GPa) = 22.63817 26.40192 24.52005
#
# Velocity S-wave (km/s) = 3.49856 3.77821 3.64107
# Velocity P-wave (km/s) = 5.61197 6.53744 6.09230
#
# Compressibility (1/GPa) = 0.03563097
#
# Stress axis : x y z
#
# Youngs Moduli (GPa) = 27.80393 85.86800 62.09814
#
# Poissons Ratio (x) = 0.14299 0.38166
# Poissons Ratio (y) = 0.04630 0.38693
# Poissons Ratio (z) = 0.17089 0.53503
#
# Static dielectric constant tensor:
#      x y z
#    x 3.082600 0.000000 0.000000 
#    y 0.000000 3.562810 0.000000 
#    z 0.000000 0.000000 3.428880 
# 
# 
# High freq. dielectric constant tensor:
#      x y z
#    x 1.688240 0.000000 0.000000 
#    y 0.000000 1.722000 0.000000 
#    z 0.000000 0.000000 1.721540 
# 
# From -- ./inp_files/3796.got.cif
#   From: 2010.03.12/outbox.cif.g09.slc.cpg/sg57_2_cif.got.tgz:3796.got - 2010.04.16 15:48:40.
