data_PCOD8230419
_publ_section_title
;
Structure prediction by ZEFSAII (Michael W. Deem and Ramdas Pophale) SiO2 
 PCOD8230419
Probable space group: P B C M
;
_chemical_formula_sum "Si O2"
_cell_formula_units_Z 48
_cell_length_a 25.742994
_cell_length_b 5.274637
_cell_length_c 15.173952
_cell_angle_alpha 90.000000
_cell_angle_beta 90.000000
_cell_angle_gamma 90.000000
_cell_volume 2060.394293
_symmetry_space_group_name_H-M "P B C M"
_symmetry_group_IT_number 57
_symmetry_cell_setting 'orthorhombic'
loop_
_space_group_symop_operation_xyz
x,y,z
-x,-y,1/2+z
x,1/2-y,-z
-x,1/2+y,1/2-z
-x,-y,-z
x,y,1/2-z
-x,1/2+y,z
x,1/2-y,1/2+z
loop_
_atom_site_type_symbol
_atom_site_label
_atom_site_fract_x
_atom_site_fract_y
_atom_site_fract_z
Si Si1 0.854522 0.038009 0.903158
Si Si2 0.306798 0.298850 0.399509
Si Si3 0.469539 0.853019 0.354105
Si Si4 0.353291 0.703934 0.900605
Si Si5 0.968449 0.400499 0.353337
Si Si6 0.811829 0.541462 0.900087
O O1 0.825250 0.272495 0.853554
O O2 0.915519 0.093882 0.908797
O O3 0.844573 0.769565 0.853846
O O4 0.829215 0.999242 0.999060
O O5 0.323822 0.250000 0.500000
O O6 0.340383 0.525625 0.353929
O O7 0.247485 0.379839 0.390489
O O8 0.321202 0.027941 0.354213
O O9 0.461279 0.850977 0.250000
O O10 0.500269 0.603681 0.385680
O O11 0.413936 0.856860 0.400030
O O12 0.332965 0.750000 0.000000
O O13 0.954950 0.405276 0.250000
O O14 0.997768 0.143968 0.380380
#
# Coordination Sequence:
#
# PCOD8230419 Si02
#       6
#     8   8   8   8   8   8
#     4  10  19  32  54  79 103 137 173 216 260 312
#     4  10  18  32  52  78 109 139 176 208 264 321
#     4  10  21  38  58  78 108 147 181 221 275 322
#     4  10  21  32  54  85 106 142 183 222 264 317
#     4  10  21  38  56  74 102 142 183 219 261 313
#     4  10  19  32  52  80 106 138 167 216 264 321
#
# _framework density 23.296510000000001
#
# number of rings (size 3 to 8) (size 9 to 14) (size 15 to 20)
#    0.000    2.000    1.667    3.000    4.667    0.667 
#    0.000   10.000    0.000    6.000    0.000    0.000 
#    0.000    0.000    0.000    0.000    0.000    0.000 
#
# Total GULP energy -594795.908498 kJ/mol
# GULP energy per Si atom -12391.581427 kJ/mol
# Density = 2.324349 g / cm^3
# Si number density = 23.296510 Si / 1000 Ang^3
#
#
#
# Elastic Constant Matrix: (Units=GPa)
#
#
# Indices 1 2 3 4 5 6 
#
# 1 177.1509 94.9068 4.4274 0.0000 0.0000 0.0000
# 2 94.9068 284.1821 3.6018 0.0000 0.0000 0.0000
# 3 4.4274 3.6018 11.2650 0.0000 0.0000 0.0000
# 4 0.0000 0.0000 0.0000 2.2761 0.0000 0.0000
# 5 0.0000 0.0000 0.0000 0.0000 -12.7770 0.0000
# 6 0.0000 0.0000 0.0000 0.0000 0.0000 54.9815
#
#
#
# Elastic Compliance Matrix: (Units=1/GPa)
#
#
# Indices 1 2 3 4 5 6 
#
# 1 0.006919 -0.002286 -0.001989 0.000000 0.000000 0.000000
# 2 -0.002286 0.004288 -0.000473 0.000000 0.000000 0.000000
# 3 -0.001989 -0.000473 0.089703 0.000000 0.000000 0.000000
# 4 0.000000 0.000000 0.000000 0.439355 0.000000 0.000000
# 5 0.000000 0.000000 0.000000 0.000000 -0.078265 0.000000
# 6 0.000000 0.000000 0.000000 0.000000 0.000000 0.018188
#
#
# Mechanical properties :
#
#
# Convention : Reuss Voigt Hill
#
# Bulk Modulus (GPa) = 10.93893 75.38555 43.16224
# Shear Modulus (GPa) = 9.61254 33.54024 21.57639
#
# Velocity S-wave (km/s) = 2.03350 3.79847 3.04660
# Velocity P-wave (km/s) = 3.19675 7.18799 5.56266
#
# Compressibility (1/GPa) = 0.09141664
#
# Stress axis : x y z
#
# Youngs Moduli (GPa) = 144.52856 233.20119 11.14786
#
# Poissons Ratio (x) = 0.53298 0.02217
# Poissons Ratio (y) = 0.33032 0.00527
# Poissons Ratio (z) = 0.28741 0.11025
#
# Static dielectric constant tensor:
#      x y z
#    x 3.947420 0.000000 0.000000 
#    y 0.000000 8.339780 0.000000 
#    z 0.000000 0.000000 3.463810 
# 
# 
# High freq. dielectric constant tensor:
#      x y z
#    x 1.922050 0.000000 0.000000 
#    y 0.000000 1.967830 0.000000 
#    z 0.000000 0.000000 1.859290 
# 
# From -- ./inp_files/25692.got.cif
#   From: 2010.03.12/outbox.cif.g09.slc.cpg/sg57_13_cif.got.tgz:25692.got - 2010.04.16 15:48:40.
