data_PCOD8230778
_publ_section_title
;
Structure prediction by ZEFSAII (Michael W. Deem and Ramdas Pophale) SiO2 
 PCOD8230778
Probable space group: P B C M
;
_chemical_formula_sum "Si O2"
_cell_formula_units_Z 64
_cell_length_a 14.935274
_cell_length_b 29.409853
_cell_length_c 8.965729
_cell_angle_alpha 90.000000
_cell_angle_beta 90.000000
_cell_angle_gamma 90.000000
_cell_volume 3938.144577
_symmetry_space_group_name_H-M "P B C M"
_symmetry_group_IT_number 57
_symmetry_cell_setting 'orthorhombic'
loop_
_space_group_symop_operation_xyz
x,y,z
-x,-y,1/2+z
x,1/2-y,-z
-x,1/2+y,1/2-z
-x,-y,-z
x,y,1/2-z
-x,1/2+y,z
x,1/2-y,1/2+z
loop_
_atom_site_type_symbol
_atom_site_label
_atom_site_fract_x
_atom_site_fract_y
_atom_site_fract_z
Si Si1 0.185368 0.456749 0.573380
Si Si2 0.203916 0.793972 0.923590
Si Si3 0.985802 0.204514 0.574527
Si Si4 0.044851 0.105375 0.925047
Si Si5 0.285605 0.611956 0.420382
Si Si6 0.373764 0.464701 0.076817
Si Si7 0.866222 0.056248 0.925862
Si Si8 0.457028 0.938613 0.921174
O O1 0.188304 0.453693 0.750000
O O2 0.129683 0.414649 0.509906
O O3 0.285433 0.452327 0.513248
O O4 0.139018 0.503911 0.519821
O O5 0.185058 0.785115 0.750000
O O6 0.271777 0.834999 0.950490
O O7 0.248950 0.750000 0.000000
O O8 0.111019 0.804691 0.004923
O O9 0.029139 0.250000 0.500000
O O10 0.975818 0.212782 0.750000
O O11 0.043952 0.159473 0.541543
O O12 0.054513 0.095838 0.750000
O O13 0.955359 0.080697 0.988801
O O14 0.263780 0.598598 0.250000
O O15 0.221721 0.581991 0.521420
O O16 0.389671 0.602691 0.456620
O O17 0.355229 0.456468 0.250000
O O18 0.401437 0.516095 0.039631
O O19 0.455453 0.432561 0.023319
O O20 0.866832 0.059180 0.750000
O O21 0.488620 0.939533 0.750000
#
# Coordination Sequence:
#
# PCOD8230778 Si02
#       8
#     8   8   8   8   8   8   8   8
#     4  11  22  33  49  71  97 132 170 207 244 287
#     4  10  19  30  47  70  97 128 162 198 241 289
#     4  10  19  32  50  70  95 126 161 203 248 288
#     4  10  21  35  49  68  97 133 167 203 245 288
#     4  10  19  31  49  72  97 130 165 199 240 287
#     4  10  19  32  50  70  95 127 160 199 244 287
#     4  10  20  33  47  68  99 133 168 203 238 282
#     4   9  18  32  49  70  96 124 159 200 240 285
#
# _framework density 16.251306
#
# number of rings (size 3 to 8) (size 9 to 14) (size 15 to 20)
#    0.000    2.000    2.500    2.625    0.000    3.500 
#    0.000    0.000    0.000    0.000    0.000    0.875 
#    0.000    4.000    0.000    0.000    0.000    0.000 
#
# Total GULP energy -793597.986960 kJ/mol
# GULP energy per Si atom -12399.968546 kJ/mol
# Density = 1.621432 g / cm^3
# Si number density = 16.251306 Si / 1000 Ang^3
#
#
#
# Elastic Constant Matrix: (Units=GPa)
#
#
# Indices 1 2 3 4 5 6 
#
# 1 91.4615 58.2229 38.1315 0.0000 0.0000 0.0000
# 2 58.2229 111.9197 46.9145 0.0000 0.0000 0.0000
# 3 38.1315 46.9145 57.7660 0.0000 0.0000 0.0000
# 4 0.0000 0.0000 0.0000 23.5267 0.0000 0.0000
# 5 0.0000 0.0000 0.0000 0.0000 26.1603 0.0000
# 6 0.0000 0.0000 0.0000 0.0000 0.0000 23.6290
#
#
#
# Elastic Compliance Matrix: (Units=1/GPa)
#
#
# Indices 1 2 3 4 5 6 
#
# 1 0.017785 -0.006566 -0.006407 0.000000 0.000000 0.000000
# 2 -0.006566 0.015971 -0.008636 0.000000 0.000000 0.000000
# 3 -0.006407 -0.008636 0.028555 0.000000 0.000000 0.000000
# 4 0.000000 0.000000 0.000000 0.042505 0.000000 0.000000
# 5 0.000000 0.000000 0.000000 0.000000 0.038226 0.000000
# 6 0.000000 0.000000 0.000000 0.000000 0.000000 0.042321
#
#
# Mechanical properties :
#
#
# Convention : Reuss Voigt Hill
#
# Bulk Modulus (GPa) = 52.38079 60.85387 56.61733
# Shear Modulus (GPa) = 21.28157 22.52175 21.90166
#
# Velocity S-wave (km/s) = 3.62267 3.72673 3.67507
# Velocity P-wave (km/s) = 7.05691 7.48631 7.27478
#
# Compressibility (1/GPa) = 0.01909097
#
# Stress axis : x y z
#
# Youngs Moduli (GPa) = 56.22812 62.61303 35.02069
#
# Poissons Ratio (x) = 0.41114 0.22438
# Poissons Ratio (y) = 0.36921 0.30245
# Poissons Ratio (z) = 0.36025 0.54076
#
# Static dielectric constant tensor:
#      x y z
#    x 2.944570 0.000000 0.000000 
#    y 0.000000 3.218710 0.000000 
#    z 0.000000 0.000000 3.129390 
# 
# 
# High freq. dielectric constant tensor:
#      x y z
#    x 1.604710 0.000000 0.000000 
#    y 0.000000 1.614430 0.000000 
#    z 0.000000 0.000000 1.634130 
# 
# From -- ./inp_files/5974.got.cif
#   From: 2010.03.12/outbox.cif.g09.slc.cpg/sg57_3_cif.got.tgz:5974.got - 2010.04.16 15:48:40.
