data_PCOD8230888
_publ_section_title
;
Structure prediction by ZEFSAII (Michael W. Deem and Ramdas Pophale) SiO2 
 PCOD8230888
Probable space group: P B C M
;
_chemical_formula_sum "Si O2"
_cell_formula_units_Z 64
_cell_length_a 20.519888
_cell_length_b 20.132005
_cell_length_c 8.798900
_cell_angle_alpha 90.000000
_cell_angle_beta 90.000000
_cell_angle_gamma 90.000000
_cell_volume 3634.882676
_symmetry_space_group_name_H-M "P B C M"
_symmetry_group_IT_number 57
_symmetry_cell_setting 'orthorhombic'
loop_
_space_group_symop_operation_xyz
x,y,z
-x,-y,1/2+z
x,1/2-y,-z
-x,1/2+y,1/2-z
-x,-y,-z
x,y,1/2-z
-x,1/2+y,z
x,1/2-y,1/2+z
loop_
_atom_site_type_symbol
_atom_site_label
_atom_site_fract_x
_atom_site_fract_y
_atom_site_fract_z
Si Si1 0.694709 0.398416 0.418423
Si Si2 0.057457 0.820718 0.429935
Si Si3 0.581550 0.933682 0.076769
Si Si4 0.837862 0.539869 0.574518
Si Si5 0.822155 0.384248 0.575924
Si Si6 0.291912 0.443947 0.919705
Si Si7 0.970151 0.934021 0.570138
Si Si8 0.558600 0.070908 0.926444
O O1 0.714315 0.374063 0.250000
O O2 0.746902 0.367600 0.534958
O O3 0.695447 0.477922 0.426341
O O4 0.619433 0.378247 0.457658
O O5 0.040311 0.750000 0.500000
O O6 0.049003 0.819481 0.250000
O O7 0.131342 0.840532 0.470654
O O8 0.007196 0.871473 0.503131
O O9 0.603885 0.927175 0.250000
O O10 0.512634 0.894634 0.046570
O O11 0.642481 0.906746 0.978093
O O12 0.565671 0.010153 0.041937
O O13 0.850790 0.555892 0.750000
O O14 0.836908 0.461179 0.544254
O O15 0.770014 0.573580 0.524456
O O16 0.894442 0.571935 0.473092
O O17 0.834599 0.364981 0.750000
O O18 0.276945 0.419299 0.750000
O O19 0.979403 0.936080 0.750000
O O20 0.000000 0.000000 0.500000
O O21 0.563165 0.046193 0.750000
#
# Coordination Sequence:
#
# PCOD8230888 Si02
#       8
#     8   8   8   8   8   8   8   8
#     4   8  14  24  37  54  79 112 152 194 239 284
#     4  12  25  41  59  78 104 135 169 210 258 311
#     4   9  14  20  31  47  71 106 147 190 234 283
#     4  10  19  31  49  72  97 125 163 207 250 296
#     4  10  19  31  48  70  96 124 161 204 249 298
#     4   9  16  25  36  54  82 115 152 194 241 290
#     4  12  23  37  57  81 106 134 169 210 256 307
#     4   8  14  22  31  46  71 105 147 190 233 282
#
# _framework density 17.607171999999998
#
# number of rings (size 3 to 8) (size 9 to 14) (size 15 to 20)
#    0.000    2.250    1.250    4.500    0.000    4.500 
#    0.000    0.000    0.000    0.000    0.000    0.000 
#    0.000    0.000    0.000    1.125    0.000   16.500 
#
# Total GULP energy -793180.804318 kJ/mol
# GULP energy per Si atom -12393.450067 kJ/mol
# Density = 1.756710 g / cm^3
# Si number density = 17.607172 Si / 1000 Ang^3
#
#
#
# Elastic Constant Matrix: (Units=GPa)
#
#
# Indices 1 2 3 4 5 6 
#
# 1 149.6654 36.3921 54.5370 0.0000 0.0000 0.0000
# 2 36.3921 45.9512 32.6911 0.0000 0.0000 0.0000
# 3 54.5370 32.6911 120.1724 0.0000 0.0000 0.0000
# 4 0.0000 0.0000 0.0000 15.0099 0.0000 0.0000
# 5 0.0000 0.0000 0.0000 0.0000 34.4903 0.0000
# 6 0.0000 0.0000 0.0000 0.0000 0.0000 7.9603
#
#
#
# Elastic Compliance Matrix: (Units=1/GPa)
#
#
# Indices 1 2 3 4 5 6 
#
# 1 0.008899 -0.005176 -0.002630 0.000000 0.000000 0.000000
# 2 -0.005176 0.029996 -0.005811 0.000000 0.000000 0.000000
# 3 -0.002630 -0.005811 0.011096 0.000000 0.000000 0.000000
# 4 0.000000 0.000000 0.000000 0.066623 0.000000 0.000000
# 5 0.000000 0.000000 0.000000 0.000000 0.028994 0.000000
# 6 0.000000 0.000000 0.000000 0.000000 0.000000 0.125623
#
#
# Mechanical properties :
#
#
# Convention : Reuss Voigt Hill
#
# Bulk Modulus (GPa) = 43.94545 62.55882 53.25213
# Shear Modulus (GPa) = 16.33725 24.30335 20.32030
#
# Velocity S-wave (km/s) = 3.04941 3.71928 3.40088
# Velocity P-wave (km/s) = 6.11650 7.35197 6.76251
#
# Compressibility (1/GPa) = 0.02275549
#
# Stress axis : x y z
#
# Youngs Moduli (GPa) = 112.37637 33.33819 90.12406
#
# Poissons Ratio (x) = 0.17257 0.23705
# Poissons Ratio (y) = 0.58168 0.52369
# Poissons Ratio (z) = 0.29558 0.19372
#
# Static dielectric constant tensor:
#      x y z
#    x 2.001340 0.000000 0.000000 
#    y 0.000000 2.503750 0.000000 
#    z 0.000000 0.000000 3.400350 
# 
# 
# High freq. dielectric constant tensor:
#      x y z
#    x 1.710870 0.000000 0.000000 
#    y 0.000000 1.584810 0.000000 
#    z 0.000000 0.000000 1.695460 
# 
# From -- ./inp_files/8719.got.cif
#   From: 2010.03.12/outbox.cif.g09.slc.cpg/sg57_5_cif.got.tgz:8719.got - 2010.04.16 15:48:40.
