data_PCOD8230721
_publ_section_title
;
Structure prediction by ZEFSAII (Michael W. Deem and Ramdas Pophale) SiO2 
 PCOD8230721
Probable space group: P B C M
;
_chemical_formula_sum "Si O2"
_cell_formula_units_Z 64
_cell_length_a 19.770715
_cell_length_b 18.998248
_cell_length_c 9.557604
_cell_angle_alpha 90.000000
_cell_angle_beta 90.000000
_cell_angle_gamma 90.000000
_cell_volume 3589.921571
_symmetry_space_group_name_H-M "P B C M"
_symmetry_group_IT_number 57
_symmetry_cell_setting 'orthorhombic'
loop_
_space_group_symop_operation_xyz
x,y,z
-x,-y,1/2+z
x,1/2-y,-z
-x,1/2+y,1/2-z
-x,-y,-z
x,y,1/2-z
-x,1/2+y,z
x,1/2-y,1/2+z
loop_
_atom_site_type_symbol
_atom_site_label
_atom_site_fract_x
_atom_site_fract_y
_atom_site_fract_z
Si Si1 0.123398 0.317797 0.087668
Si Si2 0.197655 0.043689 0.910211
Si Si3 0.967141 0.181970 0.587496
Si Si4 0.127697 0.901974 0.598466
Si Si5 0.701438 0.469320 0.098976
Si Si6 0.264149 0.668560 0.465541
Si Si7 0.546970 0.052265 0.913842
Si Si8 0.413158 0.819123 0.906920
O O1 0.136658 0.301602 0.250000
O O2 0.167390 0.383211 0.032325
O O3 0.045074 0.337100 0.063048
O O4 0.145507 0.250000 0.000000
O O5 0.218183 0.052528 0.750000
O O6 0.141315 0.983841 0.930752
O O7 0.265742 0.021775 0.987961
O O8 0.945890 0.250000 0.500000
O O9 0.950267 0.194347 0.750000
O O10 0.920568 0.119983 0.528262
O O11 0.091358 0.893211 0.750000
O O12 0.197830 0.858683 0.613807
O O13 0.725076 0.496103 0.250000
O O14 0.621838 0.478856 0.082041
O O15 0.724402 0.386824 0.092552
O O16 0.250481 0.750000 0.500000
O O17 0.334052 0.662189 0.379437
O O18 0.524128 0.062690 0.750000
O O19 0.545636 0.124441 0.001869
O O20 0.500000 0.000000 0.000000
O O21 0.444800 0.810956 0.750000
O O22 0.418548 0.750000 0.000000
#
# Coordination Sequence:
#
# PCOD8230721 Si02
#       8
#     8   8   8   8   8   8   8   8
#     4   9  19  36  55  74  94 120 158 204 253 304
#     4   9  19  35  53  73  99 127 157 199 250 299
#     4  10  20  33  48  67  94 127 164 205 246 291
#     4  10  19  30  45  68  99 133 165 198 242 293
#     4   9  19  33  50  76 106 132 165 206 242 284
#     4   9  18  29  46  69  99 135 170 204 240 280
#     4  10  20  34  53  78 106 137 171 206 246 294
#     4  10  19  32  50  73 102 136 173 211 249 291
#
# _framework density 17.827688999999999
#
# number of rings (size 3 to 8) (size 9 to 14) (size 15 to 20)
#    0.000    2.500    0.000    1.875    0.000   10.500 
#    0.000    0.000    0.000    0.750    0.000    1.750 
#    0.000    0.000    0.000    0.000    0.000    0.000 
#
# Total GULP energy -793008.530483 kJ/mol
# GULP energy per Si atom -12390.758289 kJ/mol
# Density = 1.778711 g / cm^3
# Si number density = 17.827689 Si / 1000 Ang^3
#
#
#
# Elastic Constant Matrix: (Units=GPa)
#
#
# Indices 1 2 3 4 5 6 
#
# 1 54.6997 52.1301 43.7227 0.0000 0.0000 0.0000
# 2 52.1301 127.8128 62.2994 0.0000 0.0000 0.0000
# 3 43.7227 62.2994 132.8738 0.0000 0.0000 0.0000
# 4 0.0000 0.0000 0.0000 26.1303 0.0000 0.0000
# 5 0.0000 0.0000 0.0000 0.0000 19.4446 0.0000
# 6 0.0000 0.0000 0.0000 0.0000 0.0000 26.4980
#
#
#
# Elastic Compliance Matrix: (Units=1/GPa)
#
#
# Indices 1 2 3 4 5 6 
#
# 1 0.033150 -0.010634 -0.005922 0.000000 0.000000 0.000000
# 2 -0.010634 0.013553 -0.002855 0.000000 0.000000 0.000000
# 3 -0.005922 -0.002855 0.010813 0.000000 0.000000 0.000000
# 4 0.000000 0.000000 0.000000 0.038270 0.000000 0.000000
# 5 0.000000 0.000000 0.000000 0.000000 0.051428 0.000000
# 6 0.000000 0.000000 0.000000 0.000000 0.000000 0.037739
#
#
# Mechanical properties :
#
#
# Convention : Reuss Voigt Hill
#
# Bulk Modulus (GPa) = 53.49542 70.18787 61.84164
# Shear Modulus (GPa) = 21.73849 24.89684 23.31766
#
# Velocity S-wave (km/s) = 3.49573 3.74107 3.62048
# Velocity P-wave (km/s) = 6.80923 7.62341 7.22779
#
# Compressibility (1/GPa) = 0.01869319
#
# Stress axis : x y z
#
# Youngs Moduli (GPa) = 30.16606 73.78513 92.47766
#
# Poissons Ratio (x) = 0.78462 0.54768
# Poissons Ratio (y) = 0.32078 0.26405
# Poissons Ratio (z) = 0.17865 0.21068
#
# Static dielectric constant tensor:
#      x y z
#    x 3.102160 0.000000 0.000000 
#    y 0.000000 3.335990 0.000000 
#    z 0.000000 0.000000 3.408650 
# 
# 
# High freq. dielectric constant tensor:
#      x y z
#    x 1.663960 0.000000 0.000000 
#    y 0.000000 1.682720 0.000000 
#    z 0.000000 0.000000 1.699580 
# 
# From -- ./inp_files/8625.got.cif
#   From: 2010.03.12/outbox.cif.g09.slc.cpg/sg57_5_cif.got.tgz:8625.got - 2010.04.16 15:48:40.
