data_PCOD8230815
_publ_section_title
;
Structure prediction by ZEFSAII (Michael W. Deem and Ramdas Pophale) SiO2 
 PCOD8230815
Probable space group: P B C M
;
_chemical_formula_sum "Si O2"
_cell_formula_units_Z 64
_cell_length_a 19.506818
_cell_length_b 18.758143
_cell_length_c 9.093765
_cell_angle_alpha 90.000000
_cell_angle_beta 90.000000
_cell_angle_gamma 90.000000
_cell_volume 3327.514842
_symmetry_space_group_name_H-M "P B C M"
_symmetry_group_IT_number 57
_symmetry_cell_setting 'orthorhombic'
loop_
_space_group_symop_operation_xyz
x,y,z
-x,-y,1/2+z
x,1/2-y,-z
-x,1/2+y,1/2-z
-x,-y,-z
x,y,1/2-z
-x,1/2+y,z
x,1/2-y,1/2+z
loop_
_atom_site_type_symbol
_atom_site_label
_atom_site_fract_x
_atom_site_fract_y
_atom_site_fract_z
Si Si1 0.783528 0.542957 0.079351
Si Si2 0.047822 0.904964 0.584002
Si Si3 0.916964 0.570798 0.583972
Si Si4 0.819075 0.120404 0.579470
Si Si5 0.356524 0.066391 0.580577
Si Si6 0.303578 0.815399 0.583173
Si Si7 0.576928 0.077769 0.416337
Si Si8 0.470931 0.174861 0.580737
O O1 0.788512 0.563144 0.250000
O O2 0.791836 0.459218 0.053564
O O3 0.843930 0.584088 0.993760
O O4 0.710573 0.568780 0.019096
O O5 0.046014 0.875181 0.750000
O O6 0.106839 0.866200 0.491620
O O7 0.975349 0.887522 0.506904
O O8 0.063214 0.988428 0.585093
O O9 0.913310 0.600602 0.750000
O O10 0.823759 0.139312 0.750000
O O11 0.767718 0.173421 0.499619
O O12 0.335002 0.053178 0.750000
O O13 0.395192 0.141714 0.560821
O O14 0.409260 0.003435 0.531783
O O15 0.341746 0.750000 0.500000
O O16 0.288649 0.793545 0.750000
O O17 0.349380 0.885206 0.573743
O O18 0.547918 0.080695 0.250000
O O19 0.524527 0.116960 0.522439
O O20 0.476114 0.250000 0.500000
O O21 0.488358 0.188956 0.750000
#
# Coordination Sequence:
#
# PCOD8230815 Si02
#       8
#     8   8   8   8   8   8   8   8
#     4  10  19  30  49  77 107 139 175 221 270 322
#     4   9  16  26  42  65  96 135 176 218 265 315
#     4   9  16  26  42  66 100 138 174 216 264 316
#     4  10  19  31  47  70 101 137 179 222 270 324
#     4  10  21  38  58  83 111 144 181 224 275 329
#     4  11  22  35  52  74 104 142 182 227 275 329
#     4  10  21  38  60  83 109 140 180 226 275 328
#     4  11  24  40  60  83 112 145 181 223 272 327
#
# _framework density 19.233573
#
# number of rings (size 3 to 8) (size 9 to 14) (size 15 to 20)
#    0.000    2.000    1.250    3.000    0.000    7.500 
#    0.000    0.000    0.000    0.000    0.000    0.875 
#    0.000    2.000    0.000    0.000    0.000    0.000 
#
# Total GULP energy -793693.485699 kJ/mol
# GULP energy per Si atom -12401.460714 kJ/mol
# Density = 1.918980 g / cm^3
# Si number density = 19.233573 Si / 1000 Ang^3
#
#
#
# Elastic Constant Matrix: (Units=GPa)
#
#
# Indices 1 2 3 4 5 6 
#
# 1 107.4727 20.4873 66.6251 0.0000 0.0000 0.0000
# 2 20.4873 41.0236 24.6506 0.0000 0.0000 0.0000
# 3 66.6251 24.6506 148.7308 0.0000 0.0000 0.0000
# 4 0.0000 0.0000 0.0000 20.8213 0.0000 0.0000
# 5 0.0000 0.0000 0.0000 0.0000 39.0621 0.0000
# 6 0.0000 0.0000 0.0000 0.0000 0.0000 12.9849
#
#
#
# Elastic Compliance Matrix: (Units=1/GPa)
#
#
# Indices 1 2 3 4 5 6 
#
# 1 0.013296 -0.003400 -0.005392 0.000000 0.000000 0.000000
# 2 -0.003400 0.027942 -0.003108 0.000000 0.000000 0.000000
# 3 -0.005392 -0.003108 0.009654 0.000000 0.000000 0.000000
# 4 0.000000 0.000000 0.000000 0.048028 0.000000 0.000000
# 5 0.000000 0.000000 0.000000 0.000000 0.025600 0.000000
# 6 0.000000 0.000000 0.000000 0.000000 0.000000 0.077013
#
#
# Mechanical properties :
#
#
# Convention : Reuss Voigt Hill
#
# Bulk Modulus (GPa) = 36.91243 57.86146 47.38695
# Shear Modulus (GPa) = 21.33444 26.93793 24.13618
#
# Velocity S-wave (km/s) = 3.33412 3.74648 3.54630
# Velocity P-wave (km/s) = 5.83568 6.99026 6.43890
#
# Compressibility (1/GPa) = 0.02709115
#
# Stress axis : x y z
#
# Youngs Moduli (GPa) = 75.21252 35.78888 103.58094
#
# Poissons Ratio (x) = 0.12167 0.55855
# Poissons Ratio (y) = 0.25569 0.32195
# Poissons Ratio (z) = 0.40558 0.11124
#
# Static dielectric constant tensor:
#      x y z
#    x 3.503810 0.000000 0.000000 
#    y 0.000000 3.186670 0.000000 
#    z 0.000000 0.000000 3.681620 
# 
# 
# High freq. dielectric constant tensor:
#      x y z
#    x 1.752390 0.000000 0.000000 
#    y 0.000000 1.705000 0.000000 
#    z 0.000000 0.000000 1.762700 
# 
# From -- ./inp_files/7238.got.cif
#   From: 2010.03.12/outbox.cif.g09.slc.cpg/sg57_4_cif.got.tgz:7238.got - 2010.04.16 15:48:40.
