data_PCOD8230757
_publ_section_title
;
Structure prediction by ZEFSAII (Michael W. Deem and Ramdas Pophale) SiO2 
 PCOD8230757
Probable space group: P B C M
;
_chemical_formula_sum "Si O2"
_cell_formula_units_Z 48
_cell_length_a 15.230098
_cell_length_b 21.414045
_cell_length_c 8.981166
_cell_angle_alpha 90.000000
_cell_angle_beta 90.000000
_cell_angle_gamma 90.000000
_cell_volume 2929.099552
_symmetry_space_group_name_H-M "P B C M"
_symmetry_group_IT_number 57
_symmetry_cell_setting 'orthorhombic'
loop_
_space_group_symop_operation_xyz
x,y,z
-x,-y,1/2+z
x,1/2-y,-z
-x,1/2+y,1/2-z
-x,-y,-z
x,y,1/2-z
-x,1/2+y,z
x,1/2-y,1/2+z
loop_
_atom_site_type_symbol
_atom_site_label
_atom_site_fract_x
_atom_site_fract_y
_atom_site_fract_z
Si Si1 0.616892 0.964608 0.579335
Si Si2 0.809787 0.544427 0.422354
Si Si3 0.160627 0.595151 0.923578
Si Si4 0.025118 0.435580 0.076134
Si Si5 0.434729 0.911288 0.922353
Si Si6 0.312518 0.682951 0.572961
O O1 0.613620 0.989299 0.750000
O O2 0.710742 0.931057 0.548751
O O3 0.539931 0.914511 0.550864
O O4 0.607973 0.023471 0.471310
O O5 0.835635 0.546809 0.250000
O O6 0.815277 0.473520 0.485855
O O7 0.881772 0.587675 0.507962
O O8 0.180284 0.593228 0.750000
O O9 0.225416 0.647521 0.990439
O O10 0.057399 0.611245 0.955594
O O11 0.037039 0.446311 0.250000
O O12 0.000000 0.500000 0.000000
O O13 0.412145 0.899571 0.750000
O O14 0.398429 0.854812 0.021093
O O15 0.314149 0.750000 0.500000
O O16 0.313460 0.689697 0.750000
#
# Coordination Sequence:
#
# PCOD8230757 Si02
#       6
#     8   8   8   8   8   8
#     4   9  17  30  47  66  96 129 154 187 238 288
#     4   9  15  27  44  65  91 124 150 177 226 276
#     4   8  15  28  44  59  87 123 150 179 228 274
#     4   9  16  26  40  62  88 119 149 180 220 269
#     4  10  19  30  46  70  93 121 160 197 235 283
#     4  11  21  35  50  66  91 125 160 197 236 280
#
# _framework density 16.387288999999999
#
# number of rings (size 3 to 8) (size 9 to 14) (size 15 to 20)
#    0.000    2.667    1.667    2.500    0.000    1.333 
#    0.000    2.500    0.000    0.000    0.000    1.167 
#    0.000    5.333    0.000    0.000    0.000    0.000 
#
# Total GULP energy -594761.571226 kJ/mol
# GULP energy per Si atom -12390.866067 kJ/mol
# Density = 1.634999 g / cm^3
# Si number density = 16.387289 Si / 1000 Ang^3
#
#
#
# Elastic Constant Matrix: (Units=GPa)
#
#
# Indices 1 2 3 4 5 6 
#
# 1 159.2688 43.0712 51.3078 0.0000 0.0000 0.0000
# 2 43.0712 58.7927 27.2814 0.0000 0.0000 0.0000
# 3 51.3078 27.2814 70.6377 0.0000 0.0000 0.0000
# 4 0.0000 0.0000 0.0000 18.3089 0.0000 0.0000
# 5 0.0000 0.0000 0.0000 0.0000 27.5197 0.0000
# 6 0.0000 0.0000 0.0000 0.0000 0.0000 14.7983
#
#
#
# Elastic Compliance Matrix: (Units=1/GPa)
#
#
# Indices 1 2 3 4 5 6 
#
# 1 0.009026 -0.004350 -0.004876 0.000000 0.000000 0.000000
# 2 -0.004350 0.022819 -0.005654 0.000000 0.000000 0.000000
# 3 -0.004876 -0.005654 0.019882 0.000000 0.000000 0.000000
# 4 0.000000 0.000000 0.000000 0.054618 0.000000 0.000000
# 5 0.000000 0.000000 0.000000 0.000000 0.036338 0.000000
# 6 0.000000 0.000000 0.000000 0.000000 0.000000 0.067575
#
#
# Mechanical properties :
#
#
# Convention : Reuss Voigt Hill
#
# Bulk Modulus (GPa) = 45.52062 59.11335 52.31699
# Shear Modulus (GPa) = 20.21519 23.26131 21.73825
#
# Velocity S-wave (km/s) = 3.51606 3.77168 3.64611
# Velocity P-wave (km/s) = 6.65747 7.42418 7.05125
#
# Compressibility (1/GPa) = 0.02196807
#
# Stress axis : x y z
#
# Youngs Moduli (GPa) = 110.79423 43.82333 50.29692
#
# Poissons Ratio (x) = 0.19062 0.24525
# Poissons Ratio (y) = 0.48191 0.28436
# Poissons Ratio (z) = 0.54023 0.24776
#
# Static dielectric constant tensor:
#      x y z
#    x 3.866010 0.000000 0.000000 
#    y 0.000000 2.657160 0.000000 
#    z 0.000000 0.000000 3.124240 
# 
# 
# High freq. dielectric constant tensor:
#      x y z
#    x 1.654520 0.000000 0.000000 
#    y 0.000000 1.559400 0.000000 
#    z 0.000000 0.000000 1.628510 
# 
# From -- ./inp_files/4827.got.cif
#   From: 2010.03.12/outbox.cif.g09.slc.cpg/sg57_3_cif.got.tgz:4827.got - 2010.04.16 15:48:40.
