data_PCOD8230484
_publ_section_title
;
Structure prediction by ZEFSAII (Michael W. Deem and Ramdas Pophale) SiO2 
 PCOD8230484
Probable space group: P B C M
;
_chemical_formula_sum "Si O2"
_cell_formula_units_Z 64
_cell_length_a 14.992742
_cell_length_b 23.482515
_cell_length_c 8.777850
_cell_angle_alpha 90.000000
_cell_angle_beta 90.000000
_cell_angle_gamma 90.000000
_cell_volume 3090.393852
_symmetry_space_group_name_H-M "P B C M"
_symmetry_group_IT_number 57
_symmetry_cell_setting 'orthorhombic'
loop_
_space_group_symop_operation_xyz
x,y,z
-x,-y,1/2+z
x,1/2-y,-z
-x,1/2+y,1/2-z
-x,-y,-z
x,y,1/2-z
-x,1/2+y,z
x,1/2-y,1/2+z
loop_
_atom_site_type_symbol
_atom_site_label
_atom_site_fract_x
_atom_site_fract_y
_atom_site_fract_z
Si Si1 0.103651 0.114804 0.572502
Si Si2 0.606182 0.398141 0.069774
Si Si3 0.044535 0.809898 0.928303
Si Si4 0.729925 0.691417 0.929068
Si Si5 0.626765 0.516295 0.575801
Si Si6 0.833260 0.006259 0.421427
Si Si7 0.192467 0.620921 0.927559
Si Si8 0.566276 0.631630 0.429801
O O1 0.081930 0.124315 0.750000
O O2 0.198460 0.142854 0.531145
O O3 0.106047 0.047673 0.531284
O O4 0.026220 0.142098 0.473018
O O5 0.598630 0.402770 0.250000
O O6 0.704254 0.376516 0.021299
O O7 0.585535 0.459578 0.996837
O O8 0.531603 0.355546 0.002021
O O9 0.046266 0.801866 0.750000
O O10 0.016243 0.750000 0.000000
O O11 0.142262 0.828772 0.984596
O O12 0.716297 0.697863 0.750000
O O13 0.766179 0.750000 0.000000
O O14 0.635246 0.677176 0.004129
O O15 0.593465 0.523194 0.750000
O O16 0.732666 0.515053 0.569126
O O17 0.595370 0.568649 0.475462
O O18 0.855654 0.026423 0.250000
O O19 0.850227 0.059331 0.532845
O O20 0.180379 0.631463 0.750000
O O21 0.561463 0.638323 0.250000
#
# Coordination Sequence:
#
# PCOD8230484 Si02
#       8
#     8   8   8   8   8   8   8   8
#     4  10  21  40  65  93 125 159 199 247 300 360
#     4  10  21  37  58  86 119 156 199 249 301 355
#     4  12  26  44  67  92 119 156 201 252 303 361
#     4  11  23  41  61  86 120 161 203 253 305 359
#     4  10  18  33  55  84 121 160 200 245 295 352
#     4   9  18  35  60  91 126 164 199 242 300 360
#     4  10  22  41  64  91 123 159 201 253 305 361
#     4  12  23  35  55  84 118 160 204 247 295 355
#
# _framework density 20.709334999999999
#
# number of rings (size 3 to 8) (size 9 to 14) (size 15 to 20)
#    0.000    1.500    1.250    4.500    0.000    5.000 
#    0.000    0.625    0.000    3.000    0.000    0.000 
#    0.000    0.000    0.000    0.000    0.000    0.000 
#
# Total GULP energy -793859.674359 kJ/mol
# GULP energy per Si atom -12404.057412 kJ/mol
# Density = 2.066220 g / cm^3
# Si number density = 20.709335 Si / 1000 Ang^3
#
#
#
# Elastic Constant Matrix: (Units=GPa)
#
#
# Indices 1 2 3 4 5 6 
#
# 1 62.9989 20.1007 31.9485 0.0000 0.0000 0.0000
# 2 20.1007 40.1623 18.0856 0.0000 0.0000 0.0000
# 3 31.9485 18.0856 101.9417 0.0000 0.0000 0.0000
# 4 0.0000 0.0000 0.0000 36.3506 0.0000 0.0000
# 5 0.0000 0.0000 0.0000 0.0000 32.5658 0.0000
# 6 0.0000 0.0000 0.0000 0.0000 0.0000 18.6595
#
#
#
# Elastic Compliance Matrix: (Units=1/GPa)
#
#
# Indices 1 2 3 4 5 6 
#
# 1 0.021120 -0.008248 -0.005155 0.000000 0.000000 0.000000
# 2 -0.008248 0.030282 -0.002787 0.000000 0.000000 0.000000
# 3 -0.005155 -0.002787 0.011920 0.000000 0.000000 0.000000
# 4 0.000000 0.000000 0.000000 0.027510 0.000000 0.000000
# 5 0.000000 0.000000 0.000000 0.000000 0.030707 0.000000
# 6 0.000000 0.000000 0.000000 0.000000 0.000000 0.053592
#
#
# Mechanical properties :
#
#
# Convention : Reuss Voigt Hill
#
# Bulk Modulus (GPa) = 32.32160 38.37472 35.34816
# Shear Modulus (GPa) = 22.95407 26.51307 24.73357
#
# Velocity S-wave (km/s) = 3.33286 3.58194 3.45964
# Velocity P-wave (km/s) = 5.51831 5.97306 5.75018
#
# Compressibility (1/GPa) = 0.03093906
#
# Stress axis : x y z
#
# Youngs Moduli (GPa) = 47.34939 33.02250 83.89428
#
# Poissons Ratio (x) = 0.27239 0.43252
# Poissons Ratio (y) = 0.39056 0.23384
# Poissons Ratio (z) = 0.24411 0.09205
#
# Static dielectric constant tensor:
#      x y z
#    x 3.945830 0.000000 0.000000 
#    y 0.000000 3.664290 0.000000 
#    z 0.000000 0.000000 3.740280 
# 
# 
# High freq. dielectric constant tensor:
#      x y z
#    x 1.819090 0.000000 0.000000 
#    y 0.000000 1.795940 0.000000 
#    z 0.000000 0.000000 1.814880 
# 
# From -- ./inp_files/5605.got.cif
#   From: 2010.03.12/outbox.cif.g09.slc.cpg/sg57_3_cif.got.tgz:5605.got - 2010.04.16 15:48:40.
