data_PCOD8230668
_publ_section_title
;
Structure prediction by ZEFSAII (Michael W. Deem and Ramdas Pophale) SiO2 
 PCOD8230668
Probable space group: P B C M
;
_chemical_formula_sum "Si O2"
_cell_formula_units_Z 48
_cell_length_a 15.359100
_cell_length_b 21.537170
_cell_length_c 8.867075
_cell_angle_alpha 90.000000
_cell_angle_beta 90.000000
_cell_angle_gamma 90.000000
_cell_volume 2933.153463
_symmetry_space_group_name_H-M "P B C M"
_symmetry_group_IT_number 57
_symmetry_cell_setting 'orthorhombic'
loop_
_space_group_symop_operation_xyz
x,y,z
-x,-y,1/2+z
x,1/2-y,-z
-x,1/2+y,1/2-z
-x,-y,-z
x,y,1/2-z
-x,1/2+y,z
x,1/2-y,1/2+z
loop_
_atom_site_type_symbol
_atom_site_label
_atom_site_fract_x
_atom_site_fract_y
_atom_site_fract_z
Si Si1 0.305238 0.961848 0.573538
Si Si2 0.936547 0.589173 0.424916
Si Si3 0.653224 0.598431 0.571619
Si Si4 0.811666 0.682986 0.571873
Si Si5 0.487487 0.567021 0.071865
Si Si6 0.883986 0.036963 0.425370
O O1 0.308666 0.972186 0.750000
O O2 0.386032 0.916063 0.529572
O O3 0.210511 0.934226 0.528021
O O4 0.316520 0.031473 0.506420
O O5 0.915834 0.599898 0.250000
O O6 0.896508 0.645239 0.519492
O O7 0.896866 0.523784 0.474539
O O8 0.040947 0.587690 0.456060
O O9 0.643777 0.599630 0.750000
O O10 0.723717 0.648718 0.516958
O O11 0.557801 0.614305 0.500616
O O12 0.813729 0.750000 0.500000
O O13 0.814888 0.688937 0.750000
O O14 0.502088 0.564789 0.250000
O O15 0.500000 0.500000 0.000000
O O16 0.885464 0.016334 0.250000
#
# Coordination Sequence:
#
# PCOD8230668 Si02
#       6
#     8   8   8   8   8   8
#     4   8  13  25  43  64  90 123 151 175 224 274
#     4  10  19  29  45  70  94 121 159 196 235 281
#     4   9  17  30  45  61  88 123 152 186 231 275
#     4  11  22  36  51  66  91 124 160 199 240 285
#     4   9  16  25  40  63  91 120 151 182 217 266
#     4   9  16  29  47  66  95 129 156 187 232 284
#
# _framework density 16.364640000000001
#
# number of rings (size 3 to 8) (size 9 to 14) (size 15 to 20)
#    0.000    2.667    1.667    2.500    0.000    2.000 
#    0.000    0.833    0.000    0.000    0.000    1.167 
#    0.000    2.667    0.000    0.000    0.000    0.000 
#
# Total GULP energy -594647.113782 kJ/mol
# GULP energy per Si atom -12388.481537 kJ/mol
# Density = 1.632739 g / cm^3
# Si number density = 16.364640 Si / 1000 Ang^3
#
#
#
# Elastic Constant Matrix: (Units=GPa)
#
#
# Indices 1 2 3 4 5 6 
#
# 1 176.9607 51.0239 38.2274 0.0000 0.0000 0.0000
# 2 51.0239 64.5420 24.6998 0.0000 0.0000 0.0000
# 3 38.2274 24.6998 46.4305 0.0000 0.0000 0.0000
# 4 0.0000 0.0000 0.0000 19.9722 0.0000 0.0000
# 5 0.0000 0.0000 0.0000 0.0000 25.2173 0.0000
# 6 0.0000 0.0000 0.0000 0.0000 0.0000 11.6289
#
#
#
# Elastic Compliance Matrix: (Units=1/GPa)
#
#
# Indices 1 2 3 4 5 6 
#
# 1 0.007864 -0.004695 -0.003977 0.000000 0.000000 0.000000
# 2 -0.004695 0.022257 -0.007975 0.000000 0.000000 0.000000
# 3 -0.003977 -0.007975 0.029054 0.000000 0.000000 0.000000
# 4 0.000000 0.000000 0.000000 0.050070 0.000000 0.000000
# 5 0.000000 0.000000 0.000000 0.000000 0.039655 0.000000
# 6 0.000000 0.000000 0.000000 0.000000 0.000000 0.085993
#
#
# Mechanical properties :
#
#
# Convention : Reuss Voigt Hill
#
# Bulk Modulus (GPa) = 38.63684 57.31505 47.97595
# Shear Modulus (GPa) = 18.06269 22.96249 20.51259
#
# Velocity S-wave (km/s) = 3.32590 3.74996 3.54428
# Velocity P-wave (km/s) = 6.19758 7.33821 6.79188
#
# Compressibility (1/GPa) = 0.02588203
#
# Stress axis : x y z
#
# Youngs Moduli (GPa) = 127.16606 44.92933 34.41824
#
# Poissons Ratio (x) = 0.21093 0.13688
# Poissons Ratio (y) = 0.59701 0.27448
# Poissons Ratio (z) = 0.50573 0.35831
#
# Static dielectric constant tensor:
#      x y z
#    x 3.864040 0.000000 0.000000 
#    y 0.000000 2.629140 0.000000 
#    z 0.000000 0.000000 3.092070 
# 
# 
# High freq. dielectric constant tensor:
#      x y z
#    x 1.655850 0.000000 0.000000 
#    y 0.000000 1.560140 0.000000 
#    z 0.000000 0.000000 1.626480 
# 
# From -- ./inp_files/4910.got.cif
#   From: 2010.03.12/outbox.cif.g09.slc.cpg/sg57_3_cif.got.tgz:4910.got - 2010.04.16 15:48:40.
