data_PCOD8230193
_publ_section_title
;
Structure prediction by ZEFSAII (Michael W. Deem and Ramdas Pophale) SiO2 
 PCOD8230193
Probable space group: P B C M
;
_chemical_formula_sum "Si O2"
_cell_formula_units_Z 64
_cell_length_a 16.299144
_cell_length_b 24.026636
_cell_length_c 9.359683
_cell_angle_alpha 90.000000
_cell_angle_beta 90.000000
_cell_angle_gamma 90.000000
_cell_volume 3665.379154
_symmetry_space_group_name_H-M "P B C M"
_symmetry_group_IT_number 57
_symmetry_cell_setting 'orthorhombic'
loop_
_space_group_symop_operation_xyz
x,y,z
-x,-y,1/2+z
x,1/2-y,-z
-x,1/2+y,1/2-z
-x,-y,-z
x,y,1/2-z
-x,1/2+y,z
x,1/2-y,1/2+z
loop_
_atom_site_type_symbol
_atom_site_label
_atom_site_fract_x
_atom_site_fract_y
_atom_site_fract_z
Si Si1 0.862817 0.898303 0.915069
Si Si2 0.485977 0.695130 0.083115
Si Si3 0.968724 0.052486 0.414844
Si Si4 0.616837 0.608703 0.090134
Si Si5 0.704052 0.195192 0.417710
Si Si6 0.791895 0.085352 0.417383
Si Si7 0.758569 0.698399 0.406061
Si Si8 0.268966 0.033477 0.581587
O O1 0.835891 0.909515 0.750000
O O2 0.838579 0.835447 0.960148
O O3 0.960588 0.901282 0.932640
O O4 0.814464 0.941935 0.014202
O O5 0.503052 0.705804 0.250000
O O6 0.534319 0.639205 0.032992
O O7 0.391170 0.684092 0.049603
O O8 0.517342 0.750000 0.000000
O O9 0.956192 0.035060 0.250000
O O10 0.883572 0.075687 0.480290
O O11 0.000000 0.000000 0.500000
O O12 0.602989 0.584447 0.250000
O O13 0.684372 0.656037 0.092844
O O14 0.647843 0.558912 0.987312
O O15 0.735377 0.250000 0.500000
O O16 0.719337 0.204188 0.250000
O O17 0.752727 0.141788 0.480848
O O18 0.800020 0.094127 0.250000
O O19 0.733162 0.032633 0.450159
O O20 0.735448 0.750000 0.500000
O O21 0.774818 0.722860 0.250000
O O22 0.269264 0.046216 0.750000
#
# Coordination Sequence:
#
# PCOD8230193 Si02
#       8
#     8   8   8   8   8   8   8   8
#     4   9  18  31  46  66  95 126 156 197 244 284
#     4   9  17  30  51  73  95 127 167 207 244 286
#     4  10  18  31  51  73  96 124 160 200 240 287
#     4   9  18  31  45  67  98 127 159 198 244 289
#     4   9  18  35  55  74  98 129 164 203 245 289
#     4   9  18  32  51  74 100 128 159 198 248 296
#     4   9  17  28  41  60  88 122 154 185 229 280
#     4  10  18  29  47  71  97 127 162 196 236 289
#
# _framework density 17.460675999999999
#
# number of rings (size 3 to 8) (size 9 to 14) (size 15 to 20)
#    0.000    2.750    1.250    1.500    0.000    2.500 
#    0.000    3.125    0.000    0.000    0.000    0.000 
#    0.000    0.000    0.000    0.000    0.000    0.000 
#
# Total GULP energy -793222.765721 kJ/mol
# GULP energy per Si atom -12394.105714 kJ/mol
# Density = 1.742093 g / cm^3
# Si number density = 17.460676 Si / 1000 Ang^3
#
#
#
# Elastic Constant Matrix: (Units=GPa)
#
#
# Indices 1 2 3 4 5 6 
#
# 1 86.1806 52.0112 26.7017 0.0000 0.0000 0.0000
# 2 52.0112 106.2038 40.5148 0.0000 0.0000 0.0000
# 3 26.7017 40.5148 54.0817 0.0000 0.0000 0.0000
# 4 0.0000 0.0000 0.0000 26.0405 0.0000 0.0000
# 5 0.0000 0.0000 0.0000 0.0000 19.4273 0.0000
# 6 0.0000 0.0000 0.0000 0.0000 0.0000 22.5520
#
#
#
# Elastic Compliance Matrix: (Units=1/GPa)
#
#
# Indices 1 2 3 4 5 6 
#
# 1 0.016809 -0.007093 -0.002985 0.000000 0.000000 0.000000
# 2 -0.007093 0.016177 -0.008616 0.000000 0.000000 0.000000
# 3 -0.002985 -0.008616 0.026420 0.000000 0.000000 0.000000
# 4 0.000000 0.000000 0.000000 0.038402 0.000000 0.000000
# 5 0.000000 0.000000 0.000000 0.000000 0.051474 0.000000
# 6 0.000000 0.000000 0.000000 0.000000 0.000000 0.044342
#
#
# Mechanical properties :
#
#
# Convention : Reuss Voigt Hill
#
# Bulk Modulus (GPa) = 45.42305 53.88019 49.65162
# Shear Modulus (GPa) = 20.97741 22.08653 21.53197
#
# Velocity S-wave (km/s) = 3.46989 3.56044 3.51546
# Velocity P-wave (km/s) = 6.49034 6.91573 6.70641
#
# Compressibility (1/GPa) = 0.02201526
#
# Stress axis : x y z
#
# Youngs Moduli (GPa) = 59.49072 61.81762 37.85078
#
# Poissons Ratio (x) = 0.43848 0.11300
# Poissons Ratio (y) = 0.42198 0.32614
# Poissons Ratio (z) = 0.17761 0.53265
#
# Static dielectric constant tensor:
#      x y z
#    x 3.542440 0.000000 0.000000 
#    y 0.000000 3.422860 0.000000 
#    z 0.000000 0.000000 3.200200 
# 
# 
# High freq. dielectric constant tensor:
#      x y z
#    x 1.670700 0.000000 0.000000 
#    y 0.000000 1.663090 0.000000 
#    z 0.000000 0.000000 1.660050 
# 
# From -- ./inp_files/5681.got.cif
#   From: 2010.03.12/outbox.cif.g09.slc.cpg/sg57_3_cif.got.tgz:5681.got - 2010.04.16 15:48:40.
