data_PCOD8230476
_publ_section_title
;
Structure prediction by ZEFSAII (Michael W. Deem and Ramdas Pophale) SiO2 
 PCOD8230476
Probable space group: P B C M
;
_chemical_formula_sum "Si O2"
_cell_formula_units_Z 48
_cell_length_a 7.947182
_cell_length_b 29.580156
_cell_length_c 10.197699
_cell_angle_alpha 90.000000
_cell_angle_beta 90.000000
_cell_angle_gamma 90.000000
_cell_volume 2397.263693
_symmetry_space_group_name_H-M "P B C M"
_symmetry_group_IT_number 57
_symmetry_cell_setting 'orthorhombic'
loop_
_space_group_symop_operation_xyz
x,y,z
-x,-y,1/2+z
x,1/2-y,-z
-x,1/2+y,1/2-z
-x,-y,-z
x,y,1/2-z
-x,1/2+y,z
x,1/2-y,1/2+z
loop_
_atom_site_type_symbol
_atom_site_label
_atom_site_fract_x
_atom_site_fract_y
_atom_site_fract_z
Si Si1 0.989683 0.141441 0.402483
Si Si2 0.490740 0.064427 0.107612
Si Si3 0.255147 0.495291 0.459524
Si Si4 0.295988 0.290331 0.903637
Si Si5 0.378114 0.657792 0.403626
Si Si6 0.045017 0.561504 0.606287
O O1 0.976591 0.125629 0.250000
O O2 0.154314 0.171516 0.424555
O O3 0.002037 0.098024 0.495809
O O4 0.816847 0.169195 0.440307
O O5 0.420132 0.078957 0.250000
O O6 0.583219 0.107479 0.041344
O O7 0.335106 0.049939 0.019686
O O8 0.613876 0.021732 0.131663
O O9 0.097647 0.477148 0.379107
O O10 0.209787 0.532842 0.569678
O O11 0.299462 0.275327 0.750000
O O12 0.479625 0.307409 0.955457
O O13 0.243998 0.250000 0.000000
O O14 0.400796 0.657685 0.250000
O O15 0.068970 0.584326 0.750000
#
# Coordination Sequence:
#
# PCOD8230476 Si02
#       6
#     8   8   8   8   8   8
#     4  10  21  39  62  84 113 155 195 234 284 348
#     4  10  18  33  54  77 106 149 199 239 278 331
#     4  10  21  32  50  77 114 156 196 239 287 335
#     4  10  22  40  63  89 114 142 183 232 290 357
#     4   9  18  35  59  83 109 145 190 231 277 340
#     4  11  22  35  52  82 119 154 195 244 290 335
#
# _framework density 20.022829000000002
#
# number of rings (size 3 to 8) (size 9 to 14) (size 15 to 20)
#    0.000    2.000    1.667    2.000    0.000    6.000 
#    0.000    0.833    0.000    0.000    0.000    0.000 
#    0.000    0.000    0.000    0.000    0.000    0.000 
#
# Total GULP energy -594686.739718 kJ/mol
# GULP energy per Si atom -12389.307077 kJ/mol
# Density = 1.997726 g / cm^3
# Si number density = 20.022829 Si / 1000 Ang^3
#
#
#
# Elastic Constant Matrix: (Units=GPa)
#
#
# Indices 1 2 3 4 5 6 
#
# 1 96.6929 20.6145 19.9449 0.0000 0.0000 0.0000
# 2 20.6145 63.7438 32.8197 0.0000 0.0000 0.0000
# 3 19.9449 32.8197 86.2578 0.0000 0.0000 0.0000
# 4 0.0000 0.0000 0.0000 30.2852 0.0000 0.0000
# 5 0.0000 0.0000 0.0000 0.0000 8.6634 0.0000
# 6 0.0000 0.0000 0.0000 0.0000 0.0000 29.3700
#
#
#
# Elastic Compliance Matrix: (Units=1/GPa)
#
#
# Indices 1 2 3 4 5 6 
#
# 1 0.011265 -0.002863 -0.001515 0.000000 0.000000 0.000000
# 2 -0.002863 0.020237 -0.007038 0.000000 0.000000 0.000000
# 3 -0.001515 -0.007038 0.014621 0.000000 0.000000 0.000000
# 4 0.000000 0.000000 0.000000 0.033019 0.000000 0.000000
# 5 0.000000 0.000000 0.000000 0.000000 0.115428 0.000000
# 6 0.000000 0.000000 0.000000 0.000000 0.000000 0.034048
#
#
# Mechanical properties :
#
#
# Convention : Reuss Voigt Hill
#
# Bulk Modulus (GPa) = 42.93485 43.71696 43.32591
# Shear Modulus (GPa) = 19.28897 25.21809 22.25353
#
# Velocity S-wave (km/s) = 3.10715 3.55275 3.33739
# Velocity P-wave (km/s) = 5.86191 6.22176 6.04452
#
# Compressibility (1/GPa) = 0.02329110
#
# Stress axis : x y z
#
# Youngs Moduli (GPa) = 88.77095 49.41384 68.39276
#
# Poissons Ratio (x) = 0.14146 0.10365
# Poissons Ratio (y) = 0.25413 0.48135
# Poissons Ratio (z) = 0.13453 0.34778
#
# Static dielectric constant tensor:
#      x y z
#    x 3.931340 0.000000 0.000000 
#    y 0.000000 3.452440 0.000000 
#    z 0.000000 0.000000 3.341100 
# 
# 
# High freq. dielectric constant tensor:
#      x y z
#    x 1.801340 0.000000 0.000000 
#    y 0.000000 1.757460 0.000000 
#    z 0.000000 0.000000 1.753810 
# 
# From -- ./inp_files/12071.got.cif
#   From: 2010.03.12/outbox.cif.g09.slc.cpg/sg57_7_cif.got.tgz:12071.got - 2010.04.16 15:48:40.
