data_PCOD8230674
_publ_section_title
;
Structure prediction by ZEFSAII (Michael W. Deem and Ramdas Pophale) SiO2 
 PCOD8230674
Probable space group: P B C M
;
_chemical_formula_sum "Si O2"
_cell_formula_units_Z 64
_cell_length_a 14.838845
_cell_length_b 29.683515
_cell_length_c 9.053570
_cell_angle_alpha 90.000000
_cell_angle_beta 90.000000
_cell_angle_gamma 90.000000
_cell_volume 3987.817632
_symmetry_space_group_name_H-M "P B C M"
_symmetry_group_IT_number 57
_symmetry_cell_setting 'orthorhombic'
loop_
_space_group_symop_operation_xyz
x,y,z
-x,-y,1/2+z
x,1/2-y,-z
-x,1/2+y,1/2-z
-x,-y,-z
x,y,1/2-z
-x,1/2+y,z
x,1/2-y,1/2+z
loop_
_atom_site_type_symbol
_atom_site_label
_atom_site_fract_x
_atom_site_fract_y
_atom_site_fract_z
Si Si1 0.969822 0.107737 0.574651
Si Si2 0.220625 0.205074 0.923642
Si Si3 0.623888 0.025242 0.579886
Si Si4 0.132999 0.059584 0.420198
Si Si5 0.177029 0.539391 0.575710
Si Si6 0.696702 0.621122 0.080178
Si Si7 0.563071 0.563017 0.580468
Si Si8 0.012573 0.205470 0.577805
O O1 0.976597 0.105174 0.750000
O O2 0.884215 0.079958 0.511321
O O3 0.960424 0.160153 0.525795
O O4 0.061386 0.086802 0.514430
O O5 0.234688 0.208800 0.750000
O O6 0.116406 0.198222 0.966949
O O7 0.258225 0.250000 0.000000
O O8 0.277244 0.163940 0.984912
O O9 0.629236 0.007680 0.750000
O O10 0.718874 0.047306 0.530538
O O11 0.545560 0.062589 0.563509
O O12 0.603773 0.984109 0.472635
O O13 0.102513 0.060529 0.250000
O O14 0.230699 0.081618 0.439959
O O15 0.140263 0.008665 0.482768
O O16 0.168000 0.539122 0.750000
O O17 0.686198 0.635398 0.250000
O O18 0.601381 0.603416 0.018601
O O19 0.591661 0.570215 0.750000
O O20 0.972109 0.250000 0.500000
O O21 0.001506 0.213768 0.750000
#
# Coordination Sequence:
#
# PCOD8230674 Si02
#       8
#     8   8   8   8   8   8   8   8
#     4  10  19  31  47  67  91 121 158 194 229 271
#     4  10  19  32  48  69  96 123 157 195 236 282
#     4   9  17  32  48  66  92 122 156 193 237 283
#     4  10  19  30  44  64  93 129 160 186 225 274
#     4   9  17  31  48  65  91 126 159 193 230 277
#     4  11  20  31  48  68  95 129 161 191 234 284
#     4  10  19  29  47  70  92 120 156 198 237 277
#     4   9  18  30  45  66  89 117 150 190 230 270
#
# _framework density 16.048877000000001
#
# number of rings (size 3 to 8) (size 9 to 14) (size 15 to 20)
#    0.000    2.250    2.500    1.500    0.000    2.000 
#    0.000    0.625    0.000    0.000    0.000    0.875 
#    0.000    2.000    0.000    0.000    0.000    0.000 
#
# Total GULP energy -793512.376930 kJ/mol
# GULP energy per Si atom -12398.630890 kJ/mol
# Density = 1.601235 g / cm^3
# Si number density = 16.048877 Si / 1000 Ang^3
#
#
#
# Elastic Constant Matrix: (Units=GPa)
#
#
# Indices 1 2 3 4 5 6 
#
# 1 67.2151 42.3625 23.9874 0.0000 0.0000 0.0000
# 2 42.3625 122.2766 31.7142 0.0000 0.0000 0.0000
# 3 23.9874 31.7142 48.1403 0.0000 0.0000 0.0000
# 4 0.0000 0.0000 0.0000 26.5365 0.0000 0.0000
# 5 0.0000 0.0000 0.0000 0.0000 14.5507 0.0000
# 6 0.0000 0.0000 0.0000 0.0000 0.0000 17.9499
#
#
#
# Elastic Compliance Matrix: (Units=1/GPa)
#
#
# Indices 1 2 3 4 5 6 
#
# 1 0.020702 -0.005423 -0.006743 0.000000 0.000000 0.000000
# 2 -0.005423 0.011284 -0.004732 0.000000 0.000000 0.000000
# 3 -0.006743 -0.004732 0.027249 0.000000 0.000000 0.000000
# 4 0.000000 0.000000 0.000000 0.037684 0.000000 0.000000
# 5 0.000000 0.000000 0.000000 0.000000 0.068725 0.000000
# 6 0.000000 0.000000 0.000000 0.000000 0.000000 0.055711
#
#
# Mechanical properties :
#
#
# Convention : Reuss Voigt Hill
#
# Bulk Modulus (GPa) = 39.30717 48.19558 43.75138
# Shear Modulus (GPa) = 18.96593 21.11195 20.03894
#
# Velocity S-wave (km/s) = 3.44140 3.63089 3.53741
# Velocity P-wave (km/s) = 6.35109 6.90460 6.63362
#
# Compressibility (1/GPa) = 0.02544065
#
# Stress axis : x y z
#
# Youngs Moduli (GPa) = 48.30461 88.61857 36.69810
#
# Poissons Ratio (x) = 0.48061 0.24744
# Poissons Ratio (y) = 0.26197 0.17364
# Poissons Ratio (z) = 0.32569 0.41931
#
# Static dielectric constant tensor:
#      x y z
#    x 3.088740 0.000000 0.000000 
#    y 0.000000 3.174640 0.000000 
#    z 0.000000 0.000000 3.003390 
# 
# 
# High freq. dielectric constant tensor:
#      x y z
#    x 1.595970 0.000000 0.000000 
#    y 0.000000 1.607610 0.000000 
#    z 0.000000 0.000000 1.613350 
# 
# From -- ./inp_files/5958.got.cif
#   From: 2010.03.12/outbox.cif.g09.slc.cpg/sg57_3_cif.got.tgz:5958.got - 2010.04.16 15:48:40.
