data_PCOD8230176
_publ_section_title
;
Structure prediction by ZEFSAII (Michael W. Deem and Ramdas Pophale) SiO2 
 PCOD8230176
Probable space group: P B C M
;
_chemical_formula_sum "Si O2"
_cell_formula_units_Z 64
_cell_length_a 13.792826
_cell_length_b 28.324325
_cell_length_c 9.222911
_cell_angle_alpha 90.000000
_cell_angle_beta 90.000000
_cell_angle_gamma 90.000000
_cell_volume 3603.137571
_symmetry_space_group_name_H-M "P B C M"
_symmetry_group_IT_number 57
_symmetry_cell_setting 'orthorhombic'
loop_
_space_group_symop_operation_xyz
x,y,z
-x,-y,1/2+z
x,1/2-y,-z
-x,1/2+y,1/2-z
-x,-y,-z
x,y,1/2-z
-x,1/2+y,z
x,1/2-y,1/2+z
loop_
_atom_site_type_symbol
_atom_site_label
_atom_site_fract_x
_atom_site_fract_y
_atom_site_fract_z
Si Si1 0.095571 0.481800 0.419481
Si Si2 0.788878 0.291291 0.908730
Si Si3 0.133744 0.121027 0.584888
Si Si4 0.505476 0.797776 0.081551
Si Si5 0.268647 0.202631 0.580981
Si Si6 0.377094 0.633183 0.409366
Si Si7 0.790376 0.072156 0.417851
Si Si8 0.915045 0.145863 0.915851
O O1 0.067726 0.476185 0.250000
O O2 0.130483 0.431366 0.486128
O O3 0.186845 0.516913 0.441286
O O4 0.000000 0.500000 0.500000
O O5 0.820082 0.273242 0.750000
O O6 0.714670 0.333281 0.896167
O O7 0.737517 0.250000 0.000000
O O8 0.883470 0.307619 0.996981
O O9 0.165966 0.114087 0.750000
O O10 0.211539 0.157302 0.514318
O O11 0.029646 0.144668 0.570463
O O12 0.479354 0.791344 0.250000
O O13 0.618208 0.806664 0.054864
O O14 0.471225 0.750000 0.000000
O O15 0.453152 0.845141 0.022411
O O16 0.234791 0.250000 0.500000
O O17 0.244567 0.209583 0.750000
O O18 0.426746 0.627947 0.250000
O O19 0.323382 0.584131 0.459090
O O20 0.807818 0.086532 0.250000
O O21 0.867521 0.099251 0.516718
O O22 0.880603 0.149408 0.750000
#
# Coordination Sequence:
#
# PCOD8230176 Si02
#       8
#     8   8   8   8   8   8   8   8
#     4  10  18  31  52  76 101 131 168 207 246 287
#     4  10  20  32  44  63  93 128 162 197 240 292
#     4   9  18  32  51  74  99 129 165 204 245 293
#     4  10  19  31  51  74  94 123 161 206 252 296
#     4   9  19  36  53  72  99 128 164 205 248 296
#     4   9  18  31  47  68  95 125 157 196 242 293
#     4   9  18  31  47  70 100 130 161 198 242 291
#     4  10  18  29  46  67  93 127 163 199 241 285
#
# _framework density 17.762297
#
# number of rings (size 3 to 8) (size 9 to 14) (size 15 to 20)
#    0.000    2.500    1.250    2.250    0.000    4.500 
#    0.000    3.125    0.000    0.750    0.000    0.000 
#    0.000    0.000    0.000    0.000    0.000    0.625 
#
# Total GULP energy -793126.228455 kJ/mol
# GULP energy per Si atom -12392.597320 kJ/mol
# Density = 1.772187 g / cm^3
# Si number density = 17.762297 Si / 1000 Ang^3
#
#
#
# Elastic Constant Matrix: (Units=GPa)
#
#
# Indices 1 2 3 4 5 6 
#
# 1 67.8250 50.6919 33.6068 0.0000 0.0000 0.0000
# 2 50.6919 105.5898 37.7559 0.0000 0.0000 0.0000
# 3 33.6068 37.7559 84.6834 0.0000 0.0000 0.0000
# 4 0.0000 0.0000 0.0000 22.4189 0.0000 0.0000
# 5 0.0000 0.0000 0.0000 0.0000 19.4345 0.0000
# 6 0.0000 0.0000 0.0000 0.0000 0.0000 29.4903
#
#
#
# Elastic Compliance Matrix: (Units=1/GPa)
#
#
# Indices 1 2 3 4 5 6 
#
# 1 0.024924 -0.010027 -0.005420 0.000000 0.000000 0.000000
# 2 -0.010027 0.015301 -0.002843 0.000000 0.000000 0.000000
# 3 -0.005420 -0.002843 0.015227 0.000000 0.000000 0.000000
# 4 0.000000 0.000000 0.000000 0.044605 0.000000 0.000000
# 5 0.000000 0.000000 0.000000 0.000000 0.051455 0.000000
# 6 0.000000 0.000000 0.000000 0.000000 0.000000 0.033909
#
#
# Mechanical properties :
#
#
# Convention : Reuss Voigt Hill
#
# Bulk Modulus (GPa) = 52.99023 55.80082 54.39552
# Shear Modulus (GPa) = 21.90167 23.33831 22.61999
#
# Velocity S-wave (km/s) = 3.51528 3.62874 3.57246
# Velocity P-wave (km/s) = 6.80985 7.00289 6.90705
#
# Compressibility (1/GPa) = 0.01887140
#
# Stress axis : x y z
#
# Youngs Moduli (GPa) = 40.12193 65.35516 65.67226
#
# Poissons Ratio (x) = 0.65534 0.35597
# Poissons Ratio (y) = 0.40232 0.18667
# Poissons Ratio (z) = 0.21748 0.18577
#
# Static dielectric constant tensor:
#      x y z
#    x 3.173420 0.000000 0.000000 
#    y 0.000000 3.629080 0.000000 
#    z 0.000000 0.000000 3.370080 
# 
# 
# High freq. dielectric constant tensor:
#      x y z
#    x 1.666270 0.000000 0.000000 
#    y 0.000000 1.682430 0.000000 
#    z 0.000000 0.000000 1.680290 
# 
# From -- ./inp_files/6035.got.cif
#   From: 2010.03.12/outbox.cif.g09.slc.cpg/sg57_4_cif.got.tgz:6035.got - 2010.04.16 15:48:40.
