data_PCOD8230266
_publ_section_title
;
Structure prediction by ZEFSAII (Michael W. Deem and Ramdas Pophale) SiO2 
 PCOD8230266
Probable space group: P B C M
;
_chemical_formula_sum "Si O2"
_cell_formula_units_Z 64
_cell_length_a 18.072383
_cell_length_b 22.312886
_cell_length_c 8.653736
_cell_angle_alpha 90.000000
_cell_angle_beta 90.000000
_cell_angle_gamma 90.000000
_cell_volume 3489.593268
_symmetry_space_group_name_H-M "P B C M"
_symmetry_group_IT_number 57
_symmetry_cell_setting 'orthorhombic'
loop_
_space_group_symop_operation_xyz
x,y,z
-x,-y,1/2+z
x,1/2-y,-z
-x,1/2+y,1/2-z
-x,-y,-z
x,y,1/2-z
-x,1/2+y,z
x,1/2-y,1/2+z
loop_
_atom_site_type_symbol
_atom_site_label
_atom_site_fract_x
_atom_site_fract_y
_atom_site_fract_z
Si Si1 0.028652 0.183593 0.066905
Si Si2 0.121518 0.683984 0.567551
Si Si3 0.176796 0.184985 0.930591
Si Si4 0.323552 0.996244 0.074999
Si Si5 0.671018 0.876661 0.070498
Si Si6 0.744830 0.111136 0.067826
Si Si7 0.403703 0.618620 0.575349
Si Si8 0.535353 0.686273 0.068510
O O1 0.024129 0.182994 0.250000
O O2 0.032925 0.250000 0.000000
O O3 0.954319 0.153947 0.997699
O O4 0.104937 0.153012 0.008801
O O5 0.134265 0.750000 0.500000
O O6 0.116439 0.689162 0.750000
O O7 0.187704 0.641355 0.519472
O O8 0.161988 0.192879 0.750000
O O9 0.245043 0.141412 0.965808
O O10 0.194489 0.250000 0.000000
O O11 0.298284 0.011101 0.250000
O O12 0.397137 0.954136 0.076607
O O13 0.342847 0.056029 0.984095
O O14 0.258792 0.958716 0.986762
O O15 0.651885 0.871515 0.250000
O O16 0.617824 0.831219 0.981033
O O17 0.755911 0.116068 0.250000
O O18 0.668631 0.144546 0.015195
O O19 0.403916 0.644017 0.750000
O O20 0.478528 0.636121 0.489784
O O21 0.531476 0.690368 0.250000
O O22 0.512252 0.750000 0.000000
#
# Coordination Sequence:
#
# PCOD8230266 Si02
#       8
#     8   8   8   8   8   8   8   8
#     4  10  18  30  49  75 107 143 179 221 269 322
#     4  11  20  32  51  79 112 145 182 224 270 324
#     4  10  20  34  53  79 109 144 180 220 271 325
#     4   9  20  38  59  82 108 142 184 227 270 318
#     4  11  23  38  59  83 110 144 184 228 272 323
#     4  10  19  35  56  81 110 143 182 224 270 320
#     4   9  20  39  59  82 110 144 183 223 269 321
#     4  12  25  40  59  83 114 147 180 224 274 325
#
# _framework density 18.340246
#
# number of rings (size 3 to 8) (size 9 to 14) (size 15 to 20)
#    0.750    1.000    0.000    7.500    0.000    4.000 
#    0.000    2.500    0.000    0.750    0.000    0.000 
#    0.000    0.000    0.000    0.000    0.000    0.000 
#
# Total GULP energy -793364.808044 kJ/mol
# GULP energy per Si atom -12396.325126 kJ/mol
# Density = 1.829850 g / cm^3
# Si number density = 18.340246 Si / 1000 Ang^3
#
#
#
# Elastic Constant Matrix: (Units=GPa)
#
#
# Indices 1 2 3 4 5 6 
#
# 1 99.2548 23.9017 46.5653 0.0000 0.0000 0.0000
# 2 23.9017 62.9639 27.7172 0.0000 0.0000 0.0000
# 3 46.5653 27.7172 151.5265 0.0000 0.0000 0.0000
# 4 0.0000 0.0000 0.0000 26.9011 0.0000 0.0000
# 5 0.0000 0.0000 0.0000 0.0000 29.7590 0.0000
# 6 0.0000 0.0000 0.0000 0.0000 0.0000 -16.0732
#
#
#
# Elastic Compliance Matrix: (Units=1/GPa)
#
#
# Indices 1 2 3 4 5 6 
#
# 1 0.012368 -0.003286 -0.003199 0.000000 0.000000 0.000000
# 2 -0.003286 0.018146 -0.002309 0.000000 0.000000 0.000000
# 3 -0.003199 -0.002309 0.008005 0.000000 0.000000 0.000000
# 4 0.000000 0.000000 0.000000 0.037173 0.000000 0.000000
# 5 0.000000 0.000000 0.000000 0.000000 0.033603 0.000000
# 6 0.000000 0.000000 0.000000 0.000000 0.000000 -0.062215
#
#
# Mechanical properties :
#
#
# Convention : Reuss Voigt Hill
#
# Bulk Modulus (GPa) = 47.78187 56.67929 52.23058
# Shear Modulus (GPa) = 69.78684 22.48811 46.13747
#
# Velocity S-wave (km/s) = 6.17526 3.50546 5.02106
# Velocity P-wave (km/s) = 8.77238 6.88155 7.88386
#
# Compressibility (1/GPa) = 0.02092844
#
# Stress axis : x y z
#
# Youngs Moduli (GPa) = 80.85696 55.10771 124.91933
#
# Poissons Ratio (x) = 0.18111 0.39968
# Poissons Ratio (y) = 0.26573 0.28849
# Poissons Ratio (z) = 0.25870 0.12726
#
# Static dielectric constant tensor:
#      x y z
#    x 3.683150 0.000000 0.000000 
#    y 0.000000 3.059870 0.000000 
#    z 0.000000 0.000000 3.548740 
# 
# 
# High freq. dielectric constant tensor:
#      x y z
#    x 1.715680 0.000000 0.000000 
#    y 0.000000 1.675920 0.000000 
#    z 0.000000 0.000000 1.735590 
# 
# From -- ./inp_files/7432.got.cif
#   From: 2010.03.12/outbox.cif.g09.slc.cpg/sg57_4_cif.got.tgz:7432.got - 2010.04.16 15:48:40.
