data_PCOD8230765
_publ_section_title
;
Structure prediction by ZEFSAII (Michael W. Deem and Ramdas Pophale) SiO2 
 PCOD8230765
Probable space group: P B C M
;
_chemical_formula_sum "Si O2"
_cell_formula_units_Z 48
_cell_length_a 9.760534
_cell_length_b 30.707380
_cell_length_c 9.229932
_cell_angle_alpha 90.000000
_cell_angle_beta 90.000000
_cell_angle_gamma 90.000000
_cell_volume 2766.399156
_symmetry_space_group_name_H-M "P B C M"
_symmetry_group_IT_number 57
_symmetry_cell_setting 'orthorhombic'
loop_
_space_group_symop_operation_xyz
x,y,z
-x,-y,1/2+z
x,1/2-y,-z
-x,1/2+y,1/2-z
-x,-y,-z
x,y,1/2-z
-x,1/2+y,z
x,1/2-y,1/2+z
loop_
_atom_site_type_symbol
_atom_site_label
_atom_site_fract_x
_atom_site_fract_y
_atom_site_fract_z
Si Si1 0.012495 0.127788 0.421538
Si Si2 0.793109 0.794636 0.917310
Si Si3 0.284838 0.892552 0.579930
Si Si4 0.772666 0.925302 0.082339
Si Si5 0.424931 0.136528 0.080964
Si Si6 0.364876 0.513445 0.082747
O O1 0.024623 0.120263 0.250000
O O2 0.084244 0.173179 0.465428
O O3 0.088988 0.087932 0.499774
O O4 0.855965 0.128457 0.479825
O O5 0.804498 0.783219 0.750000
O O6 0.647065 0.817326 0.953861
O O7 0.807730 0.750000 0.000000
O O8 0.267713 0.896499 0.750000
O O9 0.413789 0.861423 0.540438
O O10 0.307701 0.941177 0.517383
O O11 0.783153 0.911673 0.250000
O O12 0.752594 0.977025 0.064274
O O13 0.641753 0.901580 0.012818
O O14 0.403123 0.124757 0.250000
O O15 0.406074 0.519347 0.250000
O O16 0.500000 0.500000 0.000000
#
# Coordination Sequence:
#
# PCOD8230765 Si02
#       6
#     8   8   8   8   8   8
#     4   9  19  35  53  72  96 133 172 200 240 298
#     4   9  18  32  52  75  95 122 161 200 244 298
#     4   9  17  32  53  73  97 130 170 209 239 282
#     4  10  19  30  46  73 104 132 165 205 246 285
#     4   9  17  32  54  74  94 127 167 200 239 293
#     4  10  19  30  48  73 100 133 171 209 247 283
#
# _framework density 17.351075000000002
#
# number of rings (size 3 to 8) (size 9 to 14) (size 15 to 20)
#    0.000    2.667    1.667    1.500    0.000    4.000 
#    0.000    2.500    0.000    0.000    0.000    0.000 
#    0.000    0.000    0.000    0.000    0.000    0.000 
#
# Total GULP energy -595019.615176 kJ/mol
# GULP energy per Si atom -12396.241983 kJ/mol
# Density = 1.731158 g / cm^3
# Si number density = 17.351075 Si / 1000 Ang^3
#
#
#
# Elastic Constant Matrix: (Units=GPa)
#
#
# Indices 1 2 3 4 5 6 
#
# 1 168.4130 71.3365 33.9835 0.0000 0.0000 0.0000
# 2 71.3365 119.9351 34.9823 0.0000 0.0000 0.0000
# 3 33.9835 34.9823 44.3817 0.0000 0.0000 0.0000
# 4 0.0000 0.0000 0.0000 26.5513 0.0000 0.0000
# 5 0.0000 0.0000 0.0000 0.0000 19.1448 0.0000
# 6 0.0000 0.0000 0.0000 0.0000 0.0000 19.0920
#
#
#
# Elastic Compliance Matrix: (Units=1/GPa)
#
#
# Indices 1 2 3 4 5 6 
#
# 1 0.008271 -0.003990 -0.003189 0.000000 0.000000 0.000000
# 2 -0.003990 0.012751 -0.006996 0.000000 0.000000 0.000000
# 3 -0.003189 -0.006996 0.030488 0.000000 0.000000 0.000000
# 4 0.000000 0.000000 0.000000 0.037663 0.000000 0.000000
# 5 0.000000 0.000000 0.000000 0.000000 0.052233 0.000000
# 6 0.000000 0.000000 0.000000 0.000000 0.000000 0.052378
#
#
# Mechanical properties :
#
#
# Convention : Reuss Voigt Hill
#
# Bulk Modulus (GPa) = 43.17443 68.14826 55.66135
# Shear Modulus (GPa) = 21.75299 25.78613 23.76956
#
# Velocity S-wave (km/s) = 3.54460 3.85923 3.70526
# Velocity P-wave (km/s) = 6.45671 7.69543 7.10312
#
# Compressibility (1/GPa) = 0.02316186
#
# Stress axis : x y z
#
# Youngs Moduli (GPa) = 120.90292 78.42310 32.80006
#
# Poissons Ratio (x) = 0.31287 0.10459
# Poissons Ratio (y) = 0.48235 0.22947
# Poissons Ratio (z) = 0.38552 0.54865
#
# Static dielectric constant tensor:
#      x y z
#    x 3.574160 0.000000 0.000000 
#    y 0.000000 3.176090 0.000000 
#    z 0.000000 0.000000 3.088400 
# 
# 
# High freq. dielectric constant tensor:
#      x y z
#    x 1.671770 0.000000 0.000000 
#    y 0.000000 1.657310 0.000000 
#    z 0.000000 0.000000 1.652610 
# 
# From -- ./inp_files/2138.got.cif
#   From: 2010.03.12/outbox.cif.g09.slc.cpg/sg57_2_cif.got.tgz:2138.got - 2010.04.16 15:48:40.
