data_PCOD8230245
_publ_section_title
;
Structure prediction by ZEFSAII (Michael W. Deem and Ramdas Pophale) SiO2 
 PCOD8230245
Probable space group: P B C M
;
_chemical_formula_sum "Si O2"
_cell_formula_units_Z 64
_cell_length_a 11.801160
_cell_length_b 33.958380
_cell_length_c 8.972833
_cell_angle_alpha 90.000000
_cell_angle_beta 90.000000
_cell_angle_gamma 90.000000
_cell_volume 3595.847353
_symmetry_space_group_name_H-M "P B C M"
_symmetry_group_IT_number 57
_symmetry_cell_setting 'orthorhombic'
loop_
_space_group_symop_operation_xyz
x,y,z
-x,-y,1/2+z
x,1/2-y,-z
-x,1/2+y,1/2-z
-x,-y,-z
x,y,1/2-z
-x,1/2+y,z
x,1/2-y,1/2+z
loop_
_atom_site_type_symbol
_atom_site_label
_atom_site_fract_x
_atom_site_fract_y
_atom_site_fract_z
Si Si1 0.882939 0.395754 0.574325
Si Si2 0.543720 0.588903 0.917702
Si Si3 0.492191 0.789879 0.925412
Si Si4 0.126231 0.125792 0.077062
Si Si5 0.266230 0.046835 0.423049
Si Si6 0.114371 0.984831 0.927390
Si Si7 0.643607 0.366802 0.924761
Si Si8 0.685927 0.668314 0.917242
O O1 0.897199 0.397310 0.750000
O O2 0.866300 0.440215 0.517522
O O3 0.775128 0.369383 0.526871
O O4 0.998430 0.376321 0.511244
O O5 0.525176 0.573321 0.750000
O O6 0.617403 0.628093 0.918266
O O7 0.608629 0.556108 0.014321
O O8 0.422986 0.598373 0.991571
O O9 0.500686 0.784245 0.750000
O O10 0.402978 0.823909 0.969807
O O11 0.446609 0.750000 0.000000
O O12 0.617362 0.799615 0.987185
O O13 0.130038 0.137287 0.250000
O O14 0.182194 0.083309 0.050899
O O15 0.191359 0.160304 0.989199
O O16 0.275890 0.036034 0.250000
O O17 0.220324 0.009707 0.513907
O O18 0.105264 0.988468 0.750000
O O19 0.000000 0.000000 0.000000
O O20 0.627358 0.374397 0.750000
O O21 0.701842 0.684504 0.750000
#
# Coordination Sequence:
#
# PCOD8230245 Si02
#       8
#     8   8   8   8   8   8   8   8
#     4   9  18  33  51  71  98 135 176 213 250 299
#     4   9  17  30  48  71  98 128 162 208 259 300
#     4  10  19  32  54  81 104 129 158 196 242 291
#     4   9  16  29  48  70  97 130 165 203 249 299
#     4  10  18  30  48  71  96 127 169 214 261 309
#     4  11  20  32  48  70  99 131 170 219 266 307
#     4   9  18  34  54  74  98 132 173 208 243 297
#     4   9  17  29  47  74 103 127 156 198 242 290
#
# _framework density 17.798309
#
# number of rings (size 3 to 8) (size 9 to 14) (size 15 to 20)
#    0.000    2.500    1.250    1.875    0.000    4.000 
#    0.000    2.500    0.000    0.750    0.000    1.750 
#    0.000    0.000    0.000    0.000    0.000    0.000 
#
# Total GULP energy -793556.024527 kJ/mol
# GULP energy per Si atom -12399.312883 kJ/mol
# Density = 1.775780 g / cm^3
# Si number density = 17.798309 Si / 1000 Ang^3
#
#
#
# Elastic Constant Matrix: (Units=GPa)
#
#
# Indices 1 2 3 4 5 6 
#
# 1 119.6249 44.1522 40.4240 0.0000 0.0000 0.0000
# 2 44.1522 72.7146 34.3041 0.0000 0.0000 0.0000
# 3 40.4240 34.3041 83.2994 0.0000 0.0000 0.0000
# 4 0.0000 0.0000 0.0000 25.3203 0.0000 0.0000
# 5 0.0000 0.0000 0.0000 0.0000 21.1825 0.0000
# 6 0.0000 0.0000 0.0000 0.0000 0.0000 21.3338
#
#
#
# Elastic Compliance Matrix: (Units=1/GPa)
#
#
# Indices 1 2 3 4 5 6 
#
# 1 0.011482 -0.005390 -0.003352 0.000000 0.000000 0.000000
# 2 -0.005390 0.019599 -0.005455 0.000000 0.000000 0.000000
# 3 -0.003352 -0.005455 0.015878 0.000000 0.000000 0.000000
# 4 0.000000 0.000000 0.000000 0.039494 0.000000 0.000000
# 5 0.000000 0.000000 0.000000 0.000000 0.047209 0.000000
# 6 0.000000 0.000000 0.000000 0.000000 0.000000 0.046874
#
#
# Mechanical properties :
#
#
# Convention : Reuss Voigt Hill
#
# Bulk Modulus (GPa) = 53.86933 57.04439 55.45686
# Shear Modulus (GPa) = 23.24294 24.01789 23.63041
#
# Velocity S-wave (km/s) = 3.61765 3.67747 3.64768
# Velocity P-wave (km/s) = 6.91246 7.08179 6.99764
#
# Compressibility (1/GPa) = 0.01856344
#
# Stress axis : x y z
#
# Youngs Moduli (GPa) = 87.09506 51.02303 62.97927
#
# Poissons Ratio (x) = 0.27503 0.21111
# Poissons Ratio (y) = 0.46947 0.34358
# Poissons Ratio (z) = 0.29195 0.27835
#
# Static dielectric constant tensor:
#      x y z
#    x 3.418890 0.000000 0.000000 
#    y 0.000000 3.146060 0.000000 
#    z 0.000000 0.000000 3.318920 
# 
# 
# High freq. dielectric constant tensor:
#      x y z
#    x 1.684180 0.000000 0.000000 
#    y 0.000000 1.659230 0.000000 
#    z 0.000000 0.000000 1.687470 
# 
# From -- ./inp_files/3760.got.cif
#   From: 2010.03.12/outbox.cif.g09.slc.cpg/sg57_2_cif.got.tgz:3760.got - 2010.04.16 15:48:40.
