data_PCOD8230690
_publ_section_title
;
Structure prediction by ZEFSAII (Michael W. Deem and Ramdas Pophale) SiO2 
 PCOD8230690
Probable space group: P B C M
;
_chemical_formula_sum "Si O2"
_cell_formula_units_Z 64
_cell_length_a 31.540429
_cell_length_b 14.023980
_cell_length_c 9.208502
_cell_angle_alpha 90.000000
_cell_angle_beta 90.000000
_cell_angle_gamma 90.000000
_cell_volume 4073.126203
_symmetry_space_group_name_H-M "P B C M"
_symmetry_group_IT_number 57
_symmetry_cell_setting 'orthorhombic'
loop_
_space_group_symop_operation_xyz
x,y,z
-x,-y,1/2+z
x,1/2-y,-z
-x,1/2+y,1/2-z
-x,-y,-z
x,y,1/2-z
-x,1/2+y,z
x,1/2-y,1/2+z
loop_
_atom_site_type_symbol
_atom_site_label
_atom_site_fract_x
_atom_site_fract_y
_atom_site_fract_z
Si Si1 0.321506 0.849785 0.580299
Si Si2 0.138263 0.850644 0.579863
Si Si3 0.403186 0.539152 0.416672
Si Si4 0.979214 0.852082 0.578963
Si Si5 0.470275 0.655048 0.921286
Si Si6 0.060821 0.522635 0.080736
Si Si7 0.769750 0.153176 0.083245
Si Si8 0.433807 0.161622 0.913613
O O1 0.327172 0.750000 0.500000
O O2 0.326317 0.828740 0.750000
O O3 0.358134 0.921305 0.527484
O O4 0.275129 0.899591 0.547000
O O5 0.131403 0.750000 0.500000
O O6 0.131881 0.830159 0.750000
O O7 0.104628 0.929415 0.527804
O O8 0.185149 0.896990 0.545416
O O9 0.412626 0.568983 0.250000
O O10 0.441289 0.570747 0.519485
O O11 0.401345 0.425230 0.431378
O O12 0.976178 0.750000 0.500000
O O13 0.970334 0.838387 0.750000
O O14 0.025050 0.898131 0.549558
O O15 0.945116 0.926050 0.511905
O O16 0.464010 0.664809 0.750000
O O17 0.518800 0.633686 0.966976
O O18 0.453752 0.750000 0.000000
O O19 0.061403 0.494159 0.250000
O O20 0.770334 0.181262 0.250000
O O21 0.768296 0.250000 0.000000
O O22 0.437579 0.196699 0.750000
O O23 0.414468 0.250000 0.000000
#
# Coordination Sequence:
#
# PCOD8230690 Si02
#       8
#     8   8   8   8   8   8   8   8
#     4   9  17  28  42  61  87 113 136 163 198 244
#     4   9  16  26  42  63  87 113 142 175 208 245
#     4  10  19  30  44  63  85 109 138 171 204 241
#     4  10  19  30  44  61  85 116 146 179 217 254
#     4  10  19  30  44  62  84 110 137 166 201 242
#     4   9  18  30  43  62  86 113 146 180 213 252
#     4   8  14  25  40  59  83 111 138 164 200 244
#     4   9  19  33  46  60  80 106 137 173 209 242
#
# _framework density 15.712745999999999
#
# number of rings (size 3 to 8) (size 9 to 14) (size 15 to 20)
#    0.000    2.750    0.000    1.875    0.000    3.500 
#    0.000    0.000    0.000    0.000    0.000    0.875 
#    0.000    2.000    0.000    0.000    0.000    0.000 
#
# Total GULP energy -793000.294913 kJ/mol
# GULP energy per Si atom -12390.629608 kJ/mol
# Density = 1.567698 g / cm^3
# Si number density = 15.712746 Si / 1000 Ang^3
#
#
#
# Elastic Constant Matrix: (Units=GPa)
#
#
# Indices 1 2 3 4 5 6 
#
# 1 110.2394 56.9244 33.3390 0.0000 0.0000 0.0000
# 2 56.9244 92.7417 41.9378 0.0000 0.0000 0.0000
# 3 33.3390 41.9378 52.5173 0.0000 0.0000 0.0000
# 4 0.0000 0.0000 0.0000 25.7939 0.0000 0.0000
# 5 0.0000 0.0000 0.0000 0.0000 18.0439 0.0000
# 6 0.0000 0.0000 0.0000 0.0000 0.0000 21.5687
#
#
#
# Elastic Compliance Matrix: (Units=1/GPa)
#
#
# Indices 1 2 3 4 5 6 
#
# 1 0.013591 -0.006950 -0.003078 0.000000 0.000000 0.000000
# 2 -0.006950 0.020431 -0.011903 0.000000 0.000000 0.000000
# 3 -0.003078 -0.011903 0.030500 0.000000 0.000000 0.000000
# 4 0.000000 0.000000 0.000000 0.038769 0.000000 0.000000
# 5 0.000000 0.000000 0.000000 0.000000 0.055420 0.000000
# 6 0.000000 0.000000 0.000000 0.000000 0.000000 0.046364
#
#
# Mechanical properties :
#
#
# Convention : Reuss Voigt Hill
#
# Bulk Modulus (GPa) = 48.40200 57.76673 53.08437
# Shear Modulus (GPa) = 19.54464 21.30110 20.42287
#
# Velocity S-wave (km/s) = 3.53068 3.68592 3.60914
# Velocity P-wave (km/s) = 6.89145 7.41342 7.15719
#
# Compressibility (1/GPa) = 0.02066030
#
# Stress axis : x y z
#
# Youngs Moduli (GPa) = 73.57905 48.94422 32.78643
#
# Poissons Ratio (x) = 0.34018 0.10090
# Poissons Ratio (y) = 0.51140 0.39027
# Poissons Ratio (z) = 0.22644 0.58260
#
# Static dielectric constant tensor:
#      x y z
#    x 3.448910 0.000000 0.000000 
#    y 0.000000 2.770940 0.000000 
#    z 0.000000 0.000000 3.017170 
# 
# 
# High freq. dielectric constant tensor:
#      x y z
#    x 1.600290 0.000000 0.000000 
#    y 0.000000 1.572380 0.000000 
#    z 0.000000 0.000000 1.608720 
# 
# From -- ./inp_files/10341.got.cif
#   From: 2010.03.12/outbox.cif.g09.slc.cpg/sg57_6_cif.got.tgz:10341.got - 2010.04.16 15:48:40.
