data_PCOD8230572
_publ_section_title
;
Structure prediction by ZEFSAII (Michael W. Deem and Ramdas Pophale) SiO2 
 PCOD8230572
Probable space group: P B C M
;
_chemical_formula_sum "Si O2"
_cell_formula_units_Z 64
_cell_length_a 11.474837
_cell_length_b 17.786959
_cell_length_c 16.792438
_cell_angle_alpha 90.000000
_cell_angle_beta 90.000000
_cell_angle_gamma 90.000000
_cell_volume 3427.377825
_symmetry_space_group_name_H-M "P B C M"
_symmetry_group_IT_number 57
_symmetry_cell_setting 'orthorhombic'
loop_
_space_group_symop_operation_xyz
x,y,z
-x,-y,1/2+z
x,1/2-y,-z
-x,1/2+y,1/2-z
-x,-y,-z
x,y,1/2-z
-x,1/2+y,z
x,1/2-y,1/2+z
loop_
_atom_site_type_symbol
_atom_site_label
_atom_site_fract_x
_atom_site_fract_y
_atom_site_fract_z
Si Si1 0.317841 0.565756 0.065927
Si Si2 0.460512 0.160248 0.420901
Si Si3 0.249071 0.066855 0.660213
Si Si4 0.549255 0.827152 0.394637
Si Si5 0.140933 0.835184 0.020973
Si Si6 0.707938 0.965472 0.581710
Si Si7 0.922802 0.572923 0.515608
Si Si8 0.297783 0.615375 0.659105
O O1 0.408359 0.631063 0.083824
O O2 0.305296 0.515338 0.144897
O O3 0.198862 0.607533 0.041881
O O4 0.351779 0.508807 0.993689
O O5 0.423855 0.167881 0.512387
O O6 0.451948 0.238379 0.372561
O O7 0.375044 0.098778 0.382552
O O8 0.201371 0.070250 0.750000
O O9 0.346546 0.131595 0.651091
O O10 0.140752 0.074457 0.600768
O O11 0.425459 0.863607 0.373371
O O12 0.196994 0.844701 0.108240
O O13 0.003534 0.853139 0.017370
O O14 0.163951 0.750000 0.000000
O O15 0.723757 0.025814 0.652052
O O16 0.828504 0.925693 0.555445
O O17 0.000000 0.500000 0.500000
O O18 0.284793 0.640988 0.750000
#
# Coordination Sequence:
#
# PCOD8230572 Si02
#       8
#     8   8   8   8   8   8   8   8
#     4  10  18  35  60  88 115 147 199 244 280 350
#     4  11  19  33  60  88 117 155 203 239 285 344
#     4  11  23  39  61  87 121 158 193 243 302 352
#     4  11  21  34  56  91 123 155 193 241 294 358
#     4  11  22  38  63  87 113 151 199 246 290 346
#     4  10  19  35  61  83 113 150 200 246 277 345
#     4  11  20  40  60  86 110 148 205 247 279 339
#     4  11  22  37  59  87 120 155 189 239 302 358
#
# _framework density 18.673168
#
# number of rings (size 3 to 8) (size 9 to 14) (size 15 to 20)
#    0.000    1.250    8.750    2.250    0.000    1.500 
#    0.000    4.375    0.000    0.000    0.000    0.000 
#    0.000    0.000    0.000    0.000    0.000    0.000 
#
# Total GULP energy -793385.168975 kJ/mol
# GULP energy per Si atom -12396.643265 kJ/mol
# Density = 1.863067 g / cm^3
# Si number density = 18.673168 Si / 1000 Ang^3
#
#
#
# Elastic Constant Matrix: (Units=GPa)
#
#
# Indices 1 2 3 4 5 6 
#
# 1 89.2716 42.2451 25.3520 0.0000 0.0000 0.0000
# 2 42.2451 122.0132 33.6303 0.0000 0.0000 0.0000
# 3 25.3520 33.6303 65.6741 0.0000 0.0000 0.0000
# 4 0.0000 0.0000 0.0000 13.3503 0.0000 0.0000
# 5 0.0000 0.0000 0.0000 0.0000 13.2645 0.0000
# 6 0.0000 0.0000 0.0000 0.0000 0.0000 31.8281
#
#
#
# Elastic Compliance Matrix: (Units=1/GPa)
#
#
# Indices 1 2 3 4 5 6 
#
# 1 0.014023 -0.003916 -0.003408 0.000000 0.000000 0.000000
# 2 -0.003916 0.010636 -0.003935 0.000000 0.000000 0.000000
# 3 -0.003408 -0.003935 0.018557 0.000000 0.000000 0.000000
# 4 0.000000 0.000000 0.000000 0.074905 0.000000 0.000000
# 5 0.000000 0.000000 0.000000 0.000000 0.075389 0.000000
# 6 0.000000 0.000000 0.000000 0.000000 0.000000 0.031419
#
#
# Mechanical properties :
#
#
# Convention : Reuss Voigt Hill
#
# Bulk Modulus (GPa) = 48.31216 53.26819 50.79017
# Shear Modulus (GPa) = 19.65826 23.40401 21.53114
#
# Velocity S-wave (km/s) = 3.24814 3.54411 3.39935
# Velocity P-wave (km/s) = 6.32423 6.73321 6.53192
#
# Compressibility (1/GPa) = 0.02069872
#
# Stress axis : x y z
#
# Youngs Moduli (GPa) = 71.31346 94.01851 53.88727
#
# Poissons Ratio (x) = 0.36816 0.18364
# Poissons Ratio (y) = 0.27925 0.21205
# Poissons Ratio (z) = 0.24303 0.36996
#
# Static dielectric constant tensor:
#      x y z
#    x 3.581690 0.000000 0.000000 
#    y 0.000000 3.800460 0.000000 
#    z 0.000000 0.000000 3.199410 
# 
# 
# High freq. dielectric constant tensor:
#      x y z
#    x 1.725530 0.000000 0.000000 
#    y 0.000000 1.732900 0.000000 
#    z 0.000000 0.000000 1.688920 
# 
# From -- ./inp_files/22165.got.cif
#   From: 2010.03.12/outbox.cif.g09.slc.cpg/sg57_12_cif.got.tgz:22165.got - 2010.04.16 15:48:40.
