data_PCOD8230502
_publ_section_title
;
Structure prediction by ZEFSAII (Michael W. Deem and Ramdas Pophale) SiO2 
 PCOD8230502
Probable space group: P B C M
;
_chemical_formula_sum "Si O2"
_cell_formula_units_Z 40
_cell_length_a 11.744087
_cell_length_b 17.169168
_cell_length_c 10.052599
_cell_angle_alpha 90.000000
_cell_angle_beta 90.000000
_cell_angle_gamma 90.000000
_cell_volume 2026.967890
_symmetry_space_group_name_H-M "P B C M"
_symmetry_group_IT_number 57
_symmetry_cell_setting 'orthorhombic'
loop_
_space_group_symop_operation_xyz
x,y,z
-x,-y,1/2+z
x,1/2-y,-z
-x,1/2+y,1/2-z
-x,-y,-z
x,y,1/2-z
-x,1/2+y,z
x,1/2-y,1/2+z
loop_
_atom_site_type_symbol
_atom_site_label
_atom_site_fract_x
_atom_site_fract_y
_atom_site_fract_z
Si Si1 0.009854 0.591337 0.250000
Si Si2 0.384940 0.342981 0.494089
Si Si3 0.133195 0.842985 0.494231
Si Si4 0.000828 0.407843 0.250000
Si Si5 0.241824 0.165662 0.750000
Si Si6 0.624273 0.327308 0.411959
Si Si7 0.251140 0.350562 0.750000
O O1 0.876548 0.615221 0.250000
O O2 0.081707 0.623474 0.372104
O O3 0.015225 0.499425 0.250000
O O4 0.391721 0.250000 0.500000
O O5 0.303137 0.369768 0.377225
O O6 0.511893 0.375230 0.458920
O O7 0.327883 0.379029 0.625883
O O8 0.125350 0.750000 0.500000
O O9 0.261858 0.871857 0.459957
O O10 0.059869 0.878973 0.379702
O O11 0.117557 0.364586 0.250000
O O12 0.239471 0.258481 0.750000
O O13 0.623491 0.250000 0.500000
O O14 0.623599 0.312010 0.250000
#
# Coordination Sequence:
#
# PCOD8230502 Si02
#       7
#     4   8   8   4   4   8   4
#     4  12  26  41  60  90 130 167 213 256 317 370
#     4   9  18  31  55  87 120 149 193 252 311 356
#     4  11  23  40  65  91 122 163 210 259 305 370
#     4  12  24  41  62  88 128 171 205 262 317 368
#     4  10  18  33  58  83 114 157 200 245 304 360
#     4  10  20  34  59  93 125 153 197 259 315 364
#     4  10  20  35  56  87 120 157 202 255 296 370
#
# _framework density 19.733908
#
# number of rings (size 3 to 8) (size 9 to 14) (size 15 to 20)
#    0.000    1.600    2.000    3.600    8.400    1.600 
#    0.000    0.000    0.000    7.200    0.000    0.000 
#    0.000    0.000    0.000    0.000    0.000    0.000 
#
# Total GULP energy -495560.196447 kJ/mol
# GULP energy per Si atom -12389.004911 kJ/mol
# Density = 1.968899 g / cm^3
# Si number density = 19.733908 Si / 1000 Ang^3
#
#
#
# Elastic Constant Matrix: (Units=GPa)
#
#
# Indices 1 2 3 4 5 6 
#
# 1 254.2499 60.6607 126.0833 0.0000 0.0000 0.0000
# 2 60.6607 75.9485 48.6582 0.0000 0.0000 0.0000
# 3 126.0833 48.6582 214.6682 0.0000 0.0000 0.0000
# 4 0.0000 0.0000 0.0000 23.8514 0.0000 0.0000
# 5 0.0000 0.0000 0.0000 0.0000 51.9229 0.0000
# 6 0.0000 0.0000 0.0000 0.0000 0.0000 40.8044
#
#
#
# Elastic Compliance Matrix: (Units=1/GPa)
#
#
# Indices 1 2 3 4 5 6 
#
# 1 0.006085 -0.003007 -0.002892 0.000000 0.000000 0.000000
# 2 -0.003007 0.016890 -0.002062 0.000000 0.000000 0.000000
# 3 -0.002892 -0.002062 0.006825 0.000000 0.000000 0.000000
# 4 0.000000 0.000000 0.000000 0.041926 0.000000 0.000000
# 5 0.000000 0.000000 0.000000 0.000000 0.019259 0.000000
# 6 0.000000 0.000000 0.000000 0.000000 0.000000 0.024507
#
#
# Mechanical properties :
#
#
# Convention : Reuss Voigt Hill
#
# Bulk Modulus (GPa) = 72.06622 112.85234 92.45928
# Shear Modulus (GPa) = 36.75379 43.94670 40.35024
#
# Velocity S-wave (km/s) = 4.32031 4.72419 4.52676
# Velocity P-wave (km/s) = 7.84124 9.33105 8.61840
#
# Compressibility (1/GPa) = 0.01387613
#
# Stress axis : x y z
#
# Youngs Moduli (GPa) = 164.34189 59.20749 146.52975
#
# Poissons Ratio (x) = 0.17804 0.42381
# Poissons Ratio (y) = 0.49418 0.30217
# Poissons Ratio (z) = 0.47533 0.12210
#
# Static dielectric constant tensor:
#      x y z
#    x 4.426920 0.000000 0.000000 
#    y 0.000000 3.161590 0.000000 
#    z 0.000000 0.000000 3.885860 
# 
# 
# High freq. dielectric constant tensor:
#      x y z
#    x 1.802840 0.000000 0.000000 
#    y 0.000000 1.713910 0.000000 
#    z 0.000000 0.000000 1.794980 
# 
# From -- ./inp_files/2754.got.cif
#   From: 2010.03.12/outbox.cif.g09.slc.cpg/sg57_2_cif.got.tgz:2754.got - 2010.04.16 15:48:40.
