data_PCOD8230192
_publ_section_title
;
Structure prediction by ZEFSAII (Michael W. Deem and Ramdas Pophale) SiO2 
 PCOD8230192
Probable space group: P B C M
;
_chemical_formula_sum "Si O2"
_cell_formula_units_Z 64
_cell_length_a 19.090385
_cell_length_b 23.128722
_cell_length_c 9.175724
_cell_angle_alpha 90.000000
_cell_angle_beta 90.000000
_cell_angle_gamma 90.000000
_cell_volume 4051.414376
_symmetry_space_group_name_H-M "P B C M"
_symmetry_group_IT_number 57
_symmetry_cell_setting 'orthorhombic'
loop_
_space_group_symop_operation_xyz
x,y,z
-x,-y,1/2+z
x,1/2-y,-z
-x,1/2+y,1/2-z
-x,-y,-z
x,y,1/2-z
-x,1/2+y,z
x,1/2-y,1/2+z
loop_
_atom_site_type_symbol
_atom_site_label
_atom_site_fract_x
_atom_site_fract_y
_atom_site_fract_z
Si Si1 0.744174 0.990491 0.581130
Si Si2 0.896074 0.014978 0.919241
Si Si3 0.111491 0.308843 0.419980
Si Si4 0.404192 0.970989 0.417204
Si Si5 0.026095 0.083496 0.580971
Si Si6 0.252337 0.130112 0.920467
Si Si7 0.479574 0.090518 0.080518
Si Si8 0.602684 0.810533 0.422532
O O1 0.742148 0.972913 0.750000
O O2 0.739948 0.931531 0.493837
O O3 0.814695 0.026627 0.541965
O O4 0.678305 0.031601 0.544165
O O5 0.905233 0.002136 0.750000
O O6 0.945509 0.069343 0.965047
O O7 0.919653 0.957362 0.999577
O O8 0.094803 0.250000 0.500000
O O9 0.118534 0.295820 0.250000
O O10 0.045618 0.350585 0.455808
O O11 0.183377 0.337125 0.479118
O O12 0.419427 0.953620 0.250000
O O13 0.443199 0.926217 0.522793
O O14 0.428447 0.036570 0.446433
O O15 0.038382 0.071102 0.750000
O O16 0.246150 0.118421 0.750000
O O17 0.318711 0.169550 0.959755
O O18 0.484104 0.107512 0.250000
O O19 0.452296 0.144107 0.987426
O O20 0.588505 0.750000 0.500000
O O21 0.590606 0.804886 0.250000
#
# Coordination Sequence:
#
# PCOD8230192 Si02
#       8
#     8   8   8   8   8   8   8   8
#     4  10  18  29  47  71  96 123 155 191 231 281
#     4   9  17  28  46  69  91 119 153 190 232 279
#     4  10  20  32  45  63  90 125 161 195 227 266
#     4   9  18  31  47  68  95 123 153 192 237 283
#     4   9  17  30  45  64  92 121 152 192 235 276
#     4  10  20  32  45  65  94 127 161 192 226 269
#     4  10  19  32  49  69  93 122 157 197 236 278
#     4  11  22  34  49  68  94 128 164 198 231 275
#
# _framework density 15.796951999999999
#
# number of rings (size 3 to 8) (size 9 to 14) (size 15 to 20)
#    0.000    2.250    2.500    1.125    0.000    2.500 
#    0.000    0.000    0.000    0.000    0.000    0.875 
#    0.000    2.000    0.000    0.000    0.000    0.000 
#
# Total GULP energy -793494.403238 kJ/mol
# GULP energy per Si atom -12398.350051 kJ/mol
# Density = 1.576100 g / cm^3
# Si number density = 15.796952 Si / 1000 Ang^3
#
#
#
# Elastic Constant Matrix: (Units=GPa)
#
#
# Indices 1 2 3 4 5 6 
#
# 1 122.2627 55.0715 42.0499 0.0000 0.0000 0.0000
# 2 55.0715 81.2709 42.5217 0.0000 0.0000 0.0000
# 3 42.0499 42.5217 51.9568 0.0000 0.0000 0.0000
# 4 0.0000 0.0000 0.0000 27.2550 0.0000 0.0000
# 5 0.0000 0.0000 0.0000 0.0000 16.7676 0.0000
# 6 0.0000 0.0000 0.0000 0.0000 0.0000 20.3956
#
#
#
# Elastic Compliance Matrix: (Units=1/GPa)
#
#
# Indices 1 2 3 4 5 6 
#
# 1 0.012651 -0.005624 -0.005636 0.000000 0.000000 0.000000
# 2 -0.005624 0.024019 -0.015106 0.000000 0.000000 0.000000
# 3 -0.005636 -0.015106 0.036171 0.000000 0.000000 0.000000
# 4 0.000000 0.000000 0.000000 0.036691 0.000000 0.000000
# 5 0.000000 0.000000 0.000000 0.000000 0.059639 0.000000
# 6 0.000000 0.000000 0.000000 0.000000 0.000000 0.049030
#
#
# Mechanical properties :
#
#
# Convention : Reuss Voigt Hill
#
# Bulk Modulus (GPa) = 49.72818 59.41963 54.57391
# Shear Modulus (GPa) = 18.00938 20.60681 19.30809
#
# Velocity S-wave (km/s) = 3.38013 3.61568 3.49989
# Velocity P-wave (km/s) = 6.83971 7.42476 7.13823
#
# Compressibility (1/GPa) = 0.02010932
#
# Stress axis : x y z
#
# Youngs Moduli (GPa) = 79.04778 41.63438 27.64662
#
# Poissons Ratio (x) = 0.23413 0.15582
# Poissons Ratio (y) = 0.44453 0.41762
# Poissons Ratio (z) = 0.44552 0.62892
#
# Static dielectric constant tensor:
#      x y z
#    x 3.325800 0.000000 0.000000 
#    y 0.000000 2.824180 0.000000 
#    z 0.000000 0.000000 3.033660 
# 
# 
# High freq. dielectric constant tensor:
#      x y z
#    x 1.608250 0.000000 0.000000 
#    y 0.000000 1.577080 0.000000 
#    z 0.000000 0.000000 1.611780 
# 
# From -- ./inp_files/7344.got.cif
#   From: 2010.03.12/outbox.cif.g09.slc.cpg/sg57_4_cif.got.tgz:7344.got - 2010.04.16 15:48:40.
