data_PCOD8230887
_publ_section_title
;
Structure prediction by ZEFSAII (Michael W. Deem and Ramdas Pophale) SiO2 
 PCOD8230887
Probable space group: P B C M
;
_chemical_formula_sum "Si O2"
_cell_formula_units_Z 40
_cell_length_a 13.007521
_cell_length_b 19.406574
_cell_length_c 8.914549
_cell_angle_alpha 90.000000
_cell_angle_beta 90.000000
_cell_angle_gamma 90.000000
_cell_volume 2250.312252
_symmetry_space_group_name_H-M "P B C M"
_symmetry_group_IT_number 57
_symmetry_cell_setting 'orthorhombic'
loop_
_space_group_symop_operation_xyz
x,y,z
-x,-y,1/2+z
x,1/2-y,-z
-x,1/2+y,1/2-z
-x,-y,-z
x,y,1/2-z
-x,1/2+y,z
x,1/2-y,1/2+z
loop_
_atom_site_type_symbol
_atom_site_label
_atom_site_fract_x
_atom_site_fract_y
_atom_site_fract_z
Si Si1 0.711125 0.825027 0.071930
Si Si2 0.101712 0.079446 0.926442
Si Si3 0.714737 0.176256 0.425213
Si Si4 0.107673 0.922941 0.927258
Si Si5 0.488558 0.175986 0.425623
O O1 0.703655 0.818792 0.250000
O O2 0.805683 0.872188 0.020374
O O3 0.726441 0.750000 0.000000
O O4 0.606936 0.862038 0.007948
O O5 0.085299 0.083361 0.750000
O O6 0.126481 0.001567 0.978767
O O7 0.997700 0.106276 0.003768
O O8 0.730243 0.250000 0.500000
O O9 0.730482 0.188389 0.250000
O O10 0.798032 0.122671 0.489584
O O11 0.601163 0.142920 0.455086
O O12 0.099920 0.917415 0.750000
O O13 0.493215 0.250000 0.500000
O O14 0.464202 0.181746 0.250000
#
# Coordination Sequence:
#
# PCOD8230887 Si02
#       5
#     8   8   8   8   8
#     4  10  19  31  48  70  95 122 154 192 231 271
#     4   9  19  34  50  68  92 123 157 192 230 273
#     4   9  18  31  49  72  96 122 152 190 231 272
#     4   9  18  34  52  68  91 124 157 189 230 276
#     4   9  16  28  46  68  94 122 152 185 227 275
#
# _framework density 17.775312
#
# number of rings (size 3 to 8) (size 9 to 14) (size 15 to 20)
#    0.000    2.800    0.000    2.400    0.000    4.000 
#    0.000    5.000    0.000    0.000    0.000    0.000 
#    0.000    0.000    0.000    0.000    0.000    0.000 
#
# Total GULP energy -495740.250253 kJ/mol
# GULP energy per Si atom -12393.506256 kJ/mol
# Density = 1.773485 g / cm^3
# Si number density = 17.775312 Si / 1000 Ang^3
#
#
#
# Elastic Constant Matrix: (Units=GPa)
#
#
# Indices 1 2 3 4 5 6 
#
# 1 201.6817 79.2568 52.7028 0.0000 0.0000 0.0000
# 2 79.2568 67.7786 26.7089 0.0000 0.0000 0.0000
# 3 52.7028 26.7089 52.8773 0.0000 0.0000 0.0000
# 4 0.0000 0.0000 0.0000 18.5184 0.0000 0.0000
# 5 0.0000 0.0000 0.0000 0.0000 30.0136 0.0000
# 6 0.0000 0.0000 0.0000 0.0000 0.0000 16.9072
#
#
#
# Elastic Compliance Matrix: (Units=1/GPa)
#
#
# Indices 1 2 3 4 5 6 
#
# 1 0.010192 -0.009882 -0.005167 0.000000 0.000000 0.000000
# 2 -0.009882 0.028001 -0.004295 0.000000 0.000000 0.000000
# 3 -0.005167 -0.004295 0.026231 0.000000 0.000000 0.000000
# 4 0.000000 0.000000 0.000000 0.054000 0.000000 0.000000
# 5 0.000000 0.000000 0.000000 0.000000 0.033318 0.000000
# 6 0.000000 0.000000 0.000000 0.000000 0.000000 0.059146
#
#
# Mechanical properties :
#
#
# Convention : Reuss Voigt Hill
#
# Bulk Modulus (GPa) = 38.85381 71.07497 54.96439
# Shear Modulus (GPa) = 19.36824 23.99912 21.68368
#
# Velocity S-wave (km/s) = 3.30451 3.67841 3.49646
# Velocity P-wave (km/s) = 6.03867 7.62318 6.87672
#
# Compressibility (1/GPa) = 0.02573750
#
# Stress axis : x y z
#
# Youngs Moduli (GPa) = 98.11819 35.71237 38.12322
#
# Poissons Ratio (x) = 0.35290 0.19697
# Poissons Ratio (y) = 0.96958 0.16373
# Poissons Ratio (z) = 0.50695 0.15338
#
# Static dielectric constant tensor:
#      x y z
#    x 4.109540 0.000000 0.000000 
#    y 0.000000 3.115860 0.000000 
#    z 0.000000 0.000000 3.275710 
# 
# 
# High freq. dielectric constant tensor:
#      x y z
#    x 1.709700 0.000000 0.000000 
#    y 0.000000 1.652320 0.000000 
#    z 0.000000 0.000000 1.688510 
# 
# From -- ./inp_files/2866.got.cif
#   From: 2010.03.12/outbox.cif.g09.slc.cpg/sg57_2_cif.got.tgz:2866.got - 2010.04.16 15:48:40.
