data_PCOD8230727
_publ_section_title
;
Structure prediction by ZEFSAII (Michael W. Deem and Ramdas Pophale) SiO2 
 PCOD8230727
Probable space group: P B C M
;
_chemical_formula_sum "Si O2"
_cell_formula_units_Z 64
_cell_length_a 27.131714
_cell_length_b 14.749232
_cell_length_c 8.975302
_cell_angle_alpha 90.000000
_cell_angle_beta 90.000000
_cell_angle_gamma 90.000000
_cell_volume 3591.664052
_symmetry_space_group_name_H-M "P B C M"
_symmetry_group_IT_number 57
_symmetry_cell_setting 'orthorhombic'
loop_
_space_group_symop_operation_xyz
x,y,z
-x,-y,1/2+z
x,1/2-y,-z
-x,1/2+y,1/2-z
-x,-y,-z
x,y,1/2-z
-x,1/2+y,z
x,1/2-y,1/2+z
loop_
_atom_site_type_symbol
_atom_site_label
_atom_site_fract_x
_atom_site_fract_y
_atom_site_fract_z
Si Si1 0.031255 0.840830 0.423058
Si Si2 0.115247 0.977767 0.426923
Si Si3 0.578488 0.661151 0.577391
Si Si4 0.190420 0.655483 0.426779
Si Si5 0.303083 0.658874 0.423012
Si Si6 0.609740 0.032417 0.075876
Si Si7 0.466086 0.658530 0.925550
Si Si8 0.081430 0.344028 0.427059
O O1 0.051410 0.750000 0.500000
O O2 0.034710 0.821096 0.250000
O O3 0.065060 0.925181 0.470067
O O4 0.975420 0.862124 0.471681
O O5 0.122120 0.985871 0.250000
O O6 0.161049 0.926148 0.498713
O O7 0.113752 0.076658 0.500571
O O8 0.601173 0.750000 0.500000
O O9 0.579125 0.682365 0.750000
O O10 0.611911 0.574284 0.537006
O O11 0.522498 0.642725 0.524337
O O12 0.173096 0.750000 0.500000
O O13 0.181061 0.659325 0.250000
O O14 0.247206 0.635936 0.468313
O O15 0.322307 0.750000 0.500000
O O16 0.306876 0.678176 0.250000
O O17 0.337976 0.575626 0.471435
O O18 0.598484 0.047295 0.250000
O O19 0.565205 0.074429 0.983431
O O20 0.460166 0.666815 0.750000
O O21 0.445216 0.750000 0.000000
O O22 0.099322 0.250000 0.500000
O O23 0.089306 0.341054 0.250000
#
# Coordination Sequence:
#
# PCOD8230727 Si02
#       8
#     8   8   8   8   8   8   8   8
#     4   9  19  32  48  72 103 135 167 202 243 290
#     4  11  21  33  51  76 102 132 169 207 245 293
#     4   9  19  33  48  67  96 130 164 200 240 283
#     4  10  20  35  53  75 101 130 161 199 247 298
#     4   9  19  34  52  73  99 127 157 195 244 295
#     4  10  19  32  50  72  96 126 163 204 245 289
#     4  10  19  30  45  69  99 131 162 196 237 287
#     4  10  20  35  52  72 100 135 170 207 247 289
#
# _framework density 17.819039
#
# number of rings (size 3 to 8) (size 9 to 14) (size 15 to 20)
#    0.000    2.250    0.000    3.000    0.000    5.500 
#    0.000    0.000    0.000    0.750    0.000    1.750 
#    0.000    0.000    0.000    0.000    0.000    0.000 
#
# Total GULP energy -793747.160851 kJ/mol
# GULP energy per Si atom -12402.299388 kJ/mol
# Density = 1.777848 g / cm^3
# Si number density = 17.819039 Si / 1000 Ang^3
#
#
#
# Elastic Constant Matrix: (Units=GPa)
#
#
# Indices 1 2 3 4 5 6 
#
# 1 73.3849 67.6870 36.3636 0.0000 0.0000 0.0000
# 2 67.6870 160.2551 59.5065 0.0000 0.0000 0.0000
# 3 36.3636 59.5065 67.3099 0.0000 0.0000 0.0000
# 4 0.0000 0.0000 0.0000 34.8870 0.0000 0.0000
# 5 0.0000 0.0000 0.0000 0.0000 19.1451 0.0000
# 6 0.0000 0.0000 0.0000 0.0000 0.0000 28.7574
#
#
#
# Elastic Compliance Matrix: (Units=1/GPa)
#
#
# Indices 1 2 3 4 5 6 
#
# 1 0.023806 -0.007859 -0.005913 0.000000 0.000000 0.000000
# 2 -0.007859 0.011884 -0.006261 0.000000 0.000000 0.000000
# 3 -0.005913 -0.006261 0.023586 0.000000 0.000000 0.000000
# 4 0.000000 0.000000 0.000000 0.028664 0.000000 0.000000
# 5 0.000000 0.000000 0.000000 0.000000 0.052233 0.000000
# 6 0.000000 0.000000 0.000000 0.000000 0.000000 0.034774
#
#
# Mechanical properties :
#
#
# Convention : Reuss Voigt Hill
#
# Bulk Modulus (GPa) = 52.05469 69.78490 60.91980
# Shear Modulus (GPa) = 22.58205 25.71742 24.14973
#
# Velocity S-wave (km/s) = 3.56378 3.80314 3.68540
# Velocity P-wave (km/s) = 6.79782 7.65071 7.23684
#
# Compressibility (1/GPa) = 0.01921056
#
# Stress axis : x y z
#
# Youngs Moduli (GPa) = 42.00670 84.14462 42.39855
#
# Poissons Ratio (x) = 0.66132 0.25069
# Poissons Ratio (y) = 0.33014 0.26544
# Poissons Ratio (z) = 0.24837 0.52680
#
# Static dielectric constant tensor:
#      x y z
#    x 3.265420 0.000000 0.000000 
#    y 0.000000 3.363800 0.000000 
#    z 0.000000 0.000000 3.309790 
# 
# 
# High freq. dielectric constant tensor:
#      x y z
#    x 1.666470 0.000000 0.000000 
#    y 0.000000 1.690850 0.000000 
#    z 0.000000 0.000000 1.695570 
# 
# From -- ./inp_files/9276.got.cif
#   From: 2010.03.12/outbox.cif.g09.slc.cpg/sg57_5_cif.got.tgz:9276.got - 2010.04.16 15:48:40.
