data_PCOD8230416
_publ_section_title
;
Structure prediction by ZEFSAII (Michael W. Deem and Ramdas Pophale) SiO2 
 PCOD8230416
Probable space group: P B C M
;
_chemical_formula_sum "Si O2"
_cell_formula_units_Z 64
_cell_length_a 19.841180
_cell_length_b 19.848429
_cell_length_c 8.720585
_cell_angle_alpha 90.000000
_cell_angle_beta 90.000000
_cell_angle_gamma 90.000000
_cell_volume 3434.308104
_symmetry_space_group_name_H-M "P B C M"
_symmetry_group_IT_number 57
_symmetry_cell_setting 'orthorhombic'
loop_
_space_group_symop_operation_xyz
x,y,z
-x,-y,1/2+z
x,1/2-y,-z
-x,1/2+y,1/2-z
-x,-y,-z
x,y,1/2-z
-x,1/2+y,z
x,1/2-y,1/2+z
loop_
_atom_site_type_symbol
_atom_site_label
_atom_site_fract_x
_atom_site_fract_y
_atom_site_fract_z
Si Si1 0.854597 0.081317 0.929850
Si Si2 0.038420 0.821122 0.931471
Si Si3 0.527556 0.568608 0.930515
Si Si4 0.613413 0.395544 0.430040
Si Si5 0.106114 0.181080 0.570695
Si Si6 0.196773 0.447002 0.071382
Si Si7 0.341133 0.041296 0.431533
Si Si8 0.737149 0.318502 0.428400
O O1 0.869872 0.081180 0.750000
O O2 0.786457 0.120761 0.970860
O O3 0.916216 0.116567 0.015451
O O4 0.844952 0.005285 0.986510
O O5 0.040461 0.815378 0.750000
O O6 0.064826 0.750000 0.000000
O O7 0.963453 0.837167 0.987599
O O8 0.539816 0.561127 0.750000
O O9 0.465460 0.620730 0.965509
O O10 0.500000 0.500000 0.000000
O O11 0.597422 0.590487 0.012663
O O12 0.625471 0.401024 0.250000
O O13 0.638297 0.467612 0.495036
O O14 0.662765 0.337454 0.495256
O O15 0.136055 0.250000 0.500000
O O16 0.091569 0.191094 0.750000
O O17 0.159251 0.122681 0.538697
O O18 0.199808 0.464571 0.250000
O O19 0.271557 0.436701 0.006982
O O20 0.333406 0.045509 0.250000
O O21 0.764332 0.250000 0.500000
O O22 0.734696 0.305641 0.250000
#
# Coordination Sequence:
#
# PCOD8230416 Si02
#       8
#     8   8   8   8   8   8   8   8
#     4  11  22  37  57  80 113 151 188 231 280 332
#     4  11  22  38  60  84 113 149 191 233 274 328
#     4   9  16  27  47  73 101 135 176 224 273 323
#     4   8  15  30  48  69 101 138 177 221 269 318
#     4  10  22  41  63  86 111 141 180 226 278 341
#     4  11  23  37  57  86 116 143 180 231 283 334
#     4  10  18  32  52  76 108 143 177 220 275 331
#     4  10  20  34  50  73 105 147 189 226 271 325
#
# _framework density 18.635484999999999
#
# number of rings (size 3 to 8) (size 9 to 14) (size 15 to 20)
#    0.000    2.000    1.250    4.875    0.000    4.500 
#    0.000    1.250    0.000    0.750    0.000    1.750 
#    0.000    0.000    0.000    0.000    0.000    0.000 
#
# Total GULP energy -793327.075902 kJ/mol
# GULP energy per Si atom -12395.735561 kJ/mol
# Density = 1.859307 g / cm^3
# Si number density = 18.635485 Si / 1000 Ang^3
#
#
#
# Elastic Constant Matrix: (Units=GPa)
#
#
# Indices 1 2 3 4 5 6 
#
# 1 124.7758 55.8813 57.6322 0.0000 0.0000 0.0000
# 2 55.8813 85.7047 47.9936 0.0000 0.0000 0.0000
# 3 57.6322 47.9936 90.2948 0.0000 0.0000 0.0000
# 4 0.0000 0.0000 0.0000 25.0004 0.0000 0.0000
# 5 0.0000 0.0000 0.0000 0.0000 30.7433 0.0000
# 6 0.0000 0.0000 0.0000 0.0000 0.0000 28.2558
#
#
#
# Elastic Compliance Matrix: (Units=1/GPa)
#
#
# Indices 1 2 3 4 5 6 
#
# 1 0.012920 -0.005419 -0.005366 0.000000 0.000000 0.000000
# 2 -0.005419 0.018886 -0.006579 0.000000 0.000000 0.000000
# 3 -0.005366 -0.006579 0.017997 0.000000 0.000000 0.000000
# 4 0.000000 0.000000 0.000000 0.039999 0.000000 0.000000
# 5 0.000000 0.000000 0.000000 0.000000 0.032527 0.000000
# 6 0.000000 0.000000 0.000000 0.000000 0.000000 0.035391
#
#
# Mechanical properties :
#
#
# Convention : Reuss Voigt Hill
#
# Bulk Modulus (GPa) = 66.34123 69.30995 67.82559
# Shear Modulus (GPa) = 25.31991 26.08445 25.70218
#
# Velocity S-wave (km/s) = 3.69004 3.74534 3.71780
# Velocity P-wave (km/s) = 7.33703 7.48175 7.40974
#
# Compressibility (1/GPa) = 0.01507358
#
# Stress axis : x y z
#
# Youngs Moduli (GPa) = 77.40062 52.95013 55.56571
#
# Poissons Ratio (x) = 0.28695 0.29816
# Poissons Ratio (y) = 0.41945 0.36558
# Poissons Ratio (z) = 0.41532 0.34837
#
# Static dielectric constant tensor:
#      x y z
#    x 3.822680 0.000000 0.000000 
#    y 0.000000 3.298470 0.000000 
#    z 0.000000 0.000000 3.461830 
# 
# 
# High freq. dielectric constant tensor:
#      x y z
#    x 1.737870 0.000000 0.000000 
#    y 0.000000 1.690670 0.000000 
#    z 0.000000 0.000000 1.727080 
# 
# From -- ./inp_files/7194.got.cif
#   From: 2010.03.12/outbox.cif.g09.slc.cpg/sg57_4_cif.got.tgz:7194.got - 2010.04.16 15:48:40.
