data_PCOD8230541
_publ_section_title
;
Structure prediction by ZEFSAII (Michael W. Deem and Ramdas Pophale) SiO2 
 PCOD8230541
Probable space group: P B C M
;
_chemical_formula_sum "Si O2"
_cell_formula_units_Z 64
_cell_length_a 19.021084
_cell_length_b 10.044571
_cell_length_c 16.482937
_cell_angle_alpha 90.000000
_cell_angle_beta 90.000000
_cell_angle_gamma 90.000000
_cell_volume 3149.207341
_symmetry_space_group_name_H-M "P B C M"
_symmetry_group_IT_number 57
_symmetry_cell_setting 'orthorhombic'
loop_
_space_group_symop_operation_xyz
x,y,z
-x,-y,1/2+z
x,1/2-y,-z
-x,1/2+y,1/2-z
-x,-y,-z
x,y,1/2-z
-x,1/2+y,z
x,1/2-y,1/2+z
loop_
_atom_site_type_symbol
_atom_site_label
_atom_site_fract_x
_atom_site_fract_y
_atom_site_fract_z
Si Si1 0.574976 0.867095 0.561879
Si Si2 0.716547 0.650525 0.344524
Si Si3 0.926086 0.311477 0.346509
Si Si4 0.779243 0.109069 0.915426
Si Si5 0.274919 0.615996 0.097838
Si Si6 0.578319 0.379747 0.952011
Si Si7 0.051798 0.993811 0.845725
Si Si8 0.807545 0.611998 0.659223
O O1 0.590719 0.750000 0.500000
O O2 0.635577 0.858575 0.628249
O O3 0.494831 0.852719 0.596835
O O4 0.573080 0.008067 0.519440
O O5 0.712287 0.675619 0.250000
O O6 0.759569 0.518904 0.363814
O O7 0.761461 0.772435 0.385209
O O8 0.909319 0.317064 0.250000
O O9 0.860493 0.353970 0.401772
O O10 0.951054 0.162047 0.372955
O O11 0.983509 0.422634 0.371022
O O12 0.734765 0.230809 0.878645
O O13 0.759467 0.085431 0.009380
O O14 0.357641 0.581679 0.106616
O O15 0.237448 0.523214 0.162963
O O16 0.603110 0.250000 0.000000
O O17 0.061765 0.994324 0.750000
O O18 0.118554 0.074029 0.884386
O O19 0.823613 0.661497 0.750000
#
# Coordination Sequence:
#
# PCOD8230541 Si02
#       8
#     8   8   8   8   8   8   8   8
#     4  10  20  35  59  85 114 154 199 240 292 347
#     4  11  23  37  57  89 123 154 197 250 302 345
#     4  10  20  36  58  84 115 152 195 240 294 349
#     4  11  22  35  59  86 116 155 191 250 288 348
#     4  11  20  38  61  84 117 150 202 236 293 357
#     4  10  18  34  58  85 111 148 197 238 283 349
#     4   9  19  35  57  82 112 153 197 239 289 356
#     4  10  22  38  58  84 118 156 196 245 295 353
#
# _framework density 20.322573999999999
#
# number of rings (size 3 to 8) (size 9 to 14) (size 15 to 20)
#    0.000    1.750    3.750    1.125    1.750    0.500 
#    0.000    1.250    0.000   11.250    0.000    0.000 
#    0.000    0.000    0.000    0.000    0.000    0.000 
#
# Total GULP energy -793026.035907 kJ/mol
# GULP energy per Si atom -12391.031811 kJ/mol
# Density = 2.027632 g / cm^3
# Si number density = 20.322574 Si / 1000 Ang^3
#
#
#
# Elastic Constant Matrix: (Units=GPa)
#
#
# Indices 1 2 3 4 5 6 
#
# 1 164.4375 52.9960 22.1712 0.0000 0.0000 0.0000
# 2 52.9960 108.0516 27.3835 0.0000 0.0000 0.0000
# 3 22.1712 27.3835 19.9552 0.0000 0.0000 0.0000
# 4 0.0000 0.0000 0.0000 20.6978 0.0000 0.0000
# 5 0.0000 0.0000 0.0000 0.0000 24.8028 0.0000
# 6 0.0000 0.0000 0.0000 0.0000 0.0000 36.8000
#
#
#
# Elastic Compliance Matrix: (Units=1/GPa)
#
#
# Indices 1 2 3 4 5 6 
#
# 1 0.007543 -0.002416 -0.005065 0.000000 0.000000 0.000000
# 2 -0.002416 0.014963 -0.017849 0.000000 0.000000 0.000000
# 3 -0.005065 -0.017849 0.080234 0.000000 0.000000 0.000000
# 4 0.000000 0.000000 0.000000 0.048314 0.000000 0.000000
# 5 0.000000 0.000000 0.000000 0.000000 0.040318 0.000000
# 6 0.000000 0.000000 0.000000 0.000000 0.000000 0.027174
#
#
# Mechanical properties :
#
#
# Convention : Reuss Voigt Hill
#
# Bulk Modulus (GPa) = 19.20154 55.28284 37.24219
# Shear Modulus (GPa) = 17.44791 29.11968 23.28380
#
# Velocity S-wave (km/s) = 2.93328 3.78944 3.38851
# Velocity P-wave (km/s) = 4.57614 6.81236 5.80298
#
# Compressibility (1/GPa) = 0.05207915
#
# Stress axis : x y z
#
# Youngs Moduli (GPa) = 132.57503 66.83026 12.46355
#
# Poissons Ratio (x) = 0.16145 0.06313
# Poissons Ratio (y) = 0.32028 0.22247
# Poissons Ratio (z) = 0.67154 1.19287
#
# Static dielectric constant tensor:
#      x y z
#    x 4.234820 0.000000 0.000000 
#    y 0.000000 3.988780 0.000000 
#    z 0.000000 0.000000 3.161230 
# 
# 
# High freq. dielectric constant tensor:
#      x y z
#    x 1.814920 0.000000 0.000000 
#    y 0.000000 1.816150 0.000000 
#    z 0.000000 0.000000 1.737180 
# 
# From -- ./inp_files/25630.got.cif
#   From: 2010.03.12/outbox.cif.g09.slc.cpg/sg57_13_cif.got.tgz:25630.got - 2010.04.16 15:48:40.
