data_PCOD8230379
_publ_section_title
;
Structure prediction by ZEFSAII (Michael W. Deem and Ramdas Pophale) SiO2 
 PCOD8230379
Probable space group: P B C M
;
_chemical_formula_sum "Si O2"
_cell_formula_units_Z 48
_cell_length_a 31.004708
_cell_length_b 9.048402
_cell_length_c 8.545739
_cell_angle_alpha 90.000000
_cell_angle_beta 90.000000
_cell_angle_gamma 90.000000
_cell_volume 2397.447785
_symmetry_space_group_name_H-M "P B C M"
_symmetry_group_IT_number 57
_symmetry_cell_setting 'orthorhombic'
loop_
_space_group_symop_operation_xyz
x,y,z
-x,-y,1/2+z
x,1/2-y,-z
-x,1/2+y,1/2-z
-x,-y,-z
x,y,1/2-z
-x,1/2+y,z
x,1/2-y,1/2+z
loop_
_atom_site_type_symbol
_atom_site_label
_atom_site_fract_x
_atom_site_fract_y
_atom_site_fract_z
Si Si1 0.699273 0.413504 0.567027
Si Si2 0.214770 0.089026 0.568028
Si Si3 0.620670 0.586410 0.065496
Si Si4 0.540416 0.086930 0.434674
Si Si5 0.040345 0.086005 0.565512
Si Si6 0.127554 0.085509 0.434550
O O1 0.695971 0.250000 0.500000
O O2 0.687568 0.413314 0.750000
O O3 0.746681 0.476422 0.535462
O O4 0.666902 0.519184 0.474978
O O5 0.226351 0.250000 0.500000
O O6 0.205196 0.110011 0.750000
O O7 0.172733 0.012281 0.487482
O O8 0.613477 0.588673 0.250000
O O9 0.617353 0.750000 0.000000
O O10 0.584546 0.487742 0.985665
O O11 0.539124 0.250000 0.500000
O O12 0.537545 0.091309 0.250000
O O13 0.500000 0.000000 0.500000
O O14 0.038774 0.250000 0.500000
O O15 0.038288 0.088302 0.750000
O O16 0.085110 0.008144 0.509386
O O17 0.000000 0.000000 0.500000
O O18 0.130455 0.250000 0.500000
O O19 0.122443 0.083068 0.250000
#
# Coordination Sequence:
#
# PCOD8230379 Si02
#       6
#     8   8   8   8   8   8
#     4  11  24  41  61  87 120 158 197 241 295 352
#     4  10  20  35  57  84 112 145 188 236 287 342
#     4  12  25  43  66  93 124 160 203 250 299 352
#     4  12  25  44  67  95 129 166 207 251 302 356
#     4  11  21  36  56  81 112 147 188 234 286 342
#     4  10  18  31  53  80 109 144 186 232 284 340
#
# _framework density 20.021291999999999
#
# number of rings (size 3 to 8) (size 9 to 14) (size 15 to 20)
#    0.000    1.000    0.000   10.500    0.000    4.000 
#    0.000    0.833    0.000    2.000    0.000    0.000 
#    0.000    0.000    0.000    0.000    0.000    0.000 
#
# Total GULP energy -595305.275440 kJ/mol
# GULP energy per Si atom -12402.193238 kJ/mol
# Density = 1.997572 g / cm^3
# Si number density = 20.021292 Si / 1000 Ang^3
#
#
#
# Elastic Constant Matrix: (Units=GPa)
#
#
# Indices 1 2 3 4 5 6 
#
# 1 141.0906 51.3644 66.6345 0.0000 0.0000 0.0000
# 2 51.3644 108.7485 53.8401 0.0000 0.0000 0.0000
# 3 66.6345 53.8401 192.7655 0.0000 0.0000 0.0000
# 4 0.0000 0.0000 0.0000 33.4991 0.0000 0.0000
# 5 0.0000 0.0000 0.0000 0.0000 39.5733 0.0000
# 6 0.0000 0.0000 0.0000 0.0000 0.0000 41.1361
#
#
#
# Elastic Compliance Matrix: (Units=1/GPa)
#
#
# Indices 1 2 3 4 5 6 
#
# 1 0.009380 -0.003278 -0.002327 0.000000 0.000000 0.000000
# 2 -0.003278 0.011817 -0.002167 0.000000 0.000000 0.000000
# 3 -0.002327 -0.002167 0.006597 0.000000 0.000000 0.000000
# 4 0.000000 0.000000 0.000000 0.029852 0.000000 0.000000
# 5 0.000000 0.000000 0.000000 0.000000 0.025270 0.000000
# 6 0.000000 0.000000 0.000000 0.000000 0.000000 0.024310
#
#
# Mechanical properties :
#
#
# Convention : Reuss Voigt Hill
#
# Bulk Modulus (GPa) = 81.63681 87.36474 84.50078
# Shear Modulus (GPa) = 39.41566 40.89274 40.15420
#
# Velocity S-wave (km/s) = 4.44180 4.52426 4.48322
# Velocity P-wave (km/s) = 8.19571 8.42749 8.31241
#
# Compressibility (1/GPa) = 0.01224938
#
# Stress axis : x y z
#
# Youngs Moduli (GPa) = 106.60901 84.62390 151.57754
#
# Poissons Ratio (x) = 0.27744 0.35269
# Poissons Ratio (y) = 0.34951 0.32851
# Poissons Ratio (z) = 0.24806 0.18340
#
# Static dielectric constant tensor:
#      x y z
#    x 3.168480 0.000000 0.000000 
#    y 0.000000 3.466370 0.000000 
#    z 0.000000 0.000000 3.914720 
# 
# 
# High freq. dielectric constant tensor:
#      x y z
#    x 1.810720 0.000000 0.000000 
#    y 0.000000 1.761040 0.000000 
#    z 0.000000 0.000000 1.806830 
# 
# From -- ./inp_files/10089.got.cif
#   From: 2010.03.12/outbox.cif.g09.slc.cpg/sg57_6_cif.got.tgz:10089.got - 2010.04.16 15:48:40.
