data_PCOD8230373
_publ_section_title
;
Structure prediction by ZEFSAII (Michael W. Deem and Ramdas Pophale) SiO2 
 PCOD8230373
Probable space group: P B C M
;
_chemical_formula_sum "Si O2"
_cell_formula_units_Z 56
_cell_length_a 9.131721
_cell_length_b 22.573768
_cell_length_c 15.337844
_cell_angle_alpha 90.000000
_cell_angle_beta 90.000000
_cell_angle_gamma 90.000000
_cell_volume 3161.702537
_symmetry_space_group_name_H-M "P B C M"
_symmetry_group_IT_number 57
_symmetry_cell_setting 'orthorhombic'
loop_
_space_group_symop_operation_xyz
x,y,z
-x,-y,1/2+z
x,1/2-y,-z
-x,1/2+y,1/2-z
-x,-y,-z
x,y,1/2-z
-x,1/2+y,z
x,1/2-y,1/2+z
loop_
_atom_site_type_symbol
_atom_site_label
_atom_site_fract_x
_atom_site_fract_y
_atom_site_fract_z
Si Si1 0.346272 0.403983 0.526236
Si Si2 0.659957 0.556649 0.654832
Si Si3 0.898888 0.511459 0.082274
Si Si4 0.924775 0.381731 0.849072
Si Si5 0.396832 0.580081 0.152373
Si Si6 0.914564 0.680776 0.493815
Si Si7 0.016198 0.400692 0.347329
O O1 0.408629 0.408203 0.426975
O O2 0.260534 0.464836 0.552241
O O3 0.481421 0.392494 0.589476
O O4 0.240135 0.347828 0.531927
O O5 0.612320 0.582923 0.750000
O O6 0.604947 0.490231 0.647564
O O7 0.835762 0.560532 0.646587
O O8 0.972772 0.560580 0.143732
O O9 0.886048 0.448075 0.131878
O O10 0.000000 0.500000 0.000000
O O11 0.934143 0.358512 0.750000
O O12 0.759917 0.396124 0.876847
O O13 0.973901 0.330487 0.914903
O O14 0.435182 0.601051 0.250000
O O15 0.890208 0.750000 0.500000
O O16 0.978609 0.653056 0.583612
O O17 0.993148 0.374399 0.250000
#
# Coordination Sequence:
#
# PCOD8230373 Si02
#       7
#     8   8   8   8   8   8   8
#     4  10  20  31  52  77 110 137 168 220 272 316
#     4   9  16  28  47  73 105 139 168 197 252 329
#     4  11  16  30  51  81 108 134 166 210 267 326
#     4  10  19  33  56  78 104 139 174 214 263 319
#     4  10  19  31  49  79 109 136 168 205 260 326
#     4  10  22  38  54  75 101 137 189 230 262 309
#     4  10  18  31  53  76 104 137 170 214 270 324
#
# _framework density 17.711977000000001
#
# number of rings (size 3 to 8) (size 9 to 14) (size 15 to 20)
#    0.000    2.000    5.714    0.857    0.000    3.429 
#    0.000    0.714    0.000    0.000    0.000    0.000 
#    0.000    0.000    0.000    0.000    0.000    0.000 
#
# Total GULP energy -694116.532844 kJ/mol
# GULP energy per Si atom -12394.938086 kJ/mol
# Density = 1.767166 g / cm^3
# Si number density = 17.711977 Si / 1000 Ang^3
#
#
#
# Elastic Constant Matrix: (Units=GPa)
#
#
# Indices 1 2 3 4 5 6 
#
# 1 59.6753 17.5902 46.5058 0.0000 0.0000 0.0000
# 2 17.5902 83.5787 30.8306 0.0000 0.0000 0.0000
# 3 46.5058 30.8306 125.6511 0.0000 0.0000 0.0000
# 4 0.0000 0.0000 0.0000 14.8859 0.0000 0.0000
# 5 0.0000 0.0000 0.0000 0.0000 28.3212 0.0000
# 6 0.0000 0.0000 0.0000 0.0000 0.0000 12.3417
#
#
#
# Elastic Compliance Matrix: (Units=1/GPa)
#
#
# Indices 1 2 3 4 5 6 
#
# 1 0.023832 -0.001937 -0.008345 0.000000 0.000000 0.000000
# 2 -0.001937 0.013313 -0.002550 0.000000 0.000000 0.000000
# 3 -0.008345 -0.002550 0.011673 0.000000 0.000000 0.000000
# 4 0.000000 0.000000 0.000000 0.067178 0.000000 0.000000
# 5 0.000000 0.000000 0.000000 0.000000 0.035309 0.000000
# 6 0.000000 0.000000 0.000000 0.000000 0.000000 0.081026
#
#
# Mechanical properties :
#
#
# Convention : Reuss Voigt Hill
#
# Bulk Modulus (GPa) = 43.18995 50.97314 47.08154
# Shear Modulus (GPa) = 18.81731 22.70833 20.76282
#
# Velocity S-wave (km/s) = 3.26299 3.58451 3.42752
# Velocity P-wave (km/s) = 6.21560 6.78034 6.50410
#
# Compressibility (1/GPa) = 0.02315354
#
# Stress axis : x y z
#
# Youngs Moduli (GPa) = 41.96038 75.11469 85.66875
#
# Poissons Ratio (x) = 0.14552 0.71493
# Poissons Ratio (y) = 0.08129 0.21841
# Poissons Ratio (z) = 0.35017 0.19151
#
# Static dielectric constant tensor:
#      x y z
#    x 3.073390 0.000000 0.000000 
#    y 0.000000 2.898890 0.000000 
#    z 0.000000 0.000000 3.763260 
# 
# 
# High freq. dielectric constant tensor:
#      x y z
#    x 1.659060 0.000000 0.000000 
#    y 0.000000 1.637060 0.000000 
#    z 0.000000 0.000000 1.709700 
# 
# From -- ./inp_files/16719.got.cif
#   From: 2010.03.12/outbox.cif.g09.slc.cpg/sg57_9_cif.got.tgz:16719.got - 2010.04.16 15:48:40.
