data_PCOD8230568
_publ_section_title
;
Structure prediction by ZEFSAII (Michael W. Deem and Ramdas Pophale) SiO2 
 PCOD8230568
Probable space group: P B C M
;
_chemical_formula_sum "Si O2"
_cell_formula_units_Z 48
_cell_length_a 8.754171
_cell_length_b 15.594129
_cell_length_c 17.832175
_cell_angle_alpha 90.000000
_cell_angle_beta 90.000000
_cell_angle_gamma 90.000000
_cell_volume 2434.335687
_symmetry_space_group_name_H-M "P B C M"
_symmetry_group_IT_number 57
_symmetry_cell_setting 'orthorhombic'
loop_
_space_group_symop_operation_xyz
x,y,z
-x,-y,1/2+z
x,1/2-y,-z
-x,1/2+y,1/2-z
-x,-y,-z
x,y,1/2-z
-x,1/2+y,z
x,1/2-y,1/2+z
loop_
_atom_site_type_symbol
_atom_site_label
_atom_site_fract_x
_atom_site_fract_y
_atom_site_fract_z
Si Si1 0.917602 0.085663 0.974641
Si Si2 0.378663 0.751521 0.664389
Si Si3 0.956604 0.308100 0.165135
Si Si4 0.564532 0.600434 0.084977
Si Si5 0.577236 0.087837 0.567687
Si Si6 0.140396 0.305652 0.933775
O O1 0.951508 0.107664 0.887333
O O2 0.735004 0.081895 0.980132
O O3 0.983912 0.157663 0.030134
O O4 0.000000 0.000000 0.000000
O O5 0.434376 0.751037 0.750000
O O6 0.195769 0.750012 0.658237
O O7 0.445053 0.836873 0.625735
O O8 0.439703 0.665020 0.625816
O O9 0.982425 0.339709 0.250000
O O10 0.097264 0.250030 0.138799
O O11 0.545673 0.501603 0.112191
O O12 0.740434 0.626064 0.099131
O O13 0.549242 0.603403 0.995200
O O14 0.220297 0.250000 0.000000
#
# Coordination Sequence:
#
# PCOD8230568 Si02
#       6
#     8   8   8   8   8   8
#     4  10  18  35  58  84 110 147 189 240 288 339
#     4  10  21  38  57  78 114 156 190 229 287 348
#     4   9  20  37  56  79 111 151 191 232 287 347
#     4  11  21  35  58  87 114 148 190 241 286 338
#     4  10  21  36  58  86 114 148 195 238 281 344
#     4  10  19  32  56  84 113 143 187 238 285 341
#
# _framework density 19.717904999999998
#
# number of rings (size 3 to 8) (size 9 to 14) (size 15 to 20)
#    0.000    2.000    1.667    2.500    0.000    4.000 
#    0.000    0.833    0.000    1.000    0.000    0.000 
#    0.000    0.000    0.000    0.000    0.000    0.000 
#
# Total GULP energy -594978.875811 kJ/mol
# GULP energy per Si atom -12395.393246 kJ/mol
# Density = 1.967303 g / cm^3
# Si number density = 19.717905 Si / 1000 Ang^3
#
#
#
# Elastic Constant Matrix: (Units=GPa)
#
#
# Indices 1 2 3 4 5 6 
#
# 1 61.9573 29.9485 24.0018 0.0000 0.0000 0.0000
# 2 29.9485 115.4768 43.0343 0.0000 0.0000 0.0000
# 3 24.0018 43.0343 99.9512 0.0000 0.0000 0.0000
# 4 0.0000 0.0000 0.0000 24.0412 0.0000 0.0000
# 5 0.0000 0.0000 0.0000 0.0000 21.6718 0.0000
# 6 0.0000 0.0000 0.0000 0.0000 0.0000 34.3157
#
#
#
# Elastic Compliance Matrix: (Units=1/GPa)
#
#
# Indices 1 2 3 4 5 6 
#
# 1 0.019148 -0.003874 -0.002930 0.000000 0.000000 0.000000
# 2 -0.003874 0.011099 -0.003848 0.000000 0.000000 0.000000
# 3 -0.002930 -0.003848 0.012365 0.000000 0.000000 0.000000
# 4 0.000000 0.000000 0.000000 0.041595 0.000000 0.000000
# 5 0.000000 0.000000 0.000000 0.000000 0.046143 0.000000
# 6 0.000000 0.000000 0.000000 0.000000 0.000000 0.029141
#
#
# Mechanical properties :
#
#
# Convention : Reuss Voigt Hill
#
# Bulk Modulus (GPa) = 46.93269 52.37273 49.65271
# Shear Modulus (GPa) = 26.61016 28.03245 27.32130
#
# Velocity S-wave (km/s) = 3.67760 3.77460 3.72641
# Velocity P-wave (km/s) = 6.47199 6.75392 6.61446
#
# Compressibility (1/GPa) = 0.02130711
#
# Stress axis : x y z
#
# Youngs Moduli (GPa) = 52.22521 90.10176 80.87097
#
# Poissons Ratio (x) = 0.34905 0.23696
# Poissons Ratio (y) = 0.20232 0.31121
# Poissons Ratio (z) = 0.15303 0.34673
#
# Static dielectric constant tensor:
#      x y z
#    x 3.564930 0.000000 0.000000 
#    y 0.000000 3.778730 0.000000 
#    z 0.000000 0.000000 3.456100 
# 
# 
# High freq. dielectric constant tensor:
#      x y z
#    x 1.768230 0.000000 0.000000 
#    y 0.000000 1.771840 0.000000 
#    z 0.000000 0.000000 1.749780 
# 
# From -- ./inp_files/20984.got.cif
#   From: 2010.03.12/outbox.cif.g09.slc.cpg/sg57_11_cif.got.tgz:20984.got - 2010.04.16 15:48:40.
