data_PCOD8230385
_publ_section_title
;
Structure prediction by ZEFSAII (Michael W. Deem and Ramdas Pophale) SiO2 
 PCOD8230385
Probable space group: P B C M
;
_chemical_formula_sum "Si O2"
_cell_formula_units_Z 64
_cell_length_a 18.875811
_cell_length_b 22.692408
_cell_length_c 8.713464
_cell_angle_alpha 90.000000
_cell_angle_beta 90.000000
_cell_angle_gamma 90.000000
_cell_volume 3732.304297
_symmetry_space_group_name_H-M "P B C M"
_symmetry_group_IT_number 57
_symmetry_cell_setting 'orthorhombic'
loop_
_space_group_symop_operation_xyz
x,y,z
-x,-y,1/2+z
x,1/2-y,-z
-x,1/2+y,1/2-z
-x,-y,-z
x,y,1/2-z
-x,1/2+y,z
x,1/2-y,1/2+z
loop_
_atom_site_type_symbol
_atom_site_label
_atom_site_fract_x
_atom_site_fract_y
_atom_site_fract_z
Si Si1 0.924705 0.013086 0.428824
Si Si2 0.276935 0.810680 0.930782
Si Si3 0.424461 0.987117 0.930448
Si Si4 0.590173 0.364812 0.070441
Si Si5 0.803800 0.541837 0.421278
Si Si6 0.437048 0.185974 0.569501
Si Si7 0.341052 0.408014 0.930357
Si Si8 0.186432 0.587178 0.923321
O O1 0.932878 0.022652 0.250000
O O2 0.871715 0.957424 0.464658
O O3 0.891272 0.072650 0.504080
O O4 0.000000 0.000000 0.500000
O O5 0.278545 0.805780 0.750000
O O6 0.246375 0.750000 0.000000
O O7 0.356981 0.818827 0.991372
O O8 0.226745 0.864500 0.977637
O O9 0.431225 0.978011 0.750000
O O10 0.391715 0.928868 0.005022
O O11 0.500000 0.000000 0.000000
O O12 0.375279 0.042060 0.965675
O O13 0.605699 0.363815 0.250000
O O14 0.509136 0.348949 0.032597
O O15 0.832162 0.555088 0.250000
O O16 0.743307 0.589120 0.465201
O O17 0.770256 0.475093 0.425512
O O18 0.444713 0.250000 0.500000
O O19 0.422217 0.189088 0.750000
O O20 0.371427 0.154531 0.484820
O O21 0.356340 0.418198 0.750000
O O22 0.177404 0.610874 0.750000
#
# Coordination Sequence:
#
# PCOD8230385 Si02
#       8
#     8   8   8   8   8   8   8   8
#     4  10  18  31  53  82 115 146 175 208 254 312
#     4  12  24  37  54  76 104 144 189 231 273 323
#     4  12  23  35  53  77 104 135 175 219 271 328
#     4  11  23  39  56  75 102 136 179 230 279 327
#     4   8  18  33  52  78 108 139 168 208 263 314
#     4  11  24  39  55  73  98 133 180 228 275 323
#     4  11  21  36  56  76 104 135 172 217 268 318
#     4   9  18  35  54  77 110 143 178 220 265 316
#
# _framework density 17.147583999999998
#
# number of rings (size 3 to 8) (size 9 to 14) (size 15 to 20)
#    0.750    0.750    1.250    5.625    0.000    4.500 
#    0.000    0.000    0.000    0.000    0.000    0.875 
#    0.000    4.000    0.000    0.000    0.000    0.000 
#
# Total GULP energy -793358.989542 kJ/mol
# GULP energy per Si atom -12396.234212 kJ/mol
# Density = 1.710856 g / cm^3
# Si number density = 17.147584 Si / 1000 Ang^3
#
#
#
# Elastic Constant Matrix: (Units=GPa)
#
#
# Indices 1 2 3 4 5 6 
#
# 1 85.4945 13.1189 47.4311 0.0000 0.0000 0.0000
# 2 13.1189 48.2219 31.1236 0.0000 0.0000 0.0000
# 3 47.4311 31.1236 126.1583 0.0000 0.0000 0.0000
# 4 0.0000 0.0000 0.0000 28.3830 0.0000 0.0000
# 5 0.0000 0.0000 0.0000 0.0000 29.5800 0.0000
# 6 0.0000 0.0000 0.0000 0.0000 0.0000 10.4762
#
#
#
# Elastic Compliance Matrix: (Units=1/GPa)
#
#
# Indices 1 2 3 4 5 6 
#
# 1 0.014790 -0.000517 -0.005433 0.000000 0.000000 0.000000
# 2 -0.000517 0.024683 -0.005895 0.000000 0.000000 0.000000
# 3 -0.005433 -0.005895 0.011423 0.000000 0.000000 0.000000
# 4 0.000000 0.000000 0.000000 0.035232 0.000000 0.000000
# 5 0.000000 0.000000 0.000000 0.000000 0.033807 0.000000
# 6 0.000000 0.000000 0.000000 0.000000 0.000000 0.095454
#
#
# Mechanical properties :
#
#
# Convention : Reuss Voigt Hill
#
# Bulk Modulus (GPa) = 36.75598 49.24688 43.00143
# Shear Modulus (GPa) = 20.14922 24.90124 22.52523
#
# Velocity S-wave (km/s) = 3.43161 3.81487 3.62831
# Velocity P-wave (km/s) = 6.09778 6.94162 6.53334
#
# Compressibility (1/GPa) = 0.02720645
#
# Stress axis : x y z
#
# Youngs Moduli (GPa) = 67.61248 40.51388 87.53910
#
# Poissons Ratio (x) = 0.02095 0.47560
# Poissons Ratio (y) = 0.03496 0.51604
# Poissons Ratio (z) = 0.36734 0.23883
#
# Static dielectric constant tensor:
#      x y z
#    x 3.510870 0.000000 0.000000 
#    y 0.000000 3.044200 0.000000 
#    z 0.000000 0.000000 3.366310 
# 
# 
# High freq. dielectric constant tensor:
#      x y z
#    x 1.643460 0.000000 0.000000 
#    y 0.000000 1.639750 0.000000 
#    z 0.000000 0.000000 1.680860 
# 
# From -- ./inp_files/8759.got.cif
#   From: 2010.03.12/outbox.cif.g09.slc.cpg/sg57_5_cif.got.tgz:8759.got - 2010.04.16 15:48:40.
