data_PCOD8230088
_publ_section_title
;
Structure prediction by ZEFSAII (Michael W. Deem and Ramdas Pophale) SiO2 
 PCOD8230088
Probable space group: P B C M
;
_chemical_formula_sum "Si O2"
_cell_formula_units_Z 64
_cell_length_a 16.890676
_cell_length_b 23.952385
_cell_length_c 9.408663
_cell_angle_alpha 90.000000
_cell_angle_beta 90.000000
_cell_angle_gamma 90.000000
_cell_volume 3806.481367
_symmetry_space_group_name_H-M "P B C M"
_symmetry_group_IT_number 57
_symmetry_cell_setting 'orthorhombic'
loop_
_space_group_symop_operation_xyz
x,y,z
-x,-y,1/2+z
x,1/2-y,-z
-x,1/2+y,1/2-z
-x,-y,-z
x,y,1/2-z
-x,1/2+y,z
x,1/2-y,1/2+z
loop_
_atom_site_type_symbol
_atom_site_label
_atom_site_fract_x
_atom_site_fract_y
_atom_site_fract_z
Si Si1 0.591911 0.808891 0.082680
Si Si2 0.021863 0.090709 0.087724
Si Si3 0.825938 0.970519 0.915811
Si Si4 0.247293 0.692089 0.916620
Si Si5 0.876115 0.697497 0.408793
Si Si6 0.277318 0.128795 0.082545
Si Si7 0.138036 0.907962 0.416616
Si Si8 0.580346 0.304125 0.090147
O O1 0.612100 0.799830 0.250000
O O2 0.503075 0.836032 0.064736
O O3 0.600990 0.750000 0.000000
O O4 0.647835 0.855087 0.012590
O O5 0.999895 0.075274 0.250000
O O6 0.088806 0.049211 0.022292
O O7 0.053669 0.153390 0.077317
O O8 0.944820 0.086218 0.992946
O O9 0.833222 0.956379 0.750000
O O10 0.752119 0.932866 0.969177
O O11 0.811163 0.035702 0.948322
O O12 0.233581 0.703856 0.750000
O O13 0.186491 0.645444 0.973829
O O14 0.335773 0.665606 0.944227
O O15 0.233913 0.750000 0.000000
O O16 0.900663 0.750000 0.500000
O O17 0.868260 0.719629 0.250000
O O18 0.792341 0.671854 0.455630
O O19 0.299147 0.130023 0.250000
O O20 0.121941 0.902409 0.250000
O O21 0.583592 0.282647 0.250000
O O22 0.575754 0.250000 0.000000
#
# Coordination Sequence:
#
# PCOD8230088 Si02
#       8
#     8   8   8   8   8   8   8   8
#     4  10  18  27  43  68  94 119 149 183 219 262
#     4   9  18  32  47  64  88 117 147 183 227 265
#     4   8  16  32  50  66  88 118 151 186 223 264
#     4   9  18  32  49  69  93 119 147 181 223 270
#     4   9  18  30  43  60  86 120 150 176 214 264
#     4   9  17  30  46  64  89 120 151 184 221 260
#     4  10  19  31  50  72  88 110 150 191 223 263
#     4   8  15  28  44  63  89 119 147 178 218 261
#
# _framework density 16.813427999999998
#
# number of rings (size 3 to 8) (size 9 to 14) (size 15 to 20)
#    0.000    3.000    0.000    2.625    0.000    3.500 
#    0.000    5.000    0.000    0.750    0.000    0.000 
#    0.000    0.000    0.000    0.000    0.000    0.625 
#
# Total GULP energy -792858.898533 kJ/mol
# GULP energy per Si atom -12388.420290 kJ/mol
# Density = 1.677516 g / cm^3
# Si number density = 16.813428 Si / 1000 Ang^3
#
#
#
# Elastic Constant Matrix: (Units=GPa)
#
#
# Indices 1 2 3 4 5 6 
#
# 1 94.7586 48.9556 32.4517 0.0000 0.0000 0.0000
# 2 48.9556 96.6936 33.7141 0.0000 0.0000 0.0000
# 3 32.4517 33.7141 47.0119 0.0000 0.0000 0.0000
# 4 0.0000 0.0000 0.0000 19.2853 0.0000 0.0000
# 5 0.0000 0.0000 0.0000 0.0000 25.7854 0.0000
# 6 0.0000 0.0000 0.0000 0.0000 0.0000 16.7510
#
#
#
# Elastic Compliance Matrix: (Units=1/GPa)
#
#
# Indices 1 2 3 4 5 6 
#
# 1 0.015807 -0.005599 -0.006897 0.000000 0.000000 0.000000
# 2 -0.005599 0.015773 -0.007447 0.000000 0.000000 0.000000
# 3 -0.006897 -0.007447 0.031372 0.000000 0.000000 0.000000
# 4 0.000000 0.000000 0.000000 0.051853 0.000000 0.000000
# 5 0.000000 0.000000 0.000000 0.000000 0.038782 0.000000
# 6 0.000000 0.000000 0.000000 0.000000 0.000000 0.059698
#
#
# Mechanical properties :
#
#
# Convention : Reuss Voigt Hill
#
# Bulk Modulus (GPa) = 43.34905 52.07855 47.71380
# Shear Modulus (GPa) = 19.16745 20.58719 19.87732
#
# Velocity S-wave (km/s) = 3.38006 3.50301 3.44209
# Velocity P-wave (km/s) = 6.40870 6.88499 6.65111
#
# Compressibility (1/GPa) = 0.02306856
#
# Stress axis : x y z
#
# Youngs Moduli (GPa) = 63.26125 63.39974 31.87522
#
# Poissons Ratio (x) = 0.35495 0.21984
# Poissons Ratio (y) = 0.35417 0.23737
# Poissons Ratio (z) = 0.43630 0.47212
#
# Static dielectric constant tensor:
#      x y z
#    x 3.683860 0.000000 0.000000 
#    y 0.000000 3.021570 0.000000 
#    z 0.000000 0.000000 3.061270 
# 
# 
# High freq. dielectric constant tensor:
#      x y z
#    x 1.650290 0.000000 0.000000 
#    y 0.000000 1.625890 0.000000 
#    z 0.000000 0.000000 1.638130 
# 
# From -- ./inp_files/7411.got.cif
#   From: 2010.03.12/outbox.cif.g09.slc.cpg/sg57_4_cif.got.tgz:7411.got - 2010.04.16 15:48:40.
