data_PCOD8230954
_publ_section_title
;
Structure prediction by ZEFSAII (Michael W. Deem and Ramdas Pophale) SiO2 
 PCOD8230954
Probable space group: P B C M
;
_chemical_formula_sum "Si O2"
_cell_formula_units_Z 48
_cell_length_a 9.790678
_cell_length_b 30.378507
_cell_length_c 9.078721
_cell_angle_alpha 90.000000
_cell_angle_beta 90.000000
_cell_angle_gamma 90.000000
_cell_volume 2700.249308
_symmetry_space_group_name_H-M "P B C M"
_symmetry_group_IT_number 57
_symmetry_cell_setting 'orthorhombic'
loop_
_space_group_symop_operation_xyz
x,y,z
-x,-y,1/2+z
x,1/2-y,-z
-x,1/2+y,1/2-z
-x,-y,-z
x,y,1/2-z
-x,1/2+y,z
x,1/2-y,1/2+z
loop_
_atom_site_type_symbol
_atom_site_label
_atom_site_fract_x
_atom_site_fract_y
_atom_site_fract_z
Si Si1 0.164047 0.619099 0.423511
Si Si2 0.631656 0.950474 0.580422
Si Si3 0.356647 0.948069 0.078915
Si Si4 0.850072 0.621480 0.420454
Si Si5 0.831635 0.292876 0.416956
Si Si6 0.156965 0.207644 0.915339
O O1 0.188157 0.622781 0.250000
O O2 0.243895 0.577805 0.487584
O O3 0.219755 0.663756 0.498106
O O4 0.005858 0.611287 0.463761
O O5 0.587756 0.943992 0.750000
O O6 0.506802 0.935415 0.478320
O O7 0.762176 0.921230 0.538516
O O8 0.672988 0.000676 0.549638
O O9 0.345956 0.935653 0.250000
O O10 0.839248 0.633958 0.250000
O O11 0.790520 0.663079 0.508644
O O12 0.772248 0.250000 0.500000
O O13 0.775886 0.293635 0.250000
O O14 0.994231 0.291163 0.418746
O O15 0.213675 0.208867 0.750000
O O16 0.216742 0.250000 0.000000
#
# Coordination Sequence:
#
# PCOD8230954 Si02
#       6
#     8   8   8   8   8   8
#     4  10  19  31  49  74 102 131 163 201 245 289
#     4   9  19  36  54  71  95 129 166 203 246 296
#     4  10  20  34  52  73  97 128 166 204 244 295
#     4   9  18  32  50  73 100 129 163 203 245 288
#     4   9  16  27  44  68  98 130 163 199 239 285
#     4   9  16  26  43  68  98 130 162 197 238 285
#
# _framework density 17.776136000000001
#
# number of rings (size 3 to 8) (size 9 to 14) (size 15 to 20)
#    0.000    2.667    0.000    2.000    0.000    6.667 
#    0.000    0.000    0.000    1.000    0.000    2.333 
#    0.000    0.000    0.000    0.000    0.000    0.000 
#
# Total GULP energy -595271.211010 kJ/mol
# GULP energy per Si atom -12401.483563 kJ/mol
# Density = 1.773568 g / cm^3
# Si number density = 17.776136 Si / 1000 Ang^3
#
#
#
# Elastic Constant Matrix: (Units=GPa)
#
#
# Indices 1 2 3 4 5 6 
#
# 1 57.3065 57.3933 43.8079 0.0000 0.0000 0.0000
# 2 57.3933 128.6430 71.0917 0.0000 0.0000 0.0000
# 3 43.8079 71.0917 118.7283 0.0000 0.0000 0.0000
# 4 0.0000 0.0000 0.0000 37.8280 0.0000 0.0000
# 5 0.0000 0.0000 0.0000 0.0000 22.3527 0.0000
# 6 0.0000 0.0000 0.0000 0.0000 0.0000 3.5546
#
#
#
# Elastic Compliance Matrix: (Units=1/GPa)
#
#
# Indices 1 2 3 4 5 6 
#
# 1 0.033489 -0.012124 -0.005097 0.000000 0.000000 0.000000
# 2 -0.012124 0.016007 -0.005111 0.000000 0.000000 0.000000
# 3 -0.005097 -0.005111 0.013364 0.000000 0.000000 0.000000
# 4 0.000000 0.000000 0.000000 0.026435 0.000000 0.000000
# 5 0.000000 0.000000 0.000000 0.000000 0.044737 0.000000
# 6 0.000000 0.000000 0.000000 0.000000 0.000000 0.281325
#
#
# Mechanical properties :
#
#
# Convention : Reuss Voigt Hill
#
# Bulk Modulus (GPa) = 54.95962 72.14041 63.55002
# Shear Modulus (GPa) = 10.72761 21.57272 16.15017
#
# Velocity S-wave (km/s) = 2.45926 3.48742 3.01745
# Velocity P-wave (km/s) = 6.24889 7.54235 6.92588
#
# Compressibility (1/GPa) = 0.01819518
#
# Stress axis : x y z
#
# Youngs Moduli (GPa) = 29.86062 62.47208 74.82963
#
# Poissons Ratio (x) = 0.75742 0.38140
# Poissons Ratio (y) = 0.36204 0.38247
# Poissons Ratio (z) = 0.15220 0.31931
#
# Static dielectric constant tensor:
#      x y z
#    x 2.916040 0.000000 0.000000 
#    y 0.000000 3.403230 0.000000 
#    z 0.000000 0.000000 3.448130 
# 
# 
# High freq. dielectric constant tensor:
#      x y z
#    x 1.642490 0.000000 0.000000 
#    y 0.000000 1.697830 0.000000 
#    z 0.000000 0.000000 1.701060 
# 
# From -- ./inp_files/1971.got.cif
#   From: 2010.03.12/outbox.cif.g09.slc.cpg/sg57_1_cif.got.tgz:1971.got - 2010.04.16 15:48:40.
