data_PCOD8230389
_publ_section_title
;
Structure prediction by ZEFSAII (Michael W. Deem and Ramdas Pophale) SiO2 
 PCOD8230389
Probable space group: P B C M
;
_chemical_formula_sum "Si O2"
_cell_formula_units_Z 40
_cell_length_a 10.290739
_cell_length_b 16.767411
_cell_length_c 10.593807
_cell_angle_alpha 90.000000
_cell_angle_beta 90.000000
_cell_angle_gamma 90.000000
_cell_volume 1827.951337
_symmetry_space_group_name_H-M "P B C M"
_symmetry_group_IT_number 57
_symmetry_cell_setting 'orthorhombic'
loop_
_space_group_symop_operation_xyz
x,y,z
-x,-y,1/2+z
x,1/2-y,-z
-x,1/2+y,1/2-z
-x,-y,-z
x,y,1/2-z
-x,1/2+y,z
x,1/2-y,1/2+z
loop_
_atom_site_type_symbol
_atom_site_label
_atom_site_fract_x
_atom_site_fract_y
_atom_site_fract_z
Si Si1 0.070318 0.158301 0.507370
Si Si2 0.016097 0.431269 0.250000
Si Si3 0.383030 0.816852 0.750000
Si Si4 0.639296 0.604991 0.250000
Si Si5 0.075104 0.405159 0.750000
Si Si6 0.554913 0.250000 0.500000
Si Si7 0.303386 0.999612 0.750000
Si Si8 0.635560 0.896845 0.020898
O O1 0.038746 0.250000 0.500000
O O2 0.995463 0.122085 0.626869
O O3 0.006194 0.120640 0.380280
O O4 0.222555 0.142784 0.524938
O O5 0.151672 0.479868 0.250000
O O6 0.905406 0.499226 0.250000
O O7 0.541416 0.820080 0.750000
O O8 0.350177 0.770156 0.880233
O O9 0.319970 0.904665 0.750000
O O10 0.785273 0.639198 0.250000
O O11 0.615779 0.558865 0.383449
O O12 0.468785 0.173337 0.539098
O O13 0.375954 0.036247 0.628069
#
# Coordination Sequence:
#
# PCOD8230389 Si02
#       8
#     8   4   4   4   4   4   4   8
#     4  10  18  31  54  83 106 133 173 222 270 310
#     4  10  21  34  53  78 112 144 169 213 263 316
#     4  10  21  35  53  80 103 138 182 219 268 311
#     4   8  18  30  50  78 106 127 167 215 266 306
#     4  10  19  33  51  78 114 137 171 210 271 315
#     4  10  18  32  54  78 106 134 172 226 270 308
#     4  10  21  34  51  76 109 144 177 209 262 322
#     4   9  17  31  51  80 109 130 164 225 277 307
#
# _framework density 21.88242
#
# number of rings (size 3 to 8) (size 9 to 14) (size 15 to 20)
#    0.000    2.400    1.000    1.800    0.000    3.200 
#    0.000    1.000    2.200    0.000    5.200    0.000 
#    0.000    0.000    0.000    0.000    0.000    0.000 
#
# Total GULP energy -495536.613315 kJ/mol
# GULP energy per Si atom -12388.415333 kJ/mol
# Density = 2.183261 g / cm^3
# Si number density = 21.882420 Si / 1000 Ang^3
#
#
#
# Elastic Constant Matrix: (Units=GPa)
#
#
# Indices 1 2 3 4 5 6 
#
# 1 7.8835 8.2493 -0.6311 0.0000 0.0000 0.0000
# 2 8.2493 126.8056 77.6690 0.0000 0.0000 0.0000
# 3 -0.6311 77.6690 247.2067 0.0000 0.0000 0.0000
# 4 0.0000 0.0000 0.0000 -11.4400 0.0000 0.0000
# 5 0.0000 0.0000 0.0000 0.0000 -7.3445 0.0000
# 6 0.0000 0.0000 0.0000 0.0000 0.0000 28.5078
#
#
#
# Elastic Compliance Matrix: (Units=1/GPa)
#
#
# Indices 1 2 3 4 5 6 
#
# 1 0.139179 -0.011481 0.003963 0.000000 0.000000 0.000000
# 2 -0.011481 0.010712 -0.003395 0.000000 0.000000 0.000000
# 3 0.003963 -0.003395 0.005122 0.000000 0.000000 0.000000
# 4 0.000000 0.000000 0.000000 -0.087412 0.000000 0.000000
# 5 0.000000 0.000000 0.000000 0.000000 -0.136156 0.000000
# 6 0.000000 0.000000 0.000000 0.000000 0.000000 0.035078
#
#
# Mechanical properties :
#
#
# Convention : Reuss Voigt Hill
#
# Bulk Modulus (GPa) = 7.50828 61.38556 34.44692
# Shear Modulus (GPa) = 152.68941 21.71855 87.20398
#
# Velocity S-wave (km/s) = 8.36234 3.15383 6.31963
# Velocity P-wave (km/s) = 9.83244 6.43238 8.30820
#
# Compressibility (1/GPa) = 0.13318625
#
# Stress axis : x y z
#
# Youngs Moduli (GPa) = 7.18497 93.34908 195.23673
#
# Poissons Ratio (x) = 1.07178 -0.77365
# Poissons Ratio (y) = 0.08249 0.66283
# Poissons Ratio (z) = -0.02847 0.31692
#
# Static dielectric constant tensor:
#      x y z
#    x 3.501640 0.000000 0.000000 
#    y 0.000000 3.613480 0.000000 
#    z 0.000000 0.000000 4.751240 
# 
# 
# High freq. dielectric constant tensor:
#      x y z
#    x 1.812710 0.000000 0.000000 
#    y 0.000000 1.837020 0.000000 
#    z 0.000000 0.000000 1.895970 
# 
# From -- ./inp_files/12795.got.cif
#   From: 2010.03.12/outbox.cif.g09.slc.cpg/sg57_7_cif.got.tgz:12795.got - 2010.04.16 15:48:40.
