data_PCOD8230426
_publ_section_title
;
Structure prediction by ZEFSAII (Michael W. Deem and Ramdas Pophale) SiO2 
 PCOD8230426
Probable space group: P B C M
;
_chemical_formula_sum "Si O2"
_cell_formula_units_Z 48
_cell_length_a 9.581024
_cell_length_b 8.597090
_cell_length_c 31.474342
_cell_angle_alpha 90.000000
_cell_angle_beta 90.000000
_cell_angle_gamma 90.000000
_cell_volume 2592.507735
_symmetry_space_group_name_H-M "P B C M"
_symmetry_group_IT_number 57
_symmetry_cell_setting 'orthorhombic'
loop_
_space_group_symop_operation_xyz
x,y,z
-x,-y,1/2+z
x,1/2-y,-z
-x,1/2+y,1/2-z
-x,-y,-z
x,y,1/2-z
-x,1/2+y,z
x,1/2-y,1/2+z
loop_
_atom_site_type_symbol
_atom_site_label
_atom_site_fract_x
_atom_site_fract_y
_atom_site_fract_z
Si Si1 0.335558 0.563051 0.585820
Si Si2 0.165486 0.061350 0.750000
Si Si3 0.140981 0.432167 0.842358
Si Si4 0.357482 0.570888 0.413771
Si Si5 0.831348 0.933765 0.341961
Si Si6 0.344617 0.065527 0.500470
Si Si7 0.873991 0.916510 0.750000
O O1 0.234441 0.526419 0.624749
O O2 0.357198 0.745290 0.582122
O O3 0.483531 0.480876 0.592662
O O4 0.266892 0.500136 0.541582
O O5 0.241800 0.034925 0.795398
O O6 0.034792 0.951631 0.750000
O O7 0.111648 0.234245 0.750000
O O8 0.197154 0.473759 0.794246
O O9 0.981381 0.485236 0.846495
O O10 0.153074 0.248947 0.851748
O O11 0.272903 0.514541 0.373662
O O12 0.280798 0.497582 0.455363
O O13 0.341906 0.250000 0.500000
O O14 0.500000 0.000000 0.500000
#
# Coordination Sequence:
#
# PCOD8230426 Si02
#       7
#     8   4   8   8   8   8   4
#     4  11  21  35  54  78 105 137 173 214 257 305
#     4   8  16  30  51  74 101 134 172 210 250 302
#     4  10  19  34  54  79 106 137 173 213 257 306
#     4  11  21  35  54  78 105 137 173 214 257 305
#     4  10  19  34  54  79 106 137 173 213 257 306
#     4  10  18  32  53  76 101 134 171 210 252 306
#     4   8  16  30  51  74 101 134 172 210 250 302
#
# _framework density 18.514892
#
# number of rings (size 3 to 8) (size 9 to 14) (size 15 to 20)
#    0.000    2.000    0.000    7.500    0.000    1.333 
#    0.000    1.667    0.000    0.000    0.000    0.000 
#    0.000    0.000    0.000    0.000    0.000    0.000 
#
# Total GULP energy -594664.480574 kJ/mol
# GULP energy per Si atom -12388.843345 kJ/mol
# Density = 1.847275 g / cm^3
# Si number density = 18.514892 Si / 1000 Ang^3
#
#
#
# Elastic Constant Matrix: (Units=GPa)
#
#
# Indices 1 2 3 4 5 6 
#
# 1 39.3796 14.1448 34.9679 0.0000 0.0000 0.0000
# 2 14.1448 122.4598 47.6137 0.0000 0.0000 0.0000
# 3 34.9679 47.6137 153.5227 0.0000 0.0000 0.0000
# 4 0.0000 0.0000 0.0000 5.6654 0.0000 0.0000
# 5 0.0000 0.0000 0.0000 0.0000 107.8511 0.0000
# 6 0.0000 0.0000 0.0000 0.0000 0.0000 -3.8771
#
#
#
# Elastic Compliance Matrix: (Units=1/GPa)
#
#
# Indices 1 2 3 4 5 6 
#
# 1 0.031935 -0.000979 -0.006970 0.000000 0.000000 0.000000
# 2 -0.000979 0.009316 -0.002666 0.000000 0.000000 0.000000
# 3 -0.006970 -0.002666 0.008928 0.000000 0.000000 0.000000
# 4 0.000000 0.000000 0.000000 0.176510 0.000000 0.000000
# 5 0.000000 0.000000 0.000000 0.000000 0.009272 0.000000
# 6 0.000000 0.000000 0.000000 0.000000 0.000000 -0.257923
#
#
# Mechanical properties :
#
#
# Convention : Reuss Voigt Hill
#
# Bulk Modulus (GPa) = 34.54418 56.53498 45.53958
# Shear Modulus (GPa) = 560.65282 36.50359 298.57821
#
# Velocity S-wave (km/s) = 17.42037 4.44506 12.71275
# Velocity P-wave (km/s) = 20.57483 7.54625 15.49628
#
# Compressibility (1/GPa) = 0.02894843
#
# Stress axis : x y z
#
# Youngs Moduli (GPa) = 31.31386 107.34618 112.00407
#
# Poissons Ratio (x) = 0.10504 0.78070
# Poissons Ratio (y) = 0.03064 0.29864
# Poissons Ratio (z) = 0.21827 0.28622
#
# Static dielectric constant tensor:
#      x y z
#    x 2.965110 0.000000 0.000000 
#    y 0.000000 3.580880 0.000000 
#    z 0.000000 0.000000 2.799570 
# 
# 
# High freq. dielectric constant tensor:
#      x y z
#    x 1.662220 0.000000 0.000000 
#    y 0.000000 1.739730 0.000000 
#    z 0.000000 0.000000 1.751780 
# 
# From -- ./inp_files/29533.got.cif
#   From: 2010.03.12/outbox.cif.g09.slc.cpg/sg57_15_cif.got.tgz:29533.got - 2010.04.16 15:48:40.
