data_PCOD8230272
_publ_section_title
;
Structure prediction by ZEFSAII (Michael W. Deem and Ramdas Pophale) SiO2 
 PCOD8230272
Probable space group: P B C M
;
_chemical_formula_sum "Si O2"
_cell_formula_units_Z 64
_cell_length_a 14.463436
_cell_length_b 29.998927
_cell_length_c 8.776829
_cell_angle_alpha 90.000000
_cell_angle_beta 90.000000
_cell_angle_gamma 90.000000
_cell_volume 3808.156926
_symmetry_space_group_name_H-M "P B C M"
_symmetry_group_IT_number 57
_symmetry_cell_setting 'orthorhombic'
loop_
_space_group_symop_operation_xyz
x,y,z
-x,-y,1/2+z
x,1/2-y,-z
-x,1/2+y,1/2-z
-x,-y,-z
x,y,1/2-z
-x,1/2+y,z
x,1/2-y,1/2+z
loop_
_atom_site_type_symbol
_atom_site_label
_atom_site_fract_x
_atom_site_fract_y
_atom_site_fract_z
Si Si1 0.942026 0.540309 0.929301
Si Si2 0.450244 0.457196 0.572473
Si Si3 0.735936 0.524651 0.572616
Si Si4 0.145805 0.703143 0.069562
Si Si5 0.928910 0.381090 0.428257
Si Si6 0.249587 0.934638 0.080218
Si Si7 0.655835 0.203926 0.930135
Si Si8 0.435883 0.883694 0.419019
O O1 0.945750 0.532340 0.750000
O O2 0.836245 0.540318 0.988160
O O3 0.982268 0.588958 0.972355
O O4 0.000000 0.500000 0.000000
O O5 0.500000 0.500000 0.500000
O O6 0.448770 0.466426 0.750000
O O7 0.345971 0.449817 0.514202
O O8 0.503711 0.411415 0.537879
O O9 0.724090 0.534168 0.750000
O O10 0.724289 0.472427 0.540111
O O11 0.149834 0.707200 0.250000
O O12 0.111887 0.750000 0.000000
O O13 0.072094 0.665092 0.021389
O O14 0.246880 0.690394 0.006330
O O15 0.926093 0.369571 0.250000
O O16 0.841463 0.410318 0.478530
O O17 0.233627 0.955038 0.250000
O O18 0.330982 0.899565 0.084943
O O19 0.672737 0.208272 0.750000
O O20 0.574788 0.168083 0.966872
O O21 0.619164 0.250000 0.000000
O O22 0.480060 0.888665 0.250000
#
# Coordination Sequence:
#
# PCOD8230272 Si02
#       8
#     8   8   8   8   8   8   8   8
#     4  10  21  34  52  76 103 137 174 212 252 299
#     4  12  24  36  52  73  99 134 174 215 258 303
#     4  11  22  35  50  73 103 135 175 215 253 299
#     4  11  21  32  49  73 102 135 171 210 252 302
#     4  10  19  34  51  72 103 138 172 208 252 301
#     4  10  18  30  50  71 101 139 172 206 251 297
#     4  10  19  33  51  74 104 136 167 205 253 303
#     4  10  20  34  51  73 102 136 172 208 253 301
#
# _framework density 16.80603
#
# number of rings (size 3 to 8) (size 9 to 14) (size 15 to 20)
#    0.000    1.500    3.750    3.750    0.000    2.500 
#    0.000    0.000    0.000    0.000    0.000    0.875 
#    0.000    4.000    0.000    0.000    0.000    0.000 
#
# Total GULP energy -793555.386691 kJ/mol
# GULP energy per Si atom -12399.302917 kJ/mol
# Density = 1.676778 g / cm^3
# Si number density = 16.806030 Si / 1000 Ang^3
#
#
#
# Elastic Constant Matrix: (Units=GPa)
#
#
# Indices 1 2 3 4 5 6 
#
# 1 93.9236 42.0841 36.9314 0.0000 0.0000 0.0000
# 2 42.0841 106.0539 42.8389 0.0000 0.0000 0.0000
# 3 36.9314 42.8389 92.8678 0.0000 0.0000 0.0000
# 4 0.0000 0.0000 0.0000 27.9568 0.0000 0.0000
# 5 0.0000 0.0000 0.0000 0.0000 21.7064 0.0000
# 6 0.0000 0.0000 0.0000 0.0000 0.0000 23.4345
#
#
#
# Elastic Compliance Matrix: (Units=1/GPa)
#
#
# Indices 1 2 3 4 5 6 
#
# 1 0.013895 -0.004033 -0.003665 0.000000 0.000000 0.000000
# 2 -0.004033 0.012759 -0.004282 0.000000 0.000000 0.000000
# 3 -0.003665 -0.004282 0.014201 0.000000 0.000000 0.000000
# 4 0.000000 0.000000 0.000000 0.035769 0.000000 0.000000
# 5 0.000000 0.000000 0.000000 0.000000 0.046069 0.000000
# 6 0.000000 0.000000 0.000000 0.000000 0.000000 0.042672
#
#
# Mechanical properties :
#
#
# Convention : Reuss Voigt Hill
#
# Bulk Modulus (GPa) = 59.19086 59.61713 59.40400
# Shear Modulus (GPa) = 25.64644 26.01892 25.83268
#
# Velocity S-wave (km/s) = 3.91068 3.93897 3.92485
# Velocity P-wave (km/s) = 7.46242 7.49920 7.48083
#
# Compressibility (1/GPa) = 0.01689450
#
# Stress axis : x y z
#
# Youngs Moduli (GPa) = 71.96613 78.37458 70.41895
#
# Poissons Ratio (x) = 0.31612 0.25811
# Poissons Ratio (y) = 0.29027 0.30151
# Poissons Ratio (z) = 0.26378 0.33558
#
# Static dielectric constant tensor:
#      x y z
#    x 3.138970 0.000000 0.000000 
#    y 0.000000 3.200130 0.000000 
#    z 0.000000 0.000000 3.185960 
# 
# 
# High freq. dielectric constant tensor:
#      x y z
#    x 1.622590 0.000000 0.000000 
#    y 0.000000 1.639760 0.000000 
#    z 0.000000 0.000000 1.653140 
# 
# From -- ./inp_files/6044.got.cif
#   From: 2010.03.12/outbox.cif.g09.slc.cpg/sg57_4_cif.got.tgz:6044.got - 2010.04.16 15:48:40.
