data_PCOD8230072
_publ_section_title
;
Structure prediction by ZEFSAII (Michael W. Deem and Ramdas Pophale) SiO2 
 PCOD8230072
Probable space group: P B C M
;
_chemical_formula_sum "Si O2"
_cell_formula_units_Z 56
_cell_length_a 16.178811
_cell_length_b 24.507871
_cell_length_c 8.973733
_cell_angle_alpha 90.000000
_cell_angle_beta 90.000000
_cell_angle_gamma 90.000000
_cell_volume 3558.158835
_symmetry_space_group_name_H-M "P B C M"
_symmetry_group_IT_number 57
_symmetry_cell_setting 'orthorhombic'
loop_
_space_group_symop_operation_xyz
x,y,z
-x,-y,1/2+z
x,1/2-y,-z
-x,1/2+y,1/2-z
-x,-y,-z
x,y,1/2-z
-x,1/2+y,z
x,1/2-y,1/2+z
loop_
_atom_site_type_symbol
_atom_site_label
_atom_site_fract_x
_atom_site_fract_y
_atom_site_fract_z
Si Si1 0.526424 0.585781 0.075295
Si Si2 0.193886 0.506589 0.077434
Si Si3 0.578728 0.806449 0.074417
Si Si4 0.030619 0.947031 0.920661
Si Si5 0.230997 0.194927 0.576080
Si Si6 0.379719 0.507227 0.422231
Si Si7 0.131600 0.100917 0.424272
O O1 0.538686 0.595485 0.250000
O O2 0.438960 0.557572 0.036314
O O3 0.526405 0.643741 0.992705
O O4 0.599617 0.546586 0.017539
O O5 0.187703 0.487497 0.250000
O O6 0.129837 0.557814 0.047956
O O7 0.286546 0.526417 0.041222
O O8 0.171003 0.456654 0.970848
O O9 0.563527 0.802635 0.250000
O O10 0.674233 0.817603 0.034009
O O11 0.548679 0.750000 0.000000
O O12 0.014388 0.958959 0.750000
O O13 0.968002 0.897590 0.963547
O O14 0.000000 0.000000 0.000000
O O15 0.200090 0.250000 0.500000
O O16 0.219791 0.202104 0.750000
O O17 0.173419 0.147065 0.520502
O O18 0.390978 0.490803 0.250000
O O19 0.148699 0.111065 0.250000
#
# Coordination Sequence:
#
# PCOD8230072 Si02
#       7
#     8   8   8   8   8   8   8
#     4  10  19  30  44  64  90 117 146 180 219 260
#     4   9  16  28  44  61  84 115 148 176 205 244
#     4  10  20  33  48  65  86 113 145 179 215 257
#     4   8  15  26  40  59  83 110 139 170 202 239
#     4  10  20  32  45  62  84 111 142 173 206 247
#     4   9  18  30  44  63  88 119 151 181 214 256
#     4  10  18  27  41  63  89 114 140 172 211 250
#
# _framework density 15.738476
#
# number of rings (size 3 to 8) (size 9 to 14) (size 15 to 20)
#    0.000    2.571    0.000    2.571    0.000    6.857 
#    0.000    0.000    0.000    0.000    0.000    1.000 
#    0.000    0.000    0.000    0.000    0.000    0.000 
#
# Total GULP energy -693942.199910 kJ/mol
# GULP energy per Si atom -12391.824998 kJ/mol
# Density = 1.570265 g / cm^3
# Si number density = 15.738476 Si / 1000 Ang^3
#
#
#
# Elastic Constant Matrix: (Units=GPa)
#
#
# Indices 1 2 3 4 5 6 
#
# 1 96.5160 38.9701 23.2514 0.0000 0.0000 0.0000
# 2 38.9701 89.1511 34.4466 0.0000 0.0000 0.0000
# 3 23.2514 34.4466 52.1175 0.0000 0.0000 0.0000
# 4 0.0000 0.0000 0.0000 27.7771 0.0000 0.0000
# 5 0.0000 0.0000 0.0000 0.0000 19.0729 0.0000
# 6 0.0000 0.0000 0.0000 0.0000 0.0000 19.4040
#
#
#
# Elastic Compliance Matrix: (Units=1/GPa)
#
#
# Indices 1 2 3 4 5 6 
#
# 1 0.012862 -0.004573 -0.002716 0.000000 0.000000 0.000000
# 2 -0.004573 0.016690 -0.008991 0.000000 0.000000 0.000000
# 3 -0.002716 -0.008991 0.026341 0.000000 0.000000 0.000000
# 4 0.000000 0.000000 0.000000 0.036001 0.000000 0.000000
# 5 0.000000 0.000000 0.000000 0.000000 0.052430 0.000000
# 6 0.000000 0.000000 0.000000 0.000000 0.000000 0.051536
#
#
# Mechanical properties :
#
#
# Convention : Reuss Voigt Hill
#
# Bulk Modulus (GPa) = 42.85573 47.90230 45.37901
# Shear Modulus (GPa) = 21.16886 22.65858 21.91372
#
# Velocity S-wave (km/s) = 3.67146 3.79845 3.73549
# Velocity P-wave (km/s) = 6.72769 7.05266 6.89209
#
# Compressibility (1/GPa) = 0.02333410
#
# Stress axis : x y z
#
# Youngs Moduli (GPa) = 77.75113 59.91713 37.96316
#
# Poissons Ratio (x) = 0.27399 0.10309
# Poissons Ratio (y) = 0.35554 0.34132
# Poissons Ratio (z) = 0.21114 0.53870
#
# Static dielectric constant tensor:
#      x y z
#    x 3.375590 0.000000 0.000000 
#    y 0.000000 2.913650 0.000000 
#    z 0.000000 0.000000 3.109650 
# 
# 
# High freq. dielectric constant tensor:
#      x y z
#    x 1.601290 0.000000 0.000000 
#    y 0.000000 1.572460 0.000000 
#    z 0.000000 0.000000 1.618020 
# 
# From -- ./inp_files/6983.got.cif
#   From: 2010.03.12/outbox.cif.g09.slc.cpg/sg57_4_cif.got.tgz:6983.got - 2010.04.16 15:48:40.
