data_PCOD8230167
_publ_section_title
;
Structure prediction by ZEFSAII (Michael W. Deem and Ramdas Pophale) SiO2 
 PCOD8230167
Probable space group: P B C M
;
_chemical_formula_sum "Si O2"
_cell_formula_units_Z 56
_cell_length_a 20.674168
_cell_length_b 18.289679
_cell_length_c 8.819687
_cell_angle_alpha 90.000000
_cell_angle_beta 90.000000
_cell_angle_gamma 90.000000
_cell_volume 3334.934413
_symmetry_space_group_name_H-M "P B C M"
_symmetry_group_IT_number 57
_symmetry_cell_setting 'orthorhombic'
loop_
_space_group_symop_operation_xyz
x,y,z
-x,-y,1/2+z
x,1/2-y,-z
-x,1/2+y,1/2-z
-x,-y,-z
x,y,1/2-z
-x,1/2+y,z
x,1/2-y,1/2+z
loop_
_atom_site_type_symbol
_atom_site_label
_atom_site_fract_x
_atom_site_fract_y
_atom_site_fract_z
Si Si1 0.562539 0.965355 0.426926
Si Si2 0.490224 0.826857 0.424660
Si Si3 0.937612 0.964345 0.427784
Si Si4 0.250908 0.827502 0.930847
Si Si5 0.883858 0.387646 0.572860
Si Si6 0.979600 0.672983 0.430051
Si Si7 0.635523 0.084443 0.570198
O O1 0.566150 0.984760 0.250000
O O2 0.553805 0.877933 0.451286
O O3 0.500000 0.000000 0.500000
O O4 0.624111 0.000688 0.512839
O O5 0.503938 0.750000 0.500000
O O6 0.478913 0.811582 0.250000
O O7 0.424701 0.865470 0.485710
O O8 0.947664 0.951231 0.250000
O O9 0.926713 0.886444 0.510285
O O10 0.881180 0.024426 0.458701
O O11 0.000000 0.000000 0.500000
O O12 0.253110 0.823858 0.750000
O O13 0.180090 0.849912 0.995098
O O14 0.270962 0.750000 0.000000
O O15 0.300184 0.887983 0.989646
O O16 0.885207 0.373240 0.750000
O O17 0.949032 0.349893 0.507185
O O18 0.959573 0.750000 0.500000
O O19 0.976658 0.676202 0.250000
O O20 0.643949 0.084927 0.750000
#
# Coordination Sequence:
#
# PCOD8230167 Si02
#       7
#     8   8   8   8   8   8   8
#     4   9  17  30  46  66  90 119 152 189 229 273
#     4   9  18  29  44  66  92 117 146 181 223 267
#     4   9  16  29  46  65  89 118 151 189 230 276
#     4  11  21  33  47  66  92 124 157 190 224 264
#     4   8  17  31  46  64  90 122 156 188 224 269
#     4  10  18  29  45  68  94 121 152 189 231 276
#     4  10  20  33  46  65  91 123 159 192 224 267
#
# _framework density 16.791933
#
# number of rings (size 3 to 8) (size 9 to 14) (size 15 to 20)
#    0.000    2.571    0.000    4.714    0.000    4.571 
#    0.000    7.857    0.000    0.000    0.000    1.000 
#    0.000    4.571    0.000    0.000    0.000    0.000 
#
# Total GULP energy -693935.396029 kJ/mol
# GULP energy per Si atom -12391.703501 kJ/mol
# Density = 1.675371 g / cm^3
# Si number density = 16.791933 Si / 1000 Ang^3
#
#
#
# Elastic Constant Matrix: (Units=GPa)
#
#
# Indices 1 2 3 4 5 6 
#
# 1 34.9251 13.3308 14.8549 0.0000 0.0000 0.0000
# 2 13.3308 96.6920 34.1610 0.0000 0.0000 0.0000
# 3 14.8549 34.1610 70.7607 0.0000 0.0000 0.0000
# 4 0.0000 0.0000 0.0000 32.9933 0.0000 0.0000
# 5 0.0000 0.0000 0.0000 0.0000 18.3020 0.0000
# 6 0.0000 0.0000 0.0000 0.0000 0.0000 24.8322
#
#
#
# Elastic Compliance Matrix: (Units=1/GPa)
#
#
# Indices 1 2 3 4 5 6 
#
# 1 0.031915 -0.002451 -0.005517 0.000000 0.000000 0.000000
# 2 -0.002451 0.012657 -0.005596 0.000000 0.000000 0.000000
# 3 -0.005517 -0.005596 0.017992 0.000000 0.000000 0.000000
# 4 0.000000 0.000000 0.000000 0.030309 0.000000 0.000000
# 5 0.000000 0.000000 0.000000 0.000000 0.054639 0.000000
# 6 0.000000 0.000000 0.000000 0.000000 0.000000 0.040270
#
#
# Mechanical properties :
#
#
# Convention : Reuss Voigt Hill
#
# Bulk Modulus (GPa) = 28.21954 36.34124 32.28039
# Shear Modulus (GPa) = 22.05355 24.56091 23.30723
#
# Velocity S-wave (km/s) = 3.62794 3.82862 3.72963
# Velocity P-wave (km/s) = 5.86440 6.42134 6.14917
#
# Compressibility (1/GPa) = 0.03543643
#
# Stress axis : x y z
#
# Youngs Moduli (GPa) = 31.33357 79.00742 55.58098
#
# Poissons Ratio (x) = 0.19365 0.30662
# Poissons Ratio (y) = 0.07680 0.31102
# Poissons Ratio (z) = 0.17286 0.44212
#
# Static dielectric constant tensor:
#      x y z
#    x 3.096420 0.000000 0.000000 
#    y 0.000000 3.668010 0.000000 
#    z 0.000000 0.000000 3.204490 
# 
# 
# High freq. dielectric constant tensor:
#      x y z
#    x 1.601060 0.000000 0.000000 
#    y 0.000000 1.653920 0.000000 
#    z 0.000000 0.000000 1.651790 
# 
# From -- ./inp_files/8291.got.cif
#   From: 2010.03.12/outbox.cif.g09.slc.cpg/sg57_5_cif.got.tgz:8291.got - 2010.04.16 15:48:40.
