data_PCOD8230569
_publ_section_title
;
Structure prediction by ZEFSAII (Michael W. Deem and Ramdas Pophale) SiO2 
 PCOD8230569
Probable space group: P B C M
;
_chemical_formula_sum "Si O2"
_cell_formula_units_Z 64
_cell_length_a 18.984428
_cell_length_b 9.947469
_cell_length_c 17.301179
_cell_angle_alpha 90.000000
_cell_angle_beta 90.000000
_cell_angle_gamma 90.000000
_cell_volume 3267.275907
_symmetry_space_group_name_H-M "P B C M"
_symmetry_group_IT_number 57
_symmetry_cell_setting 'orthorhombic'
loop_
_space_group_symop_operation_xyz
x,y,z
-x,-y,1/2+z
x,1/2-y,-z
-x,1/2+y,1/2-z
-x,-y,-z
x,y,1/2-z
-x,1/2+y,z
x,1/2-y,1/2+z
loop_
_atom_site_type_symbol
_atom_site_label
_atom_site_fract_x
_atom_site_fract_y
_atom_site_fract_z
Si Si1 0.045109 0.141482 0.842041
Si Si2 0.278401 0.794928 0.841951
Si Si3 0.927899 0.939803 0.842063
Si Si4 0.299835 0.239709 0.090753
Si Si5 0.555810 0.657062 0.841591
Si Si6 0.770839 0.004762 0.841764
Si Si7 0.566349 0.351865 0.841359
Si Si8 0.804988 0.950935 0.158348
O O1 0.043506 0.143876 0.750000
O O2 0.044649 0.295137 0.872983
O O3 0.115272 0.065539 0.871530
O O4 0.978421 0.058114 0.874486
O O5 0.280877 0.802830 0.750000
O O6 0.246283 0.654853 0.869853
O O7 0.356900 0.816598 0.876074
O O8 0.227745 0.911595 0.875123
O O9 0.928983 0.941212 0.750000
O O10 0.848832 0.966640 0.871474
O O11 0.375822 0.288148 0.116549
O O12 0.239509 0.325011 0.131111
O O13 0.287842 0.087127 0.117836
O O14 0.292594 0.250000 0.000000
O O15 0.566607 0.671818 0.750000
O O16 0.543227 0.502175 0.865507
O O17 0.489967 0.743955 0.872707
O O18 0.764239 0.989649 0.750000
O O19 0.569830 0.340044 0.750000
O O20 0.803004 0.951642 0.250000
#
# Coordination Sequence:
#
# PCOD8230569 Si02
#       8
#     8   8   8   8   8   8   8   8
#     4   9  17  27  46  78 114 143 172 218 279 331
#     4   9  18  31  55  86 109 133 180 233 278 326
#     4   9  17  28  45  78 114 141 172 220 279 332
#     4  12  24  38  56  79 109 151 195 231 270 324
#     4  10  20  36  59  83 110 141 180 227 278 332
#     4  10  20  35  57  84 112 142 184 236 282 328
#     4   9  18  32  55  85 109 136 175 224 275 330
#     4  10  18  35  59  81 108 147 185 227 279 333
#
# _framework density 19.588183999999998
#
# number of rings (size 3 to 8) (size 9 to 14) (size 15 to 20)
#    0.000    2.250    2.500    1.125    3.500    0.000 
#    0.000    1.250    0.000    0.750    0.000    0.000 
#    0.000    0.000    0.000    0.000    0.000    0.000 
#
# Total GULP energy -793546.412303 kJ/mol
# GULP energy per Si atom -12399.162692 kJ/mol
# Density = 1.954360 g / cm^3
# Si number density = 19.588184 Si / 1000 Ang^3
#
#
#
# Elastic Constant Matrix: (Units=GPa)
#
#
# Indices 1 2 3 4 5 6 
#
# 1 118.7375 69.3885 26.9721 0.0000 0.0000 0.0000
# 2 69.3885 159.1639 39.1711 0.0000 0.0000 0.0000
# 3 26.9721 39.1711 85.4557 0.0000 0.0000 0.0000
# 4 0.0000 0.0000 0.0000 1.6953 0.0000 0.0000
# 5 0.0000 0.0000 0.0000 0.0000 -1.7092 0.0000
# 6 0.0000 0.0000 0.0000 0.0000 0.0000 48.9807
#
#
#
# Elastic Compliance Matrix: (Units=1/GPa)
#
#
# Indices 1 2 3 4 5 6 
#
# 1 0.011468 -0.004631 -0.001497 0.000000 0.000000 0.000000
# 2 -0.004631 0.008952 -0.002642 0.000000 0.000000 0.000000
# 3 -0.001497 -0.002642 0.013385 0.000000 0.000000 0.000000
# 4 0.000000 0.000000 0.000000 0.589850 0.000000 0.000000
# 5 0.000000 0.000000 0.000000 0.000000 -0.585076 0.000000
# 6 0.000000 0.000000 0.000000 0.000000 0.000000 0.020416
#
#
# Mechanical properties :
#
#
# Convention : Reuss Voigt Hill
#
# Bulk Modulus (GPa) = 61.47757 70.49117 65.98437
# Shear Modulus (GPa) = 61.00679 24.98174 42.99427
#
# Velocity S-wave (km/s) = 5.58680 3.57507 4.69007
# Velocity P-wave (km/s) = 8.54807 7.28740 7.94279
#
# Compressibility (1/GPa) = 0.01626610
#
# Stress axis : x y z
#
# Youngs Moduli (GPa) = 87.19574 111.70656 74.70890
#
# Poissons Ratio (x) = 0.51735 0.11183
# Poissons Ratio (y) = 0.40384 0.19735
# Poissons Ratio (z) = 0.13052 0.29509
#
# Static dielectric constant tensor:
#      x y z
#    x 2.855620 0.000000 0.000000 
#    y 0.000000 3.889670 0.000000 
#    z 0.000000 0.000000 2.876520 
# 
# 
# High freq. dielectric constant tensor:
#      x y z
#    x 1.775310 0.000000 0.000000 
#    y 0.000000 1.781490 0.000000 
#    z 0.000000 0.000000 1.692520 
# 
# From -- ./inp_files/23071.got.cif
#   From: 2010.03.12/outbox.cif.g09.slc.cpg/sg57_12_cif.got.tgz:23071.got - 2010.04.16 15:48:40.
