data_PCOD8230978
_publ_section_title
;
Structure prediction by ZEFSAII (Michael W. Deem and Ramdas Pophale) SiO2 
 PCOD8230978
Probable space group: P B C M
;
_chemical_formula_sum "Si O2"
_cell_formula_units_Z 64
_cell_length_a 20.083163
_cell_length_b 19.483013
_cell_length_c 9.048522
_cell_angle_alpha 90.000000
_cell_angle_beta 90.000000
_cell_angle_gamma 90.000000
_cell_volume 3540.510446
_symmetry_space_group_name_H-M "P B C M"
_symmetry_group_IT_number 57
_symmetry_cell_setting 'orthorhombic'
loop_
_space_group_symop_operation_xyz
x,y,z
-x,-y,1/2+z
x,1/2-y,-z
-x,1/2+y,1/2-z
-x,-y,-z
x,y,1/2-z
-x,1/2+y,z
x,1/2-y,1/2+z
loop_
_atom_site_type_symbol
_atom_site_label
_atom_site_fract_x
_atom_site_fract_y
_atom_site_fract_z
Si Si1 0.853673 0.818653 0.578036
Si Si2 0.379840 0.176342 0.576735
Si Si3 0.771558 0.062389 0.923736
Si Si4 0.524219 0.179264 0.920087
Si Si5 0.728364 0.911711 0.580801
Si Si6 0.331652 0.823152 0.423478
Si Si7 0.910185 0.448288 0.577484
Si Si8 0.962567 0.598789 0.577374
O O1 0.827127 0.750000 0.500000
O O2 0.866297 0.804875 0.750000
O O3 0.799206 0.876952 0.551148
O O4 0.922466 0.840837 0.502319
O O5 0.369292 0.250000 0.500000
O O6 0.369076 0.188176 0.750000
O O7 0.453498 0.142844 0.541702
O O8 0.327341 0.121113 0.521694
O O9 0.788278 0.065805 0.750000
O O10 0.723106 0.122944 0.978039
O O11 0.735212 0.991174 0.962082
O O12 0.838514 0.071354 0.015677
O O13 0.524959 0.197444 0.750000
O O14 0.594860 0.143362 0.961827
O O15 0.522985 0.250000 0.000000
O O16 0.706211 0.902075 0.750000
O O17 0.320195 0.750000 0.500000
O O18 0.324485 0.810855 0.250000
O O19 0.914111 0.431002 0.750000
O O20 0.924357 0.527923 0.546130
O O21 0.964087 0.402358 0.492158
O O22 0.968367 0.614913 0.750000
#
# Coordination Sequence:
#
# PCOD8230978 Si02
#       8
#     8   8   8   8   8   8   8   8
#     4  11  22  36  54  77 109 145 182 223 267 317
#     4  10  19  31  50  74 104 139 180 224 266 312
#     4  10  20  36  56  79 107 142 178 218 266 321
#     4   8  15  29  49  74 100 133 174 217 263 315
#     4  10  21  35  51  74 106 143 182 220 263 317
#     4   9  18  34  57  80 105 135 172 218 270 323
#     4  10  20  34  56  82 107 136 172 218 263 311
#     4  10  20  35  56  80 105 136 176 218 262 312
#
# _framework density 18.076488999999999
#
# number of rings (size 3 to 8) (size 9 to 14) (size 15 to 20)
#    0.000    2.250    1.250    1.875    0.000    4.500 
#    0.000    1.250    0.000    1.500    0.000    0.000 
#    0.000    0.000    0.000    0.000    0.000    0.000 
#
# Total GULP energy -793306.439400 kJ/mol
# GULP energy per Si atom -12395.413116 kJ/mol
# Density = 1.803535 g / cm^3
# Si number density = 18.076489 Si / 1000 Ang^3
#
#
#
# Elastic Constant Matrix: (Units=GPa)
#
#
# Indices 1 2 3 4 5 6 
#
# 1 142.7634 52.5137 63.2845 0.0000 0.0000 0.0000
# 2 52.5137 83.7915 39.0678 0.0000 0.0000 0.0000
# 3 63.2845 39.0678 80.5116 0.0000 0.0000 0.0000
# 4 0.0000 0.0000 0.0000 25.7417 0.0000 0.0000
# 5 0.0000 0.0000 0.0000 0.0000 34.0638 0.0000
# 6 0.0000 0.0000 0.0000 0.0000 0.0000 26.9858
#
#
#
# Elastic Compliance Matrix: (Units=1/GPa)
#
#
# Indices 1 2 3 4 5 6 
#
# 1 0.011670 -0.003925 -0.007269 0.000000 0.000000 0.000000
# 2 -0.003925 0.016744 -0.005040 0.000000 0.000000 0.000000
# 3 -0.007269 -0.005040 0.020580 0.000000 0.000000 0.000000
# 4 0.000000 0.000000 0.000000 0.038847 0.000000 0.000000
# 5 0.000000 0.000000 0.000000 0.000000 0.029357 0.000000
# 6 0.000000 0.000000 0.000000 0.000000 0.000000 0.037057
#
#
# Mechanical properties :
#
#
# Convention : Reuss Voigt Hill
#
# Bulk Modulus (GPa) = 60.50709 68.53315 64.52012
# Shear Modulus (GPa) = 26.01039 27.50495 26.75767
#
# Velocity S-wave (km/s) = 3.79741 3.90498 3.85157
# Velocity P-wave (km/s) = 7.26447 7.63721 7.45317
#
# Compressibility (1/GPa) = 0.01652699
#
# Stress axis : x y z
#
# Youngs Moduli (GPa) = 85.68629 59.72254 48.59200
#
# Poissons Ratio (x) = 0.23441 0.35320
# Poissons Ratio (y) = 0.33632 0.24489
# Poissons Ratio (z) = 0.62283 0.30099
#
# Static dielectric constant tensor:
#      x y z
#    x 3.894720 0.000000 0.000000 
#    y 0.000000 3.094900 0.000000 
#    z 0.000000 0.000000 3.353100 
# 
# 
# High freq. dielectric constant tensor:
#      x y z
#    x 1.715860 0.000000 0.000000 
#    y 0.000000 1.669410 0.000000 
#    z 0.000000 0.000000 1.707150 
# 
# From -- ./inp_files/7143.got.cif
#   From: 2010.03.12/outbox.cif.g09.slc.cpg/sg57_4_cif.got.tgz:7143.got - 2010.04.16 15:48:40.
