data_PCOD8230838
_publ_section_title
;
Structure prediction by ZEFSAII (Michael W. Deem and Ramdas Pophale) SiO2 
 PCOD8230838
Probable space group: P B C M
;
_chemical_formula_sum "Si O2"
_cell_formula_units_Z 60
_cell_length_a 34.949882
_cell_length_b 5.227745
_cell_length_c 15.078159
_cell_angle_alpha 90.000000
_cell_angle_beta 90.000000
_cell_angle_gamma 90.000000
_cell_volume 2754.916421
_symmetry_space_group_name_H-M "P B C M"
_symmetry_group_IT_number 57
_symmetry_cell_setting 'orthorhombic'
loop_
_space_group_symop_operation_xyz
x,y,z
-x,-y,1/2+z
x,1/2-y,-z
-x,1/2+y,1/2-z
-x,-y,-z
x,y,1/2-z
-x,1/2+y,z
x,1/2-y,1/2+z
loop_
_atom_site_type_symbol
_atom_site_label
_atom_site_fract_x
_atom_site_fract_y
_atom_site_fract_z
Si Si1 0.088931 0.765874 0.355318
Si Si2 0.260805 0.753871 0.351444
Si Si3 0.348620 0.749562 0.894826
Si Si4 0.779236 0.745925 0.856323
Si Si5 0.865147 0.761708 0.145738
Si Si6 0.392055 0.249689 0.605571
Si Si7 0.521645 0.749578 0.605699
Si Si8 0.025598 0.750000 0.500000
O O1 0.079841 0.770870 0.250000
O O2 0.114657 0.523860 0.382431
O O3 0.049867 0.748532 0.409520
O O4 0.110820 0.019489 0.388787
O O5 0.248127 0.754533 0.250000
O O6 0.306137 0.753472 0.358245
O O7 0.242783 0.500883 0.395899
O O8 0.242707 0.006931 0.395797
O O9 0.370642 0.500916 0.858194
O O10 0.370131 0.000274 0.858189
O O11 0.347762 0.750000 0.000000
O O12 0.778239 0.744452 0.750000
O O13 0.822433 0.745249 0.893914
O O14 0.861941 0.740548 0.250000
O O15 0.392632 0.250000 0.500000
O O16 0.435190 0.248066 0.642691
O O17 0.521755 0.750000 0.500000
O O18 0.499850 0.500157 0.642216
O O19 0.000000 0.500000 0.500000
#
# Coordination Sequence:
#
# PCOD8230838 Si02
#       8
#     8   8   8   8   8   8   8   4
#     4  10  21  38  62  87 115 151 192 233 279 338
#     4  10  19  31  49  73  99 129 168 211 249 291
#     4  10  19  31  46  61  92 130 159 193 232 293
#     4   9  17  30  52  78 102 131 168 210 259 306
#     4   9  17  33  59  86 109 142 183 225 273 328
#     4   9  17  28  42  62  85 122 159 184 238 301
#     4   9  15  23  37  58  85 110 139 188 240 289
#     4  12  26  42  62  88 122 158 192 238 286 332
#
# _framework density 21.779247000000002
#
# number of rings (size 3 to 8) (size 9 to 14) (size 15 to 20)
#    0.000    2.400    0.000    3.200    0.000    6.933 
#    0.000    0.000    8.800    0.000    0.000    0.000 
#    0.000   10.667    0.000    0.000    0.000    0.000 
#
# Total GULP energy -743990.449939 kJ/mol
# GULP energy per Si atom -12399.840832 kJ/mol
# Density = 2.172968 g / cm^3
# Si number density = 21.779247 Si / 1000 Ang^3
#
#
#
# Elastic Constant Matrix: (Units=GPa)
#
#
# Indices 1 2 3 4 5 6 
#
# 1 182.6625 86.2651 19.0951 0.0000 0.0000 0.0000
# 2 86.2651 200.7512 15.8720 0.0000 0.0000 0.0000
# 3 19.0951 15.8720 36.2994 0.0000 0.0000 0.0000
# 4 0.0000 0.0000 0.0000 1.1146 0.0000 0.0000
# 5 0.0000 0.0000 0.0000 0.0000 22.2350 0.0000
# 6 0.0000 0.0000 0.0000 0.0000 0.0000 54.2537
#
#
#
# Elastic Compliance Matrix: (Units=1/GPa)
#
#
# Indices 1 2 3 4 5 6 
#
# 1 0.007077 -0.002845 -0.002479 0.000000 0.000000 0.000000
# 2 -0.002845 0.006304 -0.001259 0.000000 0.000000 0.000000
# 3 -0.002479 -0.001259 0.029403 0.000000 0.000000 0.000000
# 4 0.000000 0.000000 0.000000 0.897206 0.000000 0.000000
# 5 0.000000 0.000000 0.000000 0.000000 0.044974 0.000000
# 6 0.000000 0.000000 0.000000 0.000000 0.000000 0.018432
#
#
# Mechanical properties :
#
#
# Convention : Reuss Voigt Hill
#
# Bulk Modulus (GPa) = 33.76447 73.57527 53.66987
# Shear Modulus (GPa) = 4.87122 35.41939 20.14531
#
# Velocity S-wave (km/s) = 1.49716 4.03710 3.04464
# Velocity P-wave (km/s) = 4.30411 7.45564 6.08736
#
# Compressibility (1/GPa) = 0.02961694
#
# Stress axis : x y z
#
# Youngs Moduli (GPa) = 141.29410 158.64182 34.00971
#
# Poissons Ratio (x) = 0.45138 0.08431
# Poissons Ratio (y) = 0.40202 0.04283
# Poissons Ratio (z) = 0.35026 0.19981
#
# Static dielectric constant tensor:
#      x y z
#    x 3.990250 0.000000 0.000000 
#    y 0.000000 4.400860 0.000000 
#    z 0.000000 0.000000 3.851790 
# 
# 
# High freq. dielectric constant tensor:
#      x y z
#    x 1.862850 0.000000 0.000000 
#    y 0.000000 1.877260 0.000000 
#    z 0.000000 0.000000 1.819120 
# 
# From -- ./inp_files/23168.got.cif
#   From: 2010.03.12/outbox.cif.g09.slc.cpg/sg57_12_cif.got.tgz:23168.got - 2010.04.16 15:48:40.
