data_PCOD8230222
_publ_section_title
;
Structure prediction by ZEFSAII (Michael W. Deem and Ramdas Pophale) SiO2 
 PCOD8230222
Probable space group: P B C M
;
_chemical_formula_sum "Si O2"
_cell_formula_units_Z 64
_cell_length_a 8.331030
_cell_length_b 20.301995
_cell_length_c 21.284985
_cell_angle_alpha 90.000000
_cell_angle_beta 90.000000
_cell_angle_gamma 90.000000
_cell_volume 3600.068491
_symmetry_space_group_name_H-M "P B C M"
_symmetry_group_IT_number 57
_symmetry_cell_setting 'orthorhombic'
loop_
_space_group_symop_operation_xyz
x,y,z
-x,-y,1/2+z
x,1/2-y,-z
-x,1/2+y,1/2-z
-x,-y,-z
x,y,1/2-z
-x,1/2+y,z
x,1/2-y,1/2+z
loop_
_atom_site_type_symbol
_atom_site_label
_atom_site_fract_x
_atom_site_fract_y
_atom_site_fract_z
Si Si1 0.278224 0.094586 0.627301
Si Si2 0.525930 0.023629 0.318630
Si Si3 0.066004 0.992736 0.567911
Si Si4 0.580467 0.129161 0.945666
Si Si5 0.782586 0.458641 0.139689
Si Si6 0.017687 0.835302 0.321054
Si Si7 0.674273 0.384422 0.582066
Si Si8 0.815445 0.245115 0.571908
O O1 0.168881 0.058535 0.576434
O O2 0.409081 0.135376 0.588081
O O3 0.167317 0.142647 0.668951
O O4 0.361668 0.039623 0.670411
O O5 0.565212 0.051379 0.250000
O O6 0.560205 0.084349 0.365105
O O7 0.340395 0.000851 0.318821
O O8 0.921426 0.991325 0.618113
O O9 0.165993 0.926836 0.574177
O O10 0.000000 0.000000 0.500000
O O11 0.683761 0.067869 0.920256
O O12 0.664532 0.197598 0.932010
O O13 0.564010 0.117090 0.019951
O O14 0.860434 0.397222 0.176715
O O15 0.031368 0.805545 0.250000
O O16 0.058695 0.782350 0.376134
O O17 0.743599 0.312878 0.598671
O O18 0.889556 0.250000 0.500000
#
# Coordination Sequence:
#
# PCOD8230222 Si02
#       8
#     8   8   8   8   8   8   8   8
#     4   9  20  31  53  81 105 133 174 224 269 310
#     4  10  20  33  50  76 110 143 174 215 265 323
#     4  10  18  29  51  82 107 129 163 215 272 328
#     4   9  17  34  53  75 103 133 176 223 264 309
#     4   9  18  31  52  80 105 132 170 216 270 313
#     4  10  19  35  57  80 106 142 182 222 263 320
#     4  10  20  33  53  75 106 141 176 218 266 327
#     4   9  20  37  54  75 105 142 184 224 269 313
#
# _framework density 17.777438
#
# number of rings (size 3 to 8) (size 9 to 14) (size 15 to 20)
#    0.000    2.500    1.250    0.750    3.500    2.000 
#    0.000    4.375    0.000    1.500    0.000    0.000 
#    0.000    0.000    0.000    0.000    0.000    0.000 
#
# Total GULP energy -793261.891479 kJ/mol
# GULP energy per Si atom -12394.717054 kJ/mol
# Density = 1.773698 g / cm^3
# Si number density = 17.777438 Si / 1000 Ang^3
#
#
#
# Elastic Constant Matrix: (Units=GPa)
#
#
# Indices 1 2 3 4 5 6 
#
# 1 93.0116 25.7030 44.6804 0.0000 0.0000 0.0000
# 2 25.7030 75.0598 41.2119 0.0000 0.0000 0.0000
# 3 44.6804 41.2119 127.9503 0.0000 0.0000 0.0000
# 4 0.0000 0.0000 0.0000 19.7385 0.0000 0.0000
# 5 0.0000 0.0000 0.0000 0.0000 15.3019 0.0000
# 6 0.0000 0.0000 0.0000 0.0000 0.0000 19.0013
#
#
#
# Elastic Compliance Matrix: (Units=1/GPa)
#
#
# Indices 1 2 3 4 5 6 
#
# 1 0.013273 -0.002430 -0.003852 0.000000 0.000000 0.000000
# 2 -0.002430 0.016630 -0.004508 0.000000 0.000000 0.000000
# 3 -0.003852 -0.004508 0.010613 0.000000 0.000000 0.000000
# 4 0.000000 0.000000 0.000000 0.050662 0.000000 0.000000
# 5 0.000000 0.000000 0.000000 0.000000 0.065351 0.000000
# 6 0.000000 0.000000 0.000000 0.000000 0.000000 0.052628
#
#
# Mechanical properties :
#
#
# Convention : Reuss Voigt Hill
#
# Bulk Modulus (GPa) = 52.81082 57.69027 55.25054
# Shear Modulus (GPa) = 21.09260 23.10345 22.09803
#
# Velocity S-wave (km/s) = 3.44827 3.60890 3.52950
# Velocity P-wave (km/s) = 6.75465 7.06310 6.91059
#
# Compressibility (1/GPa) = 0.01893551
#
# Stress axis : x y z
#
# Youngs Moduli (GPa) = 75.33820 60.13276 94.22664
#
# Poissons Ratio (x) = 0.14613 0.36300
# Poissons Ratio (y) = 0.18308 0.42475
# Poissons Ratio (z) = 0.29023 0.27106
#
# Static dielectric constant tensor:
#      x y z
#    x 2.385200 0.000000 0.000000 
#    y 0.000000 3.138480 0.000000 
#    z 0.000000 0.000000 3.522050 
# 
# 
# High freq. dielectric constant tensor:
#      x y z
#    x 1.687460 0.000000 0.000000 
#    y 0.000000 1.666250 0.000000 
#    z 0.000000 0.000000 1.688710 
# 
# From -- ./inp_files/24682.got.cif
#   From: 2010.03.12/outbox.cif.g09.slc.cpg/sg57_13_cif.got.tgz:24682.got - 2010.04.16 15:48:40.
