data_PCOD8230908
_publ_section_title
;
Structure prediction by ZEFSAII (Michael W. Deem and Ramdas Pophale) SiO2 
 PCOD8230908
Probable space group: P B C M
;
_chemical_formula_sum "Si O2"
_cell_formula_units_Z 64
_cell_length_a 30.530025
_cell_length_b 13.739545
_cell_length_c 8.914107
_cell_angle_alpha 90.000000
_cell_angle_beta 90.000000
_cell_angle_gamma 90.000000
_cell_volume 3739.188450
_symmetry_space_group_name_H-M "P B C M"
_symmetry_group_IT_number 57
_symmetry_cell_setting 'orthorhombic'
loop_
_space_group_symop_operation_xyz
x,y,z
-x,-y,1/2+z
x,1/2-y,-z
-x,1/2+y,1/2-z
-x,-y,-z
x,y,1/2-z
-x,1/2+y,z
x,1/2-y,1/2+z
loop_
_atom_site_type_symbol
_atom_site_label
_atom_site_fract_x
_atom_site_fract_y
_atom_site_fract_z
Si Si1 0.238711 0.650982 0.076466
Si Si2 0.392080 0.849681 0.426934
Si Si3 0.452878 0.004597 0.926232
Si Si4 0.018953 0.354339 0.425408
Si Si5 0.139532 0.648401 0.072308
Si Si6 0.067200 0.524918 0.574711
Si Si7 0.376655 0.353062 0.077040
Si Si8 0.320806 0.534411 0.074787
O O1 0.239366 0.676113 0.250000
O O2 0.189545 0.625036 0.024956
O O3 0.269376 0.556044 0.043499
O O4 0.255887 0.750000 0.000000
O O5 0.406363 0.750000 0.500000
O O6 0.392828 0.841364 0.250000
O O7 0.344297 0.880581 0.482781
O O8 0.427385 0.924325 0.484034
O O9 0.455930 0.980972 0.750000
O O10 0.425783 0.105162 0.952076
O O11 0.500000 0.000000 0.000000
O O12 0.021598 0.250000 0.500000
O O13 0.029089 0.346671 0.250000
O O14 0.055446 0.421708 0.501914
O O15 0.971028 0.397567 0.456427
O O16 0.132787 0.654439 0.250000
O O17 0.124243 0.750000 0.000000
O O18 0.111020 0.561703 0.004831
O O19 0.075716 0.510051 0.750000
O O20 0.368970 0.333479 0.250000
O O21 0.338684 0.428766 0.019874
O O22 0.370427 0.250000 0.000000
O O23 0.332865 0.545837 0.250000
#
# Coordination Sequence:
#
# PCOD8230908 Si02
#       8
#     8   8   8   8   8   8   8   8
#     4   9  18  31  49  73 102 133 163 198 246 300
#     4  11  21  33  50  73  99 129 161 196 239 288
#     4  10  21  37  53  73 100 130 163 201 242 288
#     4  10  20  33  50  72  98 129 167 210 255 302
#     4  10  19  31  48  72 101 134 168 203 247 300
#     4  10  20  33  50  72  99 132 168 208 252 299
#     4   9  19  34  53  74  98 127 161 201 244 286
#     4   9  18  34  52  73 100 128 161 204 247 290
#
# _framework density 17.116014
#
# number of rings (size 3 to 8) (size 9 to 14) (size 15 to 20)
#    0.000    2.250    0.000    4.125    0.000    7.500 
#    0.000    1.250    0.000    0.750    0.000    1.750 
#    0.000    0.000    0.000    0.000    0.000    0.000 
#
# Total GULP energy -793391.423281 kJ/mol
# GULP energy per Si atom -12396.740989 kJ/mol
# Density = 1.707706 g / cm^3
# Si number density = 17.116014 Si / 1000 Ang^3
#
#
#
# Elastic Constant Matrix: (Units=GPa)
#
#
# Indices 1 2 3 4 5 6 
#
# 1 93.6820 44.0753 39.1635 0.0000 0.0000 0.0000
# 2 44.0753 98.5332 44.1127 0.0000 0.0000 0.0000
# 3 39.1635 44.1127 90.7531 0.0000 0.0000 0.0000
# 4 0.0000 0.0000 0.0000 34.0803 0.0000 0.0000
# 5 0.0000 0.0000 0.0000 0.0000-1985.4377 0.0000
# 6 0.0000 0.0000 0.0000 0.0000 0.0000 21.2443
#
#
#
# Elastic Compliance Matrix: (Units=1/GPa)
#
#
# Indices 1 2 3 4 5 6 
#
# 1 0.014567 -0.004731 -0.003986 0.000000 0.000000 0.000000
# 2 -0.004731 0.014508 -0.005010 0.000000 0.000000 0.000000
# 3 -0.003986 -0.005010 0.015175 0.000000 0.000000 0.000000
# 4 0.000000 0.000000 0.000000 0.029342 0.000000 0.000000
# 5 0.000000 0.000000 0.000000 0.000000 -0.000504 0.000000
# 6 0.000000 0.000000 0.000000 0.000000 0.000000 0.047072
#
#
# Mechanical properties :
#
#
# Convention : Reuss Voigt Hill
#
# Bulk Modulus (GPa) = 59.54627 59.74124 59.64375
# Shear Modulus (GPa) = 32.63401 -375.64819 -171.50709
#
# Velocity S-wave (km/s) = 4.37124 -14.83065 -10.02099
# Velocity P-wave (km/s) = 7.76803 16.07124 9.94843
#
# Compressibility (1/GPa) = 0.01679366
#
# Stress axis : x y z
#
# Youngs Moduli (GPa) = 68.64885 68.92573 65.89941
#
# Poissons Ratio (x) = 0.32611 0.26270
# Poissons Ratio (y) = 0.32480 0.33018
# Poissons Ratio (z) = 0.27366 0.34535
#
# Static dielectric constant tensor:
#      x y z
#    x 3.447760 0.000000 0.000000 
#    y 0.000000 -40.683460 0.000000 
#    z 0.000000 0.000000 3.693580 
# 
# 
# High freq. dielectric constant tensor:
#      x y z
#    x 1.655660 0.000000 0.000000 
#    y 0.000000 1.650670 0.000000 
#    z 0.000000 0.000000 1.672310 
# 
# From -- ./inp_files/10264.got.cif
#   From: 2010.03.12/outbox.cif.g09.slc.cpg/sg57_6_cif.got.tgz:10264.got - 2010.04.16 15:48:40.
