data_PCOD8230364
_publ_section_title
;
Structure prediction by ZEFSAII (Michael W. Deem and Ramdas Pophale) SiO2 
 PCOD8230364
Probable space group: P B C M
;
_chemical_formula_sum "Si O2"
_cell_formula_units_Z 48
_cell_length_a 30.974484
_cell_length_b 9.574878
_cell_length_c 8.616708
_cell_angle_alpha 90.000000
_cell_angle_beta 90.000000
_cell_angle_gamma 90.000000
_cell_volume 2555.516593
_symmetry_space_group_name_H-M "P B C M"
_symmetry_group_IT_number 57
_symmetry_cell_setting 'orthorhombic'
loop_
_space_group_symop_operation_xyz
x,y,z
-x,-y,1/2+z
x,1/2-y,-z
-x,1/2+y,1/2-z
-x,-y,-z
x,y,1/2-z
-x,1/2+y,z
x,1/2-y,1/2+z
loop_
_atom_site_type_symbol
_atom_site_label
_atom_site_fract_x
_atom_site_fract_y
_atom_site_fract_z
Si Si1 0.713564 0.095805 0.434036
Si Si2 0.374225 0.594956 0.934583
Si Si3 0.131858 0.899313 0.566734
Si Si4 0.034896 0.897952 0.567242
Si Si5 0.462328 0.905474 0.934465
Si Si6 0.207063 0.403774 0.433036
O O1 0.722612 0.250000 0.500000
O O2 0.708894 0.106845 0.250000
O O3 0.670157 0.024767 0.505914
O O4 0.752048 0.994705 0.486656
O O5 0.377152 0.592247 0.750000
O O6 0.372258 0.750000 0.000000
O O7 0.417205 0.525158 0.007110
O O8 0.145973 0.750000 0.500000
O O9 0.135233 0.886291 0.750000
O O10 0.083343 0.940046 0.513811
O O11 0.164005 0.018952 0.503936
O O12 0.022181 0.750000 0.500000
O O13 0.031450 0.894579 0.750000
O O14 0.000000 0.000000 0.500000
O O15 0.463623 0.901421 0.750000
O O16 0.467697 0.750000 0.000000
O O17 0.500000 0.000000 0.000000
O O18 0.210143 0.250000 0.500000
O O19 0.205528 0.391496 0.250000
#
# Coordination Sequence:
#
# PCOD8230364 Si02
#       6
#     8   8   8   8   8   8
#     4  10  19  33  54  79 103 132 171 215 259 310
#     4  10  18  31  52  78 105 137 176 218 262 311
#     4   9  19  36  56  79 104 136 177 220 260 310
#     4  10  20  35  55  79 109 141 178 220 267 317
#     4  11  21  36  56  81 111 144 181 223 269 318
#     4  10  22  37  53  76 107 138 172 212 261 314
#
# _framework density 18.782895
#
# number of rings (size 3 to 8) (size 9 to 14) (size 15 to 20)
#    0.000    2.000    0.000    6.500    0.000    3.333 
#    0.000    2.500    0.000    2.000    0.000    0.000 
#    0.000    0.000    0.000    0.000    0.000    0.000 
#
# Total GULP energy -595091.517693 kJ/mol
# GULP energy per Si atom -12397.739952 kJ/mol
# Density = 1.874014 g / cm^3
# Si number density = 18.782895 Si / 1000 Ang^3
#
#
#
# Elastic Constant Matrix: (Units=GPa)
#
#
# Indices 1 2 3 4 5 6 
#
# 1 185.9594 100.3352 57.8135 0.0000 0.0000 0.0000
# 2 100.3352 115.5728 43.3498 0.0000 0.0000 0.0000
# 3 57.8135 43.3498 102.6506 0.0000 0.0000 0.0000
# 4 0.0000 0.0000 0.0000 31.7542 0.0000 0.0000
# 5 0.0000 0.0000 0.0000 0.0000 30.1019 0.0000
# 6 0.0000 0.0000 0.0000 0.0000 0.0000 36.1581
#
#
#
# Elastic Compliance Matrix: (Units=1/GPa)
#
#
# Indices 1 2 3 4 5 6 
#
# 1 0.010623 -0.008291 -0.002481 0.000000 0.000000 0.000000
# 2 -0.008291 0.016753 -0.002405 0.000000 0.000000 0.000000
# 3 -0.002481 -0.002405 0.012155 0.000000 0.000000 0.000000
# 4 0.000000 0.000000 0.000000 0.031492 0.000000 0.000000
# 5 0.000000 0.000000 0.000000 0.000000 0.033221 0.000000
# 6 0.000000 0.000000 0.000000 0.000000 0.000000 0.027656
#
#
# Mechanical properties :
#
#
# Convention : Reuss Voigt Hill
#
# Bulk Modulus (GPa) = 75.90118 89.68668 82.79393
# Shear Modulus (GPa) = 30.74163 33.11513 31.92838
#
# Velocity S-wave (km/s) = 4.04998 4.20342 4.12741
# Velocity P-wave (km/s) = 7.89729 8.45051 8.17858
#
# Compressibility (1/GPa) = 0.01317503
#
# Stress axis : x y z
#
# Youngs Moduli (GPa) = 94.13942 59.69137 82.27146
#
# Poissons Ratio (x) = 0.49492 0.20413
# Poissons Ratio (y) = 0.78054 0.19787
# Poissons Ratio (z) = 0.23358 0.14356
#
# Static dielectric constant tensor:
#      x y z
#    x 5.213520 0.000000 0.000000 
#    y 0.000000 5.516750 0.000000 
#    z 0.000000 0.000000 3.493120 
# 
# 
# High freq. dielectric constant tensor:
#      x y z
#    x 1.754620 0.000000 0.000000 
#    y 0.000000 1.700870 0.000000 
#    z 0.000000 0.000000 1.739500 
# 
# From -- ./inp_files/10043.got.cif
#   From: 2010.03.12/outbox.cif.g09.slc.cpg/sg57_6_cif.got.tgz:10043.got - 2010.04.16 15:48:40.
