data_PCOD8230676
_publ_section_title
;
Structure prediction by ZEFSAII (Michael W. Deem and Ramdas Pophale) SiO2 
 PCOD8230676
Probable space group: P B C M
;
_chemical_formula_sum "Si O2"
_cell_formula_units_Z 64
_cell_length_a 16.679850
_cell_length_b 23.874351
_cell_length_c 8.768028
_cell_angle_alpha 90.000000
_cell_angle_beta 90.000000
_cell_angle_gamma 90.000000
_cell_volume 3491.609314
_symmetry_space_group_name_H-M "P B C M"
_symmetry_group_IT_number 57
_symmetry_cell_setting 'orthorhombic'
loop_
_space_group_symop_operation_xyz
x,y,z
-x,-y,1/2+z
x,1/2-y,-z
-x,1/2+y,1/2-z
-x,-y,-z
x,y,1/2-z
-x,1/2+y,z
x,1/2-y,1/2+z
loop_
_atom_site_type_symbol
_atom_site_label
_atom_site_fract_x
_atom_site_fract_y
_atom_site_fract_z
Si Si1 0.823879 0.479324 0.069266
Si Si2 0.036008 0.588680 0.429447
Si Si3 0.417945 0.810515 0.927584
Si Si4 0.247931 0.189226 0.571801
Si Si5 0.119404 0.809746 0.426846
Si Si6 0.864984 0.587891 0.928301
Si Si7 0.405310 0.189283 0.428880
Si Si8 0.279179 0.624939 0.924109
O O1 0.824509 0.487693 0.250000
O O2 0.754629 0.435188 0.021226
O O3 0.910612 0.456400 0.018920
O O4 0.806107 0.537566 0.982453
O O5 0.048774 0.580745 0.250000
O O6 0.059985 0.650680 0.480617
O O7 0.944001 0.580054 0.471695
O O8 0.409865 0.800049 0.750000
O O9 0.506587 0.835267 0.968506
O O10 0.400681 0.750000 0.000000
O O11 0.355593 0.857806 0.977359
O O12 0.229221 0.250000 0.500000
O O13 0.259688 0.197603 0.750000
O O14 0.174895 0.147623 0.534673
O O15 0.328745 0.158883 0.505389
O O16 0.108591 0.750000 0.500000
O O17 0.094030 0.809915 0.250000
O O18 0.210965 0.828553 0.446317
O O19 0.884461 0.582257 0.750000
O O20 0.402465 0.250000 0.500000
O O21 0.390927 0.191592 0.250000
O O22 0.307108 0.621788 0.750000
#
# Coordination Sequence:
#
# PCOD8230676 Si02
#       8
#     8   8   8   8   8   8   8   8
#     4  10  21  38  57  77 102 134 173 215 259 304
#     4  11  22  36  55  77 102 136 174 215 261 304
#     4  10  19  29  47  76 107 139 173 209 250 298
#     4  10  21  36  56  80 106 135 166 205 254 306
#     4  10  20  34  50  72 104 140 176 213 258 309
#     4  11  23  38  56  79 104 131 168 213 258 307
#     4   9  17  30  49  74 104 136 169 206 249 298
#     4   9  19  33  50  73 102 135 171 212 253 297
#
# _framework density 18.329657000000001
#
# number of rings (size 3 to 8) (size 9 to 14) (size 15 to 20)
#    0.000    2.000    0.000    5.625    0.000    8.000 
#    0.000    1.250    0.000    0.750    0.000    0.000 
#    0.000    0.000    0.000    0.000    0.000    0.000 
#
# Total GULP energy -793440.932014 kJ/mol
# GULP energy per Si atom -12397.514563 kJ/mol
# Density = 1.828794 g / cm^3
# Si number density = 18.329657 Si / 1000 Ang^3
#
#
#
# Elastic Constant Matrix: (Units=GPa)
#
#
# Indices 1 2 3 4 5 6 
#
# 1 74.5379 29.2164 30.2254 0.0000 0.0000 0.0000
# 2 29.2164 94.2847 29.3590 0.0000 0.0000 0.0000
# 3 30.2254 29.3590 75.6347 0.0000 0.0000 0.0000
# 4 0.0000 0.0000 0.0000 29.4504 0.0000 0.0000
# 5 0.0000 0.0000 0.0000 0.0000 30.9304 0.0000
# 6 0.0000 0.0000 0.0000 0.0000 0.0000 15.5562
#
#
#
# Elastic Compliance Matrix: (Units=1/GPa)
#
#
# Indices 1 2 3 4 5 6 
#
# 1 0.017015 -0.003589 -0.005406 0.000000 0.000000 0.000000
# 2 -0.003589 0.012821 -0.003543 0.000000 0.000000 0.000000
# 3 -0.005406 -0.003543 0.016757 0.000000 0.000000 0.000000
# 4 0.000000 0.000000 0.000000 0.033955 0.000000 0.000000
# 5 0.000000 0.000000 0.000000 0.000000 0.032331 0.000000
# 6 0.000000 0.000000 0.000000 0.000000 0.000000 0.064283
#
#
# Mechanical properties :
#
#
# Convention : Reuss Voigt Hill
#
# Bulk Modulus (GPa) = 46.47397 46.89542 46.68470
# Shear Modulus (GPa) = 23.87641 25.56449 24.72045
#
# Velocity S-wave (km/s) = 3.61309 3.73863 3.67639
# Velocity P-wave (km/s) = 6.54335 6.65406 6.59893
#
# Compressibility (1/GPa) = 0.02151742
#
# Stress axis : x y z
#
# Youngs Moduli (GPa) = 58.77123 77.99429 59.67604
#
# Poissons Ratio (x) = 0.27992 0.32264
# Poissons Ratio (y) = 0.21093 0.21141
# Poissons Ratio (z) = 0.31775 0.27630
#
# Static dielectric constant tensor:
#      x y z
#    x 3.844230 0.000000 0.000000 
#    y 0.000000 3.316770 0.000000 
#    z 0.000000 0.000000 3.484600 
# 
# 
# High freq. dielectric constant tensor:
#      x y z
#    x 1.706170 0.000000 0.000000 
#    y 0.000000 1.693040 0.000000 
#    z 0.000000 0.000000 1.725710 
# 
# From -- ./inp_files/5641.got.cif
#   From: 2010.03.12/outbox.cif.g09.slc.cpg/sg57_3_cif.got.tgz:5641.got - 2010.04.16 15:48:40.
