data_PCOD8230236
_publ_section_title
;
Structure prediction by ZEFSAII (Michael W. Deem and Ramdas Pophale) SiO2 
 PCOD8230236
Probable space group: P B C M
;
_chemical_formula_sum "Si O2"
_cell_formula_units_Z 64
_cell_length_a 19.164163
_cell_length_b 21.418601
_cell_length_c 9.141004
_cell_angle_alpha 90.000000
_cell_angle_beta 90.000000
_cell_angle_gamma 90.000000
_cell_volume 3752.103897
_symmetry_space_group_name_H-M "P B C M"
_symmetry_group_IT_number 57
_symmetry_cell_setting 'orthorhombic'
loop_
_space_group_symop_operation_xyz
x,y,z
-x,-y,1/2+z
x,1/2-y,-z
-x,1/2+y,1/2-z
-x,-y,-z
x,y,1/2-z
-x,1/2+y,z
x,1/2-y,1/2+z
loop_
_atom_site_type_symbol
_atom_site_label
_atom_site_fract_x
_atom_site_fract_y
_atom_site_fract_z
Si Si1 0.028593 0.313992 0.419753
Si Si2 0.532774 0.443863 0.915794
Si Si3 0.837343 0.885376 0.086465
Si Si4 0.394977 0.111136 0.421007
Si Si5 0.702858 0.692160 0.585040
Si Si6 0.814612 0.493180 0.418922
Si Si7 0.038775 0.556916 0.919975
Si Si8 0.327078 0.991989 0.922428
O O1 0.006577 0.250000 0.500000
O O2 0.013489 0.302386 0.250000
O O3 0.110071 0.328917 0.451618
O O4 0.985874 0.374868 0.477032
O O5 0.527636 0.465422 0.750000
O O6 0.479820 0.386029 0.943580
O O7 0.615601 0.435998 0.952493
O O8 0.500000 0.500000 0.000000
O O9 0.855118 0.910287 0.250000
O O10 0.757940 0.863516 0.081011
O O11 0.845079 0.940477 0.970733
O O12 0.375035 0.109061 0.250000
O O13 0.366785 0.173409 0.497076
O O14 0.357566 0.053323 0.500856
O O15 0.736894 0.750000 0.500000
O O16 0.683177 0.710664 0.750000
O O17 0.793072 0.498122 0.250000
O O18 0.877579 0.444572 0.444018
O O19 0.746892 0.471550 0.510217
O O20 0.019589 0.549564 0.750000
O O21 0.000000 0.500000 0.000000
O O22 0.316449 0.004933 0.750000
#
# Coordination Sequence:
#
# PCOD8230236 Si02
#       8
#     8   8   8   8   8   8   8   8
#     4  10  21  37  55  76 102 134 173 215 259 307
#     4   8  16  28  44  66  92 122 155 191 235 285
#     4  10  20  34  51  70  99 135 170 209 251 298
#     4  10  18  30  47  68  94 125 162 206 248 289
#     4  11  22  33  46  67  96 134 174 210 249 297
#     4  11  21  31  49  76 103 135 171 208 255 305
#     4  10  21  36  54  77 105 136 171 214 261 313
#     4  10  18  30  47  69  98 130 161 196 243 298
#
# _framework density 17.057096000000001
#
# number of rings (size 3 to 8) (size 9 to 14) (size 15 to 20)
#    0.000    2.000    2.500    1.875    0.000    3.000 
#    0.000    0.000    0.000    0.000    0.000    0.875 
#    0.000    4.000    0.000    0.000    0.000    0.000 
#
# Total GULP energy -792965.897315 kJ/mol
# GULP energy per Si atom -12390.092146 kJ/mol
# Density = 1.701827 g / cm^3
# Si number density = 17.057096 Si / 1000 Ang^3
#
#
#
# Elastic Constant Matrix: (Units=GPa)
#
#
# Indices 1 2 3 4 5 6 
#
# 1 106.9507 42.2486 49.1493 0.0000 0.0000 0.0000
# 2 42.2486 75.9519 38.4269 0.0000 0.0000 0.0000
# 3 49.1493 38.4269 95.7519 0.0000 0.0000 0.0000
# 4 0.0000 0.0000 0.0000 24.3515 0.0000 0.0000
# 5 0.0000 0.0000 0.0000 0.0000 23.8046 0.0000
# 6 0.0000 0.0000 0.0000 0.0000 0.0000 22.5307
#
#
#
# Elastic Compliance Matrix: (Units=1/GPa)
#
#
# Indices 1 2 3 4 5 6 
#
# 1 0.013635 -0.005074 -0.004963 0.000000 0.000000 0.000000
# 2 -0.005074 0.018409 -0.004783 0.000000 0.000000 0.000000
# 3 -0.004963 -0.004783 0.014911 0.000000 0.000000 0.000000
# 4 0.000000 0.000000 0.000000 0.041065 0.000000 0.000000
# 5 0.000000 0.000000 0.000000 0.000000 0.042009 0.000000
# 6 0.000000 0.000000 0.000000 0.000000 0.000000 0.044384
#
#
# Mechanical properties :
#
#
# Convention : Reuss Voigt Hill
#
# Bulk Modulus (GPa) = 57.75424 59.81156 58.78290
# Shear Modulus (GPa) = 23.82962 24.05935 23.94449
#
# Velocity S-wave (km/s) = 3.74177 3.75976 3.75078
# Velocity P-wave (km/s) = 7.25263 7.34775 7.30034
#
# Compressibility (1/GPa) = 0.01731475
#
# Stress axis : x y z
#
# Youngs Moduli (GPa) = 73.34097 54.32244 67.06638
#
# Poissons Ratio (x) = 0.27562 0.33282
# Poissons Ratio (y) = 0.37211 0.32080
# Poissons Ratio (z) = 0.36396 0.25984
#
# Static dielectric constant tensor:
#      x y z
#    x 3.668800 0.000000 0.000000 
#    y 0.000000 2.975000 0.000000 
#    z 0.000000 0.000000 3.278700 
# 
# 
# High freq. dielectric constant tensor:
#      x y z
#    x 1.665770 0.000000 0.000000 
#    y 0.000000 1.613150 0.000000 
#    z 0.000000 0.000000 1.669760 
# 
# From -- ./inp_files/8769.got.cif
#   From: 2010.03.12/outbox.cif.g09.slc.cpg/sg57_5_cif.got.tgz:8769.got - 2010.04.16 15:48:40.
