data_PCOD8230926
_publ_section_title
;
Structure prediction by ZEFSAII (Michael W. Deem and Ramdas Pophale) SiO2 
 PCOD8230926
Probable space group: P B C M
;
_chemical_formula_sum "Si O2"
_cell_formula_units_Z 64
_cell_length_a 22.854101
_cell_length_b 15.870311
_cell_length_c 9.148622
_cell_angle_alpha 90.000000
_cell_angle_beta 90.000000
_cell_angle_gamma 90.000000
_cell_volume 3318.220665
_symmetry_space_group_name_H-M "P B C M"
_symmetry_group_IT_number 57
_symmetry_cell_setting 'orthorhombic'
loop_
_space_group_symop_operation_xyz
x,y,z
-x,-y,1/2+z
x,1/2-y,-z
-x,1/2+y,1/2-z
-x,-y,-z
x,y,1/2-z
-x,1/2+y,z
x,1/2-y,1/2+z
loop_
_atom_site_type_symbol
_atom_site_label
_atom_site_fract_x
_atom_site_fract_y
_atom_site_fract_z
Si Si1 0.058389 0.665884 0.919543
Si Si2 0.318253 0.168780 0.079697
Si Si3 0.637662 0.417819 0.583144
Si Si4 0.579426 0.595517 0.913903
Si Si5 0.921752 0.664395 0.578402
Si Si6 0.738891 0.495154 0.417961
Si Si7 0.874134 0.500491 0.079635
Si Si8 0.540099 0.330302 0.081104
O O1 0.071913 0.679275 0.750000
O O2 0.090340 0.581326 0.976974
O O3 0.990259 0.652861 0.951814
O O4 0.081837 0.750000 0.000000
O O5 0.319353 0.186474 0.250000
O O6 0.276761 0.090690 0.037449
O O7 0.291031 0.250000 0.000000
O O8 0.384579 0.153388 0.025992
O O9 0.644608 0.388724 0.750000
O O10 0.598670 0.500326 0.565869
O O11 0.702178 0.430229 0.516329
O O12 0.602544 0.348831 0.492159
O O13 0.593717 0.627742 0.750000
O O14 0.509728 0.598698 0.942454
O O15 0.899237 0.750000 0.500000
O O16 0.907545 0.670972 0.750000
O O17 0.890107 0.583008 0.512245
O O18 0.721570 0.479442 0.250000
O O19 0.806635 0.478836 0.447046
O O20 0.887418 0.518798 0.250000
O O21 0.551942 0.311932 0.250000
O O22 0.513171 0.250000 0.000000
#
# Coordination Sequence:
#
# PCOD8230926 Si02
#       8
#     8   8   8   8   8   8   8   8
#     4   9  19  35  56  82 112 145 181 225 275 326
#     4  10  19  31  49  72 100 135 171 210 258 310
#     4  10  20  36  56  76 100 132 170 210 255 307
#     4   9  19  34  53  77 102 129 163 205 253 310
#     4  10  20  34  54  83 117 150 182 219 268 326
#     4   9  20  37  54  73 101 139 179 218 261 309
#     4  10  20  36  57  81 110 145 186 231 276 320
#     4  11  22  35  52  76 104 131 163 206 257 310
#
# _framework density 19.287445999999999
#
# number of rings (size 3 to 8) (size 9 to 14) (size 15 to 20)
#    0.000    2.250    0.000    2.625    0.000    5.000 
#    0.000    1.875    0.000    1.500    0.000    0.000 
#    0.000    0.000    0.000    0.000    0.000    0.000 
#
# Total GULP energy -793635.136427 kJ/mol
# GULP energy per Si atom -12400.549007 kJ/mol
# Density = 1.924355 g / cm^3
# Si number density = 19.287446 Si / 1000 Ang^3
#
#
#
# Elastic Constant Matrix: (Units=GPa)
#
#
# Indices 1 2 3 4 5 6 
#
# 1 71.7585 27.1162 36.0866 0.0000 0.0000 0.0000
# 2 27.1162 75.3577 37.0905 0.0000 0.0000 0.0000
# 3 36.0866 37.0905 91.9834 0.0000 0.0000 0.0000
# 4 0.0000 0.0000 0.0000 36.0195 0.0000 0.0000
# 5 0.0000 0.0000 0.0000 0.0000 26.9000 0.0000
# 6 0.0000 0.0000 0.0000 0.0000 0.0000 17.5203
#
#
#
# Elastic Compliance Matrix: (Units=1/GPa)
#
#
# Indices 1 2 3 4 5 6 
#
# 1 0.018186 -0.003783 -0.005609 0.000000 0.000000 0.000000
# 2 -0.003783 0.017343 -0.005509 0.000000 0.000000 0.000000
# 3 -0.005609 -0.005509 0.015293 0.000000 0.000000 0.000000
# 4 0.000000 0.000000 0.000000 0.027763 0.000000 0.000000
# 5 0.000000 0.000000 0.000000 0.000000 0.037175 0.000000
# 6 0.000000 0.000000 0.000000 0.000000 0.000000 0.057077
#
#
# Mechanical properties :
#
#
# Convention : Reuss Voigt Hill
#
# Bulk Modulus (GPa) = 47.57434 48.85402 48.21418
# Shear Modulus (GPa) = 23.84976 25.34171 24.59574
#
# Velocity S-wave (km/s) = 3.52027 3.62870 3.57490
# Velocity P-wave (km/s) = 6.42204 6.55294 6.48782
#
# Compressibility (1/GPa) = 0.02101973
#
# Stress axis : x y z
#
# Youngs Moduli (GPa) = 54.98734 57.66079 65.38736
#
# Poissons Ratio (x) = 0.21814 0.36677
# Poissons Ratio (y) = 0.20802 0.36022
# Poissons Ratio (z) = 0.30843 0.31765
#
# Static dielectric constant tensor:
#      x y z
#    x 3.388900 0.000000 0.000000 
#    y 0.000000 3.585430 0.000000 
#    z 0.000000 0.000000 3.570920 
# 
# 
# High freq. dielectric constant tensor:
#      x y z
#    x 1.739140 0.000000 0.000000 
#    y 0.000000 1.746090 0.000000 
#    z 0.000000 0.000000 1.754970 
# 
# From -- ./inp_files/9516.got.cif
#   From: 2010.03.12/outbox.cif.g09.slc.cpg/sg57_5_cif.got.tgz:9516.got - 2010.04.16 15:48:40.
