data_PCOD8230535
_publ_section_title
;
Structure prediction by ZEFSAII (Michael W. Deem and Ramdas Pophale) SiO2 
 PCOD8230535
Probable space group: P B C M
;
_chemical_formula_sum "Si O2"
_cell_formula_units_Z 56
_cell_length_a 8.245822
_cell_length_b 20.913523
_cell_length_c 15.146403
_cell_angle_alpha 90.000000
_cell_angle_beta 90.000000
_cell_angle_gamma 90.000000
_cell_volume 2611.984899
_symmetry_space_group_name_H-M "P B C M"
_symmetry_group_IT_number 57
_symmetry_cell_setting 'orthorhombic'
loop_
_space_group_symop_operation_xyz
x,y,z
-x,-y,1/2+z
x,1/2-y,-z
-x,1/2+y,1/2-z
-x,-y,-z
x,y,1/2-z
-x,1/2+y,z
x,1/2-y,1/2+z
loop_
_atom_site_type_symbol
_atom_site_label
_atom_site_fract_x
_atom_site_fract_y
_atom_site_fract_z
Si Si1 0.449871 0.251796 0.849050
Si Si2 0.331928 0.111332 0.351732
Si Si3 0.763090 0.304482 0.555864
Si Si4 0.659319 0.885945 0.144915
Si Si5 0.021665 0.897750 0.649707
Si Si6 0.161205 0.490486 0.443805
Si Si7 0.579498 0.078041 0.503510
O O1 0.508143 0.237513 0.750000
O O2 0.329197 0.311493 0.853817
O O3 0.610609 0.266762 0.903444
O O4 0.351638 0.188807 0.883009
O O5 0.363303 0.087884 0.250000
O O6 0.157059 0.091062 0.394249
O O7 0.469029 0.084521 0.416045
O O8 0.855753 0.250000 0.500000
O O9 0.707035 0.363694 0.495129
O O10 0.892425 0.331124 0.625265
O O11 0.657148 0.896737 0.250000
O O12 0.818612 0.920296 0.101128
O O13 0.508435 0.921580 0.098352
O O14 0.974602 0.891336 0.750000
O O15 0.143342 0.956555 0.633605
O O16 0.323835 0.510235 0.498783
O O17 0.000000 0.500000 0.500000
#
# Coordination Sequence:
#
# PCOD8230535 Si02
#       7
#     8   8   8   8   8   8   8
#     4   9  18  34  57  86 119 154 199 250 304 368
#     4   9  19  37  63  93 121 159 209 259 305 359
#     4  10  18  34  56  88 122 158 198 243 310 363
#     4  11  22  38  60  87 120 160 201 249 309 373
#     4  10  21  38  59  86 121 161 205 256 309 366
#     4  11  24  42  60  84 119 160 209 259 314 365
#     4  10  21  39  63  86 116 156 208 255 297 363
#
# _framework density 21.439633000000001
#
# number of rings (size 3 to 8) (size 9 to 14) (size 15 to 20)
#    0.000    2.000    1.429    2.143    0.000    4.000 
#    7.714    2.857    0.000    0.000    0.000    0.000 
#    0.000    0.000    0.000    0.000    0.000    0.000 
#
# Total GULP energy -693972.836796 kJ/mol
# GULP energy per Si atom -12392.372086 kJ/mol
# Density = 2.139084 g / cm^3
# Si number density = 21.439633 Si / 1000 Ang^3
#
#
#
# Elastic Constant Matrix: (Units=GPa)
#
#
# Indices 1 2 3 4 5 6 
#
# 1 86.4601 19.3720 22.3245 0.0000 0.0000 0.0000
# 2 19.3720 98.3826 11.1583 0.0000 0.0000 0.0000
# 3 22.3245 11.1583 65.8422 0.0000 0.0000 0.0000
# 4 0.0000 0.0000 0.0000 24.4967 0.0000 0.0000
# 5 0.0000 0.0000 0.0000 0.0000 27.6784 0.0000
# 6 0.0000 0.0000 0.0000 0.0000 0.0000 27.3725
#
#
#
# Elastic Compliance Matrix: (Units=1/GPa)
#
#
# Indices 1 2 3 4 5 6 
#
# 1 0.013094 -0.002115 -0.004081 0.000000 0.000000 0.000000
# 2 -0.002115 0.010705 -0.001097 0.000000 0.000000 0.000000
# 3 -0.004081 -0.001097 0.016757 0.000000 0.000000 0.000000
# 4 0.000000 0.000000 0.000000 0.040822 0.000000 0.000000
# 5 0.000000 0.000000 0.000000 0.000000 0.036129 0.000000
# 6 0.000000 0.000000 0.000000 0.000000 0.000000 0.036533
#
#
# Mechanical properties :
#
#
# Convention : Reuss Voigt Hill
#
# Bulk Modulus (GPa) = 38.50643 39.59936 39.05290
# Shear Modulus (GPa) = 28.20331 29.09819 28.65075
#
# Velocity S-wave (km/s) = 3.63088 3.68804 3.65957
# Velocity P-wave (km/s) = 5.96466 6.05357 6.00928
#
# Compressibility (1/GPa) = 0.02596969
#
# Stress axis : x y z
#
# Youngs Moduli (GPa) = 76.37238 93.41130 59.67485
#
# Poissons Ratio (x) = 0.19760 0.24354
# Poissons Ratio (y) = 0.16155 0.06546
# Poissons Ratio (z) = 0.31168 0.10247
#
# Static dielectric constant tensor:
#      x y z
#    x 3.774080 0.000000 0.000000 
#    y 0.000000 4.239480 0.000000 
#    z 0.000000 0.000000 3.860360 
# 
# 
# High freq. dielectric constant tensor:
#      x y z
#    x 1.828590 0.000000 0.000000 
#    y 0.000000 1.853930 0.000000 
#    z 0.000000 0.000000 1.837920 
# 
# From -- ./inp_files/16709.got.cif
#   From: 2010.03.12/outbox.cif.g09.slc.cpg/sg57_9_cif.got.tgz:16709.got - 2010.04.16 15:48:40.
