data_PCOD8230032
_publ_section_title
;
Structure prediction by ZEFSAII (Michael W. Deem and Ramdas Pophale) SiO2 
 PCOD8230032
Probable space group: P B C M
;
_chemical_formula_sum "Si O2"
_cell_formula_units_Z 44
_cell_length_a 6.801220
_cell_length_b 22.635832
_cell_length_c 14.316802
_cell_angle_alpha 90.000000
_cell_angle_beta 90.000000
_cell_angle_gamma 90.000000
_cell_volume 2204.089898
_symmetry_space_group_name_H-M "P B C M"
_symmetry_group_IT_number 57
_symmetry_cell_setting 'orthorhombic'
loop_
_space_group_symop_operation_xyz
x,y,z
-x,-y,1/2+z
x,1/2-y,-z
-x,1/2+y,1/2-z
-x,-y,-z
x,y,1/2-z
-x,1/2+y,z
x,1/2-y,1/2+z
loop_
_atom_site_type_symbol
_atom_site_label
_atom_site_fract_x
_atom_site_fract_y
_atom_site_fract_z
Si Si1 0.625919 0.260602 0.250000
Si Si2 0.569618 0.643309 0.250000
Si Si3 0.046477 0.748828 0.394128
Si Si4 0.268232 0.890560 0.250000
Si Si5 0.334770 0.057925 0.750000
Si Si6 0.822319 0.426592 0.750000
Si Si7 0.075391 0.123668 0.889612
Si Si8 0.112756 0.123183 0.108210
O O1 0.438483 0.216049 0.250000
O O2 0.749543 0.246781 0.158383
O O3 0.592706 0.331594 0.250000
O O4 0.346212 0.622282 0.250000
O O5 0.673650 0.616008 0.343200
O O6 0.113471 0.750000 0.500000
O O7 0.911548 0.805948 0.370846
O O8 0.924112 0.691501 0.368383
O O9 0.427333 0.943173 0.250000
O O10 0.131846 0.896806 0.342789
O O11 0.257200 0.091251 0.841844
O O12 0.265543 0.991239 0.750000
O O13 0.953959 0.418692 0.842374
O O14 0.096852 0.108195 0.998899
#
# Coordination Sequence:
#
# PCOD8230032 Si02
#       8
#     4   4   8   4   4   4   8   8
#     4  10  17  34  56  84 119 155 183 234 294 343
#     4  11  22  34  59  90 114 155 201 242 287 351
#     4   9  17  35  60  87 121 149 181 238 297 352
#     4   9  21  37  61  85 120 156 193 241 300 347
#     4  11  24  40  60  87 114 159 207 242 284 356
#     4  11  24  41  58  82 125 157 202 245 289 343
#     4   9  21  40  61  88 120 154 193 242 296 354
#     4  10  21  39  61  88 119 156 193 243 296 348
#
# _framework density 19.962888
#
# number of rings (size 3 to 8) (size 9 to 14) (size 15 to 20)
#    0.000    2.182    1.818    1.091    2.545    5.091 
#    3.273    1.818    0.000    0.000    0.000    0.000 
#    0.000    0.000    0.000    0.000    0.000    0.000 
#
# Total GULP energy -545287.520369 kJ/mol
# GULP energy per Si atom -12392.898190 kJ/mol
# Density = 1.991745 g / cm^3
# Si number density = 19.962888 Si / 1000 Ang^3
#
#
#
# Elastic Constant Matrix: (Units=GPa)
#
#
# Indices 1 2 3 4 5 6 
#
# 1 64.0117 0.4107 21.8878 0.0000 0.0000 0.0000
# 2 0.4107 43.7560 18.9020 0.0000 0.0000 0.0000
# 3 21.8878 18.9020 124.8072 0.0000 0.0000 0.0000
# 4 0.0000 0.0000 0.0000 22.1386 0.0000 0.0000
# 5 0.0000 0.0000 0.0000 0.0000 12.3521 0.0000
# 6 0.0000 0.0000 0.0000 0.0000 0.0000 23.6203
#
#
#
# Elastic Compliance Matrix: (Units=1/GPa)
#
#
# Indices 1 2 3 4 5 6 
#
# 1 0.016676 0.001184 -0.003104 0.000000 0.000000 0.000000
# 2 0.001184 0.024538 -0.003924 0.000000 0.000000 0.000000
# 3 -0.003104 -0.003924 0.009151 0.000000 0.000000 0.000000
# 4 0.000000 0.000000 0.000000 0.045170 0.000000 0.000000
# 5 0.000000 0.000000 0.000000 0.000000 0.080958 0.000000
# 6 0.000000 0.000000 0.000000 0.000000 0.000000 0.042336
#
#
# Mechanical properties :
#
#
# Convention : Reuss Voigt Hill
#
# Bulk Modulus (GPa) = 25.85465 34.99734 30.42599
# Shear Modulus (GPa) = 20.54159 24.38050 22.46104
#
# Velocity S-wave (km/s) = 3.21127 3.49849 3.35795
# Velocity P-wave (km/s) = 5.17002 5.82138 5.50534
#
# Compressibility (1/GPa) = 0.03867777
#
# Stress axis : x y z
#
# Youngs Moduli (GPa) = 59.96696 40.75313 109.27805
#
# Poissons Ratio (x) = -0.04826 0.33918
# Poissons Ratio (y) = -0.07102 0.42880
# Poissons Ratio (z) = 0.18613 0.15991
#
# Static dielectric constant tensor:
#      x y z
#    x 3.402170 0.000000 0.000000 
#    y 0.000000 3.635100 0.000000 
#    z 0.000000 0.000000 3.704170 
# 
# 
# High freq. dielectric constant tensor:
#      x y z
#    x 1.764310 0.000000 0.000000 
#    y 0.000000 1.771760 0.000000 
#    z 0.000000 0.000000 1.785580 
# 
# From -- ./inp_files/15078.got.cif
#   From: 2010.03.12/outbox.cif.g09.slc.cpg/sg57_8_cif.got.tgz:15078.got - 2010.04.16 15:48:40.
