data_PCOD8230776
_publ_section_title
;
Structure prediction by ZEFSAII (Michael W. Deem and Ramdas Pophale) SiO2 
 PCOD8230776
Probable space group: P B C M
;
_chemical_formula_sum "Si O2"
_cell_formula_units_Z 64
_cell_length_a 30.386111
_cell_length_b 13.735245
_cell_length_c 8.792768
_cell_angle_alpha 90.000000
_cell_angle_beta 90.000000
_cell_angle_gamma 90.000000
_cell_volume 3669.755624
_symmetry_space_group_name_H-M "P B C M"
_symmetry_group_IT_number 57
_symmetry_cell_setting 'orthorhombic'
loop_
_space_group_symop_operation_xyz
x,y,z
-x,-y,1/2+z
x,1/2-y,-z
-x,1/2+y,1/2-z
-x,-y,-z
x,y,1/2-z
-x,1/2+y,z
x,1/2-y,1/2+z
loop_
_atom_site_type_symbol
_atom_site_label
_atom_site_fract_x
_atom_site_fract_y
_atom_site_fract_z
Si Si1 0.047298 0.977950 0.567594
Si Si2 0.254210 0.146372 0.070209
Si Si3 0.518175 0.354186 0.572048
Si Si4 0.878617 0.144504 0.932334
Si Si5 0.894061 0.650271 0.580906
Si Si6 0.815531 0.984022 0.424246
Si Si7 0.434305 0.022993 0.071276
Si Si8 0.645491 0.849911 0.927792
O O1 0.046299 0.965770 0.750000
O O2 0.072827 0.885401 0.495676
O O3 0.074942 0.069403 0.507587
O O4 0.000000 0.000000 0.500000
O O5 0.246750 0.152225 0.250000
O O6 0.304681 0.125960 0.023738
O O7 0.238731 0.250000 0.000000
O O8 0.229027 0.051360 0.005404
O O9 0.523996 0.250000 0.500000
O O10 0.521664 0.342870 0.750000
O O11 0.558068 0.421918 0.514892
O O12 0.471516 0.399552 0.521571
O O13 0.879383 0.147105 0.750000
O O14 0.867219 0.250000 0.000000
O O15 0.839984 0.071542 0.988031
O O16 0.900738 0.750000 0.500000
O O17 0.910348 0.668132 0.750000
O O18 0.844287 0.614048 0.572468
O O19 0.806987 0.017173 0.250000
O O20 0.436480 0.002976 0.250000
O O21 0.386764 0.063540 0.019251
O O22 0.641763 0.834621 0.750000
O O23 0.628812 0.750000 0.000000
#
# Coordination Sequence:
#
# PCOD8230776 Si02
#       8
#     8   8   8   8   8   8   8   8
#     4  10  21  37  53  75 105 137 173 212 250 293
#     4  10  19  31  49  76 106 137 169 203 249 303
#     4  10  19  30  47  70  95 126 165 208 253 300
#     4  11  22  38  59  81 104 135 173 215 259 303
#     4   9  19  32  48  70  97 126 158 194 235 282
#     4  10  20  35  53  76 104 132 165 207 248 294
#     4   9  18  32  48  68  96 130 166 206 251 299
#     4   9  18  31  48  71 101 134 167 204 247 298
#
# _framework density 17.439854
#
# number of rings (size 3 to 8) (size 9 to 14) (size 15 to 20)
#    0.000    2.250    0.000    4.125    0.000    6.000 
#    0.000    1.250    0.000    0.750    0.000    3.500 
#    0.000    0.000    0.000    0.000    0.000    0.000 
#
# Total GULP energy -793392.703927 kJ/mol
# GULP energy per Si atom -12396.760999 kJ/mol
# Density = 1.740016 g / cm^3
# Si number density = 17.439854 Si / 1000 Ang^3
#
#
#
# Elastic Constant Matrix: (Units=GPa)
#
#
# Indices 1 2 3 4 5 6 
#
# 1 96.6062 54.0829 39.0033 0.0000 0.0000 0.0000
# 2 54.0829 120.6857 50.3046 0.0000 0.0000 0.0000
# 3 39.0033 50.3046 87.8777 0.0000 0.0000 0.0000
# 4 0.0000 0.0000 0.0000 33.6238 0.0000 0.0000
# 5 0.0000 0.0000 0.0000 0.0000 24.9710 0.0000
# 6 0.0000 0.0000 0.0000 0.0000 0.0000 25.2901
#
#
#
# Elastic Compliance Matrix: (Units=1/GPa)
#
#
# Indices 1 2 3 4 5 6 
#
# 1 0.014637 -0.005058 -0.003601 0.000000 0.000000 0.000000
# 2 -0.005058 0.012631 -0.004985 0.000000 0.000000 0.000000
# 3 -0.003601 -0.004985 0.015831 0.000000 0.000000 0.000000
# 4 0.000000 0.000000 0.000000 0.029741 0.000000 0.000000
# 5 0.000000 0.000000 0.000000 0.000000 0.040046 0.000000
# 6 0.000000 0.000000 0.000000 0.000000 0.000000 0.039541
#
#
# Mechanical properties :
#
#
# Convention : Reuss Voigt Hill
#
# Bulk Modulus (GPa) = 63.25020 65.77235 64.51127
# Shear Modulus (GPa) = 27.02903 27.56223 27.29563
#
# Velocity S-wave (km/s) = 3.94108 3.97976 3.96046
# Velocity P-wave (km/s) = 7.55353 7.67552 7.61477
#
# Compressibility (1/GPa) = 0.01581023
#
# Stress axis : x y z
#
# Youngs Moduli (GPa) = 68.32063 79.17193 63.16577
#
# Poissons Ratio (x) = 0.40048 0.22745
# Poissons Ratio (y) = 0.34559 0.31490
# Poissons Ratio (z) = 0.24601 0.39469
#
# Static dielectric constant tensor:
#      x y z
#    x 3.365880 0.000000 0.000000 
#    y 0.000000 3.178610 0.000000 
#    z 0.000000 0.000000 3.316860 
# 
# 
# High freq. dielectric constant tensor:
#      x y z
#    x 1.666310 0.000000 0.000000 
#    y 0.000000 1.666010 0.000000 
#    z 0.000000 0.000000 1.684080 
# 
# From -- ./inp_files/10292.got.cif
#   From: 2010.03.12/outbox.cif.g09.slc.cpg/sg57_6_cif.got.tgz:10292.got - 2010.04.16 15:48:40.
