data_PCOD8230459
_publ_section_title
;
Structure prediction by ZEFSAII (Michael W. Deem and Ramdas Pophale) SiO2 
 PCOD8230459
Probable space group: P B C M
;
_chemical_formula_sum "Si O2"
_cell_formula_units_Z 64
_cell_length_a 8.108002
_cell_length_b 18.922826
_cell_length_c 18.256160
_cell_angle_alpha 90.000000
_cell_angle_beta 90.000000
_cell_angle_gamma 90.000000
_cell_volume 2800.975283
_symmetry_space_group_name_H-M "P B C M"
_symmetry_group_IT_number 57
_symmetry_cell_setting 'orthorhombic'
loop_
_space_group_symop_operation_xyz
x,y,z
-x,-y,1/2+z
x,1/2-y,-z
-x,1/2+y,1/2-z
-x,-y,-z
x,y,1/2-z
-x,1/2+y,z
x,1/2-y,1/2+z
loop_
_atom_site_type_symbol
_atom_site_label
_atom_site_fract_x
_atom_site_fract_y
_atom_site_fract_z
Si Si1 0.983836 0.680169 0.574987
Si Si2 0.364828 0.254763 0.582941
Si Si3 0.495093 0.864374 0.168136
Si Si4 0.657713 0.008730 0.591727
Si Si5 0.908986 0.174185 0.415005
Si Si6 0.148292 0.064039 0.832545
Si Si7 0.700605 0.047455 0.429432
Si Si8 0.210467 0.121416 0.164497
O O1 0.810528 0.717323 0.587947
O O2 0.992842 0.612534 0.628716
O O3 0.122097 0.740873 0.592839
O O4 0.994584 0.656461 0.490832
O O5 0.430969 0.250000 0.500000
O O6 0.498907 0.212302 0.630715
O O7 0.341859 0.333344 0.615980
O O8 0.429599 0.854895 0.250000
O O9 0.676078 0.897853 0.166633
O O10 0.365596 0.913824 0.125816
O O11 0.486446 0.966066 0.591850
O O12 0.779057 0.960980 0.640758
O O13 0.733082 0.019416 0.511418
O O14 0.736587 0.131335 0.418614
O O15 0.023714 0.147193 0.348796
O O16 0.090064 0.047595 0.750000
O O17 0.168100 0.991844 0.877335
O O18 0.253450 0.130016 0.250000
#
# Coordination Sequence:
#
# PCOD8230459 Si02
#       8
#     8   8   8   8   8   8   8   8
#     4   9  17  34  57  81 112 145 192 246 298 354
#     4  10  18  32  57  85 117 151 201 253 296 362
#     4   9  18  34  56  82 113 151 196 248 295 351
#     4  10  22  38  60  85 121 161 206 242 296 361
#     4  10  20  37  57  85 117 149 192 248 301 353
#     4   9  18  32  54  82 113 151 193 238 293 356
#     4  10  22  37  59  84 119 160 203 248 297 358
#     4  11  22  36  59  91 123 154 193 252 312 359
#
# _framework density 22.849184000000001
#
# number of rings (size 3 to 8) (size 9 to 14) (size 15 to 20)
#    0.000    2.250    2.500    1.500    5.250    6.000 
#    0.000    2.500    0.000    0.750    0.000    0.000 
#    0.000    0.000    0.000    0.000    0.000    0.000 
#
# Total GULP energy -793441.718450 kJ/mol
# GULP energy per Si atom -12397.526851 kJ/mol
# Density = 2.279718 g / cm^3
# Si number density = 22.849184 Si / 1000 Ang^3
#
#
#
# Elastic Constant Matrix: (Units=GPa)
#
#
# Indices 1 2 3 4 5 6 
#
# 1 21.6037 5.7052 2.9517 0.0000 0.0000 0.0000
# 2 5.7052 85.1975 19.5984 0.0000 0.0000 0.0000
# 3 2.9517 19.5984 127.3343 0.0000 0.0000 0.0000
# 4 0.0000 0.0000 0.0000 31.8884 0.0000 0.0000
# 5 0.0000 0.0000 0.0000 0.0000 7.4729 0.0000
# 6 0.0000 0.0000 0.0000 0.0000 0.0000 31.0696
#
#
#
# Elastic Compliance Matrix: (Units=1/GPa)
#
#
# Indices 1 2 3 4 5 6 
#
# 1 0.047170 -0.003014 -0.000630 0.000000 0.000000 0.000000
# 2 -0.003014 0.012361 -0.001833 0.000000 0.000000 0.000000
# 3 -0.000630 -0.001833 0.008150 0.000000 0.000000 0.000000
# 4 0.000000 0.000000 0.000000 0.031359 0.000000 0.000000
# 5 0.000000 0.000000 0.000000 0.000000 0.133817 0.000000
# 6 0.000000 0.000000 0.000000 0.000000 0.000000 0.032186
#
#
# Mechanical properties :
#
#
# Convention : Reuss Voigt Hill
#
# Bulk Modulus (GPa) = 17.62770 32.29400 24.96085
# Shear Modulus (GPa) = 16.95462 27.81152 22.38307
#
# Velocity S-wave (km/s) = 2.72697 3.49259 3.13325
# Velocity P-wave (km/s) = 4.20079 5.51620 4.90281
#
# Compressibility (1/GPa) = 0.05672890
#
# Stress axis : x y z
#
# Youngs Moduli (GPa) = 21.19981 80.90071 122.69933
#
# Poissons Ratio (x) = 0.24383 0.07725
# Poissons Ratio (y) = 0.06389 0.22486
# Poissons Ratio (z) = 0.01335 0.14826
#
# Static dielectric constant tensor:
#      x y z
#    x 3.635270 0.000000 0.000000 
#    y 0.000000 4.404150 0.000000 
#    z 0.000000 0.000000 4.131820 
# 
# 
# High freq. dielectric constant tensor:
#      x y z
#    x 1.866590 0.000000 0.000000 
#    y 0.000000 1.909030 0.000000 
#    z 0.000000 0.000000 1.897290 
# 
# From -- ./inp_files/21429.got.cif
#   From: 2010.03.12/outbox.cif.g09.slc.cpg/sg57_11_cif.got.tgz:21429.got - 2010.04.16 15:48:40.
