data_PCOD8230248
_publ_section_title
;
Structure prediction by ZEFSAII (Michael W. Deem and Ramdas Pophale) SiO2 
 PCOD8230248
Probable space group: P B C M
;
_chemical_formula_sum "Si O2"
_cell_formula_units_Z 48
_cell_length_a 21.066042
_cell_length_b 13.836707
_cell_length_c 8.802479
_cell_angle_alpha 90.000000
_cell_angle_beta 90.000000
_cell_angle_gamma 90.000000
_cell_volume 2565.787518
_symmetry_space_group_name_H-M "P B C M"
_symmetry_group_IT_number 57
_symmetry_cell_setting 'orthorhombic'
loop_
_space_group_symop_operation_xyz
x,y,z
-x,-y,1/2+z
x,1/2-y,-z
-x,1/2+y,1/2-z
-x,-y,-z
x,y,1/2-z
-x,1/2+y,z
x,1/2-y,1/2+z
loop_
_atom_site_type_symbol
_atom_site_label
_atom_site_fract_x
_atom_site_fract_y
_atom_site_fract_z
Si Si1 0.031509 0.854391 0.931337
Si Si2 0.588230 0.049596 0.427697
Si Si3 0.471906 0.350669 0.428162
Si Si4 0.098349 0.148895 0.572597
Si Si5 0.843115 0.457065 0.927020
Si Si6 0.718587 0.354885 0.929579
O O1 0.026960 0.852681 0.750000
O O2 0.091469 0.914477 0.992815
O O3 0.041515 0.750000 0.000000
O O4 0.965666 0.895511 0.998864
O O5 0.575181 0.064226 0.250000
O O6 0.542131 0.122533 0.515545
O O7 0.659587 0.077052 0.473922
O O8 0.575876 0.937833 0.474493
O O9 0.448055 0.250000 0.500000
O O10 0.474120 0.335472 0.250000
O O11 0.119183 0.250000 0.500000
O O12 0.085346 0.164422 0.750000
O O13 0.155314 0.072598 0.543318
O O14 0.840826 0.434446 0.750000
O O15 0.781032 0.407275 0.000255
O O16 0.723572 0.343008 0.750000
O O17 0.710146 0.250000 0.000000
#
# Coordination Sequence:
#
# PCOD8230248 Si02
#       6
#     8   8   8   8   8   8
#     4  10  18  30  48  72  97 123 156 196 243 290
#     4   9  19  34  53  76 103 136 170 204 245 292
#     4  10  19  32  52  78 106 135 168 207 248 289
#     4  10  19  33  50  69  93 124 160 200 245 288
#     4   9  19  33  50  70  96 128 160 196 240 290
#     4  10  20  36  54  74 100 130 163 198 241 292
#
# _framework density 18.707706000000002
#
# number of rings (size 3 to 8) (size 9 to 14) (size 15 to 20)
#    0.000    2.333    0.000    4.000    0.000    2.667 
#    0.000    5.833    0.000    0.000    0.000    0.000 
#    0.000    0.000    0.000    0.000    0.000    0.000 
#
# Total GULP energy -595033.985977 kJ/mol
# GULP energy per Si atom -12396.541375 kJ/mol
# Density = 1.866513 g / cm^3
# Si number density = 18.707706 Si / 1000 Ang^3
#
#
#
# Elastic Constant Matrix: (Units=GPa)
#
#
# Indices 1 2 3 4 5 6 
#
# 1 101.0442 82.8517 34.4330 0.0000 0.0000 0.0000
# 2 82.8517 118.4340 35.6603 0.0000 0.0000 0.0000
# 3 34.4330 35.6603 61.0785 0.0000 0.0000 0.0000
# 4 0.0000 0.0000 0.0000 27.6822 0.0000 0.0000
# 5 0.0000 0.0000 0.0000 0.0000 19.2278 0.0000
# 6 0.0000 0.0000 0.0000 0.0000 0.0000 26.9743
#
#
#
# Elastic Compliance Matrix: (Units=1/GPa)
#
#
# Indices 1 2 3 4 5 6 
#
# 1 0.024215 -0.015566 -0.004563 0.000000 0.000000 0.000000
# 2 -0.015566 0.020250 -0.003048 0.000000 0.000000 0.000000
# 3 -0.004563 -0.003048 0.020724 0.000000 0.000000 0.000000
# 4 0.000000 0.000000 0.000000 0.036124 0.000000 0.000000
# 5 0.000000 0.000000 0.000000 0.000000 0.052008 0.000000
# 6 0.000000 0.000000 0.000000 0.000000 0.000000 0.037072
#
#
# Mechanical properties :
#
#
# Convention : Reuss Voigt Hill
#
# Bulk Modulus (GPa) = 53.08979 65.16074 59.12527
# Shear Modulus (GPa) = 20.57385 23.28429 21.92907
#
# Velocity S-wave (km/s) = 3.31985 3.53177 3.42745
# Velocity P-wave (km/s) = 6.56775 7.17898 6.88016
#
# Compressibility (1/GPa) = 0.01883601
#
# Stress axis : x y z
#
# Youngs Moduli (GPa) = 41.29677 49.38152 48.25247
#
# Poissons Ratio (x) = 0.76867 0.22018
# Poissons Ratio (y) = 0.64282 0.14707
# Poissons Ratio (z) = 0.18844 0.15051
#
# Static dielectric constant tensor:
#      x y z
#    x 3.585810 0.000000 0.000000 
#    y 0.000000 3.572090 0.000000 
#    z 0.000000 0.000000 3.321110 
# 
# 
# High freq. dielectric constant tensor:
#      x y z
#    x 1.711580 0.000000 0.000000 
#    y 0.000000 1.739110 0.000000 
#    z 0.000000 0.000000 1.714910 
# 
# From -- ./inp_files/7853.got.cif
#   From: 2010.03.12/outbox.cif.g09.slc.cpg/sg57_4_cif.got.tgz:7853.got - 2010.04.16 15:48:40.
