data_PCOD8230327
_publ_section_title
;
Structure prediction by ZEFSAII (Michael W. Deem and Ramdas Pophale) SiO2 
 PCOD8230327
Probable space group: P B C M
;
_chemical_formula_sum "Si O2"
_cell_formula_units_Z 64
_cell_length_a 28.924658
_cell_length_b 13.914611
_cell_length_c 8.694073
_cell_angle_alpha 90.000000
_cell_angle_beta 90.000000
_cell_angle_gamma 90.000000
_cell_volume 3499.150199
_symmetry_space_group_name_H-M "P B C M"
_symmetry_group_IT_number 57
_symmetry_cell_setting 'orthorhombic'
loop_
_space_group_symop_operation_xyz
x,y,z
-x,-y,1/2+z
x,1/2-y,-z
-x,1/2+y,1/2-z
-x,-y,-z
x,y,1/2-z
-x,1/2+y,z
x,1/2-y,1/2+z
loop_
_atom_site_type_symbol
_atom_site_label
_atom_site_fract_x
_atom_site_fract_y
_atom_site_fract_z
Si Si1 0.478817 0.854142 0.069359
Si Si2 0.927155 0.855194 0.931266
Si Si3 0.432531 0.028369 0.569266
Si Si4 0.886745 0.354049 0.569070
Si Si5 0.655971 0.647073 0.568312
Si Si6 0.019564 0.857079 0.433059
Si Si7 0.839205 0.979022 0.930290
Si Si8 0.752744 0.646959 0.431763
O O1 0.476630 0.843982 0.250000
O O2 0.528107 0.896669 0.013945
O O3 0.470493 0.750000 0.000000
O O4 0.438455 0.926085 0.013936
O O5 0.933447 0.848616 0.750000
O O6 0.881427 0.911217 0.979698
O O7 0.921863 0.750000 0.000000
O O8 0.973100 0.907906 0.001029
O O9 0.436461 0.011117 0.750000
O O10 0.383041 0.070732 0.521201
O O11 0.876537 0.250000 0.500000
O O12 0.893229 0.344867 0.750000
O O13 0.932670 0.403590 0.493870
O O14 0.843628 0.421913 0.524805
O O15 0.642199 0.750000 0.500000
O O16 0.660500 0.658017 0.750000
O O17 0.704230 0.609789 0.499182
O O18 0.019547 0.750000 0.500000
O O19 0.019004 0.858364 0.250000
O O20 0.840067 0.001676 0.750000
O O21 0.791583 0.929228 0.980382
O O22 0.766345 0.750000 0.500000
O O23 0.748912 0.657719 0.250000
#
# Coordination Sequence:
#
# PCOD8230327 Si02
#       8
#     8   8   8   8   8   8   8   8
#     4  10  19  31  49  73 105 143 180 220 264 309
#     4  10  19  32  50  73 103 134 164 198 238 289
#     4   9  19  33  49  73 104 140 181 221 260 306
#     4  11  22  37  57  76  97 126 162 204 247 294
#     4  10  19  32  52  77 106 138 173 213 255 301
#     4  10  18  31  50  71  99 130 162 199 239 287
#     4  10  22  37  53  75 102 132 165 203 247 297
#     4  10  20  35  55  79 108 137 167 206 252 303
#
# _framework density 18.290154999999999
#
# number of rings (size 3 to 8) (size 9 to 14) (size 15 to 20)
#    0.000    2.000    0.000    6.750    0.000    4.000 
#    0.000    0.000    0.000    0.750    0.000    5.250 
#    0.000    0.000    0.000    0.000    0.000    0.000 
#
# Total GULP energy -793653.515848 kJ/mol
# GULP energy per Si atom -12400.836185 kJ/mol
# Density = 1.824853 g / cm^3
# Si number density = 18.290155 Si / 1000 Ang^3
#
#
#
# Elastic Constant Matrix: (Units=GPa)
#
#
# Indices 1 2 3 4 5 6 
#
# 1 134.1821 76.5762 56.1500 0.0000 0.0000 0.0000
# 2 76.5762 109.2001 47.1776 0.0000 0.0000 0.0000
# 3 56.1500 47.1776 101.2827 0.0000 0.0000 0.0000
# 4 0.0000 0.0000 0.0000 28.7134 0.0000 0.0000
# 5 0.0000 0.0000 0.0000 0.0000 27.0618 0.0000
# 6 0.0000 0.0000 0.0000 0.0000 0.0000 20.9738
#
#
#
# Elastic Compliance Matrix: (Units=1/GPa)
#
#
# Indices 1 2 3 4 5 6 
#
# 1 0.013531 -0.007822 -0.003858 0.000000 0.000000 0.000000
# 2 -0.007822 0.015986 -0.003110 0.000000 0.000000 0.000000
# 3 -0.003858 -0.003110 0.013461 0.000000 0.000000 0.000000
# 4 0.000000 0.000000 0.000000 0.034827 0.000000 0.000000
# 5 0.000000 0.000000 0.000000 0.000000 0.036952 0.000000
# 6 0.000000 0.000000 0.000000 0.000000 0.000000 0.047678
#
#
# Mechanical properties :
#
#
# Convention : Reuss Voigt Hill
#
# Bulk Modulus (GPa) = 74.63658 78.27472 76.45565
# Shear Modulus (GPa) = 25.44779 26.33388 25.89084
#
# Velocity S-wave (km/s) = 3.73411 3.79857 3.76648
# Velocity P-wave (km/s) = 7.71278 7.88212 7.79791
#
# Compressibility (1/GPa) = 0.01339826
#
# Stress axis : x y z
#
# Youngs Moduli (GPa) = 73.90631 62.55468 74.28954
#
# Poissons Ratio (x) = 0.48928 0.28660
# Poissons Ratio (y) = 0.57806 0.23105
# Poissons Ratio (z) = 0.28513 0.19455
#
# Static dielectric constant tensor:
#      x y z
#    x 3.578130 0.000000 0.000000 
#    y 0.000000 3.274500 0.000000 
#    z 0.000000 0.000000 3.429640 
# 
# 
# High freq. dielectric constant tensor:
#      x y z
#    x 1.698450 0.000000 0.000000 
#    y 0.000000 1.700840 0.000000 
#    z 0.000000 0.000000 1.720860 
# 
# From -- ./inp_files/10339.got.cif
#   From: 2010.03.12/outbox.cif.g09.slc.cpg/sg57_6_cif.got.tgz:10339.got - 2010.04.16 15:48:40.
