data_PCOD8230212
_publ_section_title
;
Structure prediction by ZEFSAII (Michael W. Deem and Ramdas Pophale) SiO2 
 PCOD8230212
Probable space group: P B C M
;
_chemical_formula_sum "Si O2"
_cell_formula_units_Z 40
_cell_length_a 12.417605
_cell_length_b 20.918969
_cell_length_c 8.956473
_cell_angle_alpha 90.000000
_cell_angle_beta 90.000000
_cell_angle_gamma 90.000000
_cell_volume 2326.564721
_symmetry_space_group_name_H-M "P B C M"
_symmetry_group_IT_number 57
_symmetry_cell_setting 'orthorhombic'
loop_
_space_group_symop_operation_xyz
x,y,z
-x,-y,1/2+z
x,1/2-y,-z
-x,1/2+y,1/2-z
-x,-y,-z
x,y,1/2-z
-x,1/2+y,z
x,1/2-y,1/2+z
loop_
_atom_site_type_symbol
_atom_site_label
_atom_site_fract_x
_atom_site_fract_y
_atom_site_fract_z
Si Si1 0.144584 0.043434 0.577255
Si Si2 0.759381 0.317413 0.576172
Si Si3 0.586225 0.421955 0.921336
Si Si4 0.648859 0.549413 0.422110
Si Si5 0.087189 0.587400 0.923650
O O1 0.156587 0.025838 0.750000
O O2 0.251930 0.079054 0.517209
O O3 0.041621 0.088492 0.549254
O O4 0.136282 0.977438 0.487984
O O5 0.741409 0.250000 0.500000
O O6 0.781445 0.307669 0.750000
O O7 0.650871 0.357407 0.545502
O O8 0.863558 0.351898 0.507119
O O9 0.602697 0.444612 0.750000
O O10 0.459338 0.409554 0.952632
O O11 0.629836 0.476242 0.030378
O O12 0.681772 0.550971 0.250000
O O13 0.115988 0.591199 0.750000
#
# Coordination Sequence:
#
# PCOD8230212 Si02
#       5
#     8   8   8   8   8
#     4  10  19  31  49  75 107 135 163 209 261 307
#     4  11  22  36  54  74 103 137 172 212 253 300
#     4   9  19  33  48  72 103 134 169 210 254 299
#     4  10  18  29  50  76 103 133 167 208 256 307
#     4  10  20  33  50  74 102 134 174 211 253 304
#
# _framework density 17.192730000000001
#
# number of rings (size 3 to 8) (size 9 to 14) (size 15 to 20)
#    0.000    2.000    2.000    2.400    0.000    4.000 
#    0.000    0.000    0.000    1.200    0.000    5.600 
#    0.000    0.000    0.000    0.000    0.000    0.000 
#
# Total GULP energy -496011.044761 kJ/mol
# GULP energy per Si atom -12400.276119 kJ/mol
# Density = 1.715360 g / cm^3
# Si number density = 17.192730 Si / 1000 Ang^3
#
#
#
# Elastic Constant Matrix: (Units=GPa)
#
#
# Indices 1 2 3 4 5 6 
#
# 1 145.4597 47.1535 65.5102 0.0000 0.0000 0.0000
# 2 47.1535 81.2827 45.5510 0.0000 0.0000 0.0000
# 3 65.5102 45.5510 106.4391 0.0000 0.0000 0.0000
# 4 0.0000 0.0000 0.0000 24.7337 0.0000 0.0000
# 5 0.0000 0.0000 0.0000 0.0000 31.8743 0.0000
# 6 0.0000 0.0000 0.0000 0.0000 0.0000 20.3129
#
#
#
# Elastic Compliance Matrix: (Units=1/GPa)
#
#
# Indices 1 2 3 4 5 6 
#
# 1 0.010078 -0.003118 -0.004868 0.000000 0.000000 0.000000
# 2 -0.003118 0.017149 -0.005420 0.000000 0.000000 0.000000
# 3 -0.004868 -0.005420 0.014711 0.000000 0.000000 0.000000
# 4 0.000000 0.000000 0.000000 0.040431 0.000000 0.000000
# 5 0.000000 0.000000 0.000000 0.000000 0.031373 0.000000
# 6 0.000000 0.000000 0.000000 0.000000 0.000000 0.049230
#
#
# Mechanical properties :
#
#
# Convention : Reuss Voigt Hill
#
# Bulk Modulus (GPa) = 66.11506 72.17899 69.14703
# Shear Modulus (GPa) = 25.66395 27.04865 26.35630
#
# Velocity S-wave (km/s) = 3.86777 3.97074 3.91959
# Velocity P-wave (km/s) = 7.64754 7.94328 7.79682
#
# Compressibility (1/GPa) = 0.01512515
#
# Stress axis : x y z
#
# Youngs Moduli (GPa) = 99.22461 58.31262 67.97751
#
# Poissons Ratio (x) = 0.18184 0.33094
# Poissons Ratio (y) = 0.30941 0.36842
# Poissons Ratio (z) = 0.48306 0.31604
#
# Static dielectric constant tensor:
#      x y z
#    x 3.665690 0.000000 0.000000 
#    y 0.000000 2.761470 0.000000 
#    z 0.000000 0.000000 3.371320 
# 
# 
# High freq. dielectric constant tensor:
#      x y z
#    x 1.684650 0.000000 0.000000 
#    y 0.000000 1.606700 0.000000 
#    z 0.000000 0.000000 1.682160 
# 
# From -- ./inp_files/4798.got.cif
#   From: 2010.03.12/outbox.cif.g09.slc.cpg/sg57_3_cif.got.tgz:4798.got - 2010.04.16 15:48:40.
