data_PCOD8230800
_publ_section_title
;
Structure prediction by ZEFSAII (Michael W. Deem and Ramdas Pophale) SiO2 
 PCOD8230800
Probable space group: P B C M
;
_chemical_formula_sum "Si O2"
_cell_formula_units_Z 64
_cell_length_a 16.917239
_cell_length_b 23.574295
_cell_length_c 8.874157
_cell_angle_alpha 90.000000
_cell_angle_beta 90.000000
_cell_angle_gamma 90.000000
_cell_volume 3539.120149
_symmetry_space_group_name_H-M "P B C M"
_symmetry_group_IT_number 57
_symmetry_cell_setting 'orthorhombic'
loop_
_space_group_symop_operation_xyz
x,y,z
-x,-y,1/2+z
x,1/2-y,-z
-x,1/2+y,1/2-z
-x,-y,-z
x,y,1/2-z
-x,1/2+y,z
x,1/2-y,1/2+z
loop_
_atom_site_type_symbol
_atom_site_label
_atom_site_fract_x
_atom_site_fract_y
_atom_site_fract_z
Si Si1 0.742484 0.812229 0.571509
Si Si2 0.728341 0.130313 0.428476
Si Si3 0.865787 0.194100 0.576123
Si Si4 0.586919 0.188367 0.925265
Si Si5 0.588195 0.689480 0.575108
Si Si6 0.969990 0.414246 0.422263
Si Si7 0.168596 0.527204 0.075861
Si Si8 0.852335 0.902112 0.425981
O O1 0.754408 0.750000 0.500000
O O2 0.739778 0.806632 0.750000
O O3 0.660944 0.841636 0.509920
O O4 0.813928 0.852653 0.523772
O O5 0.719854 0.132779 0.250000
O O6 0.786274 0.179360 0.485827
O O7 0.643058 0.141058 0.501440
O O8 0.762849 0.069371 0.485862
O O9 0.901901 0.250000 0.500000
O O10 0.844091 0.203894 0.750000
O O11 0.932049 0.147104 0.555204
O O12 0.606696 0.196003 0.750000
O O13 0.498469 0.162053 0.947129
O O14 0.597615 0.250000 0.000000
O O15 0.581995 0.750000 0.500000
O O16 0.610544 0.694749 0.750000
O O17 0.972816 0.433234 0.250000
O O18 0.917358 0.461256 0.505026
O O19 0.058533 0.410527 0.486070
O O20 0.157122 0.540147 0.250000
O O21 0.193182 0.461949 0.046767
O O22 0.850682 0.884904 0.250000
#
# Coordination Sequence:
#
# PCOD8230800 Si02
#       8
#     8   8   8   8   8   8   8   8
#     4  11  22  36  55  79 105 133 163 199 247 298
#     4  10  19  31  47  70  99 132 167 203 244 289
#     4  10  19  31  45  65  95 131 166 201 245 294
#     4  10  19  30  48  75 103 133 166 202 244 290
#     4   9  17  31  51  74 101 131 162 198 243 292
#     4   9  19  33  51  73  98 129 166 211 256 296
#     4   9  19  34  53  74  99 132 168 208 252 295
#     4  10  20  36  55  76 101 129 165 208 252 298
#
# _framework density 18.083590000000001
#
# number of rings (size 3 to 8) (size 9 to 14) (size 15 to 20)
#    0.000    2.250    0.000    4.125    0.000    4.000 
#    0.000    1.250    0.000    0.750    0.000    0.000 
#    0.000    0.000    0.000    0.000    0.000    0.000 
#
# Total GULP energy -793368.745090 kJ/mol
# GULP energy per Si atom -12396.386642 kJ/mol
# Density = 1.804243 g / cm^3
# Si number density = 18.083590 Si / 1000 Ang^3
#
#
#
# Elastic Constant Matrix: (Units=GPa)
#
#
# Indices 1 2 3 4 5 6 
#
# 1 111.5346 45.4116 50.7686 0.0000 0.0000 0.0000
# 2 45.4116 75.6814 40.3472 0.0000 0.0000 0.0000
# 3 50.7686 40.3472 102.8077 0.0000 0.0000 0.0000
# 4 0.0000 0.0000 0.0000 21.9794 0.0000 0.0000
# 5 0.0000 0.0000 0.0000 0.0000 28.8491 0.0000
# 6 0.0000 0.0000 0.0000 0.0000 0.0000 18.7362
#
#
#
# Elastic Compliance Matrix: (Units=1/GPa)
#
#
# Indices 1 2 3 4 5 6 
#
# 1 0.013226 -0.005633 -0.004321 0.000000 0.000000 0.000000
# 2 -0.005633 0.019108 -0.004718 0.000000 0.000000 0.000000
# 3 -0.004321 -0.004718 0.013712 0.000000 0.000000 0.000000
# 4 0.000000 0.000000 0.000000 0.045497 0.000000 0.000000
# 5 0.000000 0.000000 0.000000 0.000000 0.034663 0.000000
# 6 0.000000 0.000000 0.000000 0.000000 0.000000 0.053373
#
#
# Mechanical properties :
#
#
# Convention : Reuss Voigt Hill
#
# Bulk Modulus (GPa) = 59.86489 62.56429 61.21459
# Shear Modulus (GPa) = 23.31131 24.14604 23.72868
#
# Velocity S-wave (km/s) = 3.59428 3.65807 3.62631
# Velocity P-wave (km/s) = 7.09940 7.24668 7.17342
#
# Compressibility (1/GPa) = 0.01670428
#
# Stress axis : x y z
#
# Youngs Moduli (GPa) = 75.60962 52.33407 72.92901
#
# Poissons Ratio (x) = 0.29477 0.31510
# Poissons Ratio (y) = 0.42587 0.34405
# Poissons Ratio (z) = 0.32669 0.24689
#
# Static dielectric constant tensor:
#      x y z
#    x 3.750960 0.000000 0.000000 
#    y 0.000000 3.202070 0.000000 
#    z 0.000000 0.000000 3.401640 
# 
# 
# High freq. dielectric constant tensor:
#      x y z
#    x 1.701050 0.000000 0.000000 
#    y 0.000000 1.676750 0.000000 
#    z 0.000000 0.000000 1.708400 
# 
# From -- ./inp_files/7438.got.cif
#   From: 2010.03.12/outbox.cif.g09.slc.cpg/sg57_4_cif.got.tgz:7438.got - 2010.04.16 15:48:40.
