data_PCOD8230822
_publ_section_title
;
Structure prediction by ZEFSAII (Michael W. Deem and Ramdas Pophale) SiO2 
 PCOD8230822
Probable space group: P B C M
;
_chemical_formula_sum "Si O2"
_cell_formula_units_Z 56
_cell_length_a 12.606231
_cell_length_b 27.372902
_cell_length_c 9.582389
_cell_angle_alpha 90.000000
_cell_angle_beta 90.000000
_cell_angle_gamma 90.000000
_cell_volume 3306.586595
_symmetry_space_group_name_H-M "P B C M"
_symmetry_group_IT_number 57
_symmetry_cell_setting 'orthorhombic'
loop_
_space_group_symop_operation_xyz
x,y,z
-x,-y,1/2+z
x,1/2-y,-z
-x,1/2+y,1/2-z
-x,-y,-z
x,y,1/2-z
-x,1/2+y,z
x,1/2-y,1/2+z
loop_
_atom_site_type_symbol
_atom_site_label
_atom_site_fract_x
_atom_site_fract_y
_atom_site_fract_z
Si Si1 0.378100 0.909387 0.413406
Si Si2 0.005210 0.202462 0.587356
Si Si3 0.839796 0.375515 0.415103
Si Si4 0.613746 0.608862 0.586576
Si Si5 0.091118 0.980096 0.406583
Si Si6 0.247259 0.298692 0.412326
Si Si7 0.321363 0.484084 0.908938
O O1 0.356882 0.916258 0.250000
O O2 0.283032 0.874003 0.470054
O O3 0.489031 0.883087 0.446265
O O4 0.371917 0.965366 0.471146
O O5 0.983402 0.250000 0.500000
O O6 0.986386 0.213345 0.750000
O O7 0.125866 0.184007 0.563013
O O8 0.918663 0.165138 0.523477
O O9 0.843398 0.370652 0.250000
O O10 0.883661 0.426979 0.466027
O O11 0.633728 0.599528 0.750000
O O12 0.677248 0.656989 0.536660
O O13 0.647767 0.560920 0.505141
O O14 0.047498 0.976818 0.250000
O O15 0.194503 0.013764 0.413661
O O16 0.000000 0.000000 0.500000
O O17 0.274098 0.250000 0.500000
O O18 0.267739 0.286525 0.250000
O O19 0.360416 0.474657 0.750000
#
# Coordination Sequence:
#
# PCOD8230822 Si02
#       7
#     8   8   8   8   8   8   8
#     4   8  15  30  48  69  96 125 158 192 226 274
#     4   9  17  31  50  69  89 118 154 192 234 280
#     4   8  15  29  49  66  89 125 154 182 228 279
#     4  10  19  30  50  74  93 121 163 201 230 271
#     4   9  18  30  45  67  95 126 156 188 227 275
#     4   9  19  33  48  69  93 118 153 195 239 281
#     4   9  18  31  46  69  99 129 159 188 231 284
#
# _framework density 16.935894999999999
#
# number of rings (size 3 to 8) (size 9 to 14) (size 15 to 20)
#    0.000    3.143    0.000    2.143    2.000    1.143 
#    0.000    1.429    0.000    2.571    0.000    0.000 
#    0.000    0.000    0.000    0.000    0.000    0.000 
#
# Total GULP energy -693919.351027 kJ/mol
# GULP energy per Si atom -12391.416983 kJ/mol
# Density = 1.689735 g / cm^3
# Si number density = 16.935895 Si / 1000 Ang^3
#
#
#
# Elastic Constant Matrix: (Units=GPa)
#
#
# Indices 1 2 3 4 5 6 
#
# 1 130.8225 87.0308 38.1825 0.0000 0.0000 0.0000
# 2 87.0308 107.0667 33.2907 0.0000 0.0000 0.0000
# 3 38.1825 33.2907 35.6800 0.0000 0.0000 0.0000
# 4 0.0000 0.0000 0.0000 26.7638 0.0000 0.0000
# 5 0.0000 0.0000 0.0000 0.0000 18.0149 0.0000
# 6 0.0000 0.0000 0.0000 0.0000 0.0000 32.3069
#
#
#
# Elastic Compliance Matrix: (Units=1/GPa)
#
#
# Indices 1 2 3 4 5 6 
#
# 1 0.018118 -0.012254 -0.007955 0.000000 0.000000 0.000000
# 2 -0.012254 0.021445 -0.006896 0.000000 0.000000 0.000000
# 3 -0.007955 -0.006896 0.042974 0.000000 0.000000 0.000000
# 4 0.000000 0.000000 0.000000 0.037364 0.000000 0.000000
# 5 0.000000 0.000000 0.000000 0.000000 0.055510 0.000000
# 6 0.000000 0.000000 0.000000 0.000000 0.000000 0.030953
#
#
# Mechanical properties :
#
#
# Convention : Reuss Voigt Hill
#
# Bulk Modulus (GPa) = 35.30166 65.61967 50.46066
# Shear Modulus (GPa) = 18.51756 23.08813 20.80285
#
# Velocity S-wave (km/s) = 3.31023 3.69625 3.50855
# Velocity P-wave (km/s) = 5.95817 7.55290 6.80243
#
# Compressibility (1/GPa) = 0.02832728
#
# Stress axis : x y z
#
# Youngs Moduli (GPa) = 55.19483 46.63185 23.26997
#
# Poissons Ratio (x) = 0.57141 0.18512
# Poissons Ratio (y) = 0.67634 0.16046
# Poissons Ratio (z) = 0.43909 0.32155
#
# Static dielectric constant tensor:
#      x y z
#    x 3.505780 0.000000 0.000000 
#    y 0.000000 3.544590 0.000000 
#    z 0.000000 0.000000 3.005970 
# 
# 
# High freq. dielectric constant tensor:
#      x y z
#    x 1.664900 0.000000 0.000000 
#    y 0.000000 1.641280 0.000000 
#    z 0.000000 0.000000 1.622570 
# 
# From -- ./inp_files/13077.got.cif
#   From: 2010.03.12/outbox.cif.g09.slc.cpg/sg57_7_cif.got.tgz:13077.got - 2010.04.16 15:48:40.
