data_PCOD8230588
_publ_section_title
;
Structure prediction by ZEFSAII (Michael W. Deem and Ramdas Pophale) SiO2 
 PCOD8230588
Probable space group: P B C M
;
_chemical_formula_sum "Si O2"
_cell_formula_units_Z 64
_cell_length_a 9.884135
_cell_length_b 18.851078
_cell_length_c 17.535040
_cell_angle_alpha 90.000000
_cell_angle_beta 90.000000
_cell_angle_gamma 90.000000
_cell_volume 3267.244381
_symmetry_space_group_name_H-M "P B C M"
_symmetry_group_IT_number 57
_symmetry_cell_setting 'orthorhombic'
loop_
_space_group_symop_operation_xyz
x,y,z
-x,-y,1/2+z
x,1/2-y,-z
-x,1/2+y,1/2-z
-x,-y,-z
x,y,1/2-z
-x,1/2+y,z
x,1/2-y,1/2+z
loop_
_atom_site_type_symbol
_atom_site_label
_atom_site_fract_x
_atom_site_fract_y
_atom_site_fract_z
Si Si1 0.664017 0.721060 0.659642
Si Si2 0.882803 0.667457 0.340735
Si Si3 0.752195 0.522814 0.340657
Si Si4 0.113143 0.748461 0.910209
Si Si5 0.610951 0.207008 0.340260
Si Si6 0.750666 0.930275 0.339973
Si Si7 0.050866 0.900937 0.339885
Si Si8 0.549007 0.048398 0.340868
O O1 0.676731 0.720447 0.750000
O O2 0.774128 0.776102 0.627865
O O3 0.515985 0.745557 0.634721
O O4 0.693824 0.643360 0.625462
O O5 0.895318 0.668869 0.250000
O O6 0.836664 0.590390 0.370482
O O7 0.027670 0.686285 0.376040
O O8 0.749511 0.525324 0.250000
O O9 0.827253 0.451376 0.368552
O O10 0.598757 0.525163 0.372443
O O11 0.265631 0.757745 0.883513
O O12 0.055608 0.673931 0.881307
O O13 0.104177 0.750000 0.000000
O O14 0.636355 0.209534 0.250000
O O15 0.585953 0.126992 0.369009
O O16 0.729482 0.929515 0.250000
O O17 0.908770 0.939309 0.360272
O O18 0.662788 0.995076 0.374227
O O19 0.060414 0.886304 0.250000
O O20 0.545297 0.047338 0.250000
#
# Coordination Sequence:
#
# PCOD8230588 Si02
#       8
#     8   8   8   8   8   8   8   8
#     4   9  16  30  55  85 111 139 181 231 283 335
#     4  10  18  36  62  85 110 144 187 236 284 339
#     4   9  18  31  56  91 118 140 177 232 290 344
#     4  12  26  40  54  79 116 157 199 240 278 329
#     4  10  20  35  59  85 110 145 188 238 287 336
#     4   9  17  28  49  84 118 140 169 225 285 335
#     4  10  20  36  58  86 115 144 183 232 287 343
#     4   9  17  30  51  86 120 140 174 228 287 343
#
# _framework density 19.588370999999999
#
# number of rings (size 3 to 8) (size 9 to 14) (size 15 to 20)
#    0.000    2.250    2.500    1.125    3.500    0.000 
#    0.000    1.250    0.000    0.750    0.000    0.000 
#    0.000    0.000    0.000    0.000    0.000    0.000 
#
# Total GULP energy -793563.394498 kJ/mol
# GULP energy per Si atom -12399.428039 kJ/mol
# Density = 1.954379 g / cm^3
# Si number density = 19.588371 Si / 1000 Ang^3
#
#
#
# Elastic Constant Matrix: (Units=GPa)
#
#
# Indices 1 2 3 4 5 6 
#
# 1 112.9689 30.9915 21.4429 0.0000 0.0000 0.0000
# 2 30.9915 84.5816 14.9609 0.0000 0.0000 0.0000
# 3 21.4429 14.9609 31.2770 0.0000 0.0000 0.0000
# 4 0.0000 0.0000 0.0000 3.6080 0.0000 0.0000
# 5 0.0000 0.0000 0.0000 0.0000 1.3323 0.0000
# 6 0.0000 0.0000 0.0000 0.0000 0.0000 44.6021
#
#
#
# Elastic Compliance Matrix: (Units=1/GPa)
#
#
# Indices 1 2 3 4 5 6 
#
# 1 0.010786 -0.002888 -0.006013 0.000000 0.000000 0.000000
# 2 -0.002888 0.013689 -0.004568 0.000000 0.000000 0.000000
# 3 -0.006013 -0.004568 0.038280 0.000000 0.000000 0.000000
# 4 0.000000 0.000000 0.000000 0.277158 0.000000 0.000000
# 5 0.000000 0.000000 0.000000 0.000000 0.750588 0.000000
# 6 0.000000 0.000000 0.000000 0.000000 0.000000 0.022420
#
#
# Mechanical properties :
#
#
# Convention : Reuss Voigt Hill
#
# Bulk Modulus (GPa) = 27.92015 40.40201 34.16108
# Shear Modulus (GPa) = 4.34104 20.67064 12.50584
#
# Velocity S-wave (km/s) = 1.49028 3.25199 2.52946
# Velocity P-wave (km/s) = 4.15279 5.89668 5.09983
#
# Compressibility (1/GPa) = 0.03581643
#
# Stress axis : x y z
#
# Youngs Moduli (GPa) = 92.71532 73.05020 26.12357
#
# Poissons Ratio (x) = 0.21100 0.15708
# Poissons Ratio (y) = 0.26780 0.11933
# Poissons Ratio (z) = 0.55748 0.33368
#
# Static dielectric constant tensor:
#      x y z
#    x 3.795170 0.000000 0.000000 
#    y 0.000000 3.823350 0.000000 
#    z 0.000000 0.000000 2.918680 
# 
# 
# High freq. dielectric constant tensor:
#      x y z
#    x 1.781330 0.000000 0.000000 
#    y 0.000000 1.775290 0.000000 
#    z 0.000000 0.000000 1.689170 
# 
# From -- ./inp_files/24592.got.cif
#   From: 2010.03.12/outbox.cif.g09.slc.cpg/sg57_13_cif.got.tgz:24592.got - 2010.04.16 15:48:40.
