data_PCOD8230897
_publ_section_title
;
Structure prediction by ZEFSAII (Michael W. Deem and Ramdas Pophale) SiO2 
 PCOD8230897
Probable space group: P B C M
;
_chemical_formula_sum "Si O2"
_cell_formula_units_Z 64
_cell_length_a 22.509111
_cell_length_b 17.478231
_cell_length_c 9.332623
_cell_angle_alpha 90.000000
_cell_angle_beta 90.000000
_cell_angle_gamma 90.000000
_cell_volume 3671.635330
_symmetry_space_group_name_H-M "P B C M"
_symmetry_group_IT_number 57
_symmetry_cell_setting 'orthorhombic'
loop_
_space_group_symop_operation_xyz
x,y,z
-x,-y,1/2+z
x,1/2-y,-z
-x,1/2+y,1/2-z
-x,-y,-z
x,y,1/2-z
-x,1/2+y,z
x,1/2-y,1/2+z
loop_
_atom_site_type_symbol
_atom_site_label
_atom_site_fract_x
_atom_site_fract_y
_atom_site_fract_z
Si Si1 0.459289 0.440993 0.082856
Si Si2 0.241251 0.030071 0.085763
Si Si3 0.921876 0.615491 0.585050
Si Si4 0.630701 0.023804 0.584317
Si Si5 0.442034 0.827799 0.414880
Si Si6 0.048287 0.823199 0.417235
Si Si7 0.206778 0.174614 0.581997
Si Si8 0.114191 0.526881 0.583815
O O1 0.454868 0.461999 0.250000
O O2 0.489762 0.357443 0.063213
O O3 0.500000 0.500000 0.000000
O O4 0.395126 0.451832 0.008031
O O5 0.238504 0.059414 0.250000
O O6 0.298627 0.976877 0.060270
O O7 0.184293 0.977853 0.049397
O O8 0.243007 0.103135 0.981809
O O9 0.924482 0.591236 0.750000
O O10 0.863342 0.664974 0.551758
O O11 0.922524 0.538153 0.495664
O O12 0.979618 0.663336 0.540710
O O13 0.613249 0.010424 0.750000
O O14 0.604049 0.105761 0.533700
O O15 0.430929 0.750000 0.500000
O O16 0.429998 0.808593 0.250000
O O17 0.072389 0.750000 0.500000
O O18 0.055583 0.808388 0.250000
O O19 0.089718 0.892325 0.470099
O O20 0.228913 0.250000 0.500000
O O21 0.220976 0.181785 0.750000
O O22 0.100521 0.515575 0.750000
#
# Coordination Sequence:
#
# PCOD8230897 Si02
#       8
#     8   8   8   8   8   8   8   8
#     4   9  17  30  49  73  99 126 157 192 233 280
#     4   9  18  34  53  70  94 130 166 201 242 286
#     4   9  18  31  48  70  94 120 154 198 246 298
#     4   9  18  33  52  73  97 128 166 202 238 282
#     4   9  18  31  48  73 101 127 156 192 233 275
#     4  10  20  32  46  68  96 125 158 197 245 298
#     4  10  19  31  48  71  97 123 156 199 246 296
#     4   9  18  32  50  70  92 123 162 199 240 293
#
# _framework density 17.430925999999999
#
# number of rings (size 3 to 8) (size 9 to 14) (size 15 to 20)
#    0.000    2.750    0.000    2.250    0.000    4.500 
#    0.000    1.250    0.000    1.500    0.000    0.000 
#    0.000    0.000    0.000    0.000    0.000    0.000 
#
# Total GULP energy -793398.780567 kJ/mol
# GULP energy per Si atom -12396.855946 kJ/mol
# Density = 1.739125 g / cm^3
# Si number density = 17.430926 Si / 1000 Ang^3
#
#
#
# Elastic Constant Matrix: (Units=GPa)
#
#
# Indices 1 2 3 4 5 6 
#
# 1 50.4742 27.7812 23.8286 0.0000 0.0000 0.0000
# 2 27.7812 107.6124 50.9504 0.0000 0.0000 0.0000
# 3 23.8286 50.9504 67.9564 0.0000 0.0000 0.0000
# 4 0.0000 0.0000 0.0000 34.7983 0.0000 0.0000
# 5 0.0000 0.0000 0.0000 0.0000 22.1442 0.0000
# 6 0.0000 0.0000 0.0000 0.0000 0.0000 18.8233
#
#
#
# Elastic Compliance Matrix: (Units=1/GPa)
#
#
# Indices 1 2 3 4 5 6 
#
# 1 0.024569 -0.003510 -0.005984 0.000000 0.000000 0.000000
# 2 -0.003510 0.014908 -0.009947 0.000000 0.000000 0.000000
# 3 -0.005984 -0.009947 0.024271 0.000000 0.000000 0.000000
# 4 0.000000 0.000000 0.000000 0.028737 0.000000 0.000000
# 5 0.000000 0.000000 0.000000 0.000000 0.045159 0.000000
# 6 0.000000 0.000000 0.000000 0.000000 0.000000 0.053126
#
#
# Mechanical properties :
#
#
# Convention : Reuss Voigt Hill
#
# Bulk Modulus (GPa) = 40.21246 47.90705 44.05976
# Shear Modulus (GPa) = 21.01390 23.38535 22.19962
#
# Velocity S-wave (km/s) = 3.47587 3.66676 3.57259
# Velocity P-wave (km/s) = 6.26328 6.74318 6.50765
#
# Compressibility (1/GPa) = 0.02486791
#
# Stress axis : x y z
#
# Youngs Moduli (GPa) = 40.70232 67.07791 41.20153
#
# Poissons Ratio (x) = 0.23542 0.24653
# Poissons Ratio (y) = 0.14285 0.40982
# Poissons Ratio (z) = 0.24354 0.66720
#
# Static dielectric constant tensor:
#      x y z
#    x 3.514090 0.000000 0.000000 
#    y 0.000000 3.125560 0.000000 
#    z 0.000000 0.000000 3.341530 
# 
# 
# High freq. dielectric constant tensor:
#      x y z
#    x 1.664300 0.000000 0.000000 
#    y 0.000000 1.658570 0.000000 
#    z 0.000000 0.000000 1.676370 
# 
# From -- ./inp_files/9533.got.cif
#   From: 2010.03.12/outbox.cif.g09.slc.cpg/sg57_5_cif.got.tgz:9533.got - 2010.04.16 15:48:40.
