data_PCOD8230448
_publ_section_title
;
Structure prediction by ZEFSAII (Michael W. Deem and Ramdas Pophale) SiO2 
 PCOD8230448
Probable space group: P B C M
;
_chemical_formula_sum "Si O2"
_cell_formula_units_Z 64
_cell_length_a 9.094627
_cell_length_b 19.660637
_cell_length_c 19.047282
_cell_angle_alpha 90.000000
_cell_angle_beta 90.000000
_cell_angle_gamma 90.000000
_cell_volume 3405.771355
_symmetry_space_group_name_H-M "P B C M"
_symmetry_group_IT_number 57
_symmetry_cell_setting 'orthorhombic'
loop_
_space_group_symop_operation_xyz
x,y,z
-x,-y,1/2+z
x,1/2-y,-z
-x,1/2+y,1/2-z
-x,-y,-z
x,y,1/2-z
-x,1/2+y,z
x,1/2-y,1/2+z
loop_
_atom_site_type_symbol
_atom_site_label
_atom_site_fract_x
_atom_site_fract_y
_atom_site_fract_z
Si Si1 0.827664 0.375008 0.930429
Si Si2 0.669930 0.493298 0.003964
Si Si3 0.955624 0.333273 0.429596
Si Si4 0.237388 0.401687 0.102921
Si Si5 0.066269 0.517173 0.174674
Si Si6 0.757899 0.257451 0.834462
Si Si7 0.785937 0.451430 0.138684
Si Si8 0.530574 0.145942 0.826850
O O1 0.707924 0.418999 0.972272
O O2 0.742827 0.330890 0.870954
O O3 0.932032 0.427067 0.887343
O O4 0.917250 0.326200 0.986303
O O5 0.754269 0.554319 0.967142
O O6 0.500000 0.500000 0.000000
O O7 0.706702 0.502260 0.085519
O O8 0.893286 0.276828 0.376414
O O9 0.889510 0.405662 0.410136
O O10 0.131101 0.337780 0.414733
O O11 0.399780 0.373908 0.121218
O O12 0.173229 0.452199 0.162205
O O13 0.115075 0.548674 0.250000
O O14 0.897619 0.492839 0.187370
O O15 0.788857 0.260857 0.750000
O O16 0.607225 0.216539 0.850387
O O17 0.661411 0.409559 0.179722
O O18 0.460165 0.154158 0.750000
#
# Coordination Sequence:
#
# PCOD8230448 Si02
#       8
#     8   8   8   8   8   8   8   8
#     4  10  20  35  57  79 109 144 186 230 271 335
#     4  10  18  32  55  82 109 138 173 223 281 331
#     4   9  19  34  56  79 103 138 185 229 269 310
#     4  10  19  32  53  81 109 136 178 230 276 325
#     4  10  19  31  52  81 112 146 180 224 281 333
#     4  10  21  37  58  78 105 146 189 226 275 330
#     4   9  17  31  51  78 107 136 176 221 267 321
#     4  10  19  31  51  78 107 142 180 223 266 321
#
# _framework density 18.791632
#
# number of rings (size 3 to 8) (size 9 to 14) (size 15 to 20)
#    0.000    2.250    1.250    2.250    0.000    6.500 
#    0.000    0.000    8.250    0.000    0.000    0.000 
#    0.000    0.000    0.000    0.000    0.000    0.000 
#
# Total GULP energy -792867.861253 kJ/mol
# GULP energy per Si atom -12388.560332 kJ/mol
# Density = 1.874886 g / cm^3
# Si number density = 18.791632 Si / 1000 Ang^3
#
#
#
# Elastic Constant Matrix: (Units=GPa)
#
#
# Indices 1 2 3 4 5 6 
#
# 1 95.1270 27.6734 24.2493 0.0000 0.0000 0.0000
# 2 27.6734 59.3995 29.9036 0.0000 0.0000 0.0000
# 3 24.2493 29.9036 107.9069 0.0000 0.0000 0.0000
# 4 0.0000 0.0000 0.0000 25.0553 0.0000 0.0000
# 5 0.0000 0.0000 0.0000 0.0000 18.0557 0.0000
# 6 0.0000 0.0000 0.0000 0.0000 0.0000 20.4398
#
#
#
# Elastic Compliance Matrix: (Units=1/GPa)
#
#
# Indices 1 2 3 4 5 6 
#
# 1 0.012332 -0.005056 -0.001370 0.000000 0.000000 0.000000
# 2 -0.005056 0.021637 -0.004860 0.000000 0.000000 0.000000
# 3 -0.001370 -0.004860 0.010922 0.000000 0.000000 0.000000
# 4 0.000000 0.000000 0.000000 0.039912 0.000000 0.000000
# 5 0.000000 0.000000 0.000000 0.000000 0.055384 0.000000
# 6 0.000000 0.000000 0.000000 0.000000 0.000000 0.048924
#
#
# Mechanical properties :
#
#
# Convention : Reuss Voigt Hill
#
# Bulk Modulus (GPa) = 44.80376 47.34287 46.07332
# Shear Modulus (GPa) = 22.81820 24.75064 23.78442
#
# Velocity S-wave (km/s) = 3.48842 3.63314 3.56152
# Velocity P-wave (km/s) = 6.33401 6.54583 6.44079
#
# Compressibility (1/GPa) = 0.02231955
#
# Stress axis : x y z
#
# Youngs Moduli (GPa) = 81.08787 46.21676 91.55803
#
# Poissons Ratio (x) = 0.23365 0.12547
# Poissons Ratio (y) = 0.40994 0.44498
# Poissons Ratio (z) = 0.11112 0.22462
#
# Static dielectric constant tensor:
#      x y z
#    x 3.386140 0.000000 0.000000 
#    y 0.000000 3.237540 0.000000 
#    z 0.000000 0.000000 3.431460 
# 
# 
# High freq. dielectric constant tensor:
#      x y z
#    x 1.716730 0.000000 0.000000 
#    y 0.000000 1.704520 0.000000 
#    z 0.000000 0.000000 1.743180 
# 
# From -- ./inp_files/21407.got.cif
#   From: 2010.03.12/outbox.cif.g09.slc.cpg/sg57_11_cif.got.tgz:21407.got - 2010.04.16 15:48:40.
