data_PCOD8230799
_publ_section_title
;
Structure prediction by ZEFSAII (Michael W. Deem and Ramdas Pophale) SiO2 
 PCOD8230799
Probable space group: P B C M
;
_chemical_formula_sum "Si O2"
_cell_formula_units_Z 48
_cell_length_a 9.010038
_cell_length_b 19.839046
_cell_length_c 15.716671
_cell_angle_alpha 90.000000
_cell_angle_beta 90.000000
_cell_angle_gamma 90.000000
_cell_volume 2809.363717
_symmetry_space_group_name_H-M "P B C M"
_symmetry_group_IT_number 57
_symmetry_cell_setting 'orthorhombic'
loop_
_space_group_symop_operation_xyz
x,y,z
-x,-y,1/2+z
x,1/2-y,-z
-x,1/2+y,1/2-z
-x,-y,-z
x,y,1/2-z
-x,1/2+y,z
x,1/2-y,1/2+z
loop_
_atom_site_type_symbol
_atom_site_label
_atom_site_fract_x
_atom_site_fract_y
_atom_site_fract_z
Si Si1 0.596510 0.487322 0.111712
Si Si2 0.394456 0.899886 0.965299
Si Si3 0.331298 0.327204 0.506221
Si Si4 0.820891 0.908306 0.655304
Si Si5 0.696407 0.579974 0.844255
Si Si6 0.152624 0.942695 0.848296
O O1 0.524743 0.547835 0.058115
O O2 0.726611 0.522427 0.165491
O O3 0.469089 0.450800 0.166271
O O4 0.674049 0.430470 0.052094
O O5 0.489329 0.831384 0.978672
O O6 0.263757 0.891290 0.897068
O O7 0.284098 0.250000 0.500000
O O8 0.242064 0.356532 0.586569
O O9 0.289936 0.363608 0.416965
O O10 0.823721 0.875097 0.750000
O O11 0.985412 0.927944 0.624612
O O12 0.738464 0.608755 0.750000
O O13 0.807609 0.519790 0.871543
O O14 0.181685 0.928549 0.750000
#
# Coordination Sequence:
#
# PCOD8230799 Si02
#       6
#     8   8   8   8   8   8
#     4   8  14  26  46  70  92 115 146 189 241 282
#     4   8  15  28  45  65  91 120 153 193 231 273
#     4  10  21  34  47  68  95 130 170 197 227 276
#     4  10  19  30  48  75 102 124 152 195 243 289
#     4   9  17  31  50  70  95 124 155 197 245 290
#     4   9  17  29  48  75  99 120 151 195 250 296
#
# _framework density 17.085719000000001
#
# number of rings (size 3 to 8) (size 9 to 14) (size 15 to 20)
#    0.000    3.000    0.000    3.500    0.000    7.333 
#    0.000    0.833    0.000    0.000    0.000    4.667 
#    0.000    0.000    0.000    0.000    0.000    0.000 
#
# Total GULP energy -594635.978103 kJ/mol
# GULP energy per Si atom -12388.249544 kJ/mol
# Density = 1.704683 g / cm^3
# Si number density = 17.085719 Si / 1000 Ang^3
#
#
#
# Elastic Constant Matrix: (Units=GPa)
#
#
# Indices 1 2 3 4 5 6 
#
# 1 97.0581 43.0410 39.6226 0.0000 0.0000 0.0000
# 2 43.0410 78.0673 51.4373 0.0000 0.0000 0.0000
# 3 39.6226 51.4373 97.9315 0.0000 0.0000 0.0000
# 4 0.0000 0.0000 0.0000 14.0156 0.0000 0.0000
# 5 0.0000 0.0000 0.0000 0.0000 26.1666 0.0000
# 6 0.0000 0.0000 0.0000 0.0000 0.0000 12.2390
#
#
#
# Elastic Compliance Matrix: (Units=1/GPa)
#
#
# Indices 1 2 3 4 5 6 
#
# 1 0.014016 -0.006103 -0.002465 0.000000 0.000000 0.000000
# 2 -0.006103 0.022246 -0.009215 0.000000 0.000000 0.000000
# 3 -0.002465 -0.009215 0.016049 0.000000 0.000000 0.000000
# 4 0.000000 0.000000 0.000000 0.071349 0.000000 0.000000
# 5 0.000000 0.000000 0.000000 0.000000 0.038217 0.000000
# 6 0.000000 0.000000 0.000000 0.000000 0.000000 0.081706
#
#
# Mechanical properties :
#
#
# Convention : Reuss Voigt Hill
#
# Bulk Modulus (GPa) = 59.72368 60.13985 59.93177
# Shear Modulus (GPa) = 17.56046 19.74799 18.65422
#
# Velocity S-wave (km/s) = 3.20939 3.40342 3.30783
# Velocity P-wave (km/s) = 6.98318 7.12177 7.05282
#
# Compressibility (1/GPa) = 0.01674378
#
# Stress axis : x y z
#
# Youngs Moduli (GPa) = 71.34714 44.95184 62.31014
#
# Poissons Ratio (x) = 0.27435 0.15361
# Poissons Ratio (y) = 0.43545 0.57420
# Poissons Ratio (z) = 0.17588 0.41424
#
# Static dielectric constant tensor:
#      x y z
#    x 3.192610 0.000000 0.000000 
#    y 0.000000 2.871430 0.000000 
#    z 0.000000 0.000000 3.247500 
# 
# 
# High freq. dielectric constant tensor:
#      x y z
#    x 1.648860 0.000000 0.000000 
#    y 0.000000 1.609630 0.000000 
#    z 0.000000 0.000000 1.671970 
# 
# From -- ./inp_files/16544.got.cif
#   From: 2010.03.12/outbox.cif.g09.slc.cpg/sg57_9_cif.got.tgz:16544.got - 2010.04.16 15:48:40.
