data_PCOD8230326
_publ_section_title
;
Structure prediction by ZEFSAII (Michael W. Deem and Ramdas Pophale) SiO2 
 PCOD8230326
Probable space group: P B C M
;
_chemical_formula_sum "Si O2"
_cell_formula_units_Z 64
_cell_length_a 14.593552
_cell_length_b 29.435245
_cell_length_c 9.080593
_cell_angle_alpha 90.000000
_cell_angle_beta 90.000000
_cell_angle_gamma 90.000000
_cell_volume 3900.702921
_symmetry_space_group_name_H-M "P B C M"
_symmetry_group_IT_number 57
_symmetry_cell_setting 'orthorhombic'
loop_
_space_group_symop_operation_xyz
x,y,z
-x,-y,1/2+z
x,1/2-y,-z
-x,1/2+y,1/2-z
-x,-y,-z
x,y,1/2-z
-x,1/2+y,z
x,1/2-y,1/2+z
loop_
_atom_site_type_symbol
_atom_site_label
_atom_site_fract_x
_atom_site_fract_y
_atom_site_fract_z
Si Si1 0.875207 0.940380 0.080385
Si Si2 0.965768 0.387087 0.921424
Si Si3 0.815179 0.461425 0.919004
Si Si4 0.209371 0.205788 0.921110
Si Si5 0.002893 0.703885 0.923711
Si Si6 0.455419 0.064647 0.421745
Si Si7 0.696158 0.614570 0.921080
Si Si8 0.626056 0.467192 0.077971
O O1 0.902095 0.930472 0.250000
O O2 0.772967 0.923156 0.047251
O O3 0.875601 0.993936 0.042793
O O4 0.945975 0.914078 0.978442
O O5 0.981046 0.376533 0.750000
O O6 0.876498 0.417496 0.948490
O O7 0.947555 0.340055 0.007459
O O8 0.782199 0.464630 0.750000
O O9 0.727499 0.457212 0.022100
O O10 0.220900 0.213651 0.750000
O O11 0.266445 0.162844 0.976051
O O12 0.103766 0.197633 0.961884
O O13 0.249473 0.250000 0.000000
O O14 0.022208 0.706355 0.750000
O O15 0.040232 0.750000 0.000000
O O16 0.470275 0.071501 0.250000
O O17 0.394583 0.105352 0.485292
O O18 0.554638 0.066242 0.497988
O O19 0.401924 0.018490 0.460540
O O20 0.669756 0.615173 0.750000
O O21 0.621804 0.457286 0.250000
#
# Coordination Sequence:
#
# PCOD8230326 Si02
#       8
#     8   8   8   8   8   8   8   8
#     4  10  19  33  49  67  99 140 174 208 247 289
#     4  11  22  33  48  73 101 134 173 210 250 300
#     4  10  21  35  50  69  99 137 174 213 253 291
#     4   9  18  31  47  69  95 127 162 201 246 292
#     4  10  19  34  52  72  97 129 166 208 256 298
#     4  10  20  32  49  73  98 126 161 202 247 293
#     4  10  18  31  50  71  98 132 168 202 245 296
#     4  10  20  33  50  72  96 127 165 205 247 292
#
# _framework density 16.407298999999998
#
# number of rings (size 3 to 8) (size 9 to 14) (size 15 to 20)
#    0.000    2.000    2.500    1.875    0.000    4.000 
#    0.000    0.000    0.000    0.000    0.000    0.875 
#    0.000    2.000    0.000    0.000    0.000    0.000 
#
# Total GULP energy -793787.510440 kJ/mol
# GULP energy per Si atom -12402.929851 kJ/mol
# Density = 1.636996 g / cm^3
# Si number density = 16.407299 Si / 1000 Ang^3
#
#
#
# Elastic Constant Matrix: (Units=GPa)
#
#
# Indices 1 2 3 4 5 6 
#
# 1 58.4874 33.9275 39.8073 0.0000 0.0000 0.0000
# 2 33.9275 114.3981 50.0892 0.0000 0.0000 0.0000
# 3 39.8073 50.0892 78.2740 0.0000 0.0000 0.0000
# 4 0.0000 0.0000 0.0000 29.9623 0.0000 0.0000
# 5 0.0000 0.0000 0.0000 0.0000 28.9311 0.0000
# 6 0.0000 0.0000 0.0000 0.0000 0.0000 21.4698
#
#
#
# Elastic Compliance Matrix: (Units=1/GPa)
#
#
# Indices 1 2 3 4 5 6 
#
# 1 0.026756 -0.002747 -0.011849 0.000000 0.000000 0.000000
# 2 -0.002747 0.012426 -0.006555 0.000000 0.000000 0.000000
# 3 -0.011849 -0.006555 0.022996 0.000000 0.000000 0.000000
# 4 0.000000 0.000000 0.000000 0.033375 0.000000 0.000000
# 5 0.000000 0.000000 0.000000 0.000000 0.034565 0.000000
# 6 0.000000 0.000000 0.000000 0.000000 0.000000 0.046577
#
#
# Mechanical properties :
#
#
# Convention : Reuss Voigt Hill
#
# Bulk Modulus (GPa) = 50.31091 55.42307 52.86699
# Shear Modulus (GPa) = 22.16089 24.56167 23.36128
#
# Velocity S-wave (km/s) = 3.67914 3.87330 3.77747
# Velocity P-wave (km/s) = 6.98415 7.33867 7.16361
#
# Compressibility (1/GPa) = 0.01987641
#
# Stress axis : x y z
#
# Youngs Moduli (GPa) = 37.37492 80.47610 43.48532
#
# Poissons Ratio (x) = 0.22106 0.51527
# Poissons Ratio (y) = 0.10267 0.28503
# Poissons Ratio (z) = 0.44287 0.52750
#
# Static dielectric constant tensor:
#      x y z
#    x 2.873030 0.000000 0.000000 
#    y 0.000000 3.141490 0.000000 
#    z 0.000000 0.000000 3.109620 
# 
# 
# High freq. dielectric constant tensor:
#      x y z
#    x 1.606760 0.000000 0.000000 
#    y 0.000000 1.622790 0.000000 
#    z 0.000000 0.000000 1.640510 
# 
# From -- ./inp_files/6025.got.cif
#   From: 2010.03.12/outbox.cif.g09.slc.cpg/sg57_4_cif.got.tgz:6025.got - 2010.04.16 15:48:40.
