data_PCOD8230337
_publ_section_title
;
Structure prediction by ZEFSAII (Michael W. Deem and Ramdas Pophale) SiO2 
 PCOD8230337
Probable space group: P B C M
;
_chemical_formula_sum "Si O2"
_cell_formula_units_Z 56
_cell_length_a 17.003665
_cell_length_b 21.878371
_cell_length_c 8.881447
_cell_angle_alpha 90.000000
_cell_angle_beta 90.000000
_cell_angle_gamma 90.000000
_cell_volume 3304.009224
_symmetry_space_group_name_H-M "P B C M"
_symmetry_group_IT_number 57
_symmetry_cell_setting 'orthorhombic'
loop_
_space_group_symop_operation_xyz
x,y,z
-x,-y,1/2+z
x,1/2-y,-z
-x,1/2+y,1/2-z
-x,-y,-z
x,y,1/2-z
-x,1/2+y,z
x,1/2-y,1/2+z
loop_
_atom_site_type_symbol
_atom_site_label
_atom_site_fract_x
_atom_site_fract_y
_atom_site_fract_z
Si Si1 0.060596 0.548033 0.570589
Si Si2 0.775920 0.025566 0.420135
Si Si3 0.240326 0.666165 0.418895
Si Si4 0.080885 0.812417 0.073556
Si Si5 0.493554 0.912042 0.417398
Si Si6 0.374733 0.023990 0.079827
Si Si7 0.589119 0.307556 0.575222
O O1 0.057104 0.544029 0.750000
O O2 0.143844 0.523287 0.513707
O O3 0.046288 0.620296 0.521049
O O4 0.000000 0.500000 0.500000
O O5 0.788334 0.999735 0.250000
O O6 0.746762 0.094229 0.411271
O O7 0.710409 0.986958 0.507683
O O8 0.220963 0.690485 0.250000
O O9 0.172851 0.687577 0.532425
O O10 0.321826 0.689895 0.488368
O O11 0.069154 0.805659 0.250000
O O12 0.042490 0.750000 0.000000
O O13 0.500499 0.883973 0.250000
O O14 0.580973 0.928248 0.472622
O O15 0.462059 0.865573 0.539063
O O16 0.430961 0.965925 0.415447
O O17 0.362716 0.048783 0.250000
O O18 0.546343 0.250000 0.500000
O O19 0.593552 0.298923 0.750000
#
# Coordination Sequence:
#
# PCOD8230337 Si02
#       7
#     8   8   8   8   8   8   8
#     4  10  21  36  53  77 106 138 172 212 258 308
#     4  10  18  31  51  74 100 131 166 205 249 299
#     4   9  18  30  45  66  95 130 167 203 240 286
#     4  10  20  32  49  72 100 133 171 207 247 299
#     4  10  20  32  47  67  93 126 164 206 249 289
#     4  10  19  31  49  71  96 125 160 205 248 291
#     4  11  21  32  44  63  92 128 168 207 248 296
#
# _framework density 16.949107000000001
#
# number of rings (size 3 to 8) (size 9 to 14) (size 15 to 20)
#    0.000    2.000    1.429    3.000    0.000    5.714 
#    0.000    0.000    0.000    0.000    0.000    1.000 
#    0.000    2.286    0.000    0.000    0.000    0.000 
#
# Total GULP energy -693886.085154 kJ/mol
# GULP energy per Si atom -12390.822949 kJ/mol
# Density = 1.691053 g / cm^3
# Si number density = 16.949107 Si / 1000 Ang^3
#
#
#
# Elastic Constant Matrix: (Units=GPa)
#
#
# Indices 1 2 3 4 5 6 
#
# 1 74.7872 39.6507 37.9918 0.0000 0.0000 0.0000
# 2 39.6507 74.6320 36.0292 0.0000 0.0000 0.0000
# 3 37.9918 36.0292 83.7471 0.0000 0.0000 0.0000
# 4 0.0000 0.0000 0.0000 27.6904 0.0000 0.0000
# 5 0.0000 0.0000 0.0000 0.0000 36.6359 0.0000
# 6 0.0000 0.0000 0.0000 0.0000 0.0000 28.2990
#
#
#
# Elastic Compliance Matrix: (Units=1/GPa)
#
#
# Indices 1 2 3 4 5 6 
#
# 1 0.020676 -0.008149 -0.005874 0.000000 0.000000 0.000000
# 2 -0.008149 0.020123 -0.004961 0.000000 0.000000 0.000000
# 3 -0.005874 -0.004961 0.016739 0.000000 0.000000 0.000000
# 4 0.000000 0.000000 0.000000 0.036114 0.000000 0.000000
# 5 0.000000 0.000000 0.000000 0.000000 0.027296 0.000000
# 6 0.000000 0.000000 0.000000 0.000000 0.000000 0.035337
#
#
# Mechanical properties :
#
#
# Convention : Reuss Voigt Hill
#
# Bulk Modulus (GPa) = 51.09382 51.16774 51.13078
# Shear Modulus (GPa) = 24.90357 26.49137 25.69747
#
# Velocity S-wave (km/s) = 3.83732 3.95776 3.89801
# Velocity P-wave (km/s) = 7.06005 7.15121 7.10577
#
# Compressibility (1/GPa) = 0.01957184
#
# Stress axis : x y z
#
# Youngs Moduli (GPa) = 48.36639 49.69383 59.73950
#
# Poissons Ratio (x) = 0.40496 0.35089
# Poissons Ratio (y) = 0.39414 0.29634
# Poissons Ratio (z) = 0.28409 0.24651
#
# Static dielectric constant tensor:
#      x y z
#    x 2.951960 0.000000 0.000000 
#    y 0.000000 3.273130 0.000000 
#    z 0.000000 0.000000 3.341470 
# 
# 
# High freq. dielectric constant tensor:
#      x y z
#    x 1.620100 0.000000 0.000000 
#    y 0.000000 1.638260 0.000000 
#    z 0.000000 0.000000 1.671600 
# 
# From -- ./inp_files/6990.got.cif
#   From: 2010.03.12/outbox.cif.g09.slc.cpg/sg57_4_cif.got.tgz:6990.got - 2010.04.16 15:48:40.
