data_PCOD8230970
_publ_section_title
;
Structure prediction by ZEFSAII (Michael W. Deem and Ramdas Pophale) SiO2 
 PCOD8230970
Probable space group: P B C M
;
_chemical_formula_sum "Si O2"
_cell_formula_units_Z 56
_cell_length_a 17.919095
_cell_length_b 19.189778
_cell_length_c 8.903406
_cell_angle_alpha 90.000000
_cell_angle_beta 90.000000
_cell_angle_gamma 90.000000
_cell_volume 3061.555949
_symmetry_space_group_name_H-M "P B C M"
_symmetry_group_IT_number 57
_symmetry_cell_setting 'orthorhombic'
loop_
_space_group_symop_operation_xyz
x,y,z
-x,-y,1/2+z
x,1/2-y,-z
-x,1/2+y,1/2-z
-x,-y,-z
x,y,1/2-z
-x,1/2+y,z
x,1/2-y,1/2+z
loop_
_atom_site_type_symbol
_atom_site_label
_atom_site_fract_x
_atom_site_fract_y
_atom_site_fract_z
Si Si1 0.362254 0.174353 0.573330
Si Si2 0.524026 0.177027 0.576609
Si Si3 0.197229 0.563830 0.572435
Si Si4 0.314566 0.825473 0.427298
Si Si5 0.766850 0.589407 0.425651
Si Si6 0.972394 0.071305 0.928374
Si Si7 0.915182 0.675199 0.426639
O O1 0.351043 0.250000 0.500000
O O2 0.350380 0.183643 0.750000
O O3 0.444748 0.140964 0.534259
O O4 0.303312 0.120072 0.511704
O O5 0.525318 0.250000 0.500000
O O6 0.523388 0.193550 0.750000
O O7 0.603136 0.140218 0.534952
O O8 0.204591 0.561034 0.750000
O O9 0.253096 0.621886 0.505139
O O10 0.219260 0.487906 0.509696
O O11 0.113424 0.583067 0.525464
O O12 0.303697 0.750000 0.500000
O O13 0.303789 0.816461 0.250000
O O14 0.748737 0.589285 0.250000
O O15 0.839763 0.634133 0.461277
O O16 0.983013 0.067105 0.750000
O O17 0.016256 0.136264 0.995807
O O18 0.000000 0.000000 0.000000
O O19 0.906838 0.750000 0.500000
O O20 0.930695 0.681450 0.250000
#
# Coordination Sequence:
#
# PCOD8230970 Si02
#       7
#     8   8   8   8   8   8   8
#     4  10  19  31  49  76 106 137 177 220 264 312
#     4   8  15  28  48  73 101 135 173 214 260 312
#     4   9  19  36  57  79 105 140 178 215 262 323
#     4   9  17  33  56  78 104 137 174 218 266 312
#     4  10  20  36  54  75 106 142 181 218 262 319
#     4  11  21  38  60  82 108 143 183 224 270 326
#     4  11  23  39  58  83 111 142 183 228 273 323
#
# _framework density 18.291352
#
# number of rings (size 3 to 8) (size 9 to 14) (size 15 to 20)
#    0.000    2.286    1.429    1.714    0.000    3.429 
#    0.000    4.286    0.000    0.000    0.000    0.000 
#    0.000    0.000    0.000    0.000    0.000    0.000 
#
# Total GULP energy -693977.668203 kJ/mol
# GULP energy per Si atom -12392.458361 kJ/mol
# Density = 1.824972 g / cm^3
# Si number density = 18.291352 Si / 1000 Ang^3
#
#
#
# Elastic Constant Matrix: (Units=GPa)
#
#
# Indices 1 2 3 4 5 6 
#
# 1 186.1342 82.3492 62.1860 0.0000 0.0000 0.0000
# 2 82.3492 121.3611 42.9238 0.0000 0.0000 0.0000
# 3 62.1860 42.9238 55.6803 0.0000 0.0000 0.0000
# 4 0.0000 0.0000 0.0000 27.4553 0.0000 0.0000
# 5 0.0000 0.0000 0.0000 0.0000 38.4748 0.0000
# 6 0.0000 0.0000 0.0000 0.0000 0.0000 322.0601
#
#
#
# Elastic Compliance Matrix: (Units=1/GPa)
#
#
# Indices 1 2 3 4 5 6 
#
# 1 0.009683 -0.003775 -0.007905 0.000000 0.000000 0.000000
# 2 -0.003775 0.012800 -0.005652 0.000000 0.000000 0.000000
# 3 -0.007905 -0.005652 0.031145 0.000000 0.000000 0.000000
# 4 0.000000 0.000000 0.000000 0.036423 0.000000 0.000000
# 5 0.000000 0.000000 0.000000 0.000000 0.025991 0.000000
# 6 0.000000 0.000000 0.000000 0.000000 0.000000 0.003105
#
#
# Mechanical properties :
#
#
# Convention : Reuss Voigt Hill
#
# Bulk Modulus (GPa) = 52.72646 82.01041 67.36844
# Shear Modulus (GPa) = 31.22412 89.31248 60.26830
#
# Velocity S-wave (km/s) = 4.13612 6.99526 5.74635
# Velocity P-wave (km/s) = 7.19016 10.49657 8.99656
#
# Compressibility (1/GPa) = 0.01896581
#
# Stress axis : x y z
#
# Youngs Moduli (GPa) = 103.26855 78.12356 32.10779
#
# Poissons Ratio (x) = 0.29490 0.25381
# Poissons Ratio (y) = 0.38982 0.18147
# Poissons Ratio (z) = 0.81633 0.44154
#
# Static dielectric constant tensor:
#      x y z
#    x 4.170980 0.000000 0.000000 
#    y 0.000000 3.288940 0.000000 
#    z 0.000000 0.000000 3.312230 
# 
# 
# High freq. dielectric constant tensor:
#      x y z
#    x 1.733490 0.000000 0.000000 
#    y 0.000000 1.689950 0.000000 
#    z 0.000000 0.000000 1.701280 
# 
# From -- ./inp_files/7068.got.cif
#   From: 2010.03.12/outbox.cif.g09.slc.cpg/sg57_4_cif.got.tgz:7068.got - 2010.04.16 15:48:40.
