data_PCOD8230130
_publ_section_title
;
Structure prediction by ZEFSAII (Michael W. Deem and Ramdas Pophale) SiO2 
 PCOD8230130
Probable space group: P B C M
;
_chemical_formula_sum "Si O2"
_cell_formula_units_Z 56
_cell_length_a 17.478351
_cell_length_b 21.528815
_cell_length_c 9.395698
_cell_angle_alpha 90.000000
_cell_angle_beta 90.000000
_cell_angle_gamma 90.000000
_cell_volume 3535.490149
_symmetry_space_group_name_H-M "P B C M"
_symmetry_group_IT_number 57
_symmetry_cell_setting 'orthorhombic'
loop_
_space_group_symop_operation_xyz
x,y,z
-x,-y,1/2+z
x,1/2-y,-z
-x,1/2+y,1/2-z
-x,-y,-z
x,y,1/2-z
-x,1/2+y,z
x,1/2-y,1/2+z
loop_
_atom_site_type_symbol
_atom_site_label
_atom_site_fract_x
_atom_site_fract_y
_atom_site_fract_z
Si Si1 0.783378 0.890331 0.917045
Si Si2 0.536531 0.914082 0.412179
Si Si3 0.336697 0.187430 0.917508
Si Si4 0.602090 0.451487 0.915459
Si Si5 0.085047 0.561259 0.592827
Si Si6 0.748922 0.032021 0.583092
Si Si7 0.048958 0.416544 0.906845
O O1 0.772655 0.874764 0.750000
O O2 0.872669 0.885176 0.962285
O O3 0.752167 0.958885 0.949977
O O4 0.739572 0.841564 0.015153
O O5 0.507026 0.913653 0.250000
O O6 0.591485 0.856928 0.444919
O O7 0.463753 0.908720 0.515785
O O8 0.583170 0.976687 0.443420
O O9 0.323074 0.199131 0.750000
O O10 0.356610 0.250000 0.000000
O O11 0.608790 0.435016 0.750000
O O12 0.682078 0.436337 0.991876
O O13 0.082234 0.589978 0.750000
O O14 0.171871 0.564919 0.534023
O O15 0.060566 0.489968 0.597540
O O16 0.024838 0.601101 0.500954
O O17 0.734283 0.042880 0.750000
O O18 0.030841 0.391422 0.750000
#
# Coordination Sequence:
#
# PCOD8230130 Si02
#       7
#     8   8   8   8   8   8   8
#     4   9  17  29  44  61  84 116 151 184 222 263
#     4   9  19  33  45  62  87 114 146 183 227 273
#     4  11  22  35  49  66  88 115 151 190 228 270
#     4  10  18  28  45  67  88 113 149 186 222 271
#     4   8  14  23  35  55  82 114 146 173 207 250
#     4   9  16  26  41  61  89 120 148 180 220 265
#     4   8  14  24  37  55  80 111 145 178 210 247
#
# _framework density 15.839388
#
# number of rings (size 3 to 8) (size 9 to 14) (size 15 to 20)
#    0.000    2.857    1.429    2.571    0.000    2.857 
#    0.000    2.857    0.000    0.000    0.000    0.000 
#    0.000    1.143    0.000    6.286    0.000    5.000 
#
# Total GULP energy -694165.801160 kJ/mol
# GULP energy per Si atom -12395.817878 kJ/mol
# Density = 1.580334 g / cm^3
# Si number density = 15.839388 Si / 1000 Ang^3
#
#
#
# Elastic Constant Matrix: (Units=GPa)
#
#
# Indices 1 2 3 4 5 6 
#
# 1 139.9292 32.4065 76.5646 0.0000 0.0000 0.0000
# 2 32.4065 42.5102 30.8928 0.0000 0.0000 0.0000
# 3 76.5646 30.8928 91.2388 0.0000 0.0000 0.0000
# 4 0.0000 0.0000 0.0000 17.1505 0.0000 0.0000
# 5 0.0000 0.0000 0.0000 0.0000 34.5680 0.0000
# 6 0.0000 0.0000 0.0000 0.0000 0.0000 13.6876
#
#
#
# Elastic Compliance Matrix: (Units=1/GPa)
#
#
# Indices 1 2 3 4 5 6 
#
# 1 0.013447 -0.002720 -0.010363 0.000000 0.000000 0.000000
# 2 -0.002720 0.031751 -0.008468 0.000000 0.000000 0.000000
# 3 -0.010363 -0.008468 0.022524 0.000000 0.000000 0.000000
# 4 0.000000 0.000000 0.000000 0.058307 0.000000 0.000000
# 5 0.000000 0.000000 0.000000 0.000000 0.028928 0.000000
# 6 0.000000 0.000000 0.000000 0.000000 0.000000 0.073059
#
#
# Mechanical properties :
#
#
# Convention : Reuss Voigt Hill
#
# Bulk Modulus (GPa) = 40.61850 61.48958 51.05404
# Shear Modulus (GPa) = 17.90025 22.00217 19.95121
#
# Velocity S-wave (km/s) = 3.36536 3.73108 3.55293
# Velocity P-wave (km/s) = 6.38753 7.58065 7.00952
#
# Compressibility (1/GPa) = 0.02461932
#
# Stress axis : x y z
#
# Youngs Moduli (GPa) = 74.36762 31.49486 44.39697
#
# Poissons Ratio (x) = 0.08566 0.46009
# Poissons Ratio (y) = 0.20225 0.37598
# Poissons Ratio (z) = 0.77069 0.26671
#
# Static dielectric constant tensor:
#      x y z
#    x 3.166850 0.000000 0.000000 
#    y 0.000000 2.505170 0.000000 
#    z 0.000000 0.000000 3.165610 
# 
# 
# High freq. dielectric constant tensor:
#      x y z
#    x 1.620020 0.000000 0.000000 
#    y 0.000000 1.540230 0.000000 
#    z 0.000000 0.000000 1.614670 
# 
# From -- ./inp_files/7009.got.cif
#   From: 2010.03.12/outbox.cif.g09.slc.cpg/sg57_4_cif.got.tgz:7009.got - 2010.04.16 15:48:40.
