data_PCOD8230366
_publ_section_title
;
Structure prediction by ZEFSAII (Michael W. Deem and Ramdas Pophale) SiO2 
 PCOD8230366
Probable space group: P B C M
;
_chemical_formula_sum "Si O2"
_cell_formula_units_Z 64
_cell_length_a 12.704107
_cell_length_b 28.644021
_cell_length_c 8.789836
_cell_angle_alpha 90.000000
_cell_angle_beta 90.000000
_cell_angle_gamma 90.000000
_cell_volume 3198.592382
_symmetry_space_group_name_H-M "P B C M"
_symmetry_group_IT_number 57
_symmetry_cell_setting 'orthorhombic'
loop_
_space_group_symop_operation_xyz
x,y,z
-x,-y,1/2+z
x,1/2-y,-z
-x,1/2+y,1/2-z
-x,-y,-z
x,y,1/2-z
-x,1/2+y,z
x,1/2-y,1/2+z
loop_
_atom_site_type_symbol
_atom_site_label
_atom_site_fract_x
_atom_site_fract_y
_atom_site_fract_z
Si Si1 0.612461 0.799421 0.426644
Si Si2 0.274374 0.455444 0.070838
Si Si3 0.948810 0.954825 0.573462
Si Si4 0.327034 0.941958 0.570664
Si Si5 0.525974 0.603849 0.575576
Si Si6 0.868865 0.117075 0.427107
Si Si7 0.033382 0.699538 0.570612
Si Si8 0.823164 0.698738 0.068829
O O1 0.576190 0.750000 0.500000
O O2 0.637537 0.789995 0.250000
O O3 0.524489 0.839706 0.446939
O O4 0.714485 0.822766 0.507714
O O5 0.254136 0.457489 0.250000
O O6 0.314921 0.505485 0.007770
O O7 0.361313 0.417078 0.026254
O O8 0.164608 0.441580 0.993832
O O9 0.935320 0.965146 0.750000
O O10 0.025683 0.911857 0.542720
O O11 0.000000 0.000000 0.500000
O O12 0.321179 0.943443 0.750000
O O13 0.436750 0.919401 0.524595
O O14 0.230680 0.911219 0.507567
O O15 0.503485 0.590858 0.750000
O O16 0.854946 0.129245 0.250000
O O17 0.872476 0.164998 0.523500
O O18 0.056282 0.750000 0.500000
O O19 0.022458 0.704762 0.750000
O O20 0.927977 0.675328 0.499598
O O21 0.827622 0.697677 0.250000
O O22 0.822945 0.750000 0.000000
#
# Coordination Sequence:
#
# PCOD8230366 Si02
#       8
#     8   8   8   8   8   8   8   8
#     4  10  20  36  55  82 115 152 193 243 295 347
#     4  10  21  40  61  88 123 157 194 245 300 353
#     4  11  22  38  61  90 124 159 198 241 295 361
#     4  10  21  40  63  84 117 157 196 243 299 354
#     4  10  23  39  60  88 119 151 199 250 293 353
#     4  10  22  40  59  86 122 159 200 247 296 352
#     4  11  22  37  58  85 117 157 200 246 298 355
#     4  10  18  31  52  78 111 149 187 233 286 347
#
# _framework density 20.008800999999998
#
# number of rings (size 3 to 8) (size 9 to 14) (size 15 to 20)
#    0.000    1.750    1.250    4.875    1.750    3.500 
#    0.000    0.625    0.000    1.500    0.000    0.000 
#    0.000    0.000    0.000    0.000    0.000    0.000 
#
# Total GULP energy -793481.382774 kJ/mol
# GULP energy per Si atom -12398.146606 kJ/mol
# Density = 1.996326 g / cm^3
# Si number density = 20.008801 Si / 1000 Ang^3
#
#
#
# Elastic Constant Matrix: (Units=GPa)
#
#
# Indices 1 2 3 4 5 6 
#
# 1 98.5660 36.0065 31.2015 0.0000 0.0000 0.0000
# 2 36.0065 95.9116 36.8975 0.0000 0.0000 0.0000
# 3 31.2015 36.8975 98.9566 0.0000 0.0000 0.0000
# 4 0.0000 0.0000 0.0000 25.0566 0.0000 0.0000
# 5 0.0000 0.0000 0.0000 0.0000 33.8748 0.0000
# 6 0.0000 0.0000 0.0000 0.0000 0.0000 23.6833
#
#
#
# Elastic Compliance Matrix: (Units=1/GPa)
#
#
# Indices 1 2 3 4 5 6 
#
# 1 0.012270 -0.003640 -0.002512 0.000000 0.000000 0.000000
# 2 -0.003640 0.013252 -0.003794 0.000000 0.000000 0.000000
# 3 -0.002512 -0.003794 0.012312 0.000000 0.000000 0.000000
# 4 0.000000 0.000000 0.000000 0.039910 0.000000 0.000000
# 5 0.000000 0.000000 0.000000 0.000000 0.029520 0.000000
# 6 0.000000 0.000000 0.000000 0.000000 0.000000 0.042224
#
#
# Mechanical properties :
#
#
# Convention : Reuss Voigt Hill
#
# Bulk Modulus (GPa) = 55.72976 55.73835 55.73406
# Shear Modulus (GPa) = 28.51274 29.14487 28.82880
#
# Velocity S-wave (km/s) = 3.77903 3.82069 3.79991
# Velocity P-wave (km/s) = 6.85233 6.88338 6.86787
#
# Compressibility (1/GPa) = 0.01794373
#
# Stress axis : x y z
#
# Youngs Moduli (GPa) = 81.49749 75.45898 81.22277
#
# Poissons Ratio (x) = 0.27469 0.20400
# Poissons Ratio (y) = 0.29667 0.30812
# Poissons Ratio (z) = 0.20469 0.28626
#
# Static dielectric constant tensor:
#      x y z
#    x 3.945440 0.000000 0.000000 
#    y 0.000000 3.989790 0.000000 
#    z 0.000000 0.000000 3.582080 
# 
# 
# High freq. dielectric constant tensor:
#      x y z
#    x 1.769800 0.000000 0.000000 
#    y 0.000000 1.788130 0.000000 
#    z 0.000000 0.000000 1.778660 
# 
# From -- ./inp_files/3816.got.cif
#   From: 2010.03.12/outbox.cif.g09.slc.cpg/sg57_2_cif.got.tgz:3816.got - 2010.04.16 15:48:40.
