data_PCOD8230338
_publ_section_title
;
Structure prediction by ZEFSAII (Michael W. Deem and Ramdas Pophale) SiO2 
 PCOD8230338
Probable space group: P B C M
;
_chemical_formula_sum "Si O2"
_cell_formula_units_Z 56
_cell_length_a 18.930129
_cell_length_b 18.217331
_cell_length_c 8.934302
_cell_angle_alpha 90.000000
_cell_angle_beta 90.000000
_cell_angle_gamma 90.000000
_cell_volume 3081.051455
_symmetry_space_group_name_H-M "P B C M"
_symmetry_group_IT_number 57
_symmetry_cell_setting 'orthorhombic'
loop_
_space_group_symop_operation_xyz
x,y,z
-x,-y,1/2+z
x,1/2-y,-z
-x,1/2+y,1/2-z
-x,-y,-z
x,y,1/2-z
-x,1/2+y,z
x,1/2-y,1/2+z
loop_
_atom_site_type_symbol
_atom_site_label
_atom_site_fract_x
_atom_site_fract_y
_atom_site_fract_z
Si Si1 0.068720 0.529401 0.579048
Si Si2 0.417492 0.920866 0.076168
Si Si3 0.784654 0.535323 0.077454
Si Si4 0.560414 0.909574 0.575801
Si Si5 0.145830 0.675146 0.928521
Si Si6 0.698437 0.674105 0.424429
Si Si7 0.723919 0.396514 0.573108
O O1 0.048048 0.537549 0.750000
O O2 0.131279 0.470462 0.554700
O O3 0.094129 0.609077 0.519384
O O4 0.000000 0.500000 0.500000
O O5 0.408404 0.902635 0.250000
O O6 0.414777 0.007624 0.044095
O O7 0.491762 0.888311 0.019621
O O8 0.355281 0.881196 0.984325
O O9 0.764025 0.516082 0.250000
O O10 0.760608 0.617026 0.034870
O O11 0.744612 0.479237 0.970052
O O12 0.542821 0.899179 0.750000
O O13 0.623114 0.856724 0.519935
O O14 0.150011 0.680514 0.750000
O O15 0.115755 0.750000 0.000000
O O16 0.223963 0.660790 0.992763
O O17 0.718143 0.750000 0.500000
O O18 0.694840 0.687994 0.250000
O O19 0.728264 0.385333 0.750000
#
# Coordination Sequence:
#
# PCOD8230338 Si02
#       7
#     8   8   8   8   8   8   8
#     4   9  19  35  59  85 113 144 178 218 263 314
#     4  10  18  31  51  74 102 135 175 226 275 325
#     4   9  18  36  55  75 105 142 179 222 270 316
#     4   9  18  32  49  71 100 135 176 226 276 326
#     4  10  21  38  58  83 114 148 181 221 273 326
#     4  10  20  35  53  73 104 141 180 225 276 324
#     4  11  20  31  53  82 108 138 179 225 267 324
#
# _framework density 18.175612999999998
#
# number of rings (size 3 to 8) (size 9 to 14) (size 15 to 20)
#    0.000    2.286    1.429    3.000    0.000    4.571 
#    0.000    1.429    0.000    5.143    0.000    0.000 
#    0.000    0.000    0.000    0.000    0.000    0.000 
#
# Total GULP energy -694437.882859 kJ/mol
# GULP energy per Si atom -12400.676480 kJ/mol
# Density = 1.813424 g / cm^3
# Si number density = 18.175613 Si / 1000 Ang^3
#
#
#
# Elastic Constant Matrix: (Units=GPa)
#
#
# Indices 1 2 3 4 5 6 
#
# 1 117.5311 56.7325 47.9443 0.0000 0.0000 0.0000
# 2 56.7325 111.1191 37.0719 0.0000 0.0000 0.0000
# 3 47.9443 37.0719 77.5923 0.0000 0.0000 0.0000
# 4 0.0000 0.0000 0.0000 29.3959 0.0000 0.0000
# 5 0.0000 0.0000 0.0000 0.0000 32.5080 0.0000
# 6 0.0000 0.0000 0.0000 0.0000 0.0000 21.0223
#
#
#
# Elastic Compliance Matrix: (Units=1/GPa)
#
#
# Indices 1 2 3 4 5 6 
#
# 1 0.013218 -0.004787 -0.005880 0.000000 0.000000 0.000000
# 2 -0.004787 0.012439 -0.002986 0.000000 0.000000 0.000000
# 3 -0.005880 -0.002986 0.017948 0.000000 0.000000 0.000000
# 4 0.000000 0.000000 0.000000 0.034018 0.000000 0.000000
# 5 0.000000 0.000000 0.000000 0.000000 0.030762 0.000000
# 6 0.000000 0.000000 0.000000 0.000000 0.000000 0.047568
#
#
# Mechanical properties :
#
#
# Convention : Reuss Voigt Hill
#
# Bulk Modulus (GPa) = 61.35045 65.52664 63.43854
# Shear Modulus (GPa) = 26.49837 27.55151 27.02494
#
# Velocity S-wave (km/s) = 3.82240 3.89762 3.86019
# Velocity P-wave (km/s) = 7.30127 7.50902 7.40587
#
# Compressibility (1/GPa) = 0.01629980
#
# Stress axis : x y z
#
# Youngs Moduli (GPa) = 75.65688 80.39100 55.71736
#
# Poissons Ratio (x) = 0.38479 0.32763
# Poissons Ratio (y) = 0.36213 0.16635
# Poissons Ratio (z) = 0.44488 0.24001
#
# Static dielectric constant tensor:
#      x y z
#    x 3.378140 0.000000 0.000000 
#    y 0.000000 3.306870 0.000000 
#    z 0.000000 0.000000 3.303450 
# 
# 
# High freq. dielectric constant tensor:
#      x y z
#    x 1.702420 0.000000 0.000000 
#    y 0.000000 1.684710 0.000000 
#    z 0.000000 0.000000 1.703700 
# 
# From -- ./inp_files/8343.got.cif
#   From: 2010.03.12/outbox.cif.g09.slc.cpg/sg57_5_cif.got.tgz:8343.got - 2010.04.16 15:48:40.
