data_PCOD8230621
_publ_section_title
;
Structure prediction by ZEFSAII (Michael W. Deem and Ramdas Pophale) SiO2 
 PCOD8230621
Probable space group: P B C M
;
_chemical_formula_sum "Si O2"
_cell_formula_units_Z 64
_cell_length_a 18.215685
_cell_length_b 26.129735
_cell_length_c 8.815560
_cell_angle_alpha 90.000000
_cell_angle_beta 90.000000
_cell_angle_gamma 90.000000
_cell_volume 4195.951102
_symmetry_space_group_name_H-M "P B C M"
_symmetry_group_IT_number 57
_symmetry_cell_setting 'orthorhombic'
loop_
_space_group_symop_operation_xyz
x,y,z
-x,-y,1/2+z
x,1/2-y,-z
-x,1/2+y,1/2-z
-x,-y,-z
x,y,1/2-z
-x,1/2+y,z
x,1/2-y,1/2+z
loop_
_atom_site_type_symbol
_atom_site_label
_atom_site_fract_x
_atom_site_fract_y
_atom_site_fract_z
Si Si1 0.328846 0.003533 0.573558
Si Si2 0.965204 0.450787 0.074114
Si Si3 0.454444 0.544473 0.575285
Si Si4 0.824187 0.993111 0.922230
Si Si5 0.917262 0.608229 0.427057
Si Si6 0.410591 0.393212 0.425312
Si Si7 0.825581 0.695569 0.569556
Si Si8 0.671191 0.804043 0.570490
O O1 0.339098 0.996659 0.750000
O O2 0.373036 0.955871 0.497426
O O3 0.243783 0.000307 0.533147
O O4 0.362541 0.057920 0.521093
O O5 0.987367 0.447944 0.250000
O O6 0.877171 0.457275 0.055986
O O7 0.000000 0.500000 0.000000
O O8 0.999329 0.401968 0.986204
O O9 0.500000 0.500000 0.500000
O O10 0.445691 0.531675 0.750000
O O11 0.501895 0.596404 0.551827
O O12 0.795414 0.990465 0.750000
O O13 0.867154 0.941055 0.962014
O O14 0.919059 0.621710 0.250000
O O15 0.887482 0.655639 0.522360
O O16 0.393251 0.380471 0.250000
O O17 0.390698 0.345386 0.530541
O O18 0.847840 0.750000 0.500000
O O19 0.819497 0.699559 0.750000
O O20 0.747908 0.677272 0.501264
O O21 0.647118 0.750000 0.500000
O O22 0.680032 0.798508 0.750000
#
# Coordination Sequence:
#
# PCOD8230621 Si02
#       8
#     8   8   8   8   8   8   8   8
#     4  10  19  28  42  63  87 114 145 178 212 251
#     4   9  17  29  43  61  85 114 145 179 216 255
#     4   9  17  29  44  60  83 111 140 175 212 251
#     4   9  18  29  42  61  87 116 146 177 211 253
#     4  10  19  31  46  64  85 113 148 182 217 259
#     4   9  18  31  44  61  84 113 146 178 213 254
#     4  11  21  33  47  63  86 114 145 182 218 255
#     4  11  21  32  46  63  85 113 144 181 217 252
#
# _framework density 15.252799
#
# number of rings (size 3 to 8) (size 9 to 14) (size 15 to 20)
#    0.000    2.250    0.000    6.750    0.000    8.000 
#    0.000    0.000    0.000    0.000    0.000    0.000 
#    0.000    1.000    0.000    8.250    0.000    4.875 
#
# Total GULP energy -793329.768882 kJ/mol
# GULP energy per Si atom -12395.777639 kJ/mol
# Density = 1.521808 g / cm^3
# Si number density = 15.252799 Si / 1000 Ang^3
#
#
#
# Elastic Constant Matrix: (Units=GPa)
#
#
# Indices 1 2 3 4 5 6 
#
# 1 74.2014 39.3704 39.4867 0.0000 0.0000 0.0000
# 2 39.3704 65.7941 40.4751 0.0000 0.0000 0.0000
# 3 39.4867 40.4751 105.3483 0.0000 0.0000 0.0000
# 4 0.0000 0.0000 0.0000 23.5986 0.0000 0.0000
# 5 0.0000 0.0000 0.0000 0.0000 28.3804 0.0000
# 6 0.0000 0.0000 0.0000 0.0000 0.0000 25.4662
#
#
#
# Elastic Compliance Matrix: (Units=1/GPa)
#
#
# Indices 1 2 3 4 5 6 
#
# 1 0.020944 -0.010088 -0.003975 0.000000 0.000000 0.000000
# 2 -0.010088 0.024762 -0.005732 0.000000 0.000000 0.000000
# 3 -0.003975 -0.005732 0.013185 0.000000 0.000000 0.000000
# 4 0.000000 0.000000 0.000000 0.042375 0.000000 0.000000
# 5 0.000000 0.000000 0.000000 0.000000 0.035236 0.000000
# 6 0.000000 0.000000 0.000000 0.000000 0.000000 0.039268
#
#
# Mechanical properties :
#
#
# Convention : Reuss Voigt Hill
#
# Bulk Modulus (GPa) = 51.81074 53.77869 52.79472
# Shear Modulus (GPa) = 22.54356 23.88982 23.21669
#
# Velocity S-wave (km/s) = 3.84864 3.96189 3.90568
# Velocity P-wave (km/s) = 7.33424 7.50090 7.41804
#
# Compressibility (1/GPa) = 0.01930102
#
# Stress axis : x y z
#
# Youngs Moduli (GPa) = 47.74538 40.38480 75.84652
#
# Poissons Ratio (x) = 0.40739 0.30146
# Poissons Ratio (y) = 0.48164 0.43479
# Poissons Ratio (z) = 0.18977 0.23150
#
# Static dielectric constant tensor:
#      x y z
#    x 3.142720 0.000000 0.000000 
#    y 0.000000 2.812190 0.000000 
#    z 0.000000 0.000000 3.130950 
# 
# 
# High freq. dielectric constant tensor:
#      x y z
#    x 1.572360 0.000000 0.000000 
#    y 0.000000 1.548510 0.000000 
#    z 0.000000 0.000000 1.604040 
# 
# From -- ./inp_files/7405.got.cif
#   From: 2010.03.12/outbox.cif.g09.slc.cpg/sg57_4_cif.got.tgz:7405.got - 2010.04.16 15:48:40.
