data_PCOD8230124
_publ_section_title
;
Structure prediction by ZEFSAII (Michael W. Deem and Ramdas Pophale) SiO2 
 PCOD8230124
Probable space group: P B C M
;
_chemical_formula_sum "Si O2"
_cell_formula_units_Z 56
_cell_length_a 13.842357
_cell_length_b 28.025612
_cell_length_c 8.829613
_cell_angle_alpha 90.000000
_cell_angle_beta 90.000000
_cell_angle_gamma 90.000000
_cell_volume 3425.364716
_symmetry_space_group_name_H-M "P B C M"
_symmetry_group_IT_number 57
_symmetry_cell_setting 'orthorhombic'
loop_
_space_group_symop_operation_xyz
x,y,z
-x,-y,1/2+z
x,1/2-y,-z
-x,1/2+y,1/2-z
-x,-y,-z
x,y,1/2-z
-x,1/2+y,z
x,1/2-y,1/2+z
loop_
_atom_site_type_symbol
_atom_site_label
_atom_site_fract_x
_atom_site_fract_y
_atom_site_fract_z
Si Si1 0.599762 0.015161 0.571316
Si Si2 0.766707 0.200384 0.429906
Si Si3 0.788146 0.538456 0.071082
Si Si4 0.974938 0.298721 0.429317
Si Si5 0.294797 0.609297 0.571784
Si Si6 0.078503 0.106106 0.927510
Si Si7 0.892640 0.053703 0.570581
O O1 0.592601 0.011008 0.750000
O O2 0.624240 0.070001 0.526738
O O3 0.500000 0.000000 0.500000
O O4 0.683161 0.978839 0.512565
O O5 0.728701 0.250000 0.500000
O O6 0.771194 0.204503 0.250000
O O7 0.872656 0.188487 0.495627
O O8 0.691758 0.158816 0.480512
O O9 0.786002 0.542592 0.250000
O O10 0.868015 0.499718 0.015315
O O11 0.820115 0.589478 0.001961
O O12 0.016564 0.250000 0.500000
O O13 0.958505 0.293714 0.250000
O O14 0.054054 0.339191 0.467387
O O15 0.298161 0.619978 0.750000
O O16 0.192056 0.588866 0.518207
O O17 0.088097 0.099079 0.750000
O O18 0.993329 0.072709 0.996585
O O19 0.896041 0.055216 0.750000
#
# Coordination Sequence:
#
# PCOD8230124 Si02
#       7
#     8   8   8   8   8   8   8
#     4   9  19  34  53  72  95 124 154 194 243 287
#     4  11  20  29  44  67  94 126 162 197 231 273
#     4   9  18  30  45  66  91 121 154 188 226 273
#     4  10  19  31  45  62  90 127 164 198 233 272
#     4   9  16  31  49  66  93 128 158 191 236 281
#     4  10  18  28  44  64  90 125 156 190 230 267
#     4   8  14  27  43  60  90 125 153 182 223 265
#
# _framework density 16.348624000000001
#
# number of rings (size 3 to 8) (size 9 to 14) (size 15 to 20)
#    0.000    2.571    1.429    4.714    0.000    2.286 
#    0.000    2.143    0.000    0.000    0.000    1.000 
#    0.000    4.571    0.000    0.000    0.000    0.000 
#
# Total GULP energy -694006.590317 kJ/mol
# GULP energy per Si atom -12392.974827 kJ/mol
# Density = 1.631141 g / cm^3
# Si number density = 16.348624 Si / 1000 Ang^3
#
#
#
# Elastic Constant Matrix: (Units=GPa)
#
#
# Indices 1 2 3 4 5 6 
#
# 1 82.4609 64.1064 31.8262 0.0000 0.0000 0.0000
# 2 64.1064 128.3529 49.8849 0.0000 0.0000 0.0000
# 3 31.8262 49.8849 64.1379 0.0000 0.0000 0.0000
# 4 0.0000 0.0000 0.0000 27.9712 0.0000 0.0000
# 5 0.0000 0.0000 0.0000 0.0000 22.7060 0.0000
# 6 0.0000 0.0000 0.0000 0.0000 0.0000 19.2790
#
#
#
# Elastic Compliance Matrix: (Units=1/GPa)
#
#
# Indices 1 2 3 4 5 6 
#
# 1 0.020253 -0.008900 -0.003128 0.000000 0.000000 0.000000
# 2 -0.008900 0.015077 -0.007311 0.000000 0.000000 0.000000
# 3 -0.003128 -0.007311 0.022829 0.000000 0.000000 0.000000
# 4 0.000000 0.000000 0.000000 0.035751 0.000000 0.000000
# 5 0.000000 0.000000 0.000000 0.000000 0.044041 0.000000
# 6 0.000000 0.000000 0.000000 0.000000 0.000000 0.051870
#
#
# Mechanical properties :
#
#
# Convention : Reuss Voigt Hill
#
# Bulk Modulus (GPa) = 51.32564 62.95408 57.13986
# Shear Modulus (GPa) = 21.27723 22.60017 21.93870
#
# Velocity S-wave (km/s) = 3.61150 3.72208 3.66721
# Velocity P-wave (km/s) = 6.98951 7.55399 7.27722
#
# Compressibility (1/GPa) = 0.01948344
#
# Stress axis : x y z
#
# Youngs Moduli (GPa) = 49.37544 66.32463 43.80304
#
# Poissons Ratio (x) = 0.59028 0.13701
# Poissons Ratio (y) = 0.43943 0.32023
# Poissons Ratio (z) = 0.15444 0.48487
#
# Static dielectric constant tensor:
#      x y z
#    x 3.634080 0.000000 0.000000 
#    y 0.000000 3.434250 0.000000 
#    z 0.000000 0.000000 2.882150 
# 
# 
# High freq. dielectric constant tensor:
#      x y z
#    x 1.584240 0.000000 0.000000 
#    y 0.000000 1.634810 0.000000 
#    z 0.000000 0.000000 1.619090 
# 
# From -- ./inp_files/5912.got.cif
#   From: 2010.03.12/outbox.cif.g09.slc.cpg/sg57_3_cif.got.tgz:5912.got - 2010.04.16 15:48:40.
