data_PCOD8230454
_publ_section_title
;
Structure prediction by ZEFSAII (Michael W. Deem and Ramdas Pophale) SiO2 
 PCOD8230454
Probable space group: P B C M
;
_chemical_formula_sum "Si O2"
_cell_formula_units_Z 56
_cell_length_a 21.453641
_cell_length_b 15.065165
_cell_length_c 8.717516
_cell_angle_alpha 90.000000
_cell_angle_beta 90.000000
_cell_angle_gamma 90.000000
_cell_volume 2817.524199
_symmetry_space_group_name_H-M "P B C M"
_symmetry_group_IT_number 57
_symmetry_cell_setting 'orthorhombic'
loop_
_space_group_symop_operation_xyz
x,y,z
-x,-y,1/2+z
x,1/2-y,-z
-x,1/2+y,1/2-z
-x,-y,-z
x,y,1/2-z
-x,1/2+y,z
x,1/2-y,1/2+z
loop_
_atom_site_type_symbol
_atom_site_label
_atom_site_fract_x
_atom_site_fract_y
_atom_site_fract_z
Si Si1 0.790257 0.998358 0.072743
Si Si2 0.582025 0.341788 0.429926
Si Si3 0.113998 0.347057 0.068981
Si Si4 0.011754 0.651957 0.432617
Si Si5 0.558400 0.657675 0.931187
Si Si6 0.647411 0.996642 0.071754
Si Si7 0.861884 0.152806 0.931081
O O1 0.801907 0.022614 0.250000
O O2 0.829713 0.912082 0.024356
O O3 0.718978 0.972610 0.040766
O O4 0.806805 0.084871 0.972455
O O5 0.605686 0.250000 0.500000
O O6 0.582936 0.332088 0.250000
O O7 0.511856 0.364311 0.487700
O O8 0.630633 0.415251 0.481012
O O9 0.105149 0.336960 0.250000
O O10 0.128024 0.250000 0.000000
O O11 0.051477 0.392429 0.997211
O O12 0.011193 0.750000 0.500000
O O13 0.012142 0.650458 0.250000
O O14 0.075145 0.608481 0.497415
O O15 0.562034 0.664796 0.750000
O O16 0.604620 0.582326 0.993796
O O17 0.581854 0.750000 0.000000
O O18 0.633754 0.012961 0.250000
O O19 0.869019 0.162995 0.750000
O O20 0.847526 0.250000 0.000000
#
# Coordination Sequence:
#
# PCOD8230454 Si02
#       7
#     8   8   8   8   8   8   8
#     4  10  23  40  56  78 110 149 189 225 268 324
#     4  10  20  35  57  85 113 143 181 225 274 326
#     4  10  20  36  57  81 111 144 181 227 275 324
#     4  10  18  32  56  83 110 140 178 224 276 329
#     4   9  19  35  57  85 114 144 180 224 274 324
#     4  10  21  38  57  79 111 148 185 227 272 319
#     4  11  22  38  60  83 110 142 180 228 278 329
#
# _framework density 19.875606000000001
#
# number of rings (size 3 to 8) (size 9 to 14) (size 15 to 20)
#    0.000    2.000    0.000    5.571    0.000    4.571 
#    0.000    0.000    0.000    0.000    0.000    0.000 
#    0.000    0.000    0.000    0.000    0.000    0.000 
#
# Total GULP energy -694462.465362 kJ/mol
# GULP energy per Si atom -12401.115453 kJ/mol
# Density = 1.983037 g / cm^3
# Si number density = 19.875606 Si / 1000 Ang^3
#
#
#
# Elastic Constant Matrix: (Units=GPa)
#
#
# Indices 1 2 3 4 5 6 
#
# 1 73.8448 30.5443 22.4916 0.0000 0.0000 0.0000
# 2 30.5443 85.5263 27.2704 0.0000 0.0000 0.0000
# 3 22.4916 27.2704 92.9873 0.0000 0.0000 0.0000
# 4 0.0000 0.0000 0.0000 32.1799 0.0000 0.0000
# 5 0.0000 0.0000 0.0000 0.0000 25.7145 0.0000
# 6 0.0000 0.0000 0.0000 0.0000 0.0000 31.9169
#
#
#
# Elastic Compliance Matrix: (Units=1/GPa)
#
#
# Indices 1 2 3 4 5 6 
#
# 1 0.016392 -0.005063 -0.002480 0.000000 0.000000 0.000000
# 2 -0.005063 0.014462 -0.003017 0.000000 0.000000 0.000000
# 3 -0.002480 -0.003017 0.012239 0.000000 0.000000 0.000000
# 4 0.000000 0.000000 0.000000 0.031075 0.000000 0.000000
# 5 0.000000 0.000000 0.000000 0.000000 0.038889 0.000000
# 6 0.000000 0.000000 0.000000 0.000000 0.000000 0.031331
#
#
# Mechanical properties :
#
#
# Convention : Reuss Voigt Hill
#
# Bulk Modulus (GPa) = 45.51032 45.88566 45.69799
# Shear Modulus (GPa) = 28.92985 29.43240 29.18112
#
# Velocity S-wave (km/s) = 3.81930 3.85233 3.83585
# Velocity P-wave (km/s) = 6.51127 6.55163 6.53148
#
# Compressibility (1/GPa) = 0.02197304
#
# Stress axis : x y z
#
# Youngs Moduli (GPa) = 61.00707 69.14449 81.70805
#
# Poissons Ratio (x) = 0.35010 0.20262
# Poissons Ratio (y) = 0.30889 0.24649
# Poissons Ratio (z) = 0.15129 0.20859
#
# Static dielectric constant tensor:
#      x y z
#    x 3.964340 0.000000 0.000000 
#    y 0.000000 3.422540 0.000000 
#    z 0.000000 0.000000 3.660190 
# 
# 
# High freq. dielectric constant tensor:
#      x y z
#    x 1.777290 0.000000 0.000000 
#    y 0.000000 1.770170 0.000000 
#    z 0.000000 0.000000 1.776900 
# 
# From -- ./inp_files/8207.got.cif
#   From: 2010.03.12/outbox.cif.g09.slc.cpg/sg57_5_cif.got.tgz:8207.got - 2010.04.16 15:48:40.
