data_PCOD8230104
_publ_section_title
;
Structure prediction by ZEFSAII (Michael W. Deem and Ramdas Pophale) SiO2 
 PCOD8230104
Probable space group: P B C M
;
_chemical_formula_sum "Si O2"
_cell_formula_units_Z 64
_cell_length_a 18.392609
_cell_length_b 24.934291
_cell_length_c 9.173232
_cell_angle_alpha 90.000000
_cell_angle_beta 90.000000
_cell_angle_gamma 90.000000
_cell_volume 4206.905335
_symmetry_space_group_name_H-M "P B C M"
_symmetry_group_IT_number 57
_symmetry_cell_setting 'orthorhombic'
loop_
_space_group_symop_operation_xyz
x,y,z
-x,-y,1/2+z
x,1/2-y,-z
-x,1/2+y,1/2-z
-x,-y,-z
x,y,1/2-z
-x,1/2+y,z
x,1/2-y,1/2+z
loop_
_atom_site_type_symbol
_atom_site_label
_atom_site_fract_x
_atom_site_fract_y
_atom_site_fract_z
Si Si1 0.491080 0.081036 0.580709
Si Si2 0.434491 0.303149 0.421213
Si Si3 0.240972 0.995839 0.422524
Si Si4 0.090978 0.952420 0.089307
Si Si5 0.269849 0.300403 0.417401
Si Si6 0.176135 0.096395 0.920072
Si Si7 0.388813 0.516024 0.419693
Si Si8 0.038994 0.425673 0.587741
O O1 0.514490 0.077023 0.750000
O O2 0.476404 0.142454 0.534161
O O3 0.554852 0.059982 0.477925
O O4 0.419381 0.044253 0.555658
O O5 0.467184 0.250000 0.500000
O O6 0.440977 0.293523 0.250000
O O7 0.351554 0.312203 0.472378
O O8 0.249572 0.004683 0.250000
O O9 0.176148 0.953127 0.455666
O O10 0.315132 0.974443 0.491155
O O11 0.221174 0.051609 0.496481
O O12 0.082054 0.926910 0.250000
O O13 0.061883 0.012776 0.092743
O O14 0.042667 0.918575 0.975745
O O15 0.235650 0.250000 0.500000
O O16 0.271663 0.285237 0.250000
O O17 0.219084 0.349903 0.450416
O O18 0.171112 0.081357 0.750000
O O19 0.095475 0.105101 0.983872
O O20 0.373887 0.526735 0.250000
O O21 0.040142 0.400865 0.750000
#
# Coordination Sequence:
#
# PCOD8230104 Si02
#       8
#     8   8   8   8   8   8   8   8
#     4   9  18  32  46  61  86 116 144 177 216 259
#     4   9  17  30  46  63  84 110 142 179 217 255
#     4  10  19  29  42  61  84 111 143 175 210 252
#     4   8  15  26  38  54  78 107 136 166 199 237
#     4   9  18  30  43  60  82 109 140 175 213 249
#     4  10  18  28  42  59  82 112 144 176 210 249
#     4  10  19  30  45  64  86 114 147 180 216 259
#     4   9  16  25  38  57  79 105 137 169 202 238
#
# _framework density 15.213082
#
# number of rings (size 3 to 8) (size 9 to 14) (size 15 to 20)
#    0.000    2.750    0.000    3.000    0.000    7.500 
#    0.000    2.500    0.000    0.000    0.000    0.000 
#    0.000    1.000    0.000    3.250    0.000    4.250 
#
# Total GULP energy -793367.861682 kJ/mol
# GULP energy per Si atom -12396.372839 kJ/mol
# Density = 1.517846 g / cm^3
# Si number density = 15.213082 Si / 1000 Ang^3
#
#
#
# Elastic Constant Matrix: (Units=GPa)
#
#
# Indices 1 2 3 4 5 6 
#
# 1 97.7569 34.5127 54.2437 0.0000 0.0000 0.0000
# 2 34.5127 70.5390 42.2764 0.0000 0.0000 0.0000
# 3 54.2437 42.2764 83.9187 0.0000 0.0000 0.0000
# 4 0.0000 0.0000 0.0000 22.0056 0.0000 0.0000
# 5 0.0000 0.0000 0.0000 0.0000 28.9168 0.0000
# 6 0.0000 0.0000 0.0000 0.0000 0.0000 204.9988
#
#
#
# Elastic Compliance Matrix: (Units=1/GPa)
#
#
# Indices 1 2 3 4 5 6 
#
# 1 0.016222 -0.002367 -0.009293 0.000000 0.000000 0.000000
# 2 -0.002367 0.020654 -0.008875 0.000000 0.000000 0.000000
# 3 -0.009293 -0.008875 0.022394 0.000000 0.000000 0.000000
# 4 0.000000 0.000000 0.000000 0.045443 0.000000 0.000000
# 5 0.000000 0.000000 0.000000 0.000000 0.034582 0.000000
# 6 0.000000 0.000000 0.000000 0.000000 0.000000 0.004878
#
#
# Mechanical properties :
#
#
# Convention : Reuss Voigt Hill
#
# Bulk Modulus (GPa) = 54.94617 57.14225 56.04421
# Shear Modulus (GPa) = 26.13578 59.26303 42.69941
#
# Velocity S-wave (km/s) = 4.14935 6.24819 5.30363
# Velocity P-wave (km/s) = 7.69105 9.47080 8.62694
#
# Compressibility (1/GPa) = 0.01819963
#
# Stress axis : x y z
#
# Youngs Moduli (GPa) = 61.64594 48.41744 44.65494
#
# Poissons Ratio (x) = 0.11462 0.41497
# Poissons Ratio (y) = 0.14593 0.39630
# Poissons Ratio (z) = 0.57287 0.42969
#
# Static dielectric constant tensor:
#      x y z
#    x 3.011860 0.000000 0.000000 
#    y 0.000000 2.633390 0.000000 
#    z 0.000000 0.000000 3.081780 
# 
# 
# High freq. dielectric constant tensor:
#      x y z
#    x 1.577690 0.000000 0.000000 
#    y 0.000000 1.537800 0.000000 
#    z 0.000000 0.000000 1.596680 
# 
# From -- ./inp_files/7360.got.cif
#   From: 2010.03.12/outbox.cif.g09.slc.cpg/sg57_4_cif.got.tgz:7360.got - 2010.04.16 15:48:40.
