data_PCOD8230539
_publ_section_title
;
Structure prediction by ZEFSAII (Michael W. Deem and Ramdas Pophale) SiO2 
 PCOD8230539
Probable space group: P B C M
;
_chemical_formula_sum "Si O2"
_cell_formula_units_Z 64
_cell_length_a 21.693699
_cell_length_b 17.885328
_cell_length_c 8.732879
_cell_angle_alpha 90.000000
_cell_angle_beta 90.000000
_cell_angle_gamma 90.000000
_cell_volume 3388.347639
_symmetry_space_group_name_H-M "P B C M"
_symmetry_group_IT_number 57
_symmetry_cell_setting 'orthorhombic'
loop_
_space_group_symop_operation_xyz
x,y,z
-x,-y,1/2+z
x,1/2-y,-z
-x,1/2+y,1/2-z
-x,-y,-z
x,y,1/2-z
-x,1/2+y,z
x,1/2-y,1/2+z
loop_
_atom_site_type_symbol
_atom_site_label
_atom_site_fract_x
_atom_site_fract_y
_atom_site_fract_z
Si Si1 0.755879 0.100768 0.570010
Si Si2 0.505165 0.171089 0.430809
Si Si3 0.879552 0.171947 0.568554
Si Si4 0.379445 0.906664 0.432178
Si Si5 0.935671 0.475736 0.931255
Si Si6 0.274042 0.331307 0.570013
Si Si7 0.821782 0.953316 0.930166
Si Si8 0.610140 0.924178 0.931420
O O1 0.750220 0.095776 0.750000
O O2 0.807504 0.161172 0.521276
O O3 0.687880 0.121043 0.507994
O O4 0.776130 0.018848 0.512238
O O5 0.485866 0.250000 0.500000
O O6 0.506853 0.177876 0.250000
O O7 0.571727 0.147397 0.490414
O O8 0.453958 0.111929 0.486418
O O9 0.903104 0.250000 0.500000
O O10 0.888320 0.171357 0.750000
O O11 0.919342 0.105318 0.498498
O O12 0.386734 0.901370 0.250000
O O13 0.388701 0.991178 0.492597
O O14 0.939750 0.470424 0.750000
O O15 0.885849 0.538661 0.979341
O O16 0.000000 0.500000 0.000000
O O17 0.269880 0.250000 0.500000
O O18 0.282189 0.323289 0.750000
O O19 0.210770 0.374912 0.530095
O O20 0.332564 0.376482 0.501442
O O21 0.835748 0.961395 0.750000
O O22 0.616058 0.925271 0.750000
#
# Coordination Sequence:
#
# PCOD8230539 Si02
#       8
#     8   8   8   8   8   8   8   8
#     4   8  15  30  55  80 104 138 179 220 271 330
#     4  11  23  37  50  72 104 141 182 229 280 334
#     4  10  20  36  58  87 119 153 190 231 278 331
#     4  10  18  34  58  80 102 137 181 228 280 334
#     4  11  22  38  61  88 117 152 193 234 277 327
#     4  10  19  33  55  82 111 144 181 225 278 334
#     4   9  17  34  57  80 109 144 182 222 270 331
#     4   9  18  34  57  78 102 139 184 227 277 335
#
# _framework density 18.888262999999998
#
# number of rings (size 3 to 8) (size 9 to 14) (size 15 to 20)
#    0.000    2.250    1.250    3.375    0.000    1.000 
#    0.000    6.875    0.000    1.500    0.000    0.000 
#    0.000    0.000    0.000    0.000    0.000    0.000 
#
# Total GULP energy -793493.363563 kJ/mol
# GULP energy per Si atom -12398.333806 kJ/mol
# Density = 1.884527 g / cm^3
# Si number density = 18.888263 Si / 1000 Ang^3
#
#
#
# Elastic Constant Matrix: (Units=GPa)
#
#
# Indices 1 2 3 4 5 6 
#
# 1 132.1261 35.2134 40.5038 0.0000 0.0000 0.0000
# 2 35.2134 72.0100 35.9701 0.0000 0.0000 0.0000
# 3 40.5038 35.9701 67.9957 0.0000 0.0000 0.0000
# 4 0.0000 0.0000 0.0000 29.8407 0.0000 0.0000
# 5 0.0000 0.0000 0.0000 0.0000 24.7529 0.0000
# 6 0.0000 0.0000 0.0000 0.0000 0.0000 21.4045
#
#
#
# Elastic Compliance Matrix: (Units=1/GPa)
#
#
# Indices 1 2 3 4 5 6 
#
# 1 0.009578 -0.002492 -0.004387 0.000000 0.000000 0.000000
# 2 -0.002492 0.019523 -0.008843 0.000000 0.000000 0.000000
# 3 -0.004387 -0.008843 0.021998 0.000000 0.000000 0.000000
# 4 0.000000 0.000000 0.000000 0.033511 0.000000 0.000000
# 5 0.000000 0.000000 0.000000 0.000000 0.040399 0.000000
# 6 0.000000 0.000000 0.000000 0.000000 0.000000 0.046719
#
#
# Mechanical properties :
#
#
# Convention : Reuss Voigt Hill
#
# Bulk Modulus (GPa) = 50.87977 55.05628 52.96802
# Shear Modulus (GPa) = 23.84089 25.89595 24.86842
#
# Velocity S-wave (km/s) = 3.55661 3.70673 3.63244
# Velocity P-wave (km/s) = 6.62281 6.89431 6.75992
#
# Compressibility (1/GPa) = 0.01965418
#
# Stress axis : x y z
#
# Youngs Moduli (GPa) = 104.41124 51.22172 45.45869
#
# Poissons Ratio (x) = 0.12766 0.19942
# Poissons Ratio (y) = 0.26022 0.40200
# Poissons Ratio (z) = 0.45803 0.45296
#
# Static dielectric constant tensor:
#      x y z
#    x 3.666600 0.000000 0.000000 
#    y 0.000000 3.466500 0.000000 
#    z 0.000000 0.000000 3.212330 
# 
# 
# High freq. dielectric constant tensor:
#      x y z
#    x 1.739420 0.000000 0.000000 
#    y 0.000000 1.732660 0.000000 
#    z 0.000000 0.000000 1.709920 
# 
# From -- ./inp_files/8447.got.cif
#   From: 2010.03.12/outbox.cif.g09.slc.cpg/sg57_5_cif.got.tgz:8447.got - 2010.04.16 15:48:40.
