data_PCOD8230817
_publ_section_title
;
Structure prediction by ZEFSAII (Michael W. Deem and Ramdas Pophale) SiO2 
 PCOD8230817
Probable space group: P B C M
;
_chemical_formula_sum "Si O2"
_cell_formula_units_Z 44
_cell_length_a 11.557433
_cell_length_b 9.909666
_cell_length_c 21.685554
_cell_angle_alpha 90.000000
_cell_angle_beta 90.000000
_cell_angle_gamma 90.000000
_cell_volume 2483.653024
_symmetry_space_group_name_H-M "P B C M"
_symmetry_group_IT_number 57
_symmetry_cell_setting 'orthorhombic'
loop_
_space_group_symop_operation_xyz
x,y,z
-x,-y,1/2+z
x,1/2-y,-z
-x,1/2+y,1/2-z
-x,-y,-z
x,y,1/2-z
-x,1/2+y,z
x,1/2-y,1/2+z
loop_
_atom_site_type_symbol
_atom_site_label
_atom_site_fract_x
_atom_site_fract_y
_atom_site_fract_z
Si Si1 0.134361 0.750000 0.000000
Si Si2 0.982444 0.807555 0.382150
Si Si3 0.711503 0.064306 0.414907
Si Si4 0.522136 0.874564 0.955828
Si Si5 0.900849 0.428222 0.678869
Si Si6 0.256335 0.258424 0.431839
O O1 0.213375 0.631110 0.029274
O O2 0.053861 0.811281 0.053965
O O3 0.853738 0.743731 0.387523
O O4 0.041611 0.717616 0.329687
O O5 0.974726 0.961010 0.358737
O O6 0.585827 0.135028 0.408869
O O7 0.772436 0.082271 0.349097
O O8 0.687877 0.907002 0.426862
O O9 0.645935 0.859697 0.919488
O O10 0.523159 0.750000 0.000000
O O11 0.500000 0.000000 0.000000
O O12 0.892663 0.467831 0.750000
O O13 0.204481 0.250000 0.500000
#
# Coordination Sequence:
#
# PCOD8230817 Si02
#       6
#     4   8   8   8   8   8
#     4  10  20  30  52  86 110 130 176 208 286 316
#     4  10  21  34  57  78 110 138 170 227 263 324
#     4  10  20  32  51  78 106 142 166 220 262 315
#     4  11  19  31  50  77 111 137 166 210 267 332
#     4  10  22  38  55  75 103 146 184 214 256 310
#     4  10  19  30  49  77 113 134 165 208 270 324
#
# _framework density 17.715838999999999
#
# number of rings (size 3 to 8) (size 9 to 14) (size 15 to 20)
#    0.000    1.818    5.455    0.545    2.545    2.182 
#    0.000    0.000    0.000    5.455    0.000    0.000 
#    0.000    0.000    0.000    0.000    0.000    0.000 
#
# Total GULP energy -545147.737771 kJ/mol
# GULP energy per Si atom -12389.721313 kJ/mol
# Density = 1.767552 g / cm^3
# Si number density = 17.715839 Si / 1000 Ang^3
#
#
#
# Elastic Constant Matrix: (Units=GPa)
#
#
# Indices 1 2 3 4 5 6 
#
# 1 90.7143 28.9980 25.1452 0.0000 0.0000 0.0000
# 2 28.9980 44.9514 10.7537 0.0000 0.0000 0.0000
# 3 25.1452 10.7537 82.7153 0.0000 0.0000 0.0000
# 4 0.0000 0.0000 0.0000 18.7915 0.0000 0.0000
# 5 0.0000 0.0000 0.0000 0.0000 13.2084 0.0000
# 6 0.0000 0.0000 0.0000 0.0000 0.0000 32.6762
#
#
#
# Elastic Compliance Matrix: (Units=1/GPa)
#
#
# Indices 1 2 3 4 5 6 
#
# 1 0.014734 -0.008704 -0.003347 0.000000 0.000000 0.000000
# 2 -0.008704 0.028102 -0.001008 0.000000 0.000000 0.000000
# 3 -0.003347 -0.001008 0.013238 0.000000 0.000000 0.000000
# 4 0.000000 0.000000 0.000000 0.053215 0.000000 0.000000
# 5 0.000000 0.000000 0.000000 0.000000 0.075710 0.000000
# 6 0.000000 0.000000 0.000000 0.000000 0.000000 0.030603
#
#
# Mechanical properties :
#
#
# Convention : Reuss Voigt Hill
#
# Bulk Modulus (GPa) = 33.38188 38.68607 36.03398
# Shear Modulus (GPa) = 19.86446 23.16750 21.51598
#
# Velocity S-wave (km/s) = 3.35219 3.62018 3.48876
# Velocity P-wave (km/s) = 5.81951 6.27365 6.05084
#
# Compressibility (1/GPa) = 0.02995637
#
# Stress axis : x y z
#
# Youngs Moduli (GPa) = 67.87103 35.58448 75.53863
#
# Poissons Ratio (x) = 0.30972 0.25286
# Poissons Ratio (y) = 0.59074 0.07611
# Poissons Ratio (z) = 0.22719 0.03585
#
# Static dielectric constant tensor:
#      x y z
#    x 4.412610 0.000000 0.000000 
#    y 0.000000 3.238840 0.000000 
#    z 0.000000 0.000000 2.986370 
# 
# 
# High freq. dielectric constant tensor:
#      x y z
#    x 1.698680 0.000000 0.000000 
#    y 0.000000 1.691430 0.000000 
#    z 0.000000 0.000000 1.641630 
# 
# From -- ./inp_files/27125.got.cif
#   From: 2010.03.12/outbox.cif.g09.slc.cpg/sg57_14_cif.got.tgz:27125.got - 2010.04.16 15:48:40.
