data_PCOD8230854
_publ_section_title
;
Structure prediction by ZEFSAII (Michael W. Deem and Ramdas Pophale) SiO2 
 PCOD8230854
Probable space group: P B C M
;
_chemical_formula_sum "Si O2"
_cell_formula_units_Z 56
_cell_length_a 16.429672
_cell_length_b 20.774674
_cell_length_c 8.875439
_cell_angle_alpha 90.000000
_cell_angle_beta 90.000000
_cell_angle_gamma 90.000000
_cell_volume 3029.374423
_symmetry_space_group_name_H-M "P B C M"
_symmetry_group_IT_number 57
_symmetry_cell_setting 'orthorhombic'
loop_
_space_group_symop_operation_xyz
x,y,z
-x,-y,1/2+z
x,1/2-y,-z
-x,1/2+y,1/2-z
-x,-y,-z
x,y,1/2-z
-x,1/2+y,z
x,1/2-y,1/2+z
loop_
_atom_site_type_symbol
_atom_site_label
_atom_site_fract_x
_atom_site_fract_y
_atom_site_fract_z
Si Si1 0.553862 0.087435 0.418680
Si Si2 0.604306 0.561062 0.580846
Si Si3 0.837394 0.314019 0.926889
Si Si4 0.010560 0.315411 0.072976
Si Si5 0.240780 0.033669 0.416605
Si Si6 0.070258 0.455761 0.072407
Si Si7 0.292590 0.609586 0.915238
O O1 0.553723 0.115391 0.250000
O O2 0.464468 0.098575 0.487072
O O3 0.618706 0.127018 0.518778
O O4 0.580744 0.013511 0.417028
O O5 0.606694 0.588439 0.750000
O O6 0.692989 0.575919 0.507884
O O7 0.850107 0.306983 0.750000
O O8 0.799373 0.250000 0.000000
O O9 0.775587 0.370504 0.964948
O O10 0.922759 0.329063 0.004029
O O11 0.002254 0.303535 0.250000
O O12 0.061642 0.379551 0.036806
O O13 0.049003 0.250000 0.000000
O O14 0.223884 0.063380 0.250000
O O15 0.284124 0.965944 0.395191
O O16 0.157109 0.024589 0.506604
O O17 0.067997 0.468948 0.250000
O O18 0.000000 0.500000 0.000000
O O19 0.282465 0.642561 0.750000
#
# Coordination Sequence:
#
# PCOD8230854 Si02
#       7
#     8   8   8   8   8   8   8
#     4   9  16  26  42  65  92 124 160 194 233 284
#     4   9  16  27  43  64  93 126 159 196 237 283
#     4  11  21  33  50  70  93 124 161 201 244 291
#     4  10  21  37  55  75  99 131 171 212 253 301
#     4  10  20  32  48  70  98 131 164 201 246 295
#     4  11  23  36  52  76 105 135 169 210 258 309
#     4  10  19  31  46  68  98 129 162 199 241 290
#
# _framework density 18.485665000000001
#
# number of rings (size 3 to 8) (size 9 to 14) (size 15 to 20)
#    0.000    2.000    0.000    5.571    0.000   10.857 
#    0.000    0.000    0.000    0.000    0.000    1.000 
#    0.000    2.286    0.000    0.000    0.000    0.000 
#
# Total GULP energy -694168.424201 kJ/mol
# GULP energy per Si atom -12395.864718 kJ/mol
# Density = 1.844359 g / cm^3
# Si number density = 18.485665 Si / 1000 Ang^3
#
#
#
# Elastic Constant Matrix: (Units=GPa)
#
#
# Indices 1 2 3 4 5 6 
#
# 1 118.3355 14.6541 58.2705 0.0000 0.0000 0.0000
# 2 14.6541 33.3813 31.8968 0.0000 0.0000 0.0000
# 3 58.2705 31.8968 148.9128 0.0000 0.0000 0.0000
# 4 0.0000 0.0000 0.0000 23.2490 0.0000 0.0000
# 5 0.0000 0.0000 0.0000 0.0000 25.9814 0.0000
# 6 0.0000 0.0000 0.0000 0.0000 0.0000 14.2353
#
#
#
# Elastic Compliance Matrix: (Units=1/GPa)
#
#
# Indices 1 2 3 4 5 6 
#
# 1 0.010487 -0.000858 -0.003920 0.000000 0.000000 0.000000
# 2 -0.000858 0.037736 -0.007747 0.000000 0.000000 0.000000
# 3 -0.003920 -0.007747 0.009909 0.000000 0.000000 0.000000
# 4 0.000000 0.000000 0.000000 0.043013 0.000000 0.000000
# 5 0.000000 0.000000 0.000000 0.000000 0.038489 0.000000
# 6 0.000000 0.000000 0.000000 0.000000 0.000000 0.070248
#
#
# Mechanical properties :
#
#
# Convention : Reuss Voigt Hill
#
# Bulk Modulus (GPa) = 30.22836 56.69691 43.46264
# Shear Modulus (GPa) = 20.32856 25.74701 23.03779
#
# Velocity S-wave (km/s) = 3.31976 3.73608 3.53406
# Velocity P-wave (km/s) = 5.57514 7.02484 6.34156
#
# Compressibility (1/GPa) = 0.03308152
#
# Stress axis : x y z
#
# Youngs Moduli (GPa) = 95.35613 26.49963 100.92224
#
# Poissons Ratio (x) = 0.02274 0.39559
# Poissons Ratio (y) = 0.08184 0.78187
# Poissons Ratio (z) = 0.37378 0.20530
#
# Static dielectric constant tensor:
#      x y z
#    x 3.363270 0.000000 0.000000 
#    y 0.000000 3.090520 0.000000 
#    z 0.000000 0.000000 3.770880 
# 
# 
# High freq. dielectric constant tensor:
#      x y z
#    x 1.715890 0.000000 0.000000 
#    y 0.000000 1.661050 0.000000 
#    z 0.000000 0.000000 1.743250 
# 
# From -- ./inp_files/5207.got.cif
#   From: 2010.03.12/outbox.cif.g09.slc.cpg/sg57_3_cif.got.tgz:5207.got - 2010.04.16 15:48:40.
