data_PCOD8230635
_publ_section_title
;
Structure prediction by ZEFSAII (Michael W. Deem and Ramdas Pophale) SiO2 
 PCOD8230635
Probable space group: P B C M
;
_chemical_formula_sum "Si O2"
_cell_formula_units_Z 64
_cell_length_a 18.335708
_cell_length_b 24.748443
_cell_length_c 9.033153
_cell_angle_alpha 90.000000
_cell_angle_beta 90.000000
_cell_angle_gamma 90.000000
_cell_volume 4099.066195
_symmetry_space_group_name_H-M "P B C M"
_symmetry_group_IT_number 57
_symmetry_cell_setting 'orthorhombic'
loop_
_space_group_symop_operation_xyz
x,y,z
-x,-y,1/2+z
x,1/2-y,-z
-x,1/2+y,1/2-z
-x,-y,-z
x,y,1/2-z
-x,1/2+y,z
x,1/2-y,1/2+z
loop_
_atom_site_type_symbol
_atom_site_label
_atom_site_fract_x
_atom_site_fract_y
_atom_site_fract_z
Si Si1 0.326219 0.388663 0.582726
Si Si2 0.939203 0.696393 0.576840
Si Si3 0.001745 0.081580 0.577141
Si Si4 0.771736 0.696129 0.924371
Si Si5 0.267271 0.509185 0.582629
Si Si6 0.597167 0.043682 0.082834
Si Si7 0.113636 0.988828 0.922811
Si Si8 0.461596 0.422452 0.417268
O O1 0.330234 0.366118 0.750000
O O2 0.271410 0.354837 0.483627
O O3 0.297133 0.449005 0.581694
O O4 0.406339 0.385230 0.510486
O O5 0.972194 0.750000 0.500000
O O6 0.945938 0.705438 0.750000
O O7 0.982893 0.643025 0.527195
O O8 0.855594 0.688052 0.529148
O O9 0.981878 0.077683 0.750000
O O10 0.933925 0.061163 0.481632
O O11 0.072943 0.045275 0.543344
O O12 0.761499 0.700424 0.750000
O O13 0.740139 0.750000 0.000000
O O14 0.259537 0.530657 0.750000
O O15 0.324228 0.547290 0.495944
O O16 0.189923 0.511209 0.504552
O O17 0.604741 0.065480 0.250000
O O18 0.567343 0.983183 0.083524
O O19 0.540730 0.081294 0.993537
O O20 0.127543 0.980919 0.750000
O O21 0.467525 0.400300 0.250000
#
# Coordination Sequence:
#
# PCOD8230635 Si02
#       8
#     8   8   8   8   8   8   8   8
#     4  10  19  29  42  61  84 113 148 181 214 255
#     4   9  18  31  47  65  86 113 145 182 222 264
#     4   9  18  32  46  62  87 116 145 180 223 267
#     4  10  19  31  45  62  85 112 143 180 220 258
#     4  10  19  29  42  61  86 115 146 179 216 259
#     4   9  16  26  40  58  82 110 140 174 207 243
#     4  10  19  30  45  64  86 115 150 184 220 265
#     4   9  16  26  40  58  81 110 141 172 208 246
#
# _framework density 15.613313
#
# number of rings (size 3 to 8) (size 9 to 14) (size 15 to 20)
#    0.000    2.500    0.000    3.000    0.000    7.000 
#    0.000    0.000    0.000    0.000    0.000    0.000 
#    0.000    1.000    0.000    8.500    0.000    6.250 
#
# Total GULP energy -793620.727563 kJ/mol
# GULP energy per Si atom -12400.323868 kJ/mol
# Density = 1.557778 g / cm^3
# Si number density = 15.613313 Si / 1000 Ang^3
#
#
#
# Elastic Constant Matrix: (Units=GPa)
#
#
# Indices 1 2 3 4 5 6 
#
# 1 88.2660 18.1604 54.6039 0.0000 0.0000 0.0000
# 2 18.1604 56.0527 25.5046 0.0000 0.0000 0.0000
# 3 54.6039 25.5046 108.2235 0.0000 0.0000 0.0000
# 4 0.0000 0.0000 0.0000 23.0757 0.0000 0.0000
# 5 0.0000 0.0000 0.0000 0.0000 30.4334 0.0000
# 6 0.0000 0.0000 0.0000 0.0000 0.0000 14.9933
#
#
#
# Elastic Compliance Matrix: (Units=1/GPa)
#
#
# Indices 1 2 3 4 5 6 
#
# 1 0.016623 -0.001758 -0.007973 0.000000 0.000000 0.000000
# 2 -0.001758 0.020169 -0.003866 0.000000 0.000000 0.000000
# 3 -0.007973 -0.003866 0.014174 0.000000 0.000000 0.000000
# 4 0.000000 0.000000 0.000000 0.043336 0.000000 0.000000
# 5 0.000000 0.000000 0.000000 0.000000 0.032859 0.000000
# 6 0.000000 0.000000 0.000000 0.000000 0.000000 0.066696
#
#
# Mechanical properties :
#
#
# Convention : Reuss Voigt Hill
#
# Bulk Modulus (GPa) = 42.06598 49.89778 45.98188
# Shear Modulus (GPa) = 21.83638 23.98537 22.91088
#
# Velocity S-wave (km/s) = 3.74381 3.92371 3.83481
# Velocity P-wave (km/s) = 6.75936 7.24949 7.00872
#
# Compressibility (1/GPa) = 0.02377218
#
# Stress axis : x y z
#
# Youngs Moduli (GPa) = 60.15605 49.58090 70.55158
#
# Poissons Ratio (x) = 0.08716 0.56251
# Poissons Ratio (y) = 0.10575 0.27276
# Poissons Ratio (z) = 0.47963 0.19169
#
# Static dielectric constant tensor:
#      x y z
#    x 2.972770 0.000000 0.000000 
#    y 0.000000 2.748550 0.000000 
#    z 0.000000 0.000000 3.199020 
# 
# 
# High freq. dielectric constant tensor:
#      x y z
#    x 1.591300 0.000000 0.000000 
#    y 0.000000 1.554600 0.000000 
#    z 0.000000 0.000000 1.618140 
# 
# From -- ./inp_files/7414.got.cif
#   From: 2010.03.12/outbox.cif.g09.slc.cpg/sg57_4_cif.got.tgz:7414.got - 2010.04.16 15:48:40.
