data_PCOD8230174
_publ_section_title
;
Structure prediction by ZEFSAII (Michael W. Deem and Ramdas Pophale) SiO2 
 PCOD8230174
Probable space group: P B C M
;
_chemical_formula_sum "Si O2"
_cell_formula_units_Z 64
_cell_length_a 20.541316
_cell_length_b 20.071216
_cell_length_c 9.176567
_cell_angle_alpha 90.000000
_cell_angle_beta 90.000000
_cell_angle_gamma 90.000000
_cell_volume 3783.399379
_symmetry_space_group_name_H-M "P B C M"
_symmetry_group_IT_number 57
_symmetry_cell_setting 'orthorhombic'
loop_
_space_group_symop_operation_xyz
x,y,z
-x,-y,1/2+z
x,1/2-y,-z
-x,1/2+y,1/2-z
-x,-y,-z
x,y,1/2-z
-x,1/2+y,z
x,1/2-y,1/2+z
loop_
_atom_site_type_symbol
_atom_site_label
_atom_site_fract_x
_atom_site_fract_y
_atom_site_fract_z
Si Si1 0.328061 0.460527 0.917997
Si Si2 0.058152 0.569466 0.417459
Si Si3 0.795833 0.558212 0.913335
Si Si4 0.805879 0.100461 0.088463
Si Si5 0.434200 0.682538 0.422859
Si Si6 0.472268 0.063229 0.080831
Si Si7 0.317338 0.885004 0.079980
Si Si8 0.917963 0.563499 0.083104
O O1 0.309698 0.452196 0.750000
O O2 0.396425 0.425927 0.958200
O O3 0.333988 0.538645 0.957068
O O4 0.271994 0.423367 0.008632
O O5 0.063218 0.541669 0.250000
O O6 0.118516 0.621395 0.442498
O O7 0.065672 0.511373 0.535074
O O8 0.986660 0.603926 0.438107
O O9 0.791995 0.585511 0.750000
O O10 0.805583 0.479393 0.921587
O O11 0.857853 0.593714 0.990713
O O12 0.783721 0.123366 0.250000
O O13 0.756566 0.131564 0.970738
O O14 0.457063 0.750000 0.500000
O O15 0.427904 0.692250 0.250000
O O16 0.488835 0.628812 0.465603
O O17 0.364886 0.661210 0.487458
O O18 0.480655 0.047567 0.250000
O O19 0.500000 0.000000 0.000000
O O20 0.324575 0.868431 0.250000
O O21 0.895247 0.563201 0.250000
#
# Coordination Sequence:
#
# PCOD8230174 Si02
#       8
#     8   8   8   8   8   8   8   8
#     4   9  17  29  45  66  89 113 147 191 233 276
#     4   8  14  22  31  46  69 101 142 182 220 264
#     4   9  16  24  34  52  78 109 144 181 223 271
#     4   8  14  24  36  52  77 107 143 184 224 266
#     4  11  23  37  53  72  97 127 157 192 238 288
#     4  10  20  34  53  75  96 121 155 196 241 287
#     4  10  18  29  46  66  89 116 150 191 232 276
#     4   9  14  20  31  46  69 103 141 181 222 264
#
# _framework density 16.916004000000001
#
# number of rings (size 3 to 8) (size 9 to 14) (size 15 to 20)
#    0.000    2.750    1.250    2.250    0.000    5.000 
#    0.000    0.000    0.000    0.000    0.000    0.000 
#    0.000    0.000    0.000    1.125    0.000   16.250 
#
# Total GULP energy -793103.241774 kJ/mol
# GULP energy per Si atom -12392.238153 kJ/mol
# Density = 1.687750 g / cm^3
# Si number density = 16.916004 Si / 1000 Ang^3
#
#
#
# Elastic Constant Matrix: (Units=GPa)
#
#
# Indices 1 2 3 4 5 6 
#
# 1 154.6624 43.1373 63.9971 0.0000 0.0000 0.0000
# 2 43.1373 41.3105 31.3784 0.0000 0.0000 0.0000
# 3 63.9971 31.3784 91.8339 0.0000 0.0000 0.0000
# 4 0.0000 0.0000 0.0000 13.8959 0.0000 0.0000
# 5 0.0000 0.0000 0.0000 0.0000 29.4294 0.0000
# 6 0.0000 0.0000 0.0000 0.0000 0.0000 9.1357
#
#
#
# Elastic Compliance Matrix: (Units=1/GPa)
#
#
# Indices 1 2 3 4 5 6 
#
# 1 0.010496 -0.007299 -0.004821 0.000000 0.000000 0.000000
# 2 -0.007299 0.037767 -0.007818 0.000000 0.000000 0.000000
# 3 -0.004821 -0.007818 0.016920 0.000000 0.000000 0.000000
# 4 0.000000 0.000000 0.000000 0.071964 0.000000 0.000000
# 5 0.000000 0.000000 0.000000 0.000000 0.033980 0.000000
# 6 0.000000 0.000000 0.000000 0.000000 0.000000 0.109461
#
#
# Mechanical properties :
#
#
# Convention : Reuss Voigt Hill
#
# Bulk Modulus (GPa) = 39.51322 62.75916 51.13619
# Shear Modulus (GPa) = 15.20229 20.44512 17.82371
#
# Velocity S-wave (km/s) = 3.00107 3.48030 3.24953
# Velocity P-wave (km/s) = 5.95128 7.30281 6.66141
#
# Compressibility (1/GPa) = 0.02530799
#
# Stress axis : x y z
#
# Youngs Moduli (GPa) = 95.27364 26.47836 59.10170
#
# Poissons Ratio (x) = 0.19325 0.28491
# Poissons Ratio (y) = 0.69536 0.46207
# Poissons Ratio (z) = 0.45928 0.20701
#
# Static dielectric constant tensor:
#      x y z
#    x 3.049220 0.000000 0.000000 
#    y 0.000000 2.513950 0.000000 
#    z 0.000000 0.000000 3.284580 
# 
# 
# High freq. dielectric constant tensor:
#      x y z
#    x 1.679820 0.000000 0.000000 
#    y 0.000000 1.558800 0.000000 
#    z 0.000000 0.000000 1.664010 
# 
# From -- ./inp_files/8660.got.cif
#   From: 2010.03.12/outbox.cif.g09.slc.cpg/sg57_5_cif.got.tgz:8660.got - 2010.04.16 15:48:40.
