data_PCOD8230137
_publ_section_title
;
Structure prediction by ZEFSAII (Michael W. Deem and Ramdas Pophale) SiO2 
 PCOD8230137
Probable space group: P B C M
;
_chemical_formula_sum "Si O2"
_cell_formula_units_Z 64
_cell_length_a 17.056740
_cell_length_b 23.584687
_cell_length_c 9.007569
_cell_angle_alpha 90.000000
_cell_angle_beta 90.000000
_cell_angle_gamma 90.000000
_cell_volume 3623.545708
_symmetry_space_group_name_H-M "P B C M"
_symmetry_group_IT_number 57
_symmetry_cell_setting 'orthorhombic'
loop_
_space_group_symop_operation_xyz
x,y,z
-x,-y,1/2+z
x,1/2-y,-z
-x,1/2+y,1/2-z
-x,-y,-z
x,y,1/2-z
-x,1/2+y,z
x,1/2-y,1/2+z
loop_
_atom_site_type_symbol
_atom_site_label
_atom_site_fract_x
_atom_site_fract_y
_atom_site_fract_z
Si Si1 0.730947 0.428858 0.426434
Si Si2 0.040890 0.692058 0.924439
Si Si3 0.074873 0.110889 0.426401
Si Si4 0.214952 0.307016 0.915769
Si Si5 0.827481 0.979363 0.075001
Si Si6 0.700420 0.911710 0.583488
Si Si7 0.223841 0.805996 0.421237
Si Si8 0.418994 0.500308 0.582982
O O1 0.742013 0.435686 0.250000
O O2 0.805357 0.459473 0.504884
O O3 0.731234 0.362864 0.474669
O O4 0.648055 0.456670 0.478783
O O5 0.021249 0.694080 0.750000
O O6 0.132545 0.686205 0.956923
O O7 0.008439 0.750000 0.000000
O O8 0.003029 0.636464 0.999483
O O9 0.063846 0.104416 0.250000
O O10 0.143568 0.154454 0.472354
O O11 0.095946 0.049279 0.497099
O O12 0.197630 0.288383 0.750000
O O13 0.295428 0.343661 0.933113
O O14 0.226762 0.250000 0.000000
O O15 0.842823 0.985451 0.250000
O O16 0.753094 0.939570 0.043395
O O17 0.733900 0.927726 0.750000
O O18 0.612630 0.935567 0.570101
O O19 0.258243 0.750000 0.500000
O O20 0.238770 0.795768 0.250000
O O21 0.500000 0.500000 0.500000
O O22 0.437796 0.518002 0.750000
#
# Coordination Sequence:
#
# PCOD8230137 Si02
#       8
#     8   8   8   8   8   8   8   8
#     4   9  18  35  54  72  99 134 160 188 239 299
#     4  10  19  31  47  69  94 123 163 211 255 295
#     4  10  19  31  45  63  93 132 166 202 249 297
#     4   9  17  27  41  61  86 119 159 192 224 267
#     4  10  18  28  46  72  96 121 159 206 243 281
#     4   8  16  31  45  61  92 130 156 182 228 284
#     4   9  19  35  55  75  97 126 163 204 247 291
#     4   9  17  30  51  75  98 121 150 187 231 282
#
# _framework density 17.662258999999999
#
# number of rings (size 3 to 8) (size 9 to 14) (size 15 to 20)
#    0.000    2.750    0.000    3.750    0.000    6.500 
#    0.000    0.625    0.000    0.750    0.000    5.250 
#    0.000    0.000    0.000    0.000    0.000    0.000 
#
# Total GULP energy -793024.986128 kJ/mol
# GULP energy per Si atom -12391.015408 kJ/mol
# Density = 1.762206 g / cm^3
# Si number density = 17.662259 Si / 1000 Ang^3
#
#
#
# Elastic Constant Matrix: (Units=GPa)
#
#
# Indices 1 2 3 4 5 6 
#
# 1 51.5115 36.4869 27.7964 0.0000 0.0000 0.0000
# 2 36.4869 121.4831 38.0795 0.0000 0.0000 0.0000
# 3 27.7964 38.0795 71.5482 0.0000 0.0000 0.0000
# 4 0.0000 0.0000 0.0000 29.1029 0.0000 0.0000
# 5 0.0000 0.0000 0.0000 0.0000 23.1477 0.0000
# 6 0.0000 0.0000 0.0000 0.0000 0.0000 20.2189
#
#
#
# Elastic Compliance Matrix: (Units=1/GPa)
#
#
# Indices 1 2 3 4 5 6 
#
# 1 0.027729 -0.005943 -0.007610 0.000000 0.000000 0.000000
# 2 -0.005943 0.011154 -0.003627 0.000000 0.000000 0.000000
# 3 -0.007610 -0.003627 0.018863 0.000000 0.000000 0.000000
# 4 0.000000 0.000000 0.000000 0.034361 0.000000 0.000000
# 5 0.000000 0.000000 0.000000 0.000000 0.043201 0.000000
# 6 0.000000 0.000000 0.000000 0.000000 0.000000 0.049459
#
#
# Mechanical properties :
#
#
# Convention : Reuss Voigt Hill
#
# Bulk Modulus (GPa) = 42.76056 49.91872 46.33964
# Shear Modulus (GPa) = 22.03402 23.97255 23.00329
#
# Velocity S-wave (km/s) = 3.53586 3.68812 3.61279
# Velocity P-wave (km/s) = 6.39784 6.81620 6.61033
#
# Compressibility (1/GPa) = 0.02338604
#
# Stress axis : x y z
#
# Youngs Moduli (GPa) = 36.06334 89.65755 53.01245
#
# Poissons Ratio (x) = 0.53283 0.40341
# Poissons Ratio (y) = 0.21432 0.19229
# Poissons Ratio (z) = 0.27443 0.32522
#
# Static dielectric constant tensor:
#      x y z
#    x 3.013860 0.000000 0.000000 
#    y 0.000000 3.513100 0.000000 
#    z 0.000000 0.000000 3.248200 
# 
# 
# High freq. dielectric constant tensor:
#      x y z
#    x 1.644230 0.000000 0.000000 
#    y 0.000000 1.683660 0.000000 
#    z 0.000000 0.000000 1.681620 
# 
# From -- ./inp_files/7361.got.cif
#   From: 2010.03.12/outbox.cif.g09.slc.cpg/sg57_4_cif.got.tgz:7361.got - 2010.04.16 15:48:40.
