data_PCOD8230866
_publ_section_title
;
Structure prediction by ZEFSAII (Michael W. Deem and Ramdas Pophale) SiO2 
 PCOD8230866
Probable space group: P B C M
;
_chemical_formula_sum "Si O2"
_cell_formula_units_Z 48
_cell_length_a 23.721112
_cell_length_b 13.636329
_cell_length_c 8.924302
_cell_angle_alpha 90.000000
_cell_angle_beta 90.000000
_cell_angle_gamma 90.000000
_cell_volume 2886.734039
_symmetry_space_group_name_H-M "P B C M"
_symmetry_group_IT_number 57
_symmetry_cell_setting 'orthorhombic'
loop_
_space_group_symop_operation_xyz
x,y,z
-x,-y,1/2+z
x,1/2-y,-z
-x,1/2+y,1/2-z
-x,-y,-z
x,y,1/2-z
-x,1/2+y,z
x,1/2-y,1/2+z
loop_
_atom_site_type_symbol
_atom_site_label
_atom_site_fract_x
_atom_site_fract_y
_atom_site_fract_z
Si Si1 0.973298 0.853537 0.925343
Si Si2 0.478151 0.349642 0.925138
Si Si3 0.306636 0.646779 0.574056
Si Si4 0.807649 0.353910 0.927022
Si Si5 0.578326 0.451203 0.076734
Si Si6 0.917525 0.472208 0.575476
O O1 0.966662 0.840692 0.750000
O O2 0.035121 0.892884 0.970664
O O3 0.962605 0.750000 0.000000
O O4 0.925719 0.928475 0.982763
O O5 0.481339 0.331867 0.750000
O O6 0.434759 0.436517 0.968472
O O7 0.455967 0.250000 0.000000
O O8 0.540554 0.376476 0.981765
O O9 0.323161 0.750000 0.500000
O O10 0.296300 0.662729 0.750000
O O11 0.250159 0.604312 0.497485
O O12 0.356295 0.569319 0.542816
O O13 0.800937 0.339902 0.750000
O O14 0.856746 0.429779 0.967166
O O15 0.822833 0.250000 0.000000
O O16 0.563470 0.432804 0.250000
O O17 0.922612 0.497483 0.750000
#
# Coordination Sequence:
#
# PCOD8230866 Si02
#       6
#     8   8   8   8   8   8
#     4  10  19  31  49  71  96 125 155 191 233 277
#     4  10  19  31  48  70  95 122 153 189 231 277
#     4  10  19  31  47  68  94 122 154 190 230 275
#     4  10  19  31  48  70  96 124 155 191 231 275
#     4   9  19  33  48  68  94 124 156 191 229 272
#     4   9  19  33  48  69  96 125 157 192 230 275
#
# _framework density 16.627787999999999
#
# number of rings (size 3 to 8) (size 9 to 14) (size 15 to 20)
#    0.000    2.333    0.000    4.000    0.000    5.333 
#    0.000    0.000    0.000    1.000    0.000    4.667 
#    0.000    0.000    0.000    0.000    0.000    0.000 
#
# Total GULP energy -595293.589804 kJ/mol
# GULP energy per Si atom -12401.949788 kJ/mol
# Density = 1.658994 g / cm^3
# Si number density = 16.627788 Si / 1000 Ang^3
#
#
#
# Elastic Constant Matrix: (Units=GPa)
#
#
# Indices 1 2 3 4 5 6 
#
# 1 122.0241 68.2015 52.2921 0.0000 0.0000 0.0000
# 2 68.2015 121.3235 56.9156 0.0000 0.0000 0.0000
# 3 52.2921 56.9156 85.3689 0.0000 0.0000 0.0000
# 4 0.0000 0.0000 0.0000 29.9901 0.0000 0.0000
# 5 0.0000 0.0000 0.0000 0.0000 25.3703 0.0000
# 6 0.0000 0.0000 0.0000 0.0000 0.0000 13.3999
#
#
#
# Elastic Compliance Matrix: (Units=1/GPa)
#
#
# Indices 1 2 3 4 5 6 
#
# 1 0.013044 -0.005216 -0.004513 0.000000 0.000000 0.000000
# 2 -0.005216 0.014079 -0.006192 0.000000 0.000000 0.000000
# 3 -0.004513 -0.006192 0.018606 0.000000 0.000000 0.000000
# 4 0.000000 0.000000 0.000000 0.033344 0.000000 0.000000
# 5 0.000000 0.000000 0.000000 0.000000 0.039416 0.000000
# 6 0.000000 0.000000 0.000000 0.000000 0.000000 0.074628
#
#
# Mechanical properties :
#
#
# Convention : Reuss Voigt Hill
#
# Bulk Modulus (GPa) = 71.99932 75.94833 73.97383
# Shear Modulus (GPa) = 21.77819 23.83922 22.80870
#
# Velocity S-wave (km/s) = 3.62297 3.79053 3.70769
# Velocity P-wave (km/s) = 7.80358 8.05805 7.93183
#
# Compressibility (1/GPa) = 0.01388902
#
# Stress axis : x y z
#
# Youngs Moduli (GPa) = 76.66274 71.02752 53.74551
#
# Poissons Ratio (x) = 0.37045 0.24254
# Poissons Ratio (y) = 0.39985 0.33278
# Poissons Ratio (z) = 0.34597 0.43978
#
# Static dielectric constant tensor:
#      x y z
#    x 3.124370 0.000000 0.000000 
#    y 0.000000 3.071560 0.000000 
#    z 0.000000 0.000000 3.237470 
# 
# 
# High freq. dielectric constant tensor:
#      x y z
#    x 1.630500 0.000000 0.000000 
#    y 0.000000 1.629760 0.000000 
#    z 0.000000 0.000000 1.655150 
# 
# From -- ./inp_files/9133.got.cif
#   From: 2010.03.12/outbox.cif.g09.slc.cpg/sg57_5_cif.got.tgz:9133.got - 2010.04.16 15:48:40.
