data_PCOD8230851
_publ_section_title
;
Structure prediction by ZEFSAII (Michael W. Deem and Ramdas Pophale) SiO2 
 PCOD8230851
Probable space group: P B C M
;
_chemical_formula_sum "Si O2"
_cell_formula_units_Z 64
_cell_length_a 15.661539
_cell_length_b 28.768129
_cell_length_c 8.701799
_cell_angle_alpha 90.000000
_cell_angle_beta 90.000000
_cell_angle_gamma 90.000000
_cell_volume 3920.623161
_symmetry_space_group_name_H-M "P B C M"
_symmetry_group_IT_number 57
_symmetry_cell_setting 'orthorhombic'
loop_
_space_group_symop_operation_xyz
x,y,z
-x,-y,1/2+z
x,1/2-y,-z
-x,1/2+y,1/2-z
-x,-y,-z
x,y,1/2-z
-x,1/2+y,z
x,1/2-y,1/2+z
loop_
_atom_site_type_symbol
_atom_site_label
_atom_site_fract_x
_atom_site_fract_y
_atom_site_fract_z
Si Si1 0.814698 0.954496 0.568214
Si Si2 0.816249 0.056875 0.431392
Si Si3 0.401310 0.701524 0.432010
Si Si4 0.999534 0.950469 0.927570
Si Si5 0.507107 0.449273 0.932466
Si Si6 0.660650 0.391697 0.068849
Si Si7 0.657827 0.894407 0.932552
Si Si8 0.597752 0.797405 0.569473
O O1 0.803594 0.963961 0.750000
O O2 0.906285 0.928618 0.532918
O O3 0.742679 0.919430 0.504516
O O4 0.804997 0.003191 0.480548
O O5 0.797341 0.061146 0.250000
O O6 0.753987 0.089721 0.526619
O O7 0.912599 0.075641 0.475887
O O8 0.366620 0.750000 0.500000
O O9 0.389401 0.700687 0.250000
O O10 0.346576 0.660514 0.506564
O O11 0.499827 0.694665 0.480990
O O12 0.006758 0.959689 0.750000
O O13 0.000000 0.000000 0.000000
O O14 0.509465 0.451426 0.750000
O O15 0.425538 0.420961 0.993710
O O16 0.500000 0.500000 0.000000
O O17 0.592457 0.425117 0.989996
O O18 0.647053 0.392553 0.250000
O O19 0.657433 0.894783 0.750000
O O20 0.653363 0.841054 0.991531
O O21 0.635552 0.750000 0.500000
O O22 0.603613 0.792918 0.750000
#
# Coordination Sequence:
#
# PCOD8230851 Si02
#       8
#     8   8   8   8   8   8   8   8
#     4   9  16  29  49  71  95 124 159 195 233 291
#     4  10  19  31  46  67  97 128 159 201 246 286
#     4  10  19  34  53  72  95 122 156 200 246 291
#     4   8  15  27  45  68  92 120 155 195 241 286
#     4  11  21  34  47  66  97 133 165 196 233 280
#     4  12  23  34  48  69  94 129 170 204 242 285
#     4   9  17  30  47  66  92 123 153 187 230 276
#     4   9  17  31  48  67  89 118 151 189 233 275
#
# _framework density 16.323937000000001
#
# number of rings (size 3 to 8) (size 9 to 14) (size 15 to 20)
#    0.000    2.250    1.250    3.000    0.000    2.000 
#    0.000    1.250    0.000    0.000    0.000    0.875 
#    0.000    2.000    0.000    0.000    0.000    0.000 
#
# Total GULP energy -793122.804302 kJ/mol
# GULP energy per Si atom -12392.543817 kJ/mol
# Density = 1.628678 g / cm^3
# Si number density = 16.323937 Si / 1000 Ang^3
#
#
#
# Elastic Constant Matrix: (Units=GPa)
#
#
# Indices 1 2 3 4 5 6 
#
# 1 106.5546 50.5929 26.3057 0.0000 0.0000 0.0000
# 2 50.5929 116.8877 27.1054 0.0000 0.0000 0.0000
# 3 26.3057 27.1054 47.5552 0.0000 0.0000 0.0000
# 4 0.0000 0.0000 0.0000 26.7896 0.0000 0.0000
# 5 0.0000 0.0000 0.0000 0.0000 15.9847 0.0000
# 6 0.0000 0.0000 0.0000 0.0000 0.0000 10.3636
#
#
#
# Elastic Compliance Matrix: (Units=1/GPa)
#
#
# Indices 1 2 3 4 5 6 
#
# 1 0.012577 -0.004414 -0.004441 0.000000 0.000000 0.000000
# 2 -0.004414 0.011407 -0.004060 0.000000 0.000000 0.000000
# 3 -0.004441 -0.004060 0.025799 0.000000 0.000000 0.000000
# 4 0.000000 0.000000 0.000000 0.037328 0.000000 0.000000
# 5 0.000000 0.000000 0.000000 0.000000 0.062560 0.000000
# 6 0.000000 0.000000 0.000000 0.000000 0.000000 0.096491
#
#
# Mechanical properties :
#
#
# Convention : Reuss Voigt Hill
#
# Bulk Modulus (GPa) = 41.74923 53.22286 47.48604
# Shear Modulus (GPa) = 17.85855 21.76047 19.80951
#
# Velocity S-wave (km/s) = 3.31117 3.65504 3.48735
# Velocity P-wave (km/s) = 6.34425 7.10545 6.73561
#
# Compressibility (1/GPa) = 0.02395254
#
# Stress axis : x y z
#
# Youngs Moduli (GPa) = 79.50986 87.66365 38.76082
#
# Poissons Ratio (x) = 0.38693 0.17215
# Poissons Ratio (y) = 0.35094 0.15738
# Poissons Ratio (z) = 0.35313 0.35594
#
# Static dielectric constant tensor:
#      x y z
#    x 3.640190 0.000000 0.000000 
#    y 0.000000 3.021370 0.000000 
#    z 0.000000 0.000000 3.017140 
# 
# 
# High freq. dielectric constant tensor:
#      x y z
#    x 1.624050 0.000000 0.000000 
#    y 0.000000 1.608430 0.000000 
#    z 0.000000 0.000000 1.627550 
# 
# From -- ./inp_files/6021.got.cif
#   From: 2010.03.12/outbox.cif.g09.slc.cpg/sg57_4_cif.got.tgz:6021.got - 2010.04.16 15:48:40.
