data_PCOD8230253
_publ_section_title
;
Structure prediction by ZEFSAII (Michael W. Deem and Ramdas Pophale) SiO2 
 PCOD8230253
Probable space group: P B C M
;
_chemical_formula_sum "Si O2"
_cell_formula_units_Z 64
_cell_length_a 20.445689
_cell_length_b 20.137165
_cell_length_c 9.080973
_cell_angle_alpha 90.000000
_cell_angle_beta 90.000000
_cell_angle_gamma 90.000000
_cell_volume 3738.801975
_symmetry_space_group_name_H-M "P B C M"
_symmetry_group_IT_number 57
_symmetry_cell_setting 'orthorhombic'
loop_
_space_group_symop_operation_xyz
x,y,z
-x,-y,1/2+z
x,1/2-y,-z
-x,1/2+y,1/2-z
-x,-y,-z
x,y,1/2-z
-x,1/2+y,z
x,1/2-y,1/2+z
loop_
_atom_site_type_symbol
_atom_site_label
_atom_site_fract_x
_atom_site_fract_y
_atom_site_fract_z
Si Si1 0.696734 0.450457 0.918524
Si Si2 0.840493 0.031532 0.076851
Si Si3 0.938420 0.815885 0.078406
Si Si4 0.828624 0.609819 0.420429
Si Si5 0.574511 0.428426 0.415079
Si Si6 0.451922 0.084656 0.413634
Si Si7 0.033835 0.562077 0.922507
Si Si8 0.687370 0.915673 0.582311
O O1 0.676558 0.444037 0.750000
O O2 0.772097 0.428354 0.945706
O O3 0.642917 0.407501 0.007518
O O4 0.694404 0.526953 0.963322
O O5 0.854587 0.019705 0.250000
O O6 0.896681 0.075746 0.001340
O O7 0.840988 0.960839 0.996087
O O8 0.926778 0.802490 0.250000
O O9 0.990636 0.873285 0.050480
O O10 0.965708 0.750000 0.000000
O O11 0.869332 0.834235 0.004149
O O12 0.850412 0.605348 0.250000
O O13 0.751552 0.630586 0.432717
O O14 0.579766 0.403531 0.250000
O O15 0.510788 0.391657 0.482148
O O16 0.564480 0.506869 0.432823
O O17 0.476670 0.099849 0.250000
O O18 0.382337 0.121997 0.447422
O O19 0.043246 0.547274 0.750000
O O20 0.000000 0.500000 0.000000
O O21 0.684532 0.945531 0.750000
#
# Coordination Sequence:
#
# PCOD8230253 Si02
#       8
#     8   8   8   8   8   8   8   8
#     4   9  16  24  35  53  78 109 144 185 228 271
#     4  10  19  30  46  69  94 120 157 198 239 287
#     4  11  24  39  54  74  99 128 163 200 244 298
#     4  10  18  30  49  69  92 122 155 196 242 284
#     4   9  15  21  30  45  69 103 143 182 222 271
#     4   8  13  21  31  45  69 101 140 182 220 264
#     4  11  22  35  54  76  99 126 160 200 245 296
#     4   8  15  25  37  55  77 106 145 185 226 271
#
# _framework density 17.117784
#
# number of rings (size 3 to 8) (size 9 to 14) (size 15 to 20)
#    0.000    2.500    1.250    3.000    0.000    6.500 
#    0.000    0.000    0.000    0.000    0.000    0.000 
#    0.000    0.000    0.000    1.125    0.000   16.250 
#
# Total GULP energy -793037.610501 kJ/mol
# GULP energy per Si atom -12391.212664 kJ/mol
# Density = 1.707882 g / cm^3
# Si number density = 17.117784 Si / 1000 Ang^3
#
#
#
# Elastic Constant Matrix: (Units=GPa)
#
#
# Indices 1 2 3 4 5 6 
#
# 1 154.2791 29.8086 85.0037 0.0000 0.0000 0.0000
# 2 29.8086 40.4180 31.7141 0.0000 0.0000 0.0000
# 3 85.0037 31.7141 136.6360 0.0000 0.0000 0.0000
# 4 0.0000 0.0000 0.0000 15.5749 0.0000 0.0000
# 5 0.0000 0.0000 0.0000 0.0000 33.2272 0.0000
# 6 0.0000 0.0000 0.0000 0.0000 0.0000 9.3352
#
#
#
# Elastic Compliance Matrix: (Units=1/GPa)
#
#
# Indices 1 2 3 4 5 6 
#
# 1 0.010170 -0.003101 -0.005607 0.000000 0.000000 0.000000
# 2 -0.003101 0.031196 -0.005312 0.000000 0.000000 0.000000
# 3 -0.005607 -0.005312 0.012040 0.000000 0.000000 0.000000
# 4 0.000000 0.000000 0.000000 0.064206 0.000000 0.000000
# 5 0.000000 0.000000 0.000000 0.000000 0.030096 0.000000
# 6 0.000000 0.000000 0.000000 0.000000 0.000000 0.107121
#
#
# Mechanical properties :
#
#
# Convention : Reuss Voigt Hill
#
# Bulk Modulus (GPa) = 39.42190 69.37620 54.39905
# Shear Modulus (GPa) = 17.16292 23.94791 20.55541
#
# Velocity S-wave (km/s) = 3.16988 3.74439 3.46905
# Velocity P-wave (km/s) = 6.03964 7.70134 6.92055
#
# Compressibility (1/GPa) = 0.02536661
#
# Stress axis : x y z
#
# Youngs Moduli (GPa) = 98.32391 32.05517 83.05556
#
# Poissons Ratio (x) = 0.09940 0.46573
# Poissons Ratio (y) = 0.30489 0.44117
# Poissons Ratio (z) = 0.55135 0.17027
#
# Static dielectric constant tensor:
#      x y z
#    x 3.900290 0.000000 0.000000 
#    y 0.000000 2.516140 0.000000 
#    z 0.000000 0.000000 3.382360 
# 
# 
# High freq. dielectric constant tensor:
#      x y z
#    x 1.689090 0.000000 0.000000 
#    y 0.000000 1.563610 0.000000 
#    z 0.000000 0.000000 1.679570 
# 
# From -- ./inp_files/8587.got.cif
#   From: 2010.03.12/outbox.cif.g09.slc.cpg/sg57_5_cif.got.tgz:8587.got - 2010.04.16 15:48:40.
