data_PCOD8230183
_publ_section_title
;
Structure prediction by ZEFSAII (Michael W. Deem and Ramdas Pophale) SiO2 
 PCOD8230183
Probable space group: P B C M
;
_chemical_formula_sum "Si O2"
_cell_formula_units_Z 56
_cell_length_a 18.725922
_cell_length_b 18.411226
_cell_length_c 8.899658
_cell_angle_alpha 90.000000
_cell_angle_beta 90.000000
_cell_angle_gamma 90.000000
_cell_volume 3068.310009
_symmetry_space_group_name_H-M "P B C M"
_symmetry_group_IT_number 57
_symmetry_cell_setting 'orthorhombic'
loop_
_space_group_symop_operation_xyz
x,y,z
-x,-y,1/2+z
x,1/2-y,-z
-x,1/2+y,1/2-z
-x,-y,-z
x,y,1/2-z
-x,1/2+y,z
x,1/2-y,1/2+z
loop_
_atom_site_type_symbol
_atom_site_label
_atom_site_fract_x
_atom_site_fract_y
_atom_site_fract_z
Si Si1 0.588510 0.828743 0.426246
Si Si2 0.933689 0.538409 0.923703
Si Si3 0.434100 0.825675 0.077673
Si Si4 0.862751 0.827513 0.927175
Si Si5 0.786625 0.039786 0.076777
Si Si6 0.279004 0.670988 0.927525
Si Si7 0.718064 0.906543 0.573840
O O1 0.595747 0.750000 0.500000
O O2 0.603398 0.820082 0.250000
O O3 0.509751 0.865636 0.457923
O O4 0.645721 0.882145 0.496256
O O5 0.950062 0.554432 0.750000
O O6 0.868129 0.483553 0.943090
O O7 0.918083 0.614721 0.004729
O O8 0.000000 0.500000 0.000000
O O9 0.430846 0.805893 0.250000
O O10 0.358475 0.863403 0.035066
O O11 0.438778 0.750000 0.000000
O O12 0.875151 0.823232 0.750000
O O13 0.781894 0.851036 0.966707
O O14 0.878371 0.750000 0.000000
O O15 0.763518 0.040656 0.250000
O O16 0.779049 0.119269 0.004547
O O17 0.735154 0.985944 0.987255
O O18 0.264523 0.675856 0.750000
O O19 0.271027 0.750000 0.000000
O O20 0.705681 0.911680 0.750000
#
# Coordination Sequence:
#
# PCOD8230183 Si02
#       7
#     8   8   8   8   8   8   8
#     4  10  18  29  46  70 101 136 175 218 261 307
#     4  10  21  38  60  83 110 141 173 209 255 310
#     4   8  16  29  46  69  97 131 171 214 261 308
#     4  10  20  34  54  80 110 142 178 216 256 303
#     4  10  21  37  56  79 105 134 168 208 255 309
#     4  10  19  34  56  79 103 133 172 218 263 309
#     4  10  20  33  50  74 104 139 176 215 259 308
#
# _framework density 18.251087999999999
#
# number of rings (size 3 to 8) (size 9 to 14) (size 15 to 20)
#    0.000    2.286    0.000    3.000    0.000    5.714 
#    0.000    1.429    0.000    3.429    0.000    0.000 
#    0.000    0.000    0.000    0.000    0.000    0.000 
#
# Total GULP energy -694088.881590 kJ/mol
# GULP energy per Si atom -12394.444314 kJ/mol
# Density = 1.820955 g / cm^3
# Si number density = 18.251088 Si / 1000 Ang^3
#
#
#
# Elastic Constant Matrix: (Units=GPa)
#
#
# Indices 1 2 3 4 5 6 
#
# 1 80.4574 53.9636 49.2887 0.0000 0.0000 0.0000
# 2 53.9636 103.0500 51.4378 0.0000 0.0000 0.0000
# 3 49.2887 51.4378 99.3699 0.0000 0.0000 0.0000
# 4 0.0000 0.0000 0.0000 35.1831 0.0000 0.0000
# 5 0.0000 0.0000 0.0000 0.0000 29.6396 0.0000
# 6 0.0000 0.0000 0.0000 0.0000 0.0000 29.8914
#
#
#
# Elastic Compliance Matrix: (Units=1/GPa)
#
#
# Indices 1 2 3 4 5 6 
#
# 1 0.022017 -0.008196 -0.006678 0.000000 0.000000 0.000000
# 2 -0.008196 0.016136 -0.004287 0.000000 0.000000 0.000000
# 3 -0.006678 -0.004287 0.015595 0.000000 0.000000 0.000000
# 4 0.000000 0.000000 0.000000 0.028423 0.000000 0.000000
# 5 0.000000 0.000000 0.000000 0.000000 0.033739 0.000000
# 6 0.000000 0.000000 0.000000 0.000000 0.000000 0.033454
#
#
# Mechanical properties :
#
#
# Convention : Reuss Voigt Hill
#
# Bulk Modulus (GPa) = 64.82888 65.80638 65.31763
# Shear Modulus (GPa) = 25.92965 27.48863 26.70914
#
# Velocity S-wave (km/s) = 3.77333 3.88511 3.82963
# Velocity P-wave (km/s) = 7.38794 7.50066 7.44451
#
# Compressibility (1/GPa) = 0.01542522
#
# Stress axis : x y z
#
# Youngs Moduli (GPa) = 45.41874 61.97279 64.12268
#
# Poissons Ratio (x) = 0.50795 0.42822
# Poissons Ratio (y) = 0.37226 0.27491
# Poissons Ratio (z) = 0.30331 0.26569
#
# Static dielectric constant tensor:
#      x y z
#    x 3.649210 0.000000 0.000000 
#    y 0.000000 3.129860 0.000000 
#    z 0.000000 0.000000 3.541860 
# 
# 
# High freq. dielectric constant tensor:
#      x y z
#    x 1.708200 0.000000 0.000000 
#    y 0.000000 1.686180 0.000000 
#    z 0.000000 0.000000 1.726760 
# 
# From -- ./inp_files/8049.got.cif
#   From: 2010.03.12/outbox.cif.g09.slc.cpg/sg57_5_cif.got.tgz:8049.got - 2010.04.16 15:48:40.
