data_PCOD8230344
_publ_section_title
;
Structure prediction by ZEFSAII (Michael W. Deem and Ramdas Pophale) SiO2 
 PCOD8230344
Probable space group: P B C M
;
_chemical_formula_sum "Si O2"
_cell_formula_units_Z 64
_cell_length_a 14.674141
_cell_length_b 27.884315
_cell_length_c 8.489020
_cell_angle_alpha 90.000000
_cell_angle_beta 90.000000
_cell_angle_gamma 90.000000
_cell_volume 3473.523366
_symmetry_space_group_name_H-M "P B C M"
_symmetry_group_IT_number 57
_symmetry_cell_setting 'orthorhombic'
loop_
_space_group_symop_operation_xyz
x,y,z
-x,-y,1/2+z
x,1/2-y,-z
-x,1/2+y,1/2-z
-x,-y,-z
x,y,1/2-z
-x,1/2+y,z
x,1/2-y,1/2+z
loop_
_atom_site_type_symbol
_atom_site_label
_atom_site_fract_x
_atom_site_fract_y
_atom_site_fract_z
Si Si1 0.357485 0.301496 0.936857
Si Si2 0.464179 0.109304 0.932848
Si Si3 0.349700 0.474649 0.567287
Si Si4 0.159965 0.469002 0.064430
Si Si5 0.844220 0.076545 0.435821
Si Si6 0.643721 0.078425 0.434579
Si Si7 0.033623 0.389097 0.937066
Si Si8 0.850044 0.800538 0.935615
O O1 0.367512 0.303831 0.750000
O O2 0.253215 0.311032 0.991191
O O3 0.389902 0.250000 0.000000
O O4 0.421272 0.340635 0.015969
O O5 0.445390 0.100526 0.750000
O O6 0.424717 0.065432 0.033124
O O7 0.572130 0.110520 0.968720
O O8 0.353132 0.488498 0.750000
O O9 0.252199 0.451799 0.521865
O O10 0.370297 0.521829 0.465237
O O11 0.176593 0.466529 0.250000
O O12 0.136224 0.522535 0.004799
O O13 0.077628 0.435444 0.014892
O O14 0.839424 0.074839 0.250000
O O15 0.744952 0.094106 0.495957
O O16 0.926950 0.111301 0.489723
O O17 0.631094 0.088312 0.250000
O O18 0.043888 0.393117 0.750000
O O19 0.082979 0.341552 0.002618
O O20 0.854965 0.798760 0.750000
O O21 0.885619 0.750000 0.000000
#
# Coordination Sequence:
#
# PCOD8230344 Si02
#       8
#     8   8   8   8   8   8   8   8
#     4  10  20  36  55  79 107 137 168 206 255 308
#     4  12  23  35  53  78 104 135 172 213 258 312
#     4  11  21  34  51  74 104 139 174 213 257 307
#     4  10  19  31  47  73 105 137 169 207 252 302
#     4   8  17  32  50  71 100 135 173 211 250 294
#     4  10  20  36  53  73 102 138 177 218 258 303
#     4  10  18  31  51  75 100 133 172 209 249 300
#     4   9  19  33  52  75 102 130 160 197 245 298
#
# _framework density 18.425094999999999
#
# number of rings (size 3 to 8) (size 9 to 14) (size 15 to 20)
#    0.000    2.000    0.000    5.625    0.000    2.000 
#    0.000    3.125    0.000    0.750    0.000    1.750 
#    0.000    0.000    0.000    0.000    0.000    0.000 
#
# Total GULP energy -793613.280688 kJ/mol
# GULP energy per Si atom -12400.207511 kJ/mol
# Density = 1.838316 g / cm^3
# Si number density = 18.425095 Si / 1000 Ang^3
#
#
#
# Elastic Constant Matrix: (Units=GPa)
#
#
# Indices 1 2 3 4 5 6 
#
# 1 135.6973 68.8953 21.1863 0.0000 0.0000 0.0000
# 2 68.8953 89.4150 13.8066 0.0000 0.0000 0.0000
# 3 21.1863 13.8066 53.7531 0.0000 0.0000 0.0000
# 4 0.0000 0.0000 0.0000 25.3849 0.0000 0.0000
# 5 0.0000 0.0000 0.0000 0.0000 22.0576 0.0000
# 6 0.0000 0.0000 0.0000 0.0000 0.0000 26.1428
#
#
#
# Elastic Compliance Matrix: (Units=1/GPa)
#
#
# Indices 1 2 3 4 5 6 
#
# 1 0.012429 -0.009184 -0.002540 0.000000 0.000000 0.000000
# 2 -0.009184 0.018433 -0.001114 0.000000 0.000000 0.000000
# 3 -0.002540 -0.001114 0.019891 0.000000 0.000000 0.000000
# 4 0.000000 0.000000 0.000000 0.039394 0.000000 0.000000
# 5 0.000000 0.000000 0.000000 0.000000 0.045336 0.000000
# 6 0.000000 0.000000 0.000000 0.000000 0.000000 0.038252
#
#
# Mechanical properties :
#
#
# Convention : Reuss Voigt Hill
#
# Bulk Modulus (GPa) = 39.88024 54.07131 46.97578
# Shear Modulus (GPa) = 24.06518 26.38219 25.22369
#
# Velocity S-wave (km/s) = 3.61793 3.78810 3.70399
# Velocity P-wave (km/s) = 6.25652 6.96730 6.62145
#
# Compressibility (1/GPa) = 0.02507508
#
# Stress axis : x y z
#
# Youngs Moduli (GPa) = 80.45726 54.25154 50.27440
#
# Poissons Ratio (x) = 0.49827 0.12768
# Poissons Ratio (y) = 0.73896 0.05603
# Poissons Ratio (z) = 0.20434 0.06046
#
# Static dielectric constant tensor:
#      x y z
#    x 3.766780 0.000000 0.000000 
#    y 0.000000 3.309670 0.000000 
#    z 0.000000 0.000000 3.285720 
# 
# 
# High freq. dielectric constant tensor:
#      x y z
#    x 1.719830 0.000000 0.000000 
#    y 0.000000 1.688760 0.000000 
#    z 0.000000 0.000000 1.710950 
# 
# From -- ./inp_files/5730.got.cif
#   From: 2010.03.12/outbox.cif.g09.slc.cpg/sg57_3_cif.got.tgz:5730.got - 2010.04.16 15:48:40.
