data_PCOD8230669
_publ_section_title
;
Structure prediction by ZEFSAII (Michael W. Deem and Ramdas Pophale) SiO2 
 PCOD8230669
Probable space group: P B C M
;
_chemical_formula_sum "Si O2"
_cell_formula_units_Z 64
_cell_length_a 15.540860
_cell_length_b 24.785596
_cell_length_c 9.608311
_cell_angle_alpha 90.000000
_cell_angle_beta 90.000000
_cell_angle_gamma 90.000000
_cell_volume 3701.020293
_symmetry_space_group_name_H-M "P B C M"
_symmetry_group_IT_number 57
_symmetry_cell_setting 'orthorhombic'
loop_
_space_group_symop_operation_xyz
x,y,z
-x,-y,1/2+z
x,1/2-y,-z
-x,1/2+y,1/2-z
-x,-y,-z
x,y,1/2-z
-x,1/2+y,z
x,1/2-y,1/2+z
loop_
_atom_site_type_symbol
_atom_site_label
_atom_site_fract_x
_atom_site_fract_y
_atom_site_fract_z
Si Si1 0.986791 0.201467 0.907033
Si Si2 0.955234 0.888736 0.902599
Si Si3 0.802369 0.157301 0.593273
Si Si4 0.616286 0.302340 0.412640
Si Si5 0.193827 0.031522 0.094783
Si Si6 0.865493 0.062318 0.092095
Si Si7 0.610039 0.529706 0.409238
Si Si8 0.531355 0.416528 0.087543
O O1 0.017611 0.210056 0.750000
O O2 0.883784 0.196831 0.916925
O O3 0.019368 0.250000 0.000000
O O4 0.035712 0.150217 0.967276
O O5 0.965649 0.860195 0.750000
O O6 0.861302 0.914184 0.912212
O O7 0.031537 0.932390 0.916267
O O8 0.794344 0.133309 0.750000
O O9 0.717501 0.190931 0.556000
O O10 0.813500 0.109170 0.485422
O O11 0.583146 0.250000 0.500000
O O12 0.599016 0.290871 0.250000
O O13 0.569684 0.358367 0.459273
O O14 0.186694 0.005636 0.250000
O O15 0.291992 0.045632 0.061150
O O16 0.156274 0.993576 0.977871
O O17 0.832352 0.062114 0.250000
O O18 0.583344 0.540304 0.250000
O O19 0.555211 0.570343 0.503784
O O20 0.597401 0.465904 0.444935
O O21 0.508844 0.414587 0.250000
#
# Coordination Sequence:
#
# PCOD8230669 Si02
#       8
#     8   8   8   8   8   8   8   8
#     4  10  19  31  49  69  92 125 162 201 241 280
#     4   9  19  33  47  67  96 128 162 198 236 280
#     4   9  18  32  48  68  97 132 165 195 232 279
#     4  10  20  33  50  73 102 134 164 196 237 289
#     4  10  19  32  50  70  96 129 160 194 238 285
#     4  10  19  29  45  71 101 131 162 197 233 275
#     4   9  18  33  54  75  94 123 162 201 242 290
#     4   9  18  33  51  73 101 127 155 196 244 290
#
# _framework density 17.292528999999998
#
# number of rings (size 3 to 8) (size 9 to 14) (size 15 to 20)
#    0.000    2.500    0.000    2.250    0.000    5.000 
#    0.000    2.500    0.000    0.750    0.000    1.750 
#    0.000    0.000    0.000    0.000    0.000    0.000 
#
# Total GULP energy -793386.818514 kJ/mol
# GULP energy per Si atom -12396.669039 kJ/mol
# Density = 1.725317 g / cm^3
# Si number density = 17.292529 Si / 1000 Ang^3
#
#
#
# Elastic Constant Matrix: (Units=GPa)
#
#
# Indices 1 2 3 4 5 6 
#
# 1 90.3756 45.9435 49.1263 0.0000 0.0000 0.0000
# 2 45.9435 86.1197 58.0198 0.0000 0.0000 0.0000
# 3 49.1263 58.0198 113.1754 0.0000 0.0000 0.0000
# 4 0.0000 0.0000 0.0000 34.0416 0.0000 0.0000
# 5 0.0000 0.0000 0.0000 0.0000 20.6376 0.0000
# 6 0.0000 0.0000 0.0000 0.0000 0.0000 15.8472
#
#
#
# Elastic Compliance Matrix: (Units=1/GPa)
#
#
# Indices 1 2 3 4 5 6 
#
# 1 0.016285 -0.005996 -0.003995 0.000000 0.000000 0.000000
# 2 -0.005996 0.019946 -0.007623 0.000000 0.000000 0.000000
# 3 -0.003995 -0.007623 0.014478 0.000000 0.000000 0.000000
# 4 0.000000 0.000000 0.000000 0.029376 0.000000 0.000000
# 5 0.000000 0.000000 0.000000 0.000000 0.048455 0.000000
# 6 0.000000 0.000000 0.000000 0.000000 0.000000 0.063103
#
#
# Mechanical properties :
#
#
# Convention : Reuss Voigt Hill
#
# Bulk Modulus (GPa) = 64.59484 66.20555 65.40020
# Shear Modulus (GPa) = 21.54894 23.21068 22.37981
#
# Velocity S-wave (km/s) = 3.53390 3.66763 3.60139
# Velocity P-wave (km/s) = 7.35436 7.50361 7.42936
#
# Compressibility (1/GPa) = 0.01548111
#
# Stress axis : x y z
#
# Youngs Moduli (GPa) = 61.40745 50.13493 69.07232
#
# Poissons Ratio (x) = 0.30063 0.27592
# Poissons Ratio (y) = 0.36822 0.52651
# Poissons Ratio (z) = 0.24530 0.38216
#
# Static dielectric constant tensor:
#      x y z
#    x 3.094320 0.000000 0.000000 
#    y 0.000000 3.029360 0.000000 
#    z 0.000000 0.000000 3.369220 
# 
# 
# High freq. dielectric constant tensor:
#      x y z
#    x 1.649160 0.000000 0.000000 
#    y 0.000000 1.650050 0.000000 
#    z 0.000000 0.000000 1.678270 
# 
# From -- ./inp_files/5708.got.cif
#   From: 2010.03.12/outbox.cif.g09.slc.cpg/sg57_3_cif.got.tgz:5708.got - 2010.04.16 15:48:40.
