data_PCOD8230771
_publ_section_title
;
Structure prediction by ZEFSAII (Michael W. Deem and Ramdas Pophale) SiO2 
 PCOD8230771
Probable space group: P B C M
;
_chemical_formula_sum "Si O2"
_cell_formula_units_Z 48
_cell_length_a 23.520523
_cell_length_b 13.643559
_cell_length_c 8.972451
_cell_angle_alpha 90.000000
_cell_angle_beta 90.000000
_cell_angle_gamma 90.000000
_cell_volume 2879.292215
_symmetry_space_group_name_H-M "P B C M"
_symmetry_group_IT_number 57
_symmetry_cell_setting 'orthorhombic'
loop_
_space_group_symop_operation_xyz
x,y,z
-x,-y,1/2+z
x,1/2-y,-z
-x,1/2+y,1/2-z
-x,-y,-z
x,y,1/2-z
-x,1/2+y,z
x,1/2-y,1/2+z
loop_
_atom_site_type_symbol
_atom_site_label
_atom_site_fract_x
_atom_site_fract_y
_atom_site_fract_z
Si Si1 0.084673 0.478364 0.576160
Si Si2 0.811810 0.850147 0.576596
Si Si3 0.583689 0.954286 0.075789
Si Si4 0.519348 0.150400 0.424319
Si Si5 0.024318 0.853417 0.576291
Si Si6 0.317448 0.147085 0.425986
O O1 0.082742 0.504709 0.750000
O O2 0.145896 0.436532 0.526177
O O3 0.074299 0.576654 0.483550
O O4 0.037015 0.398035 0.535891
O O5 0.830546 0.750000 0.500000
O O6 0.818342 0.830115 0.750000
O O7 0.747566 0.880113 0.534692
O O8 0.586712 0.929747 0.250000
O O9 0.566435 0.066876 0.047599
O O10 0.539490 0.880232 0.000365
O O11 0.644529 0.938275 0.998364
O O12 0.541958 0.250000 0.500000
O O13 0.508431 0.167176 0.250000
O O14 0.030595 0.750000 0.500000
O O15 0.032797 0.839454 0.750000
O O16 0.334602 0.250000 0.500000
O O17 0.327936 0.153490 0.250000
#
# Coordination Sequence:
#
# PCOD8230771 Si02
#       6
#     8   8   8   8   8   8
#     4   9  18  32  48  68  95 124 156 192 231 277
#     4   9  18  31  48  70  95 124 155 190 231 274
#     4  10  20  33  49  70  96 125 156 190 229 273
#     4  10  20  33  50  71  95 123 154 190 231 275
#     4  10  19  30  47  70  95 124 155 191 234 278
#     4  10  19  31  48  70  96 125 156 190 230 274
#
# _framework density 16.670763000000001
#
# number of rings (size 3 to 8) (size 9 to 14) (size 15 to 20)
#    0.000    2.333    0.000    3.000    0.000    4.000 
#    0.000    0.000    0.000    1.000    0.000    2.333 
#    0.000    0.000    0.000    0.000    0.000    0.000 
#
# Total GULP energy -595332.090762 kJ/mol
# GULP energy per Si atom -12402.751891 kJ/mol
# Density = 1.663282 g / cm^3
# Si number density = 16.670763 Si / 1000 Ang^3
#
#
#
# Elastic Constant Matrix: (Units=GPa)
#
#
# Indices 1 2 3 4 5 6 
#
# 1 100.4162 62.2990 50.5485 0.0000 0.0000 0.0000
# 2 62.2990 126.9265 65.8948 0.0000 0.0000 0.0000
# 3 50.5485 65.8948 91.9795 0.0000 0.0000 0.0000
# 4 0.0000 0.0000 0.0000 32.1646 0.0000 0.0000
# 5 0.0000 0.0000 0.0000 0.0000 24.6160 0.0000
# 6 0.0000 0.0000 0.0000 0.0000 0.0000 29.0415
#
#
#
# Elastic Compliance Matrix: (Units=1/GPa)
#
#
# Indices 1 2 3 4 5 6 
#
# 1 0.015600 -0.005105 -0.004916 0.000000 0.000000 0.000000
# 2 -0.005105 0.014214 -0.007378 0.000000 0.000000 0.000000
# 3 -0.004916 -0.007378 0.018859 0.000000 0.000000 0.000000
# 4 0.000000 0.000000 0.000000 0.031090 0.000000 0.000000
# 5 0.000000 0.000000 0.000000 0.000000 0.040624 0.000000
# 6 0.000000 0.000000 0.000000 0.000000 0.000000 0.034433
#
#
# Mechanical properties :
#
#
# Convention : Reuss Voigt Hill
#
# Bulk Modulus (GPa) = 72.06564 75.20073 73.63318
# Shear Modulus (GPa) = 25.74065 26.53642 26.13853
#
# Velocity S-wave (km/s) = 3.93372 3.99406 3.96400
# Velocity P-wave (km/s) = 7.99717 8.15336 8.07564
#
# Compressibility (1/GPa) = 0.01387624
#
# Stress axis : x y z
#
# Youngs Moduli (GPa) = 64.10084 70.35097 53.02386
#
# Poissons Ratio (x) = 0.35913 0.26068
# Poissons Ratio (y) = 0.32722 0.39121
# Poissons Ratio (z) = 0.31514 0.51905
#
# Static dielectric constant tensor:
#      x y z
#    x 3.186760 0.000000 0.000000 
#    y 0.000000 3.061370 0.000000 
#    z 0.000000 0.000000 3.255200 
# 
# 
# High freq. dielectric constant tensor:
#      x y z
#    x 1.631830 0.000000 0.000000 
#    y 0.000000 1.632010 0.000000 
#    z 0.000000 0.000000 1.656550 
# 
# From -- ./inp_files/9113.got.cif
#   From: 2010.03.12/outbox.cif.g09.slc.cpg/sg57_5_cif.got.tgz:9113.got - 2010.04.16 15:48:40.
