data_PCOD8230333
_publ_section_title
;
Structure prediction by ZEFSAII (Michael W. Deem and Ramdas Pophale) SiO2 
 PCOD8230333
Probable space group: P B C M
;
_chemical_formula_sum "Si O2"
_cell_formula_units_Z 64
_cell_length_a 19.829902
_cell_length_b 19.944226
_cell_length_c 8.836927
_cell_angle_alpha 90.000000
_cell_angle_beta 90.000000
_cell_angle_gamma 90.000000
_cell_volume 3494.934349
_symmetry_space_group_name_H-M "P B C M"
_symmetry_group_IT_number 57
_symmetry_cell_setting 'orthorhombic'
loop_
_space_group_symop_operation_xyz
x,y,z
-x,-y,1/2+z
x,1/2-y,-z
-x,1/2+y,1/2-z
-x,-y,-z
x,y,1/2-z
-x,1/2+y,z
x,1/2-y,1/2+z
loop_
_atom_site_type_symbol
_atom_site_label
_atom_site_fract_x
_atom_site_fract_y
_atom_site_fract_z
Si Si1 0.153007 0.410964 0.927444
Si Si2 0.472209 0.932443 0.071899
Si Si3 0.387276 0.104317 0.926803
Si Si4 0.342235 0.960297 0.929109
Si Si5 0.199485 0.942108 0.073357
Si Si6 0.044741 0.319882 0.429186
Si Si7 0.109993 0.681448 0.572376
Si Si8 0.262063 0.180827 0.928571
O O1 0.154115 0.394888 0.750000
O O2 0.157785 0.490176 0.960333
O O3 0.084841 0.382262 0.000328
O O4 0.216869 0.378503 0.008238
O O5 0.461043 0.941106 0.250000
O O6 0.533832 0.879976 0.036586
O O7 0.401568 0.911154 0.994107
O O8 0.500000 0.000000 0.000000
O O9 0.377435 0.094185 0.750000
O O10 0.339270 0.165164 0.980101
O O11 0.359938 0.034051 0.996154
O O12 0.343390 0.955830 0.750000
O O13 0.269698 0.937520 0.985982
O O14 0.215446 0.935785 0.250000
O O15 0.153950 0.880839 0.013461
O O16 0.071464 0.250000 0.500000
O O17 0.056204 0.317587 0.250000
O O18 0.967268 0.331262 0.475262
O O19 0.137693 0.750000 0.500000
O O20 0.116218 0.689268 0.750000
O O21 0.252853 0.185220 0.750000
O O22 0.238170 0.250000 0.000000
#
# Coordination Sequence:
#
# PCOD8230333 Si02
#       8
#     8   8   8   8   8   8   8   8
#     4  11  22  35  52  78 108 140 178 220 266 317
#     4   9  16  28  47  73 100 133 171 215 265 311
#     4   8  16  30  48  69  99 133 171 216 259 305
#     4  10  18  31  50  77 106 137 173 214 264 317
#     4  10  21  36  55  80 111 141 172 220 272 318
#     4  10  20  36  57  78 105 142 180 220 263 313
#     4   9  20  39  60  82 106 135 174 217 267 325
#     4  11  21  35  51  72 104 144 184 223 265 316
#
# _framework density 18.312218999999999
#
# number of rings (size 3 to 8) (size 9 to 14) (size 15 to 20)
#    0.000    2.250    1.250    3.000    0.000    2.000 
#    0.000    1.875    0.000    0.750    0.000    1.750 
#    0.000    0.000    0.000    0.000    0.000    0.000 
#
# Total GULP energy -793297.693484 kJ/mol
# GULP energy per Si atom -12395.276461 kJ/mol
# Density = 1.827054 g / cm^3
# Si number density = 18.312219 Si / 1000 Ang^3
#
#
#
# Elastic Constant Matrix: (Units=GPa)
#
#
# Indices 1 2 3 4 5 6 
#
# 1 129.5947 61.6112 48.9355 0.0000 0.0000 0.0000
# 2 61.6112 100.7733 41.4111 0.0000 0.0000 0.0000
# 3 48.9355 41.4111 80.5971 0.0000 0.0000 0.0000
# 4 0.0000 0.0000 0.0000 20.8496 0.0000 0.0000
# 5 0.0000 0.0000 0.0000 0.0000 30.9332 0.0000
# 6 0.0000 0.0000 0.0000 0.0000 0.0000 20.3831
#
#
#
# Elastic Compliance Matrix: (Units=1/GPa)
#
#
# Indices 1 2 3 4 5 6 
#
# 1 0.012026 -0.005517 -0.004467 0.000000 0.000000 0.000000
# 2 -0.005517 0.015110 -0.004414 0.000000 0.000000 0.000000
# 3 -0.004467 -0.004414 0.017388 0.000000 0.000000 0.000000
# 4 0.000000 0.000000 0.000000 0.047962 0.000000 0.000000
# 5 0.000000 0.000000 0.000000 0.000000 0.032328 0.000000
# 6 0.000000 0.000000 0.000000 0.000000 0.000000 0.049060
#
#
# Mechanical properties :
#
#
# Convention : Reuss Voigt Hill
#
# Bulk Modulus (GPa) = 63.58210 68.32006 65.95108
# Shear Modulus (GPa) = 24.04859 25.03367 24.54113
#
# Velocity S-wave (km/s) = 3.62782 3.70137 3.66478
# Velocity P-wave (km/s) = 7.23495 7.46032 7.34850
#
# Compressibility (1/GPa) = 0.01572770
#
# Stress axis : x y z
#
# Youngs Moduli (GPa) = 83.15370 66.18142 57.51222
#
# Poissons Ratio (x) = 0.36511 0.25692
# Poissons Ratio (y) = 0.45874 0.25386
# Poissons Ratio (z) = 0.37146 0.29212
#
# Static dielectric constant tensor:
#      x y z
#    x 3.762390 0.000000 0.000000 
#    y 0.000000 3.258740 0.000000 
#    z 0.000000 0.000000 3.359520 
# 
# 
# High freq. dielectric constant tensor:
#      x y z
#    x 1.723170 0.000000 0.000000 
#    y 0.000000 1.677330 0.000000 
#    z 0.000000 0.000000 1.710180 
# 
# From -- ./inp_files/8504.got.cif
#   From: 2010.03.12/outbox.cif.g09.slc.cpg/sg57_5_cif.got.tgz:8504.got - 2010.04.16 15:48:40.
