data_PCOD8230143
_publ_section_title
;
Structure prediction by ZEFSAII (Michael W. Deem and Ramdas Pophale) SiO2 
 PCOD8230143
Probable space group: P B C M
;
_chemical_formula_sum "Si O2"
_cell_formula_units_Z 64
_cell_length_a 21.301949
_cell_length_b 18.864964
_cell_length_c 9.094508
_cell_angle_alpha 90.000000
_cell_angle_beta 90.000000
_cell_angle_gamma 90.000000
_cell_volume 3654.723541
_symmetry_space_group_name_H-M "P B C M"
_symmetry_group_IT_number 57
_symmetry_cell_setting 'orthorhombic'
loop_
_space_group_symop_operation_xyz
x,y,z
-x,-y,1/2+z
x,1/2-y,-z
-x,1/2+y,1/2-z
-x,-y,-z
x,y,1/2-z
-x,1/2+y,z
x,1/2-y,1/2+z
loop_
_atom_site_type_symbol
_atom_site_label
_atom_site_fract_x
_atom_site_fract_y
_atom_site_fract_z
Si Si1 0.906438 0.176244 0.579251
Si Si2 0.387232 0.181320 0.576090
Si Si3 0.731995 0.865831 0.584966
Si Si4 0.324582 0.978943 0.411755
Si Si5 0.843991 0.578602 0.921009
Si Si6 0.193657 0.938271 0.420637
Si Si7 0.986411 0.927085 0.420579
Si Si8 0.438641 0.471736 0.421907
O O1 0.901860 0.250000 0.500000
O O2 0.914880 0.191324 0.750000
O O3 0.842344 0.134128 0.545176
O O4 0.966068 0.132339 0.518523
O O5 0.420284 0.250000 0.500000
O O6 0.384533 0.191666 0.750000
O O7 0.316857 0.178694 0.511979
O O8 0.425969 0.110279 0.534321
O O9 0.736474 0.833812 0.750000
O O10 0.800165 0.865136 0.507445
O O11 0.709217 0.945867 0.591776
O O12 0.352505 0.961142 0.250000
O O13 0.268136 0.925120 0.455032
O O14 0.380714 0.978382 0.528895
O O15 0.825564 0.580823 0.750000
O O16 0.915941 0.600776 0.948079
O O17 0.835346 0.498831 0.977538
O O18 0.185177 0.961188 0.250000
O O19 0.999562 0.941268 0.250000
O O20 0.000000 0.000000 0.500000
O O21 0.500000 0.500000 0.500000
O O22 0.447390 0.480571 0.250000
#
# Coordination Sequence:
#
# PCOD8230143 Si02
#       8
#     8   8   8   8   8   8   8   8
#     4  10  21  36  51  71 100 132 169 215 267 323
#     4  10  20  34  53  78 107 140 178 219 261 311
#     4   9  17  30  48  71 100 134 166 203 252 302
#     4   8  15  28  48  73  98 126 161 201 247 296
#     4  10  18  28  47  75 100 125 164 215 261 304
#     4   9  17  31  51  72  97 128 162 206 257 310
#     4  10  20  33  51  73  99 131 173 222 266 317
#     4  10  20  33  52  79 110 142 176 215 254 299
#
# _framework density 17.511583999999999
#
# number of rings (size 3 to 8) (size 9 to 14) (size 15 to 20)
#    0.000    2.500    1.250    2.250    0.000    6.000 
#    0.000    0.625    0.000    2.250    0.000    1.750 
#    0.000    0.000    0.000    0.000    0.000    0.000 
#
# Total GULP energy -793400.090903 kJ/mol
# GULP energy per Si atom -12396.876420 kJ/mol
# Density = 1.747173 g / cm^3
# Si number density = 17.511584 Si / 1000 Ang^3
#
#
#
# Elastic Constant Matrix: (Units=GPa)
#
#
# Indices 1 2 3 4 5 6 
#
# 1 131.7518 55.1960 58.5607 0.0000 0.0000 0.0000
# 2 55.1960 84.7888 43.4396 0.0000 0.0000 0.0000
# 3 58.5607 43.4396 89.1463 0.0000 0.0000 0.0000
# 4 0.0000 0.0000 0.0000 28.0081 0.0000 0.0000
# 5 0.0000 0.0000 0.0000 0.0000 30.2937 0.0000
# 6 0.0000 0.0000 0.0000 0.0000 0.0000 19.3042
#
#
#
# Elastic Compliance Matrix: (Units=1/GPa)
#
#
# Indices 1 2 3 4 5 6 
#
# 1 0.012179 -0.005103 -0.005513 0.000000 0.000000 0.000000
# 2 -0.005103 0.017857 -0.005349 0.000000 0.000000 0.000000
# 3 -0.005513 -0.005349 0.017446 0.000000 0.000000 0.000000
# 4 0.000000 0.000000 0.000000 0.035704 0.000000 0.000000
# 5 0.000000 0.000000 0.000000 0.000000 0.033010 0.000000
# 6 0.000000 0.000000 0.000000 0.000000 0.000000 0.051802
#
#
# Mechanical properties :
#
#
# Convention : Reuss Voigt Hill
#
# Bulk Modulus (GPa) = 64.30988 68.89772 66.60380
# Shear Modulus (GPa) = 24.37698 25.42057 24.89878
#
# Velocity S-wave (km/s) = 3.73506 3.81418 3.77483
# Velocity P-wave (km/s) = 7.44344 7.66986 7.55750
#
# Compressibility (1/GPa) = 0.01554971
#
# Stress axis : x y z
#
# Youngs Moduli (GPa) = 82.11106 56.00183 57.32079
#
# Poissons Ratio (x) = 0.28580 0.31603
# Poissons Ratio (y) = 0.41905 0.30660
# Poissons Ratio (z) = 0.45271 0.29954
#
# Static dielectric constant tensor:
#      x y z
#    x 3.517220 0.000000 0.000000 
#    y 0.000000 3.087480 0.000000 
#    z 0.000000 0.000000 3.355410 
# 
# 
# High freq. dielectric constant tensor:
#      x y z
#    x 1.676580 0.000000 0.000000 
#    y 0.000000 1.644060 0.000000 
#    z 0.000000 0.000000 1.683960 
# 
# From -- ./inp_files/8540.got.cif
#   From: 2010.03.12/outbox.cif.g09.slc.cpg/sg57_5_cif.got.tgz:8540.got - 2010.04.16 15:48:40.
