data_PCOD8230311
_publ_section_title
;
Structure prediction by ZEFSAII (Michael W. Deem and Ramdas Pophale) SiO2 
 PCOD8230311
Probable space group: P B C M
;
_chemical_formula_sum "Si O2"
_cell_formula_units_Z 56
_cell_length_a 17.513029
_cell_length_b 20.999755
_cell_length_c 8.953175
_cell_angle_alpha 90.000000
_cell_angle_beta 90.000000
_cell_angle_gamma 90.000000
_cell_volume 3292.703066
_symmetry_space_group_name_H-M "P B C M"
_symmetry_group_IT_number 57
_symmetry_cell_setting 'orthorhombic'
loop_
_space_group_symop_operation_xyz
x,y,z
-x,-y,1/2+z
x,1/2-y,-z
-x,1/2+y,1/2-z
-x,-y,-z
x,y,1/2-z
-x,1/2+y,z
x,1/2-y,1/2+z
loop_
_atom_site_type_symbol
_atom_site_label
_atom_site_fract_x
_atom_site_fract_y
_atom_site_fract_z
Si Si1 0.401301 0.813297 0.427247
Si Si2 0.108865 0.683455 0.573757
Si Si3 0.287550 0.510205 0.087584
Si Si4 0.746387 0.347196 0.586218
Si Si5 0.004248 0.905018 0.923028
Si Si6 0.118593 0.480483 0.075410
Si Si7 0.566071 0.459024 0.074470
O O1 0.443383 0.750000 0.500000
O O2 0.401580 0.805310 0.250000
O O3 0.315297 0.808705 0.489904
O O4 0.436842 0.883151 0.471616
O O5 0.126710 0.750000 0.500000
O O6 0.107731 0.686563 0.750000
O O7 0.178212 0.641097 0.512408
O O8 0.028006 0.657527 0.514672
O O9 0.304619 0.477121 0.250000
O O10 0.284184 0.583931 0.122023
O O11 0.206539 0.485306 0.021740
O O12 0.356461 0.502911 0.970611
O O13 0.761559 0.314318 0.750000
O O14 0.999088 0.888294 0.750000
O O15 0.069986 0.956356 0.958201
O O16 0.920760 0.924710 0.980493
O O17 0.114628 0.464338 0.250000
O O18 0.557441 0.464100 0.250000
O O19 0.500000 0.500000 0.000000
#
# Coordination Sequence:
#
# PCOD8230311 Si02
#       7
#     8   8   8   8   8   8   8
#     4  10  20  33  49  73 100 133 171 206 244 299
#     4  12  23  33  45  62  90 128 167 207 248 293
#     4   9  17  31  51  72  99 131 164 202 245 292
#     4  10  18  31  47  67  96 130 166 203 240 286
#     4  10  19  32  47  68  95 124 162 203 243 285
#     4   9  17  31  49  71  96 125 159 198 243 287
#     4  10  21  35  52  76 105 135 171 209 255 307
#
# _framework density 17.007303
#
# number of rings (size 3 to 8) (size 9 to 14) (size 15 to 20)
#    0.000    2.000    1.429    3.429    0.000    3.429 
#    0.000    0.000    0.000    0.000    0.000    1.000 
#    0.000    4.571    0.000    0.000    0.000    0.000 
#
# Total GULP energy -693735.816065 kJ/mol
# GULP energy per Si atom -12388.139573 kJ/mol
# Density = 1.696859 g / cm^3
# Si number density = 17.007303 Si / 1000 Ang^3
#
#
#
# Elastic Constant Matrix: (Units=GPa)
#
#
# Indices 1 2 3 4 5 6 
#
# 1 102.8917 39.7394 48.5520 0.0000 0.0000 0.0000
# 2 39.7394 47.0142 34.0666 0.0000 0.0000 0.0000
# 3 48.5520 34.0666 94.9127 0.0000 0.0000 0.0000
# 4 0.0000 0.0000 0.0000 24.4453 0.0000 0.0000
# 5 0.0000 0.0000 0.0000 0.0000 25.2154 0.0000
# 6 0.0000 0.0000 0.0000 0.0000 0.0000 19.4187
#
#
#
# Elastic Compliance Matrix: (Units=1/GPa)
#
#
# Indices 1 2 3 4 5 6 
#
# 1 0.015688 -0.010062 -0.004413 0.000000 0.000000 0.000000
# 2 -0.010062 0.035201 -0.007487 0.000000 0.000000 0.000000
# 3 -0.004413 -0.007487 0.015481 0.000000 0.000000 0.000000
# 4 0.000000 0.000000 0.000000 0.040908 0.000000 0.000000
# 5 0.000000 0.000000 0.000000 0.000000 0.039658 0.000000
# 6 0.000000 0.000000 0.000000 0.000000 0.000000 0.051497
#
#
# Mechanical properties :
#
#
# Convention : Reuss Voigt Hill
#
# Bulk Modulus (GPa) = 44.55576 54.39274 49.47425
# Shear Modulus (GPa) = 20.01286 21.97992 20.99639
#
# Velocity S-wave (km/s) = 3.43406 3.59887 3.51743
# Velocity P-wave (km/s) = 6.47909 7.02286 6.75645
#
# Compressibility (1/GPa) = 0.02244379
#
# Stress axis : x y z
#
# Youngs Moduli (GPa) = 63.74346 28.40846 64.59551
#
# Poissons Ratio (x) = 0.28586 0.28508
# Poissons Ratio (y) = 0.64142 0.48363
# Poissons Ratio (z) = 0.28132 0.21270
#
# Static dielectric constant tensor:
#      x y z
#    x 3.237690 0.000000 0.000000 
#    y 0.000000 3.133610 0.000000 
#    z 0.000000 0.000000 3.737700 
# 
# 
# High freq. dielectric constant tensor:
#      x y z
#    x 1.630130 0.000000 0.000000 
#    y 0.000000 1.628540 0.000000 
#    z 0.000000 0.000000 1.670630 
# 
# From -- ./inp_files/6991.got.cif
#   From: 2010.03.12/outbox.cif.g09.slc.cpg/sg57_4_cif.got.tgz:6991.got - 2010.04.16 15:48:40.
