data_PCOD8230515
_publ_section_title
;
Structure prediction by ZEFSAII (Michael W. Deem and Ramdas Pophale) SiO2 
 PCOD8230515
Probable space group: P B C M
;
_chemical_formula_sum "Si O2"
_cell_formula_units_Z 48
_cell_length_a 29.219027
_cell_length_b 8.880653
_cell_length_c 9.201850
_cell_angle_alpha 90.000000
_cell_angle_beta 90.000000
_cell_angle_gamma 90.000000
_cell_volume 2387.733211
_symmetry_space_group_name_H-M "P B C M"
_symmetry_group_IT_number 57
_symmetry_cell_setting 'orthorhombic'
loop_
_space_group_symop_operation_xyz
x,y,z
-x,-y,1/2+z
x,1/2-y,-z
-x,1/2+y,1/2-z
-x,-y,-z
x,y,1/2-z
-x,1/2+y,z
x,1/2-y,1/2+z
loop_
_atom_site_type_symbol
_atom_site_label
_atom_site_fract_x
_atom_site_fract_y
_atom_site_fract_z
Si Si1 0.205709 0.904861 0.085683
Si Si2 0.541689 0.587706 0.571875
Si Si3 0.106821 0.575380 0.522738
Si Si4 0.059155 0.512135 0.250000
Si Si5 0.288669 0.401031 0.583996
Si Si6 0.378828 0.590877 0.579071
Si Si7 0.035772 0.861507 0.250000
O O1 0.219166 0.865448 0.250000
O O2 0.242211 0.023422 0.021220
O O3 0.208151 0.750000 0.000000
O O4 0.155228 0.984277 0.083340
O O5 0.539728 0.750000 0.500000
O O6 0.500000 0.500000 0.500000
O O7 0.539406 0.591872 0.750000
O O8 0.587973 0.512410 0.516025
O O9 0.116532 0.750000 0.500000
O O10 0.093515 0.481544 0.381529
O O11 0.061189 0.559167 0.617214
O O12 0.040057 0.681868 0.250000
O O13 0.017783 0.395426 0.250000
O O14 0.301098 0.250000 0.500000
O O15 0.281671 0.353777 0.750000
O O16 0.328719 0.521598 0.566471
O O17 0.378484 0.750000 0.500000
O O18 0.393819 0.603539 0.750000
#
# Coordination Sequence:
#
# PCOD8230515 Si02
#       7
#     8   8   8   4   8   8   4
#     4  10  20  36  59  85 110 143 191 240 287 343
#     4  12  25  43  66  95 132 173 218 265 318 371
#     4   9  18  32  53  75 104 134 179 224 274 332
#     4  10  20  32  52  74 104 134 180 216 279 328
#     4  10  23  41  60  87 122 158 195 242 299 361
#     4  11  23  41  65  94 127 164 211 260 309 365
#     4  10  18  34  50  76 100 140 170 226 265 338
#
# _framework density 20.102747999999998
#
# number of rings (size 3 to 8) (size 9 to 14) (size 15 to 20)
#    0.000    1.667    0.833    4.000    3.500    3.333 
#    0.000    1.667    0.000    0.000    0.000    0.000 
#    0.000    0.000    0.000    0.000    0.000    0.000 
#
# Total GULP energy -594860.001318 kJ/mol
# GULP energy per Si atom -12392.916694 kJ/mol
# Density = 2.005699 g / cm^3
# Si number density = 20.102748 Si / 1000 Ang^3
#
#
#
# Elastic Constant Matrix: (Units=GPa)
#
#
# Indices 1 2 3 4 5 6 
#
# 1 112.3548 37.0789 34.3859 0.0000 0.0000 0.0000
# 2 37.0789 100.1309 45.4644 0.0000 0.0000 0.0000
# 3 34.3859 45.4644 131.3938 0.0000 0.0000 0.0000
# 4 0.0000 0.0000 0.0000 171.0825 0.0000 0.0000
# 5 0.0000 0.0000 0.0000 0.0000 36.2198 0.0000
# 6 0.0000 0.0000 0.0000 0.0000 0.0000 27.6052
#
#
#
# Elastic Compliance Matrix: (Units=1/GPa)
#
#
# Indices 1 2 3 4 5 6 
#
# 1 0.010434 -0.003113 -0.001653 0.000000 0.000000 0.000000
# 2 -0.003113 0.012777 -0.003606 0.000000 0.000000 0.000000
# 3 -0.001653 -0.003606 0.009291 0.000000 0.000000 0.000000
# 4 0.000000 0.000000 0.000000 0.005845 0.000000 0.000000
# 5 0.000000 0.000000 0.000000 0.000000 0.027609 0.000000
# 6 0.000000 0.000000 0.000000 0.000000 0.000000 0.036225
#
#
# Mechanical properties :
#
#
# Convention : Reuss Voigt Hill
#
# Bulk Modulus (GPa) = 63.46534 64.19311 63.82923
# Shear Modulus (GPa) = 40.26436 62.11153 51.18795
#
# Velocity S-wave (km/s) = 4.48026 5.56454 5.05158
# Velocity P-wave (km/s) = 7.64217 8.56080 8.11449
#
# Compressibility (1/GPa) = 0.01575663
#
# Stress axis : x y z
#
# Youngs Moduli (GPa) = 95.84320 78.26465 107.62771
#
# Poissons Ratio (x) = 0.24363 0.17795
# Poissons Ratio (y) = 0.29835 0.38815
# Poissons Ratio (z) = 0.15847 0.28226
#
# Static dielectric constant tensor:
#      x y z
#    x 3.918870 0.000000 0.000000 
#    y 0.000000 3.498030 0.000000 
#    z 0.000000 0.000000 4.023300 
# 
# 
# High freq. dielectric constant tensor:
#      x y z
#    x 1.804520 0.000000 0.000000 
#    y 0.000000 1.764400 0.000000 
#    z 0.000000 0.000000 1.796140 
# 
# From -- ./inp_files/10186.got.cif
#   From: 2010.03.12/outbox.cif.g09.slc.cpg/sg57_6_cif.got.tgz:10186.got - 2010.04.16 15:48:40.
