data_PCOD8230067
_publ_section_title
;
Structure prediction by ZEFSAII (Michael W. Deem and Ramdas Pophale) SiO2 
 PCOD8230067
Probable space group: P B C M
;
_chemical_formula_sum "Si O2"
_cell_formula_units_Z 64
_cell_length_a 18.384431
_cell_length_b 24.830061
_cell_length_c 9.136694
_cell_angle_alpha 90.000000
_cell_angle_beta 90.000000
_cell_angle_gamma 90.000000
_cell_volume 4170.777860
_symmetry_space_group_name_H-M "P B C M"
_symmetry_group_IT_number 57
_symmetry_cell_setting 'orthorhombic'
loop_
_space_group_symop_operation_xyz
x,y,z
-x,-y,1/2+z
x,1/2-y,-z
-x,1/2+y,1/2-z
-x,-y,-z
x,y,1/2-z
-x,1/2+y,z
x,1/2-y,1/2+z
loop_
_atom_site_type_symbol
_atom_site_label
_atom_site_fract_x
_atom_site_fract_y
_atom_site_fract_z
Si Si1 0.271291 0.491665 0.079626
Si Si2 0.687427 0.401217 0.421217
Si Si3 0.896746 0.514190 0.918876
Si Si4 0.533563 0.426665 0.087193
Si Si5 0.402268 0.046100 0.085058
Si Si6 0.050484 0.805124 0.076878
Si Si7 0.218538 0.801907 0.080649
Si Si8 0.990693 0.086470 0.421332
O O1 0.289629 0.491207 0.250000
O O2 0.187992 0.476589 0.048368
O O3 0.284264 0.550545 0.018440
O O4 0.325955 0.449206 0.001794
O O5 0.699911 0.415314 0.250000
O O6 0.601839 0.387845 0.449587
O O7 0.733787 0.351121 0.475678
O O8 0.915723 0.527414 0.750000
O O9 0.920982 0.452295 0.952591
O O10 0.937844 0.555144 0.025087
O O11 0.503760 0.417104 0.250000
O O12 0.567771 0.485921 0.072939
O O13 0.465316 0.415620 0.981367
O O14 0.387666 0.064513 0.250000
O O15 0.034562 0.801821 0.250000
O O16 0.135125 0.812748 0.041009
O O17 0.022025 0.750000 0.000000
O O18 0.012267 0.857509 0.009069
O O19 0.229699 0.791787 0.250000
O O20 0.249176 0.750000 0.000000
O O21 0.997703 0.099706 0.250000
#
# Coordination Sequence:
#
# PCOD8230067 Si02
#       8
#     8   8   8   8   8   8   8   8
#     4  10  18  27  41  60  82 109 141 173 206 247
#     4   9  17  28  41  58  81 109 141 174 208 246
#     4   9  19  32  44  62  88 117 146 177 215 261
#     4   8  14  24  37  53  75 104 135 165 197 235
#     4   9  16  25  37  54  78 105 133 166 200 235
#     4  10  19  31  47  65  87 114 145 181 219 258
#     4   9  18  30  43  60  82 109 139 173 211 247
#     4  10  19  31  47  65  86 113 146 181 217 258
#
# _framework density 15.344859
#
# number of rings (size 3 to 8) (size 9 to 14) (size 15 to 20)
#    0.000    2.750    0.000    3.000    0.000    5.500 
#    0.000    0.000    0.000    0.000    0.000    0.000 
#    0.000    1.000    0.000    6.750    0.000    5.000 
#
# Total GULP energy -793326.725024 kJ/mol
# GULP energy per Si atom -12395.730079 kJ/mol
# Density = 1.530993 g / cm^3
# Si number density = 15.344859 Si / 1000 Ang^3
#
#
#
# Elastic Constant Matrix: (Units=GPa)
#
#
# Indices 1 2 3 4 5 6 
#
# 1 78.5466 28.0553 46.5778 0.0000 0.0000 0.0000
# 2 28.0553 65.3576 36.2404 0.0000 0.0000 0.0000
# 3 46.5778 36.2404 88.1016 0.0000 0.0000 0.0000
# 4 0.0000 0.0000 0.0000 23.2141 0.0000 0.0000
# 5 0.0000 0.0000 0.0000 0.0000 25.6962 0.0000
# 6 0.0000 0.0000 0.0000 0.0000 0.0000 18.0188
#
#
#
# Elastic Compliance Matrix: (Units=1/GPa)
#
#
# Indices 1 2 3 4 5 6 
#
# 1 0.019101 -0.003368 -0.008713 0.000000 0.000000 0.000000
# 2 -0.003368 0.020415 -0.006617 0.000000 0.000000 0.000000
# 3 -0.008713 -0.006617 0.018679 0.000000 0.000000 0.000000
# 4 0.000000 0.000000 0.000000 0.043077 0.000000 0.000000
# 5 0.000000 0.000000 0.000000 0.000000 0.038916 0.000000
# 6 0.000000 0.000000 0.000000 0.000000 0.000000 0.055498
#
#
# Mechanical properties :
#
#
# Convention : Reuss Voigt Hill
#
# Bulk Modulus (GPa) = 48.07932 50.41697 49.24814
# Shear Modulus (GPa) = 20.83198 21.46133 21.14665
#
# Velocity S-wave (km/s) = 3.68854 3.74384 3.71630
# Velocity P-wave (km/s) = 7.03854 7.18441 7.11185
#
# Compressibility (1/GPa) = 0.02079896
#
# Stress axis : x y z
#
# Youngs Moduli (GPa) = 52.35322 48.98265 53.53632
#
# Poissons Ratio (x) = 0.16497 0.46646
# Poissons Ratio (y) = 0.17632 0.35426
# Poissons Ratio (z) = 0.45615 0.32413
#
# Static dielectric constant tensor:
#      x y z
#    x 3.065730 0.000000 0.000000 
#    y 0.000000 2.709740 0.000000 
#    z 0.000000 0.000000 3.048080 
# 
# 
# High freq. dielectric constant tensor:
#      x y z
#    x 1.583620 0.000000 0.000000 
#    y 0.000000 1.543180 0.000000 
#    z 0.000000 0.000000 1.601170 
# 
# From -- ./inp_files/7392.got.cif
#   From: 2010.03.12/outbox.cif.g09.slc.cpg/sg57_4_cif.got.tgz:7392.got - 2010.04.16 15:48:40.
