data_PCOD8230293
_publ_section_title
;
Structure prediction by ZEFSAII (Michael W. Deem and Ramdas Pophale) SiO2 
 PCOD8230293
Probable space group: P B C M
;
_chemical_formula_sum "Si O2"
_cell_formula_units_Z 64
_cell_length_a 19.785484
_cell_length_b 19.596408
_cell_length_c 8.842919
_cell_angle_alpha 90.000000
_cell_angle_beta 90.000000
_cell_angle_gamma 90.000000
_cell_volume 3428.615613
_symmetry_space_group_name_H-M "P B C M"
_symmetry_group_IT_number 57
_symmetry_cell_setting 'orthorhombic'
loop_
_space_group_symop_operation_xyz
x,y,z
-x,-y,1/2+z
x,1/2-y,-z
-x,1/2+y,1/2-z
-x,-y,-z
x,y,1/2-z
-x,1/2+y,z
x,1/2-y,1/2+z
loop_
_atom_site_type_symbol
_atom_site_label
_atom_site_fract_x
_atom_site_fract_y
_atom_site_fract_z
Si Si1 0.627646 0.432723 0.573174
Si Si2 0.149262 0.181688 0.926935
Si Si3 0.745545 0.597796 0.075030
Si Si4 0.480369 0.824556 0.927840
Si Si5 0.592712 0.928740 0.575783
Si Si6 0.777421 0.458798 0.928274
Si Si7 0.913416 0.433849 0.419862
Si Si8 0.044752 0.409625 0.580597
O O1 0.625557 0.446796 0.750000
O O2 0.590189 0.362148 0.530872
O O3 0.588654 0.497284 0.501838
O O4 0.705569 0.426285 0.518638
O O5 0.161704 0.189118 0.750000
O O6 0.119903 0.250000 0.000000
O O7 0.220319 0.166040 0.010940
O O8 0.094674 0.123983 0.960729
O O9 0.764726 0.585557 0.250000
O O10 0.665857 0.604686 0.051870
O O11 0.777193 0.537338 0.976341
O O12 0.488884 0.814480 0.750000
O O13 0.539664 0.873981 0.991708
O O14 0.482949 0.750000 0.000000
O O15 0.575794 0.941876 0.750000
O O16 0.788298 0.453034 0.750000
O O17 0.839035 0.420756 0.010821
O O18 0.913825 0.403831 0.250000
O O19 0.934712 0.512068 0.416957
O O20 0.968477 0.395703 0.523543
O O21 0.051720 0.378938 0.750000
#
# Coordination Sequence:
#
# PCOD8230293 Si02
#       8
#     8   8   8   8   8   8   8   8
#     4   9  19  34  54  80 109 140 179 225 274 327
#     4  12  24  37  53  72 102 143 182 216 256 310
#     4  10  19  33  50  74 105 135 171 214 260 312
#     4  10  21  37  54  77 108 142 181 226 273 326
#     4   9  19  34  55  80 108 140 178 225 272 323
#     4  10  18  30  51  78 106 136 169 214 268 317
#     4  10  19  31  52  79 108 136 167 214 264 310
#     4  10  20  34  52  76 106 136 172 215 260 307
#
# _framework density 18.666426999999999
#
# number of rings (size 3 to 8) (size 9 to 14) (size 15 to 20)
#    0.000    2.000    1.250    3.000    0.000    3.500 
#    0.000    1.250    0.000    0.750    0.000    3.500 
#    0.000    0.000    0.000    0.000    0.000    0.000 
#
# Total GULP energy -793527.125253 kJ/mol
# GULP energy per Si atom -12398.861332 kJ/mol
# Density = 1.862394 g / cm^3
# Si number density = 18.666427 Si / 1000 Ang^3
#
#
#
# Elastic Constant Matrix: (Units=GPa)
#
#
# Indices 1 2 3 4 5 6 
#
# 1 115.7032 34.3928 38.9969 0.0000 0.0000 0.0000
# 2 34.3928 65.5520 28.4440 0.0000 0.0000 0.0000
# 3 38.9969 28.4440 73.3419 0.0000 0.0000 0.0000
# 4 0.0000 0.0000 0.0000 27.6781 0.0000 0.0000
# 5 0.0000 0.0000 0.0000 0.0000 24.0049 0.0000
# 6 0.0000 0.0000 0.0000 0.0000 0.0000 9.6573
#
#
#
# Elastic Compliance Matrix: (Units=1/GPa)
#
#
# Indices 1 2 3 4 5 6 
#
# 1 0.011343 -0.004009 -0.004477 0.000000 0.000000 0.000000
# 2 -0.004009 0.019759 -0.005531 0.000000 0.000000 0.000000
# 3 -0.004477 -0.005531 0.018160 0.000000 0.000000 0.000000
# 4 0.000000 0.000000 0.000000 0.036130 0.000000 0.000000
# 5 0.000000 0.000000 0.000000 0.000000 0.041658 0.000000
# 6 0.000000 0.000000 0.000000 0.000000 0.000000 0.103549
#
#
# Mechanical properties :
#
#
# Convention : Reuss Voigt Hill
#
# Bulk Modulus (GPa) = 47.10679 50.91828 49.01253
# Shear Modulus (GPa) = 18.81762 22.45228 20.63495
#
# Velocity S-wave (km/s) = 3.17850 3.47193 3.32845
# Velocity P-wave (km/s) = 6.22587 6.58860 6.40980
#
# Compressibility (1/GPa) = 0.02122836
#
# Stress axis : x y z
#
# Youngs Moduli (GPa) = 88.15806 50.61103 55.06534
#
# Poissons Ratio (x) = 0.20290 0.24651
# Poissons Ratio (y) = 0.35342 0.30458
# Poissons Ratio (z) = 0.39465 0.27995
#
# Static dielectric constant tensor:
#      x y z
#    x 3.746030 0.000000 0.000000 
#    y 0.000000 3.123480 0.000000 
#    z 0.000000 0.000000 3.505060 
# 
# 
# High freq. dielectric constant tensor:
#      x y z
#    x 1.739210 0.000000 0.000000 
#    y 0.000000 1.684130 0.000000 
#    z 0.000000 0.000000 1.730790 
# 
# From -- ./inp_files/8530.got.cif
#   From: 2010.03.12/outbox.cif.g09.slc.cpg/sg57_5_cif.got.tgz:8530.got - 2010.04.16 15:48:40.
