data_PCOD8230300
_publ_section_title
;
Structure prediction by ZEFSAII (Michael W. Deem and Ramdas Pophale) SiO2 
 PCOD8230300
Probable space group: P B C M
;
_chemical_formula_sum "Si O2"
_cell_formula_units_Z 64
_cell_length_a 20.472113
_cell_length_b 20.587860
_cell_length_c 8.854061
_cell_angle_alpha 90.000000
_cell_angle_beta 90.000000
_cell_angle_gamma 90.000000
_cell_volume 3731.783036
_symmetry_space_group_name_H-M "P B C M"
_symmetry_group_IT_number 57
_symmetry_cell_setting 'orthorhombic'
loop_
_space_group_symop_operation_xyz
x,y,z
-x,-y,1/2+z
x,1/2-y,-z
-x,1/2+y,1/2-z
-x,-y,-z
x,y,1/2-z
-x,1/2+y,z
x,1/2-y,1/2+z
loop_
_atom_site_type_symbol
_atom_site_label
_atom_site_fract_x
_atom_site_fract_y
_atom_site_fract_z
Si Si1 0.336444 0.499834 0.422180
Si Si2 0.544309 0.056006 0.928153
Si Si3 0.918229 0.687106 0.925316
Si Si4 0.198237 0.467546 0.421476
Si Si5 0.488687 0.316398 0.574133
Si Si6 0.791378 0.661862 0.420329
Si Si7 0.347892 0.364463 0.922381
Si Si8 0.945216 0.957701 0.076895
O O1 0.359257 0.510275 0.250000
O O2 0.379738 0.544986 0.529992
O O3 0.258666 0.518215 0.439763
O O4 0.347647 0.424472 0.462426
O O5 0.534962 0.054117 0.750000
O O6 0.524907 0.125329 0.991636
O O7 0.500000 0.000000 0.000000
O O8 0.930882 0.691298 0.750000
O O9 0.942282 0.616753 0.988660
O O10 0.954293 0.750000 0.000000
O O11 0.840725 0.694898 0.961306
O O12 0.201106 0.437648 0.250000
O O13 0.208876 0.415089 0.551388
O O14 0.124582 0.495004 0.444717
O O15 0.514010 0.250000 0.500000
O O16 0.506935 0.317513 0.750000
O O17 0.411238 0.321298 0.546630
O O18 0.815380 0.676567 0.250000
O O19 0.715681 0.682248 0.446639
O O20 0.348377 0.391459 0.750000
O O21 0.964734 0.952598 0.250000
O O22 0.000000 0.000000 0.000000
#
# Coordination Sequence:
#
# PCOD8230300 Si02
#       8
#     8   8   8   8   8   8   8   8
#     4  10  18  30  52  76  99 130 166 209 258 300
#     4  12  23  36  54  77 101 130 170 216 262 308
#     4  10  20  33  47  67  96 131 170 210 245 289
#     4   8  16  30  46  70 102 132 164 203 246 295
#     4  11  23  38  52  70  99 133 169 213 262 314
#     4   9  16  27  44  67  94 128 166 204 241 281
#     4   9  18  31  47  68  97 131 168 206 244 293
#     4   9  18  32  50  74 104 135 168 205 246 295
#
# _framework density 17.149978999999998
#
# number of rings (size 3 to 8) (size 9 to 14) (size 15 to 20)
#    0.000    2.250    1.250    3.375    0.000    4.500 
#    0.000    1.250    0.000    0.000    0.000    0.875 
#    0.000    2.000    0.000    0.000    0.000    0.000 
#
# Total GULP energy -792944.059001 kJ/mol
# GULP energy per Si atom -12389.750922 kJ/mol
# Density = 1.711095 g / cm^3
# Si number density = 17.149979 Si / 1000 Ang^3
#
#
#
# Elastic Constant Matrix: (Units=GPa)
#
#
# Indices 1 2 3 4 5 6 
#
# 1 97.6164 52.1518 39.3821 0.0000 0.0000 0.0000
# 2 52.1518 98.7491 41.3465 0.0000 0.0000 0.0000
# 3 39.3821 41.3465 85.2251 0.0000 0.0000 0.0000
# 4 0.0000 0.0000 0.0000 27.1581 0.0000 0.0000
# 5 0.0000 0.0000 0.0000 0.0000 25.9836 0.0000
# 6 0.0000 0.0000 0.0000 0.0000 0.0000 14.0009
#
#
#
# Elastic Compliance Matrix: (Units=1/GPa)
#
#
# Indices 1 2 3 4 5 6 
#
# 1 0.015258 -0.006407 -0.003942 0.000000 0.000000 0.000000
# 2 -0.006407 0.015399 -0.004510 0.000000 0.000000 0.000000
# 3 -0.003942 -0.004510 0.015743 0.000000 0.000000 0.000000
# 4 0.000000 0.000000 0.000000 0.036821 0.000000 0.000000
# 5 0.000000 0.000000 0.000000 0.000000 0.038486 0.000000
# 6 0.000000 0.000000 0.000000 0.000000 0.000000 0.071424
#
#
# Mechanical properties :
#
#
# Convention : Reuss Voigt Hill
#
# Bulk Modulus (GPa) = 59.94774 60.81683 60.38228
# Shear Modulus (GPa) = 21.89049 23.34254 22.61652
#
# Velocity S-wave (km/s) = 3.57657 3.69329 3.63540
# Velocity P-wave (km/s) = 7.21711 7.32980 7.27367
#
# Compressibility (1/GPa) = 0.01668120
#
# Stress axis : x y z
#
# Youngs Moduli (GPa) = 65.54063 64.93979 63.51987
#
# Poissons Ratio (x) = 0.41610 0.25039
# Poissons Ratio (y) = 0.41995 0.28646
# Poissons Ratio (z) = 0.25836 0.29287
#
# Static dielectric constant tensor:
#      x y z
#    x 3.349740 0.000000 0.000000 
#    y 0.000000 3.024260 0.000000 
#    z 0.000000 0.000000 3.312850 
# 
# 
# High freq. dielectric constant tensor:
#      x y z
#    x 1.648330 0.000000 0.000000 
#    y 0.000000 1.623670 0.000000 
#    z 0.000000 0.000000 1.673380 
# 
# From -- ./inp_files/8708.got.cif
#   From: 2010.03.12/outbox.cif.g09.slc.cpg/sg57_5_cif.got.tgz:8708.got - 2010.04.16 15:48:40.
