data_PCOD8230372
_publ_section_title
;
Structure prediction by ZEFSAII (Michael W. Deem and Ramdas Pophale) SiO2 
 PCOD8230372
Probable space group: P B C M
;
_chemical_formula_sum "Si O2"
_cell_formula_units_Z 64
_cell_length_a 15.040864
_cell_length_b 23.853227
_cell_length_c 8.803279
_cell_angle_alpha 90.000000
_cell_angle_beta 90.000000
_cell_angle_gamma 90.000000
_cell_volume 3158.380078
_symmetry_space_group_name_H-M "P B C M"
_symmetry_group_IT_number 57
_symmetry_cell_setting 'orthorhombic'
loop_
_space_group_symop_operation_xyz
x,y,z
-x,-y,1/2+z
x,1/2-y,-z
-x,1/2+y,1/2-z
-x,-y,-z
x,y,1/2-z
-x,1/2+y,z
x,1/2-y,1/2+z
loop_
_atom_site_type_symbol
_atom_site_label
_atom_site_fract_x
_atom_site_fract_y
_atom_site_fract_z
Si Si1 0.856702 0.396079 0.920331
Si Si2 0.200288 0.307733 0.425833
Si Si3 0.050428 0.121982 0.427897
Si Si4 0.538251 0.190569 0.071332
Si Si5 0.853879 0.524579 0.577024
Si Si6 0.620011 0.871612 0.424245
Si Si7 0.669947 0.979039 0.926611
Si Si8 0.674719 0.106851 0.927113
O O1 0.822366 0.383066 0.750000
O O2 0.885793 0.460856 0.933010
O O3 0.946785 0.361555 0.956963
O O4 0.778024 0.380612 0.035900
O O5 0.232347 0.250000 0.500000
O O6 0.178685 0.298087 0.250000
O O7 0.111418 0.328199 0.509478
O O8 0.278250 0.353015 0.447855
O O9 0.068281 0.112762 0.250000
O O10 0.068324 0.064635 0.518614
O O11 0.536302 0.197400 0.250000
O O12 0.562847 0.250000 0.000000
O O13 0.442017 0.170462 0.016656
O O14 0.613301 0.146572 0.025362
O O15 0.827714 0.540941 0.750000
O O16 0.770717 0.534841 0.468089
O O17 0.590074 0.869205 0.250000
O O18 0.607104 0.935480 0.483017
O O19 0.654778 0.968677 0.750000
O O20 0.648578 0.043132 0.972358
O O21 0.659114 0.117961 0.750000
#
# Coordination Sequence:
#
# PCOD8230372 Si02
#       8
#     8   8   8   8   8   8   8   8
#     4   9  20  36  56  85 120 159 201 248 301 352
#     4  11  24  40  59  84 117 159 202 251 304 360
#     4  11  21  34  55  83 118 158 202 248 295 355
#     4  12  26  45  69  93 120 156 201 253 304 362
#     4  10  18  31  52  82 121 160 200 244 293 352
#     4  11  23  40  64  93 125 158 199 248 301 365
#     4  10  20  35  59  91 127 164 201 243 301 363
#     4  10  22  41  64  92 125 161 203 253 305 362
#
# _framework density 20.263552000000001
#
# number of rings (size 3 to 8) (size 9 to 14) (size 15 to 20)
#    0.000    1.500    1.250    4.125    0.000    6.000 
#    0.000    0.625    0.000    3.000    0.000    0.000 
#    0.000    0.000    0.000    0.000    0.000    0.000 
#
# Total GULP energy -793785.215536 kJ/mol
# GULP energy per Si atom -12402.893993 kJ/mol
# Density = 2.021743 g / cm^3
# Si number density = 20.263552 Si / 1000 Ang^3
#
#
#
# Elastic Constant Matrix: (Units=GPa)
#
#
# Indices 1 2 3 4 5 6 
#
# 1 67.5260 41.1158 39.1149 0.0000 0.0000 0.0000
# 2 41.1158 98.4233 57.0777 0.0000 0.0000 0.0000
# 3 39.1149 57.0777 120.5947 0.0000 0.0000 0.0000
# 4 0.0000 0.0000 0.0000 33.3039 0.0000 0.0000
# 5 0.0000 0.0000 0.0000 0.0000 33.1785 0.0000
# 6 0.0000 0.0000 0.0000 0.0000 0.0000 27.1163
#
#
#
# Elastic Compliance Matrix: (Units=1/GPa)
#
#
# Indices 1 2 3 4 5 6 
#
# 1 0.020971 -0.006638 -0.003660 0.000000 0.000000 0.000000
# 2 -0.006638 0.016105 -0.005470 0.000000 0.000000 0.000000
# 3 -0.003660 -0.005470 0.012068 0.000000 0.000000 0.000000
# 4 0.000000 0.000000 0.000000 0.030026 0.000000 0.000000
# 5 0.000000 0.000000 0.000000 0.000000 0.030140 0.000000
# 6 0.000000 0.000000 0.000000 0.000000 0.000000 0.036878
#
#
# Mechanical properties :
#
#
# Convention : Reuss Voigt Hill
#
# Bulk Modulus (GPa) = 56.78936 62.35119 59.57027
# Shear Modulus (GPa) = 27.23402 28.66880 27.95141
#
# Velocity S-wave (km/s) = 3.67002 3.76546 3.71805
# Velocity P-wave (km/s) = 6.78565 7.05279 6.92051
#
# Compressibility (1/GPa) = 0.01760893
#
# Stress axis : x y z
#
# Youngs Moduli (GPa) = 47.68476 62.09243 82.86256
#
# Poissons Ratio (x) = 0.41216 0.30330
# Poissons Ratio (y) = 0.31653 0.45322
# Poissons Ratio (z) = 0.17454 0.33962
#
# Static dielectric constant tensor:
#      x y z
#    x 3.519370 0.000000 0.000000 
#    y 0.000000 3.670270 0.000000 
#    z 0.000000 0.000000 3.768360 
# 
# 
# High freq. dielectric constant tensor:
#      x y z
#    x 1.785690 0.000000 0.000000 
#    y 0.000000 1.782480 0.000000 
#    z 0.000000 0.000000 1.803260 
# 
# From -- ./inp_files/5582.got.cif
#   From: 2010.03.12/outbox.cif.g09.slc.cpg/sg57_3_cif.got.tgz:5582.got - 2010.04.16 15:48:40.
