data_PCOD8230166
_publ_section_title
;
Structure prediction by ZEFSAII (Michael W. Deem and Ramdas Pophale) SiO2 
 PCOD8230166
Probable space group: P B C M
;
_chemical_formula_sum "Si O2"
_cell_formula_units_Z 64
_cell_length_a 22.580809
_cell_length_b 18.584827
_cell_length_c 9.005809
_cell_angle_alpha 90.000000
_cell_angle_beta 90.000000
_cell_angle_gamma 90.000000
_cell_volume 3779.381666
_symmetry_space_group_name_H-M "P B C M"
_symmetry_group_IT_number 57
_symmetry_cell_setting 'orthorhombic'
loop_
_space_group_symop_operation_xyz
x,y,z
-x,-y,1/2+z
x,1/2-y,-z
-x,1/2+y,1/2-z
-x,-y,-z
x,y,1/2-z
-x,1/2+y,z
x,1/2-y,1/2+z
loop_
_atom_site_type_symbol
_atom_site_label
_atom_site_fract_x
_atom_site_fract_y
_atom_site_fract_z
Si Si1 0.603103 0.611190 0.077063
Si Si2 0.905629 0.481930 0.417223
Si Si3 0.478345 0.826652 0.928065
Si Si4 0.273880 0.326463 0.928071
Si Si5 0.083919 0.187958 0.589524
Si Si6 0.995890 0.394331 0.584206
Si Si7 0.817949 0.571330 0.915678
Si Si8 0.444018 0.963663 0.074714
O O1 0.601083 0.625130 0.250000
O O2 0.543618 0.649100 0.013769
O O3 0.660990 0.650706 0.013194
O O4 0.606861 0.524495 0.046647
O O5 0.890473 0.457969 0.250000
O O6 0.953987 0.544705 0.415478
O O7 0.843089 0.502332 0.495910
O O8 0.934660 0.416449 0.506477
O O9 0.472838 0.823130 0.750000
O O10 0.462241 0.750000 0.000000
O O11 0.432308 0.887087 0.992676
O O12 0.268984 0.321388 0.750000
O O13 0.257202 0.250000 0.000000
O O14 0.230805 0.388564 0.986366
O O15 0.118970 0.250000 0.500000
O O16 0.067026 0.218405 0.750000
O O17 0.022674 0.172579 0.504714
O O18 0.124838 0.119837 0.605233
O O19 0.979798 0.370939 0.750000
O O20 0.793704 0.551413 0.750000
O O21 0.453925 0.950841 0.250000
O O22 0.500000 0.000000 0.000000
#
# Coordination Sequence:
#
# PCOD8230166 Si02
#       8
#     8   8   8   8   8   8   8   8
#     4   8  17  31  46  63  87 119 155 190 226 267
#     4   9  16  27  43  61  80 104 134 169 210 253
#     4  10  18  29  45  68  94 121 152 187 228 274
#     4  11  21  33  46  62  85 116 153 191 225 259
#     4  10  19  29  41  57  81 111 142 174 211 255
#     4   9  16  26  41  60  81 104 132 167 207 252
#     4  10  20  32  44  60  82 111 146 183 219 255
#     4   9  16  29  46  65  89 118 150 186 227 273
#
# _framework density 16.933987999999999
#
# number of rings (size 3 to 8) (size 9 to 14) (size 15 to 20)
#    0.000    2.500    0.000    4.125    0.000    5.500 
#    0.000    6.875    0.000    0.000    0.000    0.000 
#    0.000    1.000    0.000    8.500    0.000    4.875 
#
# Total GULP energy -792955.014055 kJ/mol
# GULP energy per Si atom -12389.922095 kJ/mol
# Density = 1.689545 g / cm^3
# Si number density = 16.933988 Si / 1000 Ang^3
#
#
#
# Elastic Constant Matrix: (Units=GPa)
#
#
# Indices 1 2 3 4 5 6 
#
# 1 37.9642 5.1916 16.1745 0.0000 0.0000 0.0000
# 2 5.1916 54.0690 22.4663 0.0000 0.0000 0.0000
# 3 16.1745 22.4663 119.9781 0.0000 0.0000 0.0000
# 4 0.0000 0.0000 0.0000 28.1463 0.0000 0.0000
# 5 0.0000 0.0000 0.0000 0.0000 11.9728 0.0000
# 6 0.0000 0.0000 0.0000 0.0000 0.0000 19.1582
#
#
#
# Elastic Compliance Matrix: (Units=1/GPa)
#
#
# Indices 1 2 3 4 5 6 
#
# 1 0.028019 -0.001215 -0.003550 0.000000 0.000000 0.000000
# 2 -0.001215 0.020108 -0.003601 0.000000 0.000000 0.000000
# 3 -0.003550 -0.003601 0.009488 0.000000 0.000000 0.000000
# 4 0.000000 0.000000 0.000000 0.035529 0.000000 0.000000
# 5 0.000000 0.000000 0.000000 0.000000 0.083522 0.000000
# 6 0.000000 0.000000 0.000000 0.000000 0.000000 0.052197
#
#
# Mechanical properties :
#
#
# Convention : Reuss Voigt Hill
#
# Bulk Modulus (GPa) = 24.46072 33.29734 28.87903
# Shear Modulus (GPa) = 19.28839 23.06740 21.17789
#
# Velocity S-wave (km/s) = 3.37862 3.69480 3.54024
# Velocity P-wave (km/s) = 5.44942 6.15693 5.81395
#
# Compressibility (1/GPa) = 0.04088186
#
# Stress axis : x y z
#
# Youngs Moduli (GPa) = 35.68986 49.73140 105.39866
#
# Poissons Ratio (x) = 0.06044 0.37414
# Poissons Ratio (y) = 0.04338 0.37959
# Poissons Ratio (z) = 0.12669 0.17911
#
# Static dielectric constant tensor:
#      x y z
#    x 3.152670 0.000000 0.000000 
#    y 0.000000 3.238250 0.000000 
#    z 0.000000 0.000000 3.440470 
# 
# 
# High freq. dielectric constant tensor:
#      x y z
#    x 1.605910 0.000000 0.000000 
#    y 0.000000 1.633630 0.000000 
#    z 0.000000 0.000000 1.669480 
# 
# From -- ./inp_files/9561.got.cif
#   From: 2010.03.12/outbox.cif.g09.slc.cpg/sg57_5_cif.got.tgz:9561.got - 2010.04.16 15:48:40.
