data_PCOD8230028
_publ_section_title
;
Structure prediction by ZEFSAII (Michael W. Deem and Ramdas Pophale) SiO2 
 PCOD8230028
Probable space group: P B C M
;
_chemical_formula_sum "Si O2"
_cell_formula_units_Z 48
_cell_length_a 8.055331
_cell_length_b 14.831147
_cell_length_c 21.091161
_cell_angle_alpha 90.000000
_cell_angle_beta 90.000000
_cell_angle_gamma 90.000000
_cell_volume 2519.756748
_symmetry_space_group_name_H-M "P B C M"
_symmetry_group_IT_number 57
_symmetry_cell_setting 'orthorhombic'
loop_
_space_group_symop_operation_xyz
x,y,z
-x,-y,1/2+z
x,1/2-y,-z
-x,1/2+y,1/2-z
-x,-y,-z
x,y,1/2-z
-x,1/2+y,z
x,1/2-y,1/2+z
loop_
_atom_site_type_symbol
_atom_site_label
_atom_site_fract_x
_atom_site_fract_y
_atom_site_fract_z
Si Si1 0.906448 0.109954 0.750000
Si Si2 0.102225 0.924623 0.114147
Si Si3 0.380847 0.250000 0.000000
Si Si4 0.125439 0.223850 0.250000
Si Si5 0.698127 0.149618 0.998798
Si Si6 0.102819 0.562464 0.250000
Si Si7 0.135560 0.237755 0.615157
Si Si8 0.106823 0.900632 0.614687
O O1 0.811185 0.088290 0.683877
O O2 0.958534 0.214348 0.750000
O O3 0.068263 0.044265 0.750000
O O4 0.939208 0.861930 0.107469
O O5 0.242533 0.904456 0.062721
O O6 0.036645 0.025498 0.104106
O O7 0.497742 0.160483 0.997164
O O8 0.271598 0.243603 0.062475
O O9 0.222779 0.248140 0.315254
O O10 0.071512 0.118957 0.250000
O O11 0.751808 0.093839 0.061152
O O12 0.780193 0.250000 0.000000
O O13 0.195708 0.587855 0.315954
O O14 0.980570 0.304496 0.609207
#
# Coordination Sequence:
#
# PCOD8230028 Si02
#       8
#     4   8   4   4   8   4   8   8
#     4   8  16  28  49  81 101 115 155 210 254 294
#     4  10  18  33  57  78  98 127 165 209 253 294
#     4  10  22  34  50  64 108 140 164 208 238 286
#     4   8  16  26  50  70  96 124 166 198 244 296
#     4  10  20  34  47  72 102 128 167 205 240 283
#     4   8  16  28  49  81 101 115 155 210 254 294
#     4  10  17  34  50  74  98 134 163 204 248 298
#     4  10  18  33  57  78  98 127 165 209 253 294
#
# _framework density 19.049458999999999
#
# number of rings (size 3 to 8) (size 9 to 14) (size 15 to 20)
#    0.500    2.000    1.667    1.500    0.000    0.000 
#    0.000    5.000    0.000    0.000    0.000   14.000 
#    0.000    0.000    0.000    0.000    0.000    0.000 
#
# Total GULP energy -594632.397828 kJ/mol
# GULP energy per Si atom -12388.174955 kJ/mol
# Density = 1.900610 g / cm^3
# Si number density = 19.049459 Si / 1000 Ang^3
#
#
#
# Elastic Constant Matrix: (Units=GPa)
#
#
# Indices 1 2 3 4 5 6 
#
# 1 35.8147 -5.9235 39.4972 0.0000 0.0000 0.0000
# 2 -5.9235 55.2326 3.3790 0.0000 0.0000 0.0000
# 3 39.4972 3.3790 186.2124 0.0000 0.0000 0.0000
# 4 0.0000 0.0000 0.0000 28.2046 0.0000 0.0000
# 5 0.0000 0.0000 0.0000 0.0000 2.4584 0.0000
# 6 0.0000 0.0000 0.0000 0.0000 0.0000 11.2483
#
#
#
# Elastic Compliance Matrix: (Units=1/GPa)
#
#
# Indices 1 2 3 4 5 6 
#
# 1 0.037541 0.004518 -0.008045 0.000000 0.000000 0.000000
# 2 0.004518 0.018669 -0.001297 0.000000 0.000000 0.000000
# 3 -0.008045 -0.001297 0.007100 0.000000 0.000000 0.000000
# 4 0.000000 0.000000 0.000000 0.035455 0.000000 0.000000
# 5 0.000000 0.000000 0.000000 0.000000 0.406765 0.000000
# 6 0.000000 0.000000 0.000000 0.000000 0.000000 0.088903
#
#
# Mechanical properties :
#
#
# Convention : Reuss Voigt Hill
#
# Bulk Modulus (GPa) = 18.63488 39.01835 28.82662
# Shear Modulus (GPa) = 8.03900 24.40272 16.22086
#
# Velocity S-wave (km/s) = 2.05651 3.58302 2.92124
# Velocity P-wave (km/s) = 3.92970 6.13551 5.15204
#
# Compressibility (1/GPa) = 0.05366280
#
# Stress axis : x y z
#
# Youngs Moduli (GPa) = 26.63780 53.56421 140.84318
#
# Poissons Ratio (x) = -0.24202 1.13304
# Poissons Ratio (y) = -0.12036 0.18269
# Poissons Ratio (z) = 0.21429 0.06948
#
# Static dielectric constant tensor:
#      x y z
#    x 2.730440 0.000000 0.000000 
#    y 0.000000 3.507790 0.000000 
#    z 0.000000 0.000000 4.048560 
# 
# 
# High freq. dielectric constant tensor:
#      x y z
#    x 1.653390 0.000000 0.000000 
#    y 0.000000 1.749840 0.000000 
#    z 0.000000 0.000000 1.776210 
# 
# From -- ./inp_files/24306.got.cif
#   From: 2010.03.12/outbox.cif.g09.slc.cpg/sg57_13_cif.got.tgz:24306.got - 2010.04.16 15:48:40.
