data_PCOD8230261
_publ_section_title
;
Structure prediction by ZEFSAII (Michael W. Deem and Ramdas Pophale) SiO2 
 PCOD8230261
Probable space group: P B C M
;
_chemical_formula_sum "Si O2"
_cell_formula_units_Z 64
_cell_length_a 16.212579
_cell_length_b 22.692345
_cell_length_c 9.191724
_cell_angle_alpha 90.000000
_cell_angle_beta 90.000000
_cell_angle_gamma 90.000000
_cell_volume 3381.648459
_symmetry_space_group_name_H-M "P B C M"
_symmetry_group_IT_number 57
_symmetry_cell_setting 'orthorhombic'
loop_
_space_group_symop_operation_xyz
x,y,z
-x,-y,1/2+z
x,1/2-y,-z
-x,1/2+y,1/2-z
-x,-y,-z
x,y,1/2-z
-x,1/2+y,z
x,1/2-y,1/2+z
loop_
_atom_site_type_symbol
_atom_site_label
_atom_site_fract_x
_atom_site_fract_y
_atom_site_fract_z
Si Si1 0.763496 0.088043 0.416856
Si Si2 0.438075 0.423369 0.582914
Si Si3 0.112490 0.812353 0.580852
Si Si4 0.400991 0.939965 0.082967
Si Si5 0.714813 0.621190 0.921304
Si Si6 0.030393 0.395557 0.589825
Si Si7 0.145894 0.471378 0.417335
Si Si8 0.829452 0.698057 0.410129
O O1 0.734480 0.078295 0.250000
O O2 0.801013 0.153313 0.438979
O O3 0.686638 0.081414 0.523189
O O4 0.834425 0.039609 0.453858
O O5 0.439449 0.402651 0.750000
O O6 0.527521 0.411006 0.514101
O O7 0.409230 0.490376 0.569606
O O8 0.374698 0.385660 0.489984
O O9 0.115569 0.750000 0.500000
O O10 0.093294 0.799659 0.750000
O O11 0.041569 0.855898 0.516607
O O12 0.409378 0.919421 0.250000
O O13 0.706140 0.629485 0.750000
O O14 0.773129 0.565815 0.961993
O O15 0.750590 0.680008 0.994048
O O16 0.000471 0.417368 0.750000
O O17 0.061275 0.452099 0.498515
O O18 0.109959 0.355722 0.606312
O O19 0.126317 0.460717 0.250000
O O20 0.874453 0.750000 0.500000
O O21 0.801902 0.719619 0.250000
#
# Coordination Sequence:
#
# PCOD8230261 Si02
#       8
#     8   8   8   8   8   8   8   8
#     4  10  20  36  55  77 109 143 176 220 272 322
#     4  10  19  31  50  77 109 141 173 211 258 313
#     4  10  22  39  58  78 103 139 184 231 273 314
#     4  10  20  32  51  79 108 139 175 213 258 314
#     4  10  18  30  49  73 105 141 175 212 258 314
#     4   9  19  34  52  76 106 138 174 222 270 316
#     4   9  18  31  50  77 108 141 173 209 263 325
#     4  10  19  31  48  71 101 137 178 221 265 313
#
# _framework density 18.92568
#
# number of rings (size 3 to 8) (size 9 to 14) (size 15 to 20)
#    0.000    2.250    1.250    1.875    0.000    4.000 
#    0.000    0.000    0.000    0.750    0.000    3.500 
#    0.000    0.000    0.000    0.000    0.000    0.000 
#
# Total GULP energy -793401.725176 kJ/mol
# GULP energy per Si atom -12396.901956 kJ/mol
# Density = 1.888260 g / cm^3
# Si number density = 18.925680 Si / 1000 Ang^3
#
#
#
# Elastic Constant Matrix: (Units=GPa)
#
#
# Indices 1 2 3 4 5 6 
#
# 1 80.4557 32.4071 48.2622 0.0000 0.0000 0.0000
# 2 32.4071 54.4236 29.7539 0.0000 0.0000 0.0000
# 3 48.2622 29.7539 109.0325 0.0000 0.0000 0.0000
# 4 0.0000 0.0000 0.0000 25.1933 0.0000 0.0000
# 5 0.0000 0.0000 0.0000 0.0000 29.5793 0.0000
# 6 0.0000 0.0000 0.0000 0.0000 0.0000 19.2400
#
#
#
# Elastic Compliance Matrix: (Units=1/GPa)
#
#
# Indices 1 2 3 4 5 6 
#
# 1 0.019569 -0.008130 -0.006443 0.000000 0.000000 0.000000
# 2 -0.008130 0.024974 -0.003217 0.000000 0.000000 0.000000
# 3 -0.006443 -0.003217 0.012901 0.000000 0.000000 0.000000
# 4 0.000000 0.000000 0.000000 0.039693 0.000000 0.000000
# 5 0.000000 0.000000 0.000000 0.000000 0.033807 0.000000
# 6 0.000000 0.000000 0.000000 0.000000 0.000000 0.051975
#
#
# Mechanical properties :
#
#
# Convention : Reuss Voigt Hill
#
# Bulk Modulus (GPa) = 45.73592 51.63982 48.68787
# Shear Modulus (GPa) = 22.14467 23.70177 22.92322
#
# Velocity S-wave (km/s) = 3.42436 3.54271 3.48404
# Velocity P-wave (km/s) = 6.31297 6.63922 6.47815
#
# Compressibility (1/GPa) = 0.02186465
#
# Stress axis : x y z
#
# Youngs Moduli (GPa) = 51.10105 40.04179 77.51044
#
# Poissons Ratio (x) = 0.32554 0.49944
# Poissons Ratio (y) = 0.41545 0.24931
# Poissons Ratio (z) = 0.32927 0.12880
#
# Static dielectric constant tensor:
#      x y z
#    x 3.368780 0.000000 0.000000 
#    y 0.000000 3.294760 0.000000 
#    z 0.000000 0.000000 3.714820 
# 
# 
# High freq. dielectric constant tensor:
#      x y z
#    x 1.730370 0.000000 0.000000 
#    y 0.000000 1.711640 0.000000 
#    z 0.000000 0.000000 1.739540 
# 
# From -- ./inp_files/5611.got.cif
#   From: 2010.03.12/outbox.cif.g09.slc.cpg/sg57_3_cif.got.tgz:5611.got - 2010.04.16 15:48:40.
