data_PCOD8230580
_publ_section_title
;
Structure prediction by ZEFSAII (Michael W. Deem and Ramdas Pophale) SiO2 
 PCOD8230580
Probable space group: P B C M
;
_chemical_formula_sum "Si O2"
_cell_formula_units_Z 40
_cell_length_a 23.843958
_cell_length_b 9.541086
_cell_length_c 8.929360
_cell_angle_alpha 90.000000
_cell_angle_beta 90.000000
_cell_angle_gamma 90.000000
_cell_volume 2031.404879
_symmetry_space_group_name_H-M "P B C M"
_symmetry_group_IT_number 57
_symmetry_cell_setting 'orthorhombic'
loop_
_space_group_symop_operation_xyz
x,y,z
-x,-y,1/2+z
x,1/2-y,-z
-x,1/2+y,1/2-z
-x,-y,-z
x,y,1/2-z
-x,1/2+y,z
x,1/2-y,1/2+z
loop_
_atom_site_type_symbol
_atom_site_label
_atom_site_fract_x
_atom_site_fract_y
_atom_site_fract_z
Si Si1 0.069418 0.519502 0.750000
Si Si2 0.250963 0.898870 0.580688
Si Si3 0.870364 0.409938 0.974419
Si Si4 0.663029 0.900144 0.930011
Si Si5 0.961038 0.343277 0.750000
Si Si6 0.452988 0.402239 0.431367
O O1 0.113312 0.499314 0.616985
O O2 0.040182 0.673698 0.750000
O O3 0.024920 0.394133 0.750000
O O4 0.252369 0.750000 0.500000
O O5 0.275023 0.887760 0.750000
O O6 0.187825 0.966166 0.594476
O O7 0.286856 0.998661 0.475101
O O8 0.928437 0.413521 0.885748
O O9 0.854730 0.250000 0.000000
O O10 0.656718 0.890821 0.750000
O O11 0.676977 0.750000 0.000000
O O12 0.606351 0.959029 0.006579
O O13 0.463826 0.250000 0.500000
O O14 0.500000 0.500000 0.500000
O O15 0.454055 0.400030 0.250000
#
# Coordination Sequence:
#
# PCOD8230580 Si02
#       6
#     4   8   8   8   4   8
#     4  10  20  32  56  74 108 136 185 224 291 340
#     4  11  22  38  61  88 116 151 202 251 297 353
#     4   9  19  33  55  77 106 142 186 231 287 344
#     4  11  23  41  63  89 124 163 199 242 302 356
#     4  10  18  36  50  80 102 144 175 234 277 352
#     4  11  22  40  64  92 126 164 206 248 297 350
#
# _framework density 19.690808000000001
#
# number of rings (size 3 to 8) (size 9 to 14) (size 15 to 20)
#    0.000    1.600    1.000    6.000    5.600    0.800 
#    0.000    6.000    0.000    0.000    0.000    0.000 
#    0.000    0.000    0.000    0.000    0.000    0.000 
#
# Total GULP energy -495530.190108 kJ/mol
# GULP energy per Si atom -12388.254753 kJ/mol
# Density = 1.964599 g / cm^3
# Si number density = 19.690808 Si / 1000 Ang^3
#
#
#
# Elastic Constant Matrix: (Units=GPa)
#
#
# Indices 1 2 3 4 5 6 
#
# 1 113.3626 48.9459 35.9356 0.0000 0.0000 0.0000
# 2 48.9459 52.9988 29.8276 0.0000 0.0000 0.0000
# 3 35.9356 29.8276 169.4665 0.0000 0.0000 0.0000
# 4 0.0000 0.0000 0.0000 29.5471 0.0000 0.0000
# 5 0.0000 0.0000 0.0000 0.0000 44.5683 0.0000
# 6 0.0000 0.0000 0.0000 0.0000 0.0000 -101.3270
#
#
#
# Elastic Compliance Matrix: (Units=1/GPa)
#
#
# Indices 1 2 3 4 5 6 
#
# 1 0.014771 -0.013185 -0.000812 0.000000 0.000000 0.000000
# 2 -0.013185 0.032712 -0.002962 0.000000 0.000000 0.000000
# 3 -0.000812 -0.002962 0.006594 0.000000 0.000000 0.000000
# 4 0.000000 0.000000 0.000000 0.033844 0.000000 0.000000
# 5 0.000000 0.000000 0.000000 0.000000 0.022437 0.000000
# 6 0.000000 0.000000 0.000000 0.000000 0.000000 -0.009869
#
#
# Mechanical properties :
#
#
# Convention : Reuss Voigt Hill
#
# Bulk Modulus (GPa) = 49.60093 62.80513 56.20303
# Shear Modulus (GPa) = 35.42913 9.29896 22.36405
#
# Velocity S-wave (km/s) = 4.24639 2.17549 3.37376
# Velocity P-wave (km/s) = 7.02047 6.18670 6.61673
#
# Compressibility (1/GPa) = 0.02016091
#
# Stress axis : x y z
#
# Youngs Moduli (GPa) = 67.69880 30.57000 151.64707
#
# Poissons Ratio (x) = 0.40306 0.12308
# Poissons Ratio (y) = 0.89260 0.44913
# Poissons Ratio (z) = 0.05495 0.09054
#
# Static dielectric constant tensor:
#      x y z
#    x 3.767170 0.000000 0.000000 
#    y 0.000000 3.305700 0.000000 
#    z 0.000000 0.000000 3.774090 
# 
# 
# High freq. dielectric constant tensor:
#      x y z
#    x 1.779190 0.000000 0.000000 
#    y 0.000000 1.735980 0.000000 
#    z 0.000000 0.000000 1.791000 
# 
# From -- ./inp_files/8961.got.cif
#   From: 2010.03.12/outbox.cif.g09.slc.cpg/sg57_5_cif.got.tgz:8961.got - 2010.04.16 15:48:40.
