data_PCOD8230933
_publ_section_title
;
Structure prediction by ZEFSAII (Michael W. Deem and Ramdas Pophale) SiO2 
 PCOD8230933
Probable space group: P B C M
;
_chemical_formula_sum "Si O2"
_cell_formula_units_Z 64
_cell_length_a 16.102737
_cell_length_b 23.771796
_cell_length_c 9.120431
_cell_angle_alpha 90.000000
_cell_angle_beta 90.000000
_cell_angle_gamma 90.000000
_cell_volume 3491.218711
_symmetry_space_group_name_H-M "P B C M"
_symmetry_group_IT_number 57
_symmetry_cell_setting 'orthorhombic'
loop_
_space_group_symop_operation_xyz
x,y,z
-x,-y,1/2+z
x,1/2-y,-z
-x,1/2+y,1/2-z
-x,-y,-z
x,y,1/2-z
-x,1/2+y,z
x,1/2-y,1/2+z
loop_
_atom_site_type_symbol
_atom_site_label
_atom_site_fract_x
_atom_site_fract_y
_atom_site_fract_z
Si Si1 0.058591 0.917542 0.922353
Si Si2 0.886359 0.524586 0.080583
Si Si3 0.565718 0.534363 0.911493
Si Si4 0.868512 0.189652 0.925322
Si Si5 0.317151 0.806243 0.419127
Si Si6 0.508688 0.343662 0.088690
Si Si7 0.641595 0.696062 0.421266
Si Si8 0.286950 0.077383 0.079748
O O1 0.075966 0.909673 0.750000
O O2 0.964211 0.935670 0.955427
O O3 0.073710 0.858735 0.005800
O O4 0.116278 0.967679 0.984731
O O5 0.886576 0.505827 0.250000
O O6 0.807070 0.562265 0.040640
O O7 0.578338 0.508166 0.750000
O O8 0.528476 0.595457 0.900933
O O9 0.500000 0.500000 0.000000
O O10 0.654114 0.534622 0.992379
O O11 0.883204 0.193650 0.750000
O O12 0.773746 0.171301 0.966798
O O13 0.889259 0.250000 0.000000
O O14 0.341793 0.750000 0.500000
O O15 0.311272 0.791394 0.250000
O O16 0.393444 0.848474 0.456050
O O17 0.501833 0.314755 0.250000
O O18 0.454482 0.308905 0.972225
O O19 0.682778 0.750000 0.500000
O O20 0.643386 0.706291 0.250000
O O21 0.695704 0.641756 0.467238
O O22 0.307308 0.069109 0.250000
#
# Coordination Sequence:
#
# PCOD8230933 Si02
#       8
#     8   8   8   8   8   8   8   8
#     4  10  20  35  57  84 109 134 170 215 263 318
#     4   9  19  37  59  80 105 137 173 215 263 315
#     4  10  20  33  49  71 101 135 170 209 254 305
#     4  10  20  35  54  77 108 144 178 214 261 314
#     4   9  18  31  47  68  94 126 163 201 241 289
#     4   9  18  32  48  67  93 127 167 208 248 292
#     4  10  19  31  49  72  98 130 168 209 255 306
#     4   9  19  36  55  74 100 136 175 216 262 310
#
# _framework density 18.331707000000002
#
# number of rings (size 3 to 8) (size 9 to 14) (size 15 to 20)
#    0.000    2.500    0.000    1.875    0.000    5.000 
#    0.000    3.125    0.000    1.500    0.000    0.000 
#    0.000    0.000    0.000    0.000    0.000    0.000 
#
# Total GULP energy -793308.679638 kJ/mol
# GULP energy per Si atom -12395.448119 kJ/mol
# Density = 1.828998 g / cm^3
# Si number density = 18.331707 Si / 1000 Ang^3
#
#
#
# Elastic Constant Matrix: (Units=GPa)
#
#
# Indices 1 2 3 4 5 6 
#
# 1 101.7086 54.8674 47.0565 0.0000 0.0000 0.0000
# 2 54.8674 89.6896 53.3753 0.0000 0.0000 0.0000
# 3 47.0565 53.3753 91.2308 0.0000 0.0000 0.0000
# 4 0.0000 0.0000 0.0000 34.8740 0.0000 0.0000
# 5 0.0000 0.0000 0.0000 0.0000 25.6449 0.0000
# 6 0.0000 0.0000 0.0000 0.0000 0.0000 21.6921
#
#
#
# Elastic Compliance Matrix: (Units=1/GPa)
#
#
# Indices 1 2 3 4 5 6 
#
# 1 0.015467 -0.007232 -0.003746 0.000000 0.000000 0.000000
# 2 -0.007232 0.020487 -0.008256 0.000000 0.000000 0.000000
# 3 -0.003746 -0.008256 0.017724 0.000000 0.000000 0.000000
# 4 0.000000 0.000000 0.000000 0.028675 0.000000 0.000000
# 5 0.000000 0.000000 0.000000 0.000000 0.038994 0.000000
# 6 0.000000 0.000000 0.000000 0.000000 0.000000 0.046100
#
#
# Mechanical properties :
#
#
# Convention : Reuss Voigt Hill
#
# Bulk Modulus (GPa) = 65.75192 65.91415 65.83304
# Shear Modulus (GPa) = 23.69846 24.93085 24.31465
#
# Velocity S-wave (km/s) = 3.59939 3.69180 3.64589
# Velocity P-wave (km/s) = 7.29520 7.36254 7.32894
#
# Compressibility (1/GPa) = 0.01520868
#
# Stress axis : x y z
#
# Youngs Moduli (GPa) = 64.65453 48.81166 56.42174
#
# Poissons Ratio (x) = 0.35302 0.21138
# Poissons Ratio (y) = 0.46760 0.46580
# Poissons Ratio (z) = 0.24222 0.40297
#
# Static dielectric constant tensor:
#      x y z
#    x 3.433690 0.000000 0.000000 
#    y 0.000000 3.222850 0.000000 
#    z 0.000000 0.000000 3.644830 
# 
# 
# High freq. dielectric constant tensor:
#      x y z
#    x 1.703250 0.000000 0.000000 
#    y 0.000000 1.702120 0.000000 
#    z 0.000000 0.000000 1.719380 
# 
# From -- ./inp_files/5624.got.cif
#   From: 2010.03.12/outbox.cif.g09.slc.cpg/sg57_3_cif.got.tgz:5624.got - 2010.04.16 15:48:40.
