data_PCOD8230507
_publ_section_title
;
Structure prediction by ZEFSAII (Michael W. Deem and Ramdas Pophale) SiO2 
 PCOD8230507
Probable space group: P B C M
;
_chemical_formula_sum "Si O2"
_cell_formula_units_Z 64
_cell_length_a 11.987712
_cell_length_b 30.779915
_cell_length_c 8.752616
_cell_angle_alpha 90.000000
_cell_angle_beta 90.000000
_cell_angle_gamma 90.000000
_cell_volume 3229.546872
_symmetry_space_group_name_H-M "P B C M"
_symmetry_group_IT_number 57
_symmetry_cell_setting 'orthorhombic'
loop_
_space_group_symop_operation_xyz
x,y,z
-x,-y,1/2+z
x,1/2-y,-z
-x,1/2+y,1/2-z
-x,-y,-z
x,y,1/2-z
-x,1/2+y,z
x,1/2-y,1/2+z
loop_
_atom_site_type_symbol
_atom_site_label
_atom_site_fract_x
_atom_site_fract_y
_atom_site_fract_z
Si Si1 0.230524 0.048953 0.572252
Si Si2 0.238352 0.795449 0.930857
Si Si3 0.766679 0.450998 0.570893
Si Si4 0.638676 0.626253 0.430291
Si Si5 0.006475 0.322487 0.925789
Si Si6 0.613559 0.374928 0.568066
Si Si7 0.227744 0.294438 0.429236
Si Si8 0.007351 0.075050 0.073316
O O1 0.245066 0.060408 0.750000
O O2 0.305174 0.080647 0.471281
O O3 0.101111 0.052265 0.528385
O O4 0.271052 0.000051 0.535326
O O5 0.243409 0.793069 0.750000
O O6 0.322200 0.832351 0.992331
O O7 0.113702 0.806903 0.985596
O O8 0.278179 0.750000 0.000000
O O9 0.775915 0.442114 0.750000
O O10 0.675404 0.417808 0.501574
O O11 0.889418 0.440874 0.504327
O O12 0.644406 0.632815 0.250000
O O13 0.512560 0.625931 0.493271
O O14 0.703852 0.665306 0.507074
O O15 0.025873 0.309111 0.750000
O O16 0.017376 0.373653 0.945971
O O17 0.097799 0.298836 0.028985
O O18 0.613798 0.376173 0.750000
O O19 0.276159 0.250000 0.500000
O O20 0.242666 0.292645 0.250000
O O21 0.022859 0.061492 0.250000
#
# Coordination Sequence:
#
# PCOD8230507 Si02
#       8
#     8   8   8   8   8   8   8   8
#     4  11  22  35  56  87 121 152 190 240 290 341
#     4  10  20  36  59  87 116 147 185 229 284 342
#     4   9  18  35  59  87 116 151 192 237 291 346
#     4  11  23  40  61  83 112 153 200 241 285 339
#     4  10  19  34  60  89 118 152 188 229 282 345
#     4   9  19  38  61  82 108 150 198 240 284 341
#     4  12  25  41  62  87 119 152 190 236 287 342
#     4  10  18  33  60  86 115 153 191 231 284 350
#
# _framework density 19.817022000000001
#
# number of rings (size 3 to 8) (size 9 to 14) (size 15 to 20)
#    0.000    1.750    2.500    2.625    0.000    2.500 
#    0.000    3.125    0.000    5.250    0.000    0.000 
#    0.000    0.000    0.000    0.000    0.000    0.000 
#
# Total GULP energy -793791.397996 kJ/mol
# GULP energy per Si atom -12402.990594 kJ/mol
# Density = 1.977192 g / cm^3
# Si number density = 19.817022 Si / 1000 Ang^3
#
#
#
# Elastic Constant Matrix: (Units=GPa)
#
#
# Indices 1 2 3 4 5 6 
#
# 1 147.3208 63.6744 30.4333 0.0000 0.0000 0.0000
# 2 63.6744 129.4215 35.5025 0.0000 0.0000 0.0000
# 3 30.4333 35.5025 62.8573 0.0000 0.0000 0.0000
# 4 0.0000 0.0000 0.0000 26.8435 0.0000 0.0000
# 5 0.0000 0.0000 0.0000 0.0000 7.5830 0.0000
# 6 0.0000 0.0000 0.0000 0.0000 0.0000 6.7924
#
#
#
# Elastic Compliance Matrix: (Units=1/GPa)
#
#
# Indices 1 2 3 4 5 6 
#
# 1 0.008863 -0.003767 -0.002163 0.000000 0.000000 0.000000
# 2 -0.003767 0.010744 -0.004245 0.000000 0.000000 0.000000
# 3 -0.002163 -0.004245 0.019354 0.000000 0.000000 0.000000
# 4 0.000000 0.000000 0.000000 0.037253 0.000000 0.000000
# 5 0.000000 0.000000 0.000000 0.000000 0.131874 0.000000
# 6 0.000000 0.000000 0.000000 0.000000 0.000000 0.147224
#
#
# Mechanical properties :
#
#
# Convention : Reuss Voigt Hill
#
# Bulk Modulus (GPa) = 53.73180 66.53557 60.13368
# Shear Modulus (GPa) = 13.09358 22.24307 17.66832
#
# Velocity S-wave (km/s) = 2.57324 3.35389 2.98916
# Velocity P-wave (km/s) = 6.00013 6.97467 6.50567
#
# Compressibility (1/GPa) = 0.01861095
#
# Stress axis : x y z
#
# Youngs Moduli (GPa) = 112.82839 93.07137 51.66893
#
# Poissons Ratio (x) = 0.35060 0.11179
# Poissons Ratio (y) = 0.42503 0.21932
# Poissons Ratio (z) = 0.24410 0.39506
#
# Static dielectric constant tensor:
#      x y z
#    x 3.801050 0.000000 0.000000 
#    y 0.000000 3.772110 0.000000 
#    z 0.000000 0.000000 3.296670 
# 
# 
# High freq. dielectric constant tensor:
#      x y z
#    x 1.773550 0.000000 0.000000 
#    y 0.000000 1.789920 0.000000 
#    z 0.000000 0.000000 1.743460 
# 
# From -- ./inp_files/3741.got.cif
#   From: 2010.03.12/outbox.cif.g09.slc.cpg/sg57_2_cif.got.tgz:3741.got - 2010.04.16 15:48:40.
