data_PCOD8230173
_publ_section_title
;
Structure prediction by ZEFSAII (Michael W. Deem and Ramdas Pophale) SiO2 
 PCOD8230173
Probable space group: P B C M
;
_chemical_formula_sum "Si O2"
_cell_formula_units_Z 56
_cell_length_a 5.237634
_cell_length_b 28.380456
_cell_length_c 20.342430
_cell_angle_alpha 90.000000
_cell_angle_beta 90.000000
_cell_angle_gamma 90.000000
_cell_volume 3023.829827
_symmetry_space_group_name_H-M "P B C M"
_symmetry_group_IT_number 57
_symmetry_cell_setting 'orthorhombic'
loop_
_space_group_symop_operation_xyz
x,y,z
-x,-y,1/2+z
x,1/2-y,-z
-x,1/2+y,1/2-z
-x,-y,-z
x,y,1/2-z
-x,1/2+y,z
x,1/2-y,1/2+z
loop_
_atom_site_type_symbol
_atom_site_label
_atom_site_fract_x
_atom_site_fract_y
_atom_site_fract_z
Si Si1 0.814887 0.011214 0.324989
Si Si2 0.973144 0.113890 0.172420
Si Si3 0.465998 0.228175 0.672041
Si Si4 0.460585 0.468521 0.436765
Si Si5 0.965074 0.326653 0.328124
Si Si6 0.472704 0.334428 0.828619
Si Si7 0.967387 0.071815 0.608130
O O1 0.716711 0.014411 0.250000
O O2 0.958100 0.058999 0.346625
O O3 0.570608 0.002505 0.372558
O O4 0.011926 0.967692 0.334110
O O5 0.976630 0.120470 0.250000
O O6 0.229839 0.136928 0.142873
O O7 0.727226 0.140989 0.143523
O O8 0.474334 0.230039 0.750000
O O9 0.210246 0.202537 0.647815
O O10 0.465737 0.281178 0.644022
O O11 0.713426 0.200168 0.646141
O O12 0.500000 0.500000 0.500000
O O13 0.203765 0.436409 0.442762
O O14 0.701186 0.434064 0.429527
O O15 0.961359 0.332779 0.250000
O O16 0.981081 0.377346 0.360390
O O17 0.469445 0.335000 0.750000
#
# Coordination Sequence:
#
# PCOD8230173 Si02
#       7
#     8   8   8   8   8   8   8
#     4   9  21  33  52  79 109 142 175 221 269 316
#     4   9  17  27  42  65  96 131 171 208 254 311
#     4   9  17  27  42  63  97 137 171 206 253 313
#     4  10  22  38  55  73 105 146 179 220 257 311
#     4  10  18  29  45  71 101 134 173 210 256 311
#     4   9  16  27  41  61  94 137 171 204 254 312
#     4  10  21  34  53  72 104 138 176 215 259 313
#
# _framework density 18.519563000000002
#
# number of rings (size 3 to 8) (size 9 to 14) (size 15 to 20)
#    0.857    1.714    0.000    2.571    2.000    4.571 
#    0.000    0.000    0.000    0.000    0.000    0.000 
#    0.000   17.143    0.000    0.000    0.000    0.000 
#
# Total GULP energy -694051.977669 kJ/mol
# GULP energy per Si atom -12393.785316 kJ/mol
# Density = 1.847741 g / cm^3
# Si number density = 18.519563 Si / 1000 Ang^3
#
#
#
# Elastic Constant Matrix: (Units=GPa)
#
#
# Indices 1 2 3 4 5 6 
#
# 1 144.8597 44.2801 4.5178 0.0000 0.0000 0.0000
# 2 44.2801 129.8667 2.9464 0.0000 0.0000 0.0000
# 3 4.5178 2.9464 28.7016 0.0000 0.0000 0.0000
# 4 0.0000 0.0000 0.0000 1.5179 0.0000 0.0000
# 5 0.0000 0.0000 0.0000 0.0000 11.2791 0.0000
# 6 0.0000 0.0000 0.0000 0.0000 0.0000 26.8052
#
#
#
# Elastic Compliance Matrix: (Units=1/GPa)
#
#
# Indices 1 2 3 4 5 6 
#
# 1 0.007732 -0.002615 -0.000949 0.000000 0.000000 0.000000
# 2 -0.002615 0.008602 -0.000471 0.000000 0.000000 0.000000
# 3 -0.000949 -0.000471 0.035039 0.000000 0.000000 0.000000
# 4 0.000000 0.000000 0.000000 0.658812 0.000000 0.000000
# 5 0.000000 0.000000 0.000000 0.000000 0.088660 0.000000
# 6 0.000000 0.000000 0.000000 0.000000 0.000000 0.037306
#
#
# Mechanical properties :
#
#
# Convention : Reuss Voigt Hill
#
# Bulk Modulus (GPa) = 23.09279 45.21295 34.15287
# Shear Modulus (GPa) = 5.82305 24.69935 15.26120
#
# Velocity S-wave (km/s) = 1.77513 3.65593 2.87376
# Velocity P-wave (km/s) = 4.08631 6.50290 5.43073
#
# Compressibility (1/GPa) = 0.04330356
#
# Stress axis : x y z
#
# Youngs Moduli (GPa) = 129.33065 116.24548 28.53966
#
# Poissons Ratio (x) = 0.30397 0.02707
# Poissons Ratio (y) = 0.33818 0.01346
# Poissons Ratio (z) = 0.12269 0.05481
#
# Static dielectric constant tensor:
#      x y z
#    x 3.732460 0.000000 0.000000 
#    y 0.000000 3.470830 0.000000 
#    z 0.000000 0.000000 2.885330 
# 
# 
# High freq. dielectric constant tensor:
#      x y z
#    x 1.733530 0.000000 0.000000 
#    y 0.000000 1.728900 0.000000 
#    z 0.000000 0.000000 1.644750 
# 
# From -- ./inp_files/26402.got.cif
#   From: 2010.03.12/outbox.cif.g09.slc.cpg/sg57_14_cif.got.tgz:26402.got - 2010.04.16 15:48:40.
