data_PCOD8230165
_publ_section_title
;
Structure prediction by ZEFSAII (Michael W. Deem and Ramdas Pophale) SiO2 
 PCOD8230165
Probable space group: P B C M
;
_chemical_formula_sum "Si O2"
_cell_formula_units_Z 60
_cell_length_a 29.773788
_cell_length_b 5.214509
_cell_length_c 19.374038
_cell_angle_alpha 90.000000
_cell_angle_beta 90.000000
_cell_angle_gamma 90.000000
_cell_volume 3007.929550
_symmetry_space_group_name_H-M "P B C M"
_symmetry_group_IT_number 57
_symmetry_cell_setting 'orthorhombic'
loop_
_space_group_symop_operation_xyz
x,y,z
-x,-y,1/2+z
x,1/2-y,-z
-x,1/2+y,1/2-z
-x,-y,-z
x,y,1/2-z
-x,1/2+y,z
x,1/2-y,1/2+z
loop_
_atom_site_type_symbol
_atom_site_label
_atom_site_fract_x
_atom_site_fract_y
_atom_site_fract_z
Si Si1 0.529117 0.517800 0.828539
Si Si2 0.397980 0.623046 0.432507
Si Si3 0.281028 0.271198 0.633972
Si Si4 0.669423 0.251904 0.325644
Si Si5 0.126837 0.747999 0.167962
Si Si6 0.179097 0.248136 0.332022
Si Si7 0.328074 0.250000 0.000000
Si Si8 0.025664 0.752364 0.167662
O O1 0.548167 0.534830 0.750000
O O2 0.494348 0.745648 0.841343
O O3 0.567688 0.544362 0.886518
O O4 0.422340 0.750000 0.500000
O O5 0.371830 0.811907 0.378947
O O6 0.358976 0.460006 0.465781
O O7 0.297734 0.504154 0.681810
O O8 0.227927 0.244219 0.634935
O O9 0.295449 0.364486 0.557905
O O10 0.302703 0.001343 0.655150
O O11 0.647850 0.208863 0.250000
O O12 0.125170 0.748810 0.250000
O O13 0.151871 0.494570 0.141067
O O14 0.076301 0.751597 0.138391
O O15 0.153165 0.997282 0.141085
O O16 0.183930 0.249657 0.250000
O O17 0.026201 0.752168 0.250000
O O18 0.999847 0.502848 0.139510
#
# Coordination Sequence:
#
# PCOD8230165 Si02
#       8
#     8   8   8   8   8   8   4   8
#     4  10  24  44  66  93 123 155 192 234 282 336
#     4  11  23  41  63  88 122 156 189 236 280 341
#     4  11  22  37  57  78 112 145 185 236 283 339
#     4  11  22  37  59  85 110 146 191 236 280 331
#     4   9  17  27  40  62  93 128 172 218 263 321
#     4  10  18  29  45  67  95 132 173 217 266 319
#     4  10  24  42  58  88 118 152 192 234 286 340
#     4   9  15  23  36  55  83 124 168 209 258 318
#
# _framework density 19.947275000000001
#
# number of rings (size 3 to 8) (size 9 to 14) (size 15 to 20)
#    0.000    1.867    1.333    3.200    1.867    4.800 
#    0.000    2.667    0.000    0.000    0.000    0.000 
#    0.000    0.000    0.000   12.000    0.000    5.333 
#
# Total GULP energy -743733.384761 kJ/mol
# GULP energy per Si atom -12395.556413 kJ/mol
# Density = 1.990187 g / cm^3
# Si number density = 19.947275 Si / 1000 Ang^3
#
#
#
# Elastic Constant Matrix: (Units=GPa)
#
#
# Indices 1 2 3 4 5 6 
#
# 1 84.6548 31.2924 48.5308 0.0000 0.0000 0.0000
# 2 31.2924 126.1941 22.1485 0.0000 0.0000 0.0000
# 3 48.5308 22.1485 94.3123 0.0000 0.0000 0.0000
# 4 0.0000 0.0000 0.0000 -201.4077 0.0000 0.0000
# 5 0.0000 0.0000 0.0000 0.0000 36.5807 0.0000
# 6 0.0000 0.0000 0.0000 0.0000 0.0000 284.6931
#
#
#
# Elastic Compliance Matrix: (Units=1/GPa)
#
#
# Indices 1 2 3 4 5 6 
#
# 1 0.017727 -0.002915 -0.008437 0.000000 0.000000 0.000000
# 2 -0.002915 0.008744 -0.000554 0.000000 0.000000 0.000000
# 3 -0.008437 -0.000554 0.015075 0.000000 0.000000 0.000000
# 4 0.000000 0.000000 0.000000 -0.004965 0.000000 0.000000
# 5 0.000000 0.000000 0.000000 0.000000 0.027337 0.000000
# 6 0.000000 0.000000 0.000000 0.000000 0.000000 0.003513
#
#
# Mechanical properties :
#
#
# Convention : Reuss Voigt Hill
#
# Bulk Modulus (GPa) = 56.38776 56.56720 56.47748
# Shear Modulus (GPa) = 51.46478 37.51920 44.49199
#
# Velocity S-wave (km/s) = 5.08492 4.34166 4.72792
# Velocity P-wave (km/s) = 7.92496 7.31801 7.62752
#
# Compressibility (1/GPa) = 0.01773435
#
# Stress axis : x y z
#
# Youngs Moduli (GPa) = 56.41063 114.36044 66.33614
#
# Poissons Ratio (x) = 0.33336 0.55970
# Poissons Ratio (y) = 0.16443 0.03672
# Poissons Ratio (z) = 0.47596 0.06331
#
# Static dielectric constant tensor:
#      x y z
#    x 3.638640 0.000000 0.000000 
#    y 0.000000 3.734760 0.000000 
#    z 0.000000 0.000000 3.845860 
# 
# 
# High freq. dielectric constant tensor:
#      x y z
#    x 1.778150 0.000000 0.000000 
#    y 0.000000 1.787450 0.000000 
#    z 0.000000 0.000000 1.743130 
# 
# From -- ./inp_files/23154.got.cif
#   From: 2010.03.12/outbox.cif.g09.slc.cpg/sg57_12_cif.got.tgz:23154.got - 2010.04.16 15:48:40.
