data_PCOD8230131
_publ_section_title
;
Structure prediction by ZEFSAII (Michael W. Deem and Ramdas Pophale) SiO2 
 PCOD8230131
Probable space group: P B C M
;
_chemical_formula_sum "Si O2"
_cell_formula_units_Z 56
_cell_length_a 17.690416
_cell_length_b 21.784262
_cell_length_c 9.051725
_cell_angle_alpha 90.000000
_cell_angle_beta 90.000000
_cell_angle_gamma 90.000000
_cell_volume 3488.287314
_symmetry_space_group_name_H-M "P B C M"
_symmetry_group_IT_number 57
_symmetry_cell_setting 'orthorhombic'
loop_
_space_group_symop_operation_xyz
x,y,z
-x,-y,1/2+z
x,1/2-y,-z
-x,1/2+y,1/2-z
-x,-y,-z
x,y,1/2-z
-x,1/2+y,z
x,1/2-y,1/2+z
loop_
_atom_site_type_symbol
_atom_site_label
_atom_site_fract_x
_atom_site_fract_y
_atom_site_fract_z
Si Si1 0.538811 0.413779 0.422098
Si Si2 0.398446 0.454676 0.577450
Si Si3 0.338335 0.814352 0.075051
Si Si4 0.068381 0.919323 0.418636
Si Si5 0.210134 0.889069 0.577838
Si Si6 0.087170 0.457178 0.081310
Si Si7 0.250866 0.029441 0.582852
O O1 0.520905 0.414191 0.250000
O O2 0.459067 0.408134 0.506447
O O3 0.581471 0.475934 0.469943
O O4 0.591489 0.357475 0.468469
O O5 0.400180 0.444178 0.750000
O O6 0.314283 0.440582 0.520433
O O7 0.329924 0.807179 0.250000
O O8 0.355715 0.750000 0.000000
O O9 0.261294 0.841912 0.011646
O O10 0.093982 0.909042 0.250000
O O11 0.123366 0.879255 0.522904
O O12 0.977944 0.904607 0.439272
O O13 0.074989 0.990865 0.459018
O O14 0.215117 0.873454 0.750000
O O15 0.235429 0.958358 0.541232
O O16 0.081638 0.484362 0.250000
O O17 0.172866 0.431897 0.060534
O O18 0.280403 0.033744 0.750000
#
# Coordination Sequence:
#
# PCOD8230131 Si02
#       7
#     8   8   8   8   8   8   8
#     4   9  19  33  46  63  88 116 148 185 229 276
#     4  10  18  28  45  67  89 115 151 188 225 274
#     4  11  22  36  51  68  90 117 153 192 232 274
#     4   9  15  24  39  57  82 114 149 185 217 254
#     4  10  19  30  44  62  86 118 154 187 225 269
#     4   8  15  25  36  56  84 117 150 179 215 259
#     4   9  16  26  41  61  89 120 150 183 222 268
#
# _framework density 16.053725
#
# number of rings (size 3 to 8) (size 9 to 14) (size 15 to 20)
#    0.000    2.571    1.429    2.571    0.000    4.571 
#    0.000    0.000    0.000    0.000    0.000    0.000 
#    0.000    1.143    0.000    7.429    0.000    5.857 
#
# Total GULP energy -694045.924126 kJ/mol
# GULP energy per Si atom -12393.677217 kJ/mol
# Density = 1.601719 g / cm^3
# Si number density = 16.053725 Si / 1000 Ang^3
#
#
#
# Elastic Constant Matrix: (Units=GPa)
#
#
# Indices 1 2 3 4 5 6 
#
# 1 147.2038 41.0902 54.7533 0.0000 0.0000 0.0000
# 2 41.0902 48.3126 28.1382 0.0000 0.0000 0.0000
# 3 54.7533 28.1382 68.4864 0.0000 0.0000 0.0000
# 4 0.0000 0.0000 0.0000 17.5268 0.0000 0.0000
# 5 0.0000 0.0000 0.0000 0.0000 29.4572 0.0000
# 6 0.0000 0.0000 0.0000 0.0000 0.0000 12.7367
#
#
#
# Elastic Compliance Matrix: (Units=1/GPa)
#
#
# Indices 1 2 3 4 5 6 
#
# 1 0.010636 -0.005381 -0.006292 0.000000 0.000000 0.000000
# 2 -0.005381 0.029932 -0.007996 0.000000 0.000000 0.000000
# 3 -0.006292 -0.007996 0.022917 0.000000 0.000000 0.000000
# 4 0.000000 0.000000 0.000000 0.057056 0.000000 0.000000
# 5 0.000000 0.000000 0.000000 0.000000 0.033948 0.000000
# 6 0.000000 0.000000 0.000000 0.000000 0.000000 0.078513
#
#
# Mechanical properties :
#
#
# Convention : Reuss Voigt Hill
#
# Bulk Modulus (GPa) = 41.41344 56.88512 49.14928
# Shear Modulus (GPa) = 17.83241 21.27888 19.55565
#
# Velocity S-wave (km/s) = 3.33648 3.64466 3.49397
# Velocity P-wave (km/s) = 6.37931 7.29538 6.85267
#
# Compressibility (1/GPa) = 0.02414675
#
# Stress axis : x y z
#
# Youngs Moduli (GPa) = 94.02212 33.40898 43.63562
#
# Poissons Ratio (x) = 0.17978 0.27456
# Poissons Ratio (y) = 0.50594 0.34890
# Poissons Ratio (z) = 0.59161 0.26713
#
# Static dielectric constant tensor:
#      x y z
#    x 3.421560 0.000000 0.000000 
#    y 0.000000 2.527890 0.000000 
#    z 0.000000 0.000000 3.087240 
# 
# 
# High freq. dielectric constant tensor:
#      x y z
#    x 1.637240 0.000000 0.000000 
#    y 0.000000 1.536250 0.000000 
#    z 0.000000 0.000000 1.630660 
# 
# From -- ./inp_files/7028.got.cif
#   From: 2010.03.12/outbox.cif.g09.slc.cpg/sg57_4_cif.got.tgz:7028.got - 2010.04.16 15:48:40.
