data_PCOD8230772
_publ_section_title
;
Structure prediction by ZEFSAII (Michael W. Deem and Ramdas Pophale) SiO2 
 PCOD8230772
Probable space group: P B C M
;
_chemical_formula_sum "Si O2"
_cell_formula_units_Z 48
_cell_length_a 23.344712
_cell_length_b 13.742951
_cell_length_c 8.963591
_cell_angle_alpha 90.000000
_cell_angle_beta 90.000000
_cell_angle_gamma 90.000000
_cell_volume 2875.746172
_symmetry_space_group_name_H-M "P B C M"
_symmetry_group_IT_number 57
_symmetry_cell_setting 'orthorhombic'
loop_
_space_group_symop_operation_xyz
x,y,z
-x,-y,1/2+z
x,1/2-y,-z
-x,1/2+y,1/2-z
-x,-y,-z
x,y,1/2-z
-x,1/2+y,z
x,1/2-y,1/2+z
loop_
_atom_site_type_symbol
_atom_site_label
_atom_site_fract_x
_atom_site_fract_y
_atom_site_fract_z
Si Si1 0.412332 0.524356 0.075877
Si Si2 0.318700 0.648387 0.574086
Si Si3 0.812116 0.349041 0.423392
Si Si4 0.024507 0.353245 0.424125
Si Si5 0.915154 0.021159 0.575896
Si Si6 0.475042 0.145985 0.424258
O O1 0.400911 0.507855 0.250000
O O2 0.462218 0.602395 0.047577
O O3 0.355247 0.562011 0.996577
O O4 0.427752 0.421850 0.001225
O O5 0.337097 0.750000 0.500000
O O6 0.330065 0.655663 0.750000
O O7 0.252930 0.623508 0.535384
O O8 0.831944 0.250000 0.500000
O O9 0.819314 0.329413 0.250000
O O10 0.853599 0.436464 0.474006
O O11 0.030194 0.250000 0.500000
O O12 0.032895 0.339427 0.250000
O O13 0.074885 0.422845 0.484135
O O14 0.963111 0.399031 0.464928
O O15 0.917185 0.995340 0.750000
O O16 0.472181 0.250000 0.500000
O O17 0.461051 0.154631 0.250000
#
# Coordination Sequence:
#
# PCOD8230772 Si02
#       6
#     8   8   8   8   8   8
#     4  10  20  33  50  72  98 128 160 194 234 279
#     4  10  19  31  48  71  98 127 159 194 235 280
#     4   9  18  31  48  70  96 126 157 193 234 277
#     4  10  19  30  47  70  95 124 156 192 234 279
#     4   9  18  32  48  68  95 125 157 192 232 278
#     4  10  20  33  50  72  98 127 159 195 235 280
#
# _framework density 16.691319
#
# number of rings (size 3 to 8) (size 9 to 14) (size 15 to 20)
#    0.000    2.333    0.000    3.000    0.000    5.333 
#    0.000    0.000    0.000    1.000    0.000    4.667 
#    0.000    0.000    0.000    0.000    0.000    0.000 
#
# Total GULP energy -595349.193553 kJ/mol
# GULP energy per Si atom -12403.108199 kJ/mol
# Density = 1.665333 g / cm^3
# Si number density = 16.691319 Si / 1000 Ang^3
#
#
#
# Elastic Constant Matrix: (Units=GPa)
#
#
# Indices 1 2 3 4 5 6 
#
# 1 79.2536 55.4730 45.2658 0.0000 0.0000 0.0000
# 2 55.4730 140.4937 70.0066 0.0000 0.0000 0.0000
# 3 45.2658 70.0066 92.3363 0.0000 0.0000 0.0000
# 4 0.0000 0.0000 0.0000 35.1827 0.0000 0.0000
# 5 0.0000 0.0000 0.0000 0.0000 24.5232 0.0000
# 6 0.0000 0.0000 0.0000 0.0000 0.0000 20.9274
#
#
#
# Elastic Compliance Matrix: (Units=1/GPa)
#
#
# Indices 1 2 3 4 5 6 
#
# 1 0.019251 -0.004659 -0.005906 0.000000 0.000000 0.000000
# 2 -0.004659 0.012567 -0.007244 0.000000 0.000000 0.000000
# 3 -0.005906 -0.007244 0.019217 0.000000 0.000000 0.000000
# 4 0.000000 0.000000 0.000000 0.028423 0.000000 0.000000
# 5 0.000000 0.000000 0.000000 0.000000 0.040778 0.000000
# 6 0.000000 0.000000 0.000000 0.000000 0.000000 0.047784
#
#
# Mechanical properties :
#
#
# Convention : Reuss Voigt Hill
#
# Bulk Modulus (GPa) = 64.85451 72.61938 68.73694
# Shear Modulus (GPa) = 23.94906 25.54922 24.74914
#
# Velocity S-wave (km/s) = 3.79201 3.91665 3.85483
# Velocity P-wave (km/s) = 7.62313 8.00345 7.81560
#
# Compressibility (1/GPa) = 0.01541913
#
# Stress axis : x y z
#
# Youngs Moduli (GPa) = 51.94410 79.57479 52.03668
#
# Poissons Ratio (x) = 0.37071 0.30731
# Poissons Ratio (y) = 0.24199 0.37695
# Poissons Ratio (z) = 0.30676 0.57644
#
# Static dielectric constant tensor:
#      x y z
#    x 3.184300 0.000000 0.000000 
#    y 0.000000 3.568360 0.000000 
#    z 0.000000 0.000000 3.245170 
# 
# 
# High freq. dielectric constant tensor:
#      x y z
#    x 1.631840 0.000000 0.000000 
#    y 0.000000 1.635690 0.000000 
#    z 0.000000 0.000000 1.657110 
# 
# From -- ./inp_files/7850.got.cif
#   From: 2010.03.12/outbox.cif.g09.slc.cpg/sg57_4_cif.got.tgz:7850.got - 2010.04.16 15:48:40.
