data_PCOD8230519
_publ_section_title
;
Structure prediction by ZEFSAII (Michael W. Deem and Ramdas Pophale) SiO2 
 PCOD8230519
Probable space group: P B C M
;
_chemical_formula_sum "Si O2"
_cell_formula_units_Z 32
_cell_length_a 19.101012
_cell_length_b 8.829279
_cell_length_c 9.694089
_cell_angle_alpha 90.000000
_cell_angle_beta 90.000000
_cell_angle_gamma 90.000000
_cell_volume 1634.890313
_symmetry_space_group_name_H-M "P B C M"
_symmetry_group_IT_number 57
_symmetry_cell_setting 'orthorhombic'
loop_
_space_group_symop_operation_xyz
x,y,z
-x,-y,1/2+z
x,1/2-y,-z
-x,1/2+y,1/2-z
-x,-y,-z
x,y,1/2-z
-x,1/2+y,z
x,1/2-y,1/2+z
loop_
_atom_site_type_symbol
_atom_site_label
_atom_site_fract_x
_atom_site_fract_y
_atom_site_fract_z
Si Si1 0.588552 0.472443 0.250000
Si Si2 0.559412 0.117660 0.250000
Si Si3 0.055223 0.403057 0.085965
Si Si4 0.810158 0.105479 0.094725
Si Si5 0.661075 0.427740 0.516924
O O1 0.564692 0.298460 0.250000
O O2 0.521933 0.580267 0.250000
O O3 0.637903 0.511585 0.378434
O O4 0.597723 0.041091 0.378978
O O5 0.034486 0.379948 0.250000
O O6 0.129479 0.484022 0.076035
O O7 0.061668 0.250000 0.000000
O O8 0.000000 0.500000 0.000000
O O9 0.807152 0.168973 0.250000
O O10 0.737542 0.015221 0.063333
O O11 0.824983 0.250000 0.000000
O O12 0.671367 0.250000 0.500000
#
# Coordination Sequence:
#
# PCOD8230519 Si02
#       5
#     4   4   8   8   8
#     4  10  20  32  52  78 103 144 183 236 283 346
#     4  10  18  34  52  74 107 140 185 232 285 342
#     4  11  24  43  64  93 126 161 199 242 293 350
#     4  10  21  37  61  88 116 152 197 244 292 348
#     4   9  18  33  53  78 107 141 189 232 284 341
#
# _framework density 19.573177999999999
#
# number of rings (size 3 to 8) (size 9 to 14) (size 15 to 20)
#    0.000    2.000    1.250    2.250    5.250    4.000 
#    0.000    2.500    0.000    0.000    0.000    0.000 
#    0.000    0.000    0.000    0.000    0.000    0.000 
#
# Total GULP energy -396619.977540 kJ/mol
# GULP energy per Si atom -12394.374298 kJ/mol
# Density = 1.952863 g / cm^3
# Si number density = 19.573178 Si / 1000 Ang^3
#
#
#
# Elastic Constant Matrix: (Units=GPa)
#
#
# Indices 1 2 3 4 5 6 
#
# 1 138.1591 38.8812 67.5416 0.0000 0.0000 0.0000
# 2 38.8812 62.3220 53.2095 0.0000 0.0000 0.0000
# 3 67.5416 53.2095 176.8070 0.0000 0.0000 0.0000
# 4 0.0000 0.0000 0.0000 24.1969 0.0000 0.0000
# 5 0.0000 0.0000 0.0000 0.0000 32.0619 0.0000
# 6 0.0000 0.0000 0.0000 0.0000 0.0000 24.2307
#
#
#
# Elastic Compliance Matrix: (Units=1/GPa)
#
#
# Indices 1 2 3 4 5 6 
#
# 1 0.009531 -0.003819 -0.002492 0.000000 0.000000 0.000000
# 2 -0.003819 0.023124 -0.005500 0.000000 0.000000 0.000000
# 3 -0.002492 -0.005500 0.008263 0.000000 0.000000 0.000000
# 4 0.000000 0.000000 0.000000 0.041328 0.000000 0.000000
# 5 0.000000 0.000000 0.000000 0.000000 0.031190 0.000000
# 6 0.000000 0.000000 0.000000 0.000000 0.000000 0.041270
#
#
# Mechanical properties :
#
#
# Convention : Reuss Voigt Hill
#
# Bulk Modulus (GPa) = 57.81479 77.39474 67.60476
# Shear Modulus (GPa) = 27.16031 30.60829 28.88430
#
# Velocity S-wave (km/s) = 3.72913 3.95877 3.84566
# Velocity P-wave (km/s) = 6.93857 7.77964 7.37111
#
# Compressibility (1/GPa) = 0.01729661
#
# Stress axis : x y z
#
# Youngs Moduli (GPa) = 104.92332 43.24463 121.02120
#
# Poissons Ratio (x) = 0.16514 0.30153
# Poissons Ratio (y) = 0.40068 0.66566
# Poissons Ratio (z) = 0.26143 0.23786
#
# Static dielectric constant tensor:
#      x y z
#    x 3.813670 0.000000 0.000000 
#    y 0.000000 3.143020 0.000000 
#    z 0.000000 0.000000 3.857660 
# 
# 
# High freq. dielectric constant tensor:
#      x y z
#    x 1.782070 0.000000 0.000000 
#    y 0.000000 1.722730 0.000000 
#    z 0.000000 0.000000 1.785590 
# 
# From -- ./inp_files/7550.got.cif
#   From: 2010.03.12/outbox.cif.g09.slc.cpg/sg57_4_cif.got.tgz:7550.got - 2010.04.16 15:48:40.
