data_PCOD8230214
_publ_section_title
;
Structure prediction by ZEFSAII (Michael W. Deem and Ramdas Pophale) SiO2 
 PCOD8230214
Probable space group: P B C M
;
_chemical_formula_sum "Si O2"
_cell_formula_units_Z 56
_cell_length_a 18.963078
_cell_length_b 18.150708
_cell_length_c 9.197880
_cell_angle_alpha 90.000000
_cell_angle_beta 90.000000
_cell_angle_gamma 90.000000
_cell_volume 3165.848593
_symmetry_space_group_name_H-M "P B C M"
_symmetry_group_IT_number 57
_symmetry_cell_setting 'orthorhombic'
loop_
_space_group_symop_operation_xyz
x,y,z
-x,-y,1/2+z
x,1/2-y,-z
-x,1/2+y,1/2-z
-x,-y,-z
x,y,1/2-z
-x,1/2+y,z
x,1/2-y,1/2+z
loop_
_atom_site_type_symbol
_atom_site_label
_atom_site_fract_x
_atom_site_fract_y
_atom_site_fract_z
Si Si1 0.066987 0.528008 0.584636
Si Si2 0.416129 0.935834 0.916750
Si Si3 0.785867 0.534004 0.083588
Si Si4 0.570600 0.914489 0.580126
Si Si5 0.143046 0.676969 0.922847
Si Si6 0.700050 0.676828 0.418307
Si Si7 0.734619 0.396023 0.581115
O O1 0.043320 0.533257 0.750000
O O2 0.129854 0.469398 0.561822
O O3 0.092778 0.608924 0.532683
O O4 0.000000 0.500000 0.500000
O O5 0.419134 0.962078 0.750000
O O6 0.489286 0.893745 0.957257
O O7 0.349352 0.881738 0.941616
O O8 0.407460 0.008259 0.012009
O O9 0.767209 0.510533 0.250000
O O10 0.759857 0.616032 0.049857
O O11 0.748952 0.479002 0.971537
O O12 0.583734 0.924469 0.750000
O O13 0.623699 0.851348 0.523126
O O14 0.147773 0.687395 0.750000
O O15 0.112428 0.750000 0.000000
O O16 0.221568 0.662039 0.985247
O O17 0.723153 0.750000 0.500000
O O18 0.695868 0.696394 0.250000
O O19 0.756129 0.387994 0.750000
#
# Coordination Sequence:
#
# PCOD8230214 Si02
#       7
#     8   8   8   8   8   8   8
#     4   9  19  35  57  82 108 134 167 207 249 302
#     4   9  17  28  46  73  99 125 167 217 259 306
#     4   9  18  34  52  73 100 133 172 212 252 305
#     4   9  17  30  47  67  95 132 170 213 262 309
#     4  10  21  37  56  80 109 141 175 212 256 310
#     4  10  20  33  50  69  97 136 175 217 263 305
#     4  10  18  29  50  78 105 133 167 215 260 305
#
# _framework density 17.688780999999999
#
# number of rings (size 3 to 8) (size 9 to 14) (size 15 to 20)
#    0.000    2.571    1.429    1.714    0.000    4.571 
#    0.000    1.429    0.000    5.143    0.000    0.000 
#    0.000    0.000    0.000    0.000    0.000    0.000 
#
# Total GULP energy -694170.457947 kJ/mol
# GULP energy per Si atom -12395.901035 kJ/mol
# Density = 1.764852 g / cm^3
# Si number density = 17.688781 Si / 1000 Ang^3
#
#
#
# Elastic Constant Matrix: (Units=GPa)
#
#
# Indices 1 2 3 4 5 6 
#
# 1 115.5935 53.7365 40.4058 0.0000 0.0000 0.0000
# 2 53.7365 104.3363 41.0745 0.0000 0.0000 0.0000
# 3 40.4058 41.0745 61.2826 0.0000 0.0000 0.0000
# 4 0.0000 0.0000 0.0000 30.8224 0.0000 0.0000
# 5 0.0000 0.0000 0.0000 0.0000 27.2567 0.0000
# 6 0.0000 0.0000 0.0000 0.0000 0.0000 20.0767
#
#
#
# Elastic Compliance Matrix: (Units=1/GPa)
#
#
# Indices 1 2 3 4 5 6 
#
# 1 0.012547 -0.004354 -0.005354 0.000000 0.000000 0.000000
# 2 -0.004354 0.014531 -0.006868 0.000000 0.000000 0.000000
# 3 -0.005354 -0.006868 0.024451 0.000000 0.000000 0.000000
# 4 0.000000 0.000000 0.000000 0.032444 0.000000 0.000000
# 5 0.000000 0.000000 0.000000 0.000000 0.036688 0.000000
# 6 0.000000 0.000000 0.000000 0.000000 0.000000 0.049809
#
#
# Mechanical properties :
#
#
# Convention : Reuss Voigt Hill
#
# Bulk Modulus (GPa) = 54.41971 61.29400 57.85685
# Shear Modulus (GPa) = 23.83805 25.36420 24.60113
#
# Velocity S-wave (km/s) = 3.67500 3.79081 3.73336
# Velocity P-wave (km/s) = 6.98852 7.34077 7.16681
#
# Compressibility (1/GPa) = 0.01837570
#
# Stress axis : x y z
#
# Youngs Moduli (GPa) = 79.70243 68.81917 40.89730
#
# Poissons Ratio (x) = 0.29965 0.21897
# Poissons Ratio (y) = 0.34704 0.28090
# Poissons Ratio (z) = 0.42673 0.47268
#
# Static dielectric constant tensor:
#      x y z
#    x 3.420970 0.000000 0.000000 
#    y 0.000000 3.082960 0.000000 
#    z 0.000000 0.000000 3.301540 
# 
# 
# High freq. dielectric constant tensor:
#      x y z
#    x 1.686410 0.000000 0.000000 
#    y 0.000000 1.656560 0.000000 
#    z 0.000000 0.000000 1.686590 
# 
# From -- ./inp_files/8342.got.cif
#   From: 2010.03.12/outbox.cif.g09.slc.cpg/sg57_5_cif.got.tgz:8342.got - 2010.04.16 15:48:40.
