data_PCOD8230658
_publ_section_title
;
Structure prediction by ZEFSAII (Michael W. Deem and Ramdas Pophale) SiO2 
 PCOD8230658
Probable space group: P B C M
;
_chemical_formula_sum "Si O2"
_cell_formula_units_Z 56
_cell_length_a 16.781804
_cell_length_b 21.377679
_cell_length_c 9.268490
_cell_angle_alpha 90.000000
_cell_angle_beta 90.000000
_cell_angle_gamma 90.000000
_cell_volume 3325.126574
_symmetry_space_group_name_H-M "P B C M"
_symmetry_group_IT_number 57
_symmetry_cell_setting 'orthorhombic'
loop_
_space_group_symop_operation_xyz
x,y,z
-x,-y,1/2+z
x,1/2-y,-z
-x,1/2+y,1/2-z
-x,-y,-z
x,y,1/2-z
-x,1/2+y,z
x,1/2-y,1/2+z
loop_
_atom_site_type_symbol
_atom_site_label
_atom_site_fract_x
_atom_site_fract_y
_atom_site_fract_z
Si Si1 0.911028 0.306810 0.588740
Si Si2 0.581678 0.310228 0.077974
Si Si3 0.115072 0.463389 0.908131
Si Si4 0.445569 0.951909 0.414840
Si Si5 0.737064 0.459574 0.415659
Si Si6 0.264057 0.838858 0.587322
Si Si7 0.986850 0.411900 0.090803
O O1 0.949778 0.250000 0.500000
O O2 0.945763 0.306309 0.750000
O O3 0.815672 0.297974 0.591057
O O4 0.933743 0.370765 0.513533
O O5 0.580766 0.300769 0.250000
O O6 0.544934 0.378540 0.035323
O O7 0.538361 0.250000 0.000000
O O8 0.672439 0.308751 0.021896
O O9 0.115962 0.431014 0.750000
O O10 0.206013 0.481369 0.950825
O O11 0.058373 0.523138 0.899016
O O12 0.076684 0.417555 0.026633
O O13 0.472116 0.955930 0.250000
O O14 0.355616 0.976420 0.436270
O O15 0.500000 0.000000 0.500000
O O16 0.752046 0.436899 0.250000
O O17 0.761042 0.406612 0.528463
O O18 0.299824 0.844292 0.750000
O O19 0.994692 0.381945 0.250000
#
# Coordination Sequence:
#
# PCOD8230658 Si02
#       7
#     8   8   8   8   8   8   8
#     4  11  22  32  43  61  89 124 162 198 236 282
#     4  10  20  33  49  70  97 130 166 201 239 290
#     4   9  17  30  48  67  91 121 152 193 237 277
#     4   9  19  33  50  73 102 132 163 200 245 296
#     4   9  17  31  49  69  95 128 161 196 238 285
#     4  10  19  29  44  67  94 126 162 198 232 277
#     4  10  19  30  46  66  90 120 155 195 237 276
#
# _framework density 16.841464999999999
#
# number of rings (size 3 to 8) (size 9 to 14) (size 15 to 20)
#    0.000    2.286    1.429    3.000    0.000    6.857 
#    0.000    0.000    0.000    0.000    0.000    1.000 
#    0.000    2.286    0.000    0.000    0.000    0.000 
#
# Total GULP energy -693923.184327 kJ/mol
# GULP energy per Si atom -12391.485434 kJ/mol
# Density = 1.680313 g / cm^3
# Si number density = 16.841465 Si / 1000 Ang^3
#
#
#
# Elastic Constant Matrix: (Units=GPa)
#
#
# Indices 1 2 3 4 5 6 
#
# 1 57.3817 30.0007 27.3499 0.0000 0.0000 0.0000
# 2 30.0007 66.3239 40.2862 0.0000 0.0000 0.0000
# 3 27.3499 40.2862 110.0287 0.0000 0.0000 0.0000
# 4 0.0000 0.0000 0.0000 28.2158 0.0000 0.0000
# 5 0.0000 0.0000 0.0000 0.0000 21.9761 0.0000
# 6 0.0000 0.0000 0.0000 0.0000 0.0000 17.7515
#
#
#
# Elastic Compliance Matrix: (Units=1/GPa)
#
#
# Indices 1 2 3 4 5 6 
#
# 1 0.023344 -0.009047 -0.002490 0.000000 0.000000 0.000000
# 2 -0.009047 0.022896 -0.006134 0.000000 0.000000 0.000000
# 3 -0.002490 -0.006134 0.011954 0.000000 0.000000 0.000000
# 4 0.000000 0.000000 0.000000 0.035441 0.000000 0.000000
# 5 0.000000 0.000000 0.000000 0.000000 0.045504 0.000000
# 6 0.000000 0.000000 0.000000 0.000000 0.000000 0.056333
#
#
# Mechanical properties :
#
#
# Convention : Reuss Voigt Hill
#
# Bulk Modulus (GPa) = 43.76233 47.66753 45.71493
# Shear Modulus (GPa) = 20.97042 22.66186 21.81614
#
# Velocity S-wave (km/s) = 3.53252 3.67222 3.60305
# Velocity P-wave (km/s) = 6.53296 6.80774 6.67177
#
# Compressibility (1/GPa) = 0.02285070
#
# Stress axis : x y z
#
# Youngs Moduli (GPa) = 42.83767 43.67611 83.65681
#
# Poissons Ratio (x) = 0.39512 0.20832
# Poissons Ratio (y) = 0.38754 0.51318
# Poissons Ratio (z) = 0.10668 0.26793
#
# Static dielectric constant tensor:
#      x y z
#    x 2.963410 0.000000 0.000000 
#    y 0.000000 3.056900 0.000000 
#    z 0.000000 0.000000 3.468100 
# 
# 
# High freq. dielectric constant tensor:
#      x y z
#    x 1.611270 0.000000 0.000000 
#    y 0.000000 1.623510 0.000000 
#    z 0.000000 0.000000 1.665720 
# 
# From -- ./inp_files/7019.got.cif
#   From: 2010.03.12/outbox.cif.g09.slc.cpg/sg57_4_cif.got.tgz:7019.got - 2010.04.16 15:48:40.
