data_PCOD8230241
_publ_section_title
;
Structure prediction by ZEFSAII (Michael W. Deem and Ramdas Pophale) SiO2 
 PCOD8230241
Probable space group: P B C M
;
_chemical_formula_sum "Si O2"
_cell_formula_units_Z 56
_cell_length_a 17.964265
_cell_length_b 20.076849
_cell_length_c 9.042825
_cell_angle_alpha 90.000000
_cell_angle_beta 90.000000
_cell_angle_gamma 90.000000
_cell_volume 3261.438037
_symmetry_space_group_name_H-M "P B C M"
_symmetry_group_IT_number 57
_symmetry_cell_setting 'orthorhombic'
loop_
_space_group_symop_operation_xyz
x,y,z
-x,-y,1/2+z
x,1/2-y,-z
-x,1/2+y,1/2-z
-x,-y,-z
x,y,1/2-z
-x,1/2+y,z
x,1/2-y,1/2+z
loop_
_atom_site_type_symbol
_atom_site_label
_atom_site_fract_x
_atom_site_fract_y
_atom_site_fract_z
Si Si1 0.285866 0.387709 0.574051
Si Si2 0.835829 0.059907 0.414329
Si Si3 0.532022 0.435598 0.423089
Si Si4 0.694944 0.460236 0.422038
Si Si5 0.577856 0.681687 0.925790
Si Si6 0.996692 0.428821 0.925116
Si Si7 0.138042 0.097102 0.580784
O O1 0.286971 0.377646 0.750000
O O2 0.306727 0.462874 0.525959
O O3 0.344100 0.338901 0.497170
O O4 0.204961 0.368339 0.509529
O O5 0.811438 0.078458 0.250000
O O6 0.765344 0.080145 0.513377
O O7 0.912598 0.099137 0.455080
O O8 0.852382 0.981832 0.428863
O O9 0.500000 0.500000 0.500000
O O10 0.527309 0.449488 0.250000
O O11 0.618045 0.425409 0.472059
O O12 0.485720 0.371049 0.469492
O O13 0.706544 0.457304 0.250000
O O14 0.586821 0.689033 0.750000
O O15 0.551460 0.750000 0.000000
O O16 0.011827 0.435437 0.750000
O O17 0.000000 0.500000 0.000000
O O18 0.059841 0.382657 0.001373
O O19 0.137604 0.122311 0.750000
#
# Coordination Sequence:
#
# PCOD8230241 Si02
#       7
#     8   8   8   8   8   8   8
#     4  10  18  30  48  68  93 123 159 199 242 292
#     4   8  15  24  35  55  85 119 153 190 233 280
#     4  10  20  34  52  74  97 126 163 207 252 300
#     4   9  17  28  44  67  92 119 156 198 241 292
#     4  11  23  37  53  72  99 131 165 206 253 301
#     4   9  15  23  34  52  81 118 157 192 232 281
#     4   9  16  25  38  58  85 118 157 194 232 280
#
# _framework density 17.170341000000001
#
# number of rings (size 3 to 8) (size 9 to 14) (size 15 to 20)
#    0.000    2.571    1.429    2.571    0.000    5.714 
#    0.000    0.000    0.000    0.000    0.000    0.000 
#    0.000    1.143    0.000    6.000    0.000    7.429 
#
# Total GULP energy -694045.351947 kJ/mol
# GULP energy per Si atom -12393.666999 kJ/mol
# Density = 1.713126 g / cm^3
# Si number density = 17.170341 Si / 1000 Ang^3
#
#
#
# Elastic Constant Matrix: (Units=GPa)
#
#
# Indices 1 2 3 4 5 6 
#
# 1 161.1826 48.6292 58.4626 0.0000 0.0000 0.0000
# 2 48.6292 51.8360 34.4904 0.0000 0.0000 0.0000
# 3 58.4626 34.4904 80.1496 0.0000 0.0000 0.0000
# 4 0.0000 0.0000 0.0000 15.6627 0.0000 0.0000
# 5 0.0000 0.0000 0.0000 0.0000 34.0392 0.0000
# 6 0.0000 0.0000 0.0000 0.0000 0.0000 13.3281
#
#
#
# Elastic Compliance Matrix: (Units=1/GPa)
#
#
# Indices 1 2 3 4 5 6 
#
# 1 0.009648 -0.006121 -0.004403 0.000000 0.000000 0.000000
# 2 -0.006121 0.030915 -0.008839 0.000000 0.000000 0.000000
# 3 -0.004403 -0.008839 0.019492 0.000000 0.000000 0.000000
# 4 0.000000 0.000000 0.000000 0.063846 0.000000 0.000000
# 5 0.000000 0.000000 0.000000 0.000000 0.029378 0.000000
# 6 0.000000 0.000000 0.000000 0.000000 0.000000 0.075029
#
#
# Mechanical properties :
#
#
# Convention : Reuss Voigt Hill
#
# Bulk Modulus (GPa) = 46.88490 64.03694 55.46092
# Shear Modulus (GPa) = 18.23853 22.71174 20.47514
#
# Velocity S-wave (km/s) = 3.26269 3.64088 3.45696
# Velocity P-wave (km/s) = 6.44660 7.41962 6.95016
#
# Compressibility (1/GPa) = 0.02132883
#
# Stress axis : x y z
#
# Youngs Moduli (GPa) = 103.64728 32.34649 51.30309
#
# Poissons Ratio (x) = 0.19800 0.22590
# Poissons Ratio (y) = 0.63446 0.45345
# Poissons Ratio (z) = 0.45639 0.28590
#
# Static dielectric constant tensor:
#      x y z
#    x 4.746320 0.000000 0.000000 
#    y 0.000000 2.309020 0.000000 
#    z 0.000000 0.000000 2.804770 
# 
# 
# High freq. dielectric constant tensor:
#      x y z
#    x 1.686740 0.000000 0.000000 
#    y 0.000000 1.583900 0.000000 
#    z 0.000000 0.000000 1.673490 
# 
# From -- ./inp_files/7044.got.cif
#   From: 2010.03.12/outbox.cif.g09.slc.cpg/sg57_4_cif.got.tgz:7044.got - 2010.04.16 15:48:40.
