data_PCOD8230225
_publ_section_title
;
Structure prediction by ZEFSAII (Michael W. Deem and Ramdas Pophale) SiO2 
 PCOD8230225
Probable space group: P B C M
;
_chemical_formula_sum "Si O2"
_cell_formula_units_Z 40
_cell_length_a 22.376951
_cell_length_b 5.254410
_cell_length_c 14.783992
_cell_angle_alpha 90.000000
_cell_angle_beta 90.000000
_cell_angle_gamma 90.000000
_cell_volume 1738.267408
_symmetry_space_group_name_H-M "P B C M"
_symmetry_group_IT_number 57
_symmetry_cell_setting 'orthorhombic'
loop_
_space_group_symop_operation_xyz
x,y,z
-x,-y,1/2+z
x,1/2-y,-z
-x,1/2+y,1/2-z
-x,-y,-z
x,y,1/2-z
-x,1/2+y,z
x,1/2-y,1/2+z
loop_
_atom_site_type_symbol
_atom_site_label
_atom_site_fract_x
_atom_site_fract_y
_atom_site_fract_z
Si Si1 0.027111 0.684473 0.604356
Si Si2 0.668628 0.486477 0.902161
Si Si3 0.151476 0.997174 0.057601
Si Si4 0.463678 0.553974 0.143814
Si Si5 0.719039 0.985308 0.604519
O O1 0.012044 0.750000 0.500000
O O2 0.094664 0.583709 0.618309
O O3 0.984964 0.463076 0.648968
O O4 0.597559 0.462901 0.911900
O O5 0.686456 0.744125 0.848643
O O6 0.695579 0.243477 0.848178
O O7 0.699845 0.501915 0.999648
O O8 0.209817 0.053983 0.117716
O O9 0.134670 0.250000 0.000000
O O10 0.169099 0.750000 0.000000
O O11 0.448807 0.547282 0.250000
O O12 0.504354 0.315334 0.115589
#
# Coordination Sequence:
#
# PCOD8230225 Si02
#       5
#     8   8   8   8   8
#     4   9  16  23  31  49  73 108 153 186 204 233
#     4  10  18  32  48  65  90 112 142 178 207 258
#     4  11  16  25  39  53  82 114 151 181 207 249
#     4  10  21  37  54  70  87 111 142 175 216 262
#     4  10  18  30  43  68  90 119 148 172 214 260
#
# _framework density 23.011420999999999
#
# number of rings (size 3 to 8) (size 9 to 14) (size 15 to 20)
#    0.000    2.000    4.000    4.200    0.000    0.000 
#    0.000   12.000    0.000    0.000    0.000    0.000 
#    0.000    0.000    0.000    0.000    0.000   34.000 
#
# Total GULP energy -495549.622252 kJ/mol
# GULP energy per Si atom -12388.740556 kJ/mol
# Density = 2.295905 g / cm^3
# Si number density = 23.011421 Si / 1000 Ang^3
#
#
#
# Elastic Constant Matrix: (Units=GPa)
#
#
# Indices 1 2 3 4 5 6 
#
# 1 190.6312 68.2600 2.8607 0.0000 0.0000 0.0000
# 2 68.2600 233.2531 -2.9445 0.0000 0.0000 0.0000
# 3 2.8607 -2.9445 17.2042 0.0000 0.0000 0.0000
# 4 0.0000 0.0000 0.0000 -4.1700 0.0000 0.0000
# 5 0.0000 0.0000 0.0000 0.0000 -6.7517 0.0000
# 6 0.0000 0.0000 0.0000 0.0000 0.0000 49.8345
#
#
#
# Elastic Compliance Matrix: (Units=1/GPa)
#
#
# Indices 1 2 3 4 5 6 
#
# 1 0.005888 -0.001739 -0.001277 0.000000 0.000000 0.000000
# 2 -0.001739 0.004810 0.001112 0.000000 0.000000 0.000000
# 3 -0.001277 0.001112 0.058528 0.000000 0.000000 0.000000
# 4 0.000000 0.000000 0.000000 -0.239811 0.000000 0.000000
# 5 0.000000 0.000000 0.000000 0.000000 -0.148111 0.000000
# 6 0.000000 0.000000 0.000000 0.000000 0.000000 0.020066
#
#
# Mechanical properties :
#
#
# Convention : Reuss Voigt Hill
#
# Bulk Modulus (GPa) = 15.28603 64.16009 39.72306
# Shear Modulus (GPa) = -18.31390 32.64339 7.16475
#
# Velocity S-wave (km/s) = -2.82416 3.77048 1.76644
# Velocity P-wave (km/s) = 1.99432 6.84819 4.63252
#
# Compressibility (1/GPa) = 0.06541921
#
# Stress axis : x y z
#
# Youngs Moduli (GPa) = 169.84824 207.89312 17.08585
#
# Poissons Ratio (x) = 0.36154 0.02181
# Poissons Ratio (y) = 0.29538 -0.01901
# Poissons Ratio (z) = 0.21683 -0.23127
#
# Static dielectric constant tensor:
#      x y z
#    x 4.101770 0.000000 0.000000 
#    y 0.000000 7.276580 0.000000 
#    z 0.000000 0.000000 3.157730 
# 
# 
# High freq. dielectric constant tensor:
#      x y z
#    x 1.918860 0.000000 0.000000 
#    y 0.000000 1.955510 0.000000 
#    z 0.000000 0.000000 1.816180 
# 
# From -- ./inp_files/22977.got.cif
#   From: 2010.03.12/outbox.cif.g09.slc.cpg/sg57_12_cif.got.tgz:22977.got - 2010.04.16 15:48:40.
