data_PCOD8230474
_publ_section_title
;
Structure prediction by ZEFSAII (Michael W. Deem and Ramdas Pophale) SiO2 
 PCOD8230474
Probable space group: P B C M
;
_chemical_formula_sum "Si O2"
_cell_formula_units_Z 64
_cell_length_a 18.863635
_cell_length_b 9.963530
_cell_length_c 18.339214
_cell_angle_alpha 90.000000
_cell_angle_beta 90.000000
_cell_angle_gamma 90.000000
_cell_volume 3446.825804
_symmetry_space_group_name_H-M "P B C M"
_symmetry_group_IT_number 57
_symmetry_cell_setting 'orthorhombic'
loop_
_space_group_symop_operation_xyz
x,y,z
-x,-y,1/2+z
x,1/2-y,-z
-x,1/2+y,1/2-z
-x,-y,-z
x,y,1/2-z
-x,1/2+y,z
x,1/2-y,1/2+z
loop_
_atom_site_type_symbol
_atom_site_label
_atom_site_fract_x
_atom_site_fract_y
_atom_site_fract_z
Si Si1 0.786016 0.020250 0.835483
Si Si2 0.429460 0.323102 0.336932
Si Si3 0.697988 0.227554 0.164914
Si Si4 0.450269 0.624945 0.336927
Si Si5 0.809033 0.017398 0.163753
Si Si6 0.272841 0.239272 0.663354
Si Si7 0.928256 0.410055 0.419083
Si Si8 0.946354 0.394187 0.912688
O O1 0.806499 0.017269 0.750000
O O2 0.720214 0.119744 0.849938
O O3 0.853702 0.067379 0.880444
O O4 0.758779 0.878560 0.865723
O O5 0.428236 0.322232 0.250000
O O6 0.453839 0.470803 0.364200
O O7 0.483335 0.210290 0.367443
O O8 0.351457 0.288562 0.367987
O O9 0.693897 0.195161 0.250000
O O10 0.620983 0.195073 0.131452
O O11 0.757680 0.131153 0.130028
O O12 0.450985 0.630002 0.250000
O O13 0.807312 0.022619 0.250000
O O14 0.780840 0.874527 0.135214
O O15 0.888666 0.041762 0.139833
O O16 0.277383 0.242511 0.750000
O O17 0.918686 0.417675 0.505667
O O18 0.958475 0.263651 0.396523
O O19 0.981340 0.527602 0.394475
#
# Coordination Sequence:
#
# PCOD8230474 Si02
#       8
#     8   8   8   8   8   8   8   8
#     4  10  20  33  51  74 101 131 165 207 249 292
#     4   9  16  25  37  59  94 134 169 199 239 292
#     4   9  16  28  45  65  94 130 165 201 244 290
#     4   9  16  24  37  59  92 133 169 199 240 294
#     4  10  18  33  53  73  98 133 168 202 247 294
#     4   9  18  30  45  69 102 133 166 209 250 289
#     4  10  22  39  54  75 101 128 163 201 248 300
#     4  10  22  38  56  74 100 131 160 203 249 294
#
# _framework density 18.567807999999999
#
# number of rings (size 3 to 8) (size 9 to 14) (size 15 to 20)
#    0.000    2.500    2.500    0.000    3.500    0.500 
#    0.000    0.000    0.000    0.000    0.000    0.000 
#    0.000    6.000    0.000    0.000    0.000    0.000 
#
# Total GULP energy -793433.961586 kJ/mol
# GULP energy per Si atom -12397.405650 kJ/mol
# Density = 1.852555 g / cm^3
# Si number density = 18.567808 Si / 1000 Ang^3
#
#
#
# Elastic Constant Matrix: (Units=GPa)
#
#
# Indices 1 2 3 4 5 6 
#
# 1 92.5992 54.8314 13.4336 0.0000 0.0000 0.0000
# 2 54.8314 156.0205 15.5164 0.0000 0.0000 0.0000
# 3 13.4336 15.5164 11.3765 0.0000 0.0000 0.0000
# 4 0.0000 0.0000 0.0000 12.4878 0.0000 0.0000
# 5 0.0000 0.0000 0.0000 0.0000 1.2680 0.0000
# 6 0.0000 0.0000 0.0000 0.0000 0.0000 42.1609
#
#
#
# Elastic Compliance Matrix: (Units=1/GPa)
#
#
# Indices 1 2 3 4 5 6 
#
# 1 0.014958 -0.004050 -0.012140 0.000000 0.000000 0.000000
# 2 -0.004050 0.008512 -0.006827 0.000000 0.000000 0.000000
# 3 -0.012140 -0.006827 0.111547 0.000000 0.000000 0.000000
# 4 0.000000 0.000000 0.000000 0.080078 0.000000 0.000000
# 5 0.000000 0.000000 0.000000 0.000000 0.788659 0.000000
# 6 0.000000 0.000000 0.000000 0.000000 0.000000 0.023719
#
#
# Mechanical properties :
#
#
# Convention : Reuss Voigt Hill
#
# Bulk Modulus (GPa) = 11.23800 47.50655 29.37228
# Shear Modulus (GPa) = 4.53240 22.93098 13.73169
#
# Velocity S-wave (km/s) = 1.56407 3.51805 2.72240
# Velocity P-wave (km/s) = 3.05406 6.49178 5.07299
#
# Compressibility (1/GPa) = 0.08898379
#
# Stress axis : x y z
#
# Youngs Moduli (GPa) = 66.85251 117.48757 8.96483
#
# Poissons Ratio (x) = 0.47577 0.10883
# Poissons Ratio (y) = 0.27072 0.06120
# Poissons Ratio (z) = 0.81158 0.80209
#
# Static dielectric constant tensor:
#      x y z
#    x 3.503110 0.000000 0.000000 
#    y 0.000000 3.737650 0.000000 
#    z 0.000000 0.000000 2.793020 
# 
# 
# High freq. dielectric constant tensor:
#      x y z
#    x 1.728590 0.000000 0.000000 
#    y 0.000000 1.741380 0.000000 
#    z 0.000000 0.000000 1.649410 
# 
# From -- ./inp_files/25589.got.cif
#   From: 2010.03.12/outbox.cif.g09.slc.cpg/sg57_13_cif.got.tgz:25589.got - 2010.04.16 15:48:40.
