data_PCOD8230731
_publ_section_title
;
Structure prediction by ZEFSAII (Michael W. Deem and Ramdas Pophale) SiO2 
 PCOD8230731
Probable space group: P B C M
;
_chemical_formula_sum "Si O2"
_cell_formula_units_Z 64
_cell_length_a 17.144943
_cell_length_b 21.658477
_cell_length_c 9.268292
_cell_angle_alpha 90.000000
_cell_angle_beta 90.000000
_cell_angle_gamma 90.000000
_cell_volume 3441.625951
_symmetry_space_group_name_H-M "P B C M"
_symmetry_group_IT_number 57
_symmetry_cell_setting 'orthorhombic'
loop_
_space_group_symop_operation_xyz
x,y,z
-x,-y,1/2+z
x,1/2-y,-z
-x,1/2+y,1/2-z
-x,-y,-z
x,y,1/2-z
-x,1/2+y,z
x,1/2-y,1/2+z
loop_
_atom_site_type_symbol
_atom_site_label
_atom_site_fract_x
_atom_site_fract_y
_atom_site_fract_z
Si Si1 0.473382 0.411215 0.915362
Si Si2 0.234194 0.527180 0.088341
Si Si3 0.615588 0.686476 0.580554
Si Si4 0.615867 0.033974 0.583930
Si Si5 0.856767 0.804506 0.906194
Si Si6 0.770018 0.885139 0.092165
Si Si7 0.943598 0.449326 0.922138
Si Si8 0.037500 0.691916 0.408868
O O1 0.487034 0.391436 0.750000
O O2 0.403270 0.461113 0.923762
O O3 0.453933 0.353015 0.013450
O O4 0.554445 0.434687 0.978706
O O5 0.244992 0.555432 0.250000
O O6 0.252584 0.455508 0.092919
O O7 0.145748 0.536796 0.034677
O O8 0.298075 0.553007 0.975860
O O9 0.615862 0.750000 0.500000
O O10 0.601416 0.694500 0.750000
O O11 0.695815 0.653223 0.542923
O O12 0.609712 0.056959 0.750000
O O13 0.816394 0.803741 0.750000
O O14 0.947481 0.793171 0.890635
O O15 0.817793 0.750000 0.000000
O O16 0.839990 0.870303 0.981342
O O17 0.799300 0.864453 0.250000
O O18 0.958015 0.455220 0.750000
O O19 0.955779 0.377805 0.974959
O O20 0.000000 0.500000 0.000000
O O21 0.074261 0.750000 0.500000
O O22 0.077564 0.692673 0.250000
#
# Coordination Sequence:
#
# PCOD8230731 Si02
#       8
#     8   8   8   8   8   8   8   8
#     4  10  20  35  56  80 107 139 177 220 270 321
#     4  10  20  35  54  78 109 143 179 226 280 333
#     4  11  22  35  51  74 108 146 184 221 263 323
#     4  10  20  34  56  83 108 137 175 224 273 323
#     4  10  19  30  46  66  94 131 175 221 264 316
#     4  10  20  32  47  70 102 139 177 216 263 320
#     4  10  21  36  56  83 116 150 189 238 294 348
#     4   9  19  35  53  76 103 139 185 232 282 340
#
# _framework density 18.595860999999999
#
# number of rings (size 3 to 8) (size 9 to 14) (size 15 to 20)
#    0.000    2.000    1.250    2.625    0.000    5.000 
#    0.000    0.000    0.000    0.750    0.000    3.500 
#    0.000    0.000    0.000    0.000    0.000    0.000 
#
# Total GULP energy -793063.922569 kJ/mol
# GULP energy per Si atom -12391.623790 kJ/mol
# Density = 1.855354 g / cm^3
# Si number density = 18.595861 Si / 1000 Ang^3
#
#
#
# Elastic Constant Matrix: (Units=GPa)
#
#
# Indices 1 2 3 4 5 6 
#
# 1 75.7705 21.9027 43.2837 0.0000 0.0000 0.0000
# 2 21.9027 100.6825 38.0431 0.0000 0.0000 0.0000
# 3 43.2837 38.0431 104.9545 0.0000 0.0000 0.0000
# 4 0.0000 0.0000 0.0000 30.6150 0.0000 0.0000
# 5 0.0000 0.0000 0.0000 0.0000 27.1110 0.0000
# 6 0.0000 0.0000 0.0000 0.0000 0.0000 25.1092
#
#
#
# Elastic Compliance Matrix: (Units=1/GPa)
#
#
# Indices 1 2 3 4 5 6 
#
# 1 0.017399 -0.001244 -0.006724 0.000000 0.000000 0.000000
# 2 -0.001244 0.011597 -0.003691 0.000000 0.000000 0.000000
# 3 -0.006724 -0.003691 0.013639 0.000000 0.000000 0.000000
# 4 0.000000 0.000000 0.000000 0.032664 0.000000 0.000000
# 5 0.000000 0.000000 0.000000 0.000000 0.036885 0.000000
# 6 0.000000 0.000000 0.000000 0.000000 0.000000 0.039826
#
#
# Mechanical properties :
#
#
# Convention : Reuss Voigt Hill
#
# Bulk Modulus (GPa) = 51.76879 54.20740 52.98810
# Shear Modulus (GPa) = 27.50772 28.44556 27.97664
#
# Velocity S-wave (km/s) = 3.85026 3.91534 3.88294
# Velocity P-wave (km/s) = 6.90401 7.04652 6.97563
#
# Compressibility (1/GPa) = 0.01931666
#
# Stress axis : x y z
#
# Youngs Moduli (GPa) = 57.47580 86.22635 73.32005
#
# Poissons Ratio (x) = 0.10728 0.49303
# Poissons Ratio (y) = 0.07151 0.27060
# Poissons Ratio (z) = 0.38649 0.31823
#
# Static dielectric constant tensor:
#      x y z
#    x 3.195790 0.000000 0.000000 
#    y 0.000000 3.279570 0.000000 
#    z 0.000000 0.000000 3.774590 
# 
# 
# High freq. dielectric constant tensor:
#      x y z
#    x 1.700710 0.000000 0.000000 
#    y 0.000000 1.706380 0.000000 
#    z 0.000000 0.000000 1.731810 
# 
# From -- ./inp_files/7157.got.cif
#   From: 2010.03.12/outbox.cif.g09.slc.cpg/sg57_4_cif.got.tgz:7157.got - 2010.04.16 15:48:40.
