data_PCOD8230759
_publ_section_title
;
Structure prediction by ZEFSAII (Michael W. Deem and Ramdas Pophale) SiO2 
 PCOD8230759
Probable space group: P B C M
;
_chemical_formula_sum "Si O2"
_cell_formula_units_Z 48
_cell_length_a 9.987107
_cell_length_b 30.373416
_cell_length_c 9.200679
_cell_angle_alpha 90.000000
_cell_angle_beta 90.000000
_cell_angle_gamma 90.000000
_cell_volume 2790.957481
_symmetry_space_group_name_H-M "P B C M"
_symmetry_group_IT_number 57
_symmetry_cell_setting 'orthorhombic'
loop_
_space_group_symop_operation_xyz
x,y,z
-x,-y,1/2+z
x,1/2-y,-z
-x,1/2+y,1/2-z
-x,-y,-z
x,y,1/2-z
-x,1/2+y,z
x,1/2-y,1/2+z
loop_
_atom_site_type_symbol
_atom_site_label
_atom_site_fract_x
_atom_site_fract_y
_atom_site_fract_z
Si Si1 0.346826 0.209941 0.591018
Si Si2 0.645979 0.379794 0.921837
Si Si3 0.138076 0.048847 0.580102
Si Si4 0.371261 0.113629 0.922911
Si Si5 0.664283 0.291677 0.086180
Si Si6 0.125396 0.551319 0.418389
O O1 0.283215 0.250000 0.500000
O O2 0.284047 0.215188 0.750000
O O3 0.311728 0.161402 0.529305
O O4 0.505988 0.214025 0.596093
O O5 0.628521 0.371756 0.750000
O O6 0.751014 0.417875 0.958144
O O7 0.506882 0.395992 0.990413
O O8 0.700396 0.335491 0.996790
O O9 0.115417 0.054566 0.750000
O O10 0.266154 0.076696 0.529113
O O11 0.005713 0.067548 0.503394
O O12 0.164471 0.998319 0.535271
O O13 0.401948 0.113684 0.750000
O O14 0.724121 0.294148 0.250000
O O15 0.726569 0.250000 0.000000
O O16 0.089349 0.553637 0.250000
#
# Coordination Sequence:
#
# PCOD8230759 Si02
#       6
#     8   8   8   8   8   8
#     4   8  14  24  39  61  89 118 147 182 223 269
#     4  10  19  30  46  71 101 128 156 195 240 283
#     4   9  18  34  53  69  90 124 162 200 243 290
#     4   9  18  31  47  70  97 123 157 199 240 284
#     4   9  16  27  44  67  95 126 159 194 233 278
#     4   9  19  34  50  70  95 123 159 200 241 289
#
# _framework density 17.198398000000001
#
# number of rings (size 3 to 8) (size 9 to 14) (size 15 to 20)
#    0.000    3.000    0.000    2.000    0.000    6.667 
#    0.000    0.000    0.000    1.000    0.000    4.667 
#    0.000    0.000    0.000    0.000    0.000    0.000 
#
# Total GULP energy -595038.904271 kJ/mol
# GULP energy per Si atom -12396.643839 kJ/mol
# Density = 1.715925 g / cm^3
# Si number density = 17.198398 Si / 1000 Ang^3
#
#
#
# Elastic Constant Matrix: (Units=GPa)
#
#
# Indices 1 2 3 4 5 6 
#
# 1 81.8045 70.2480 51.2477 0.0000 0.0000 0.0000
# 2 70.2480 124.2511 60.0357 0.0000 0.0000 0.0000
# 3 51.2477 60.0357 82.4659 0.0000 0.0000 0.0000
# 4 0.0000 0.0000 0.0000 28.4167 0.0000 0.0000
# 5 0.0000 0.0000 0.0000 0.0000 22.6812 0.0000
# 6 0.0000 0.0000 0.0000 0.0000 0.0000 2.6335
#
#
#
# Elastic Compliance Matrix: (Units=1/GPa)
#
#
# Indices 1 2 3 4 5 6 
#
# 1 0.027408 -0.011209 -0.008872 0.000000 0.000000 0.000000
# 2 -0.011209 0.016999 -0.005410 0.000000 0.000000 0.000000
# 3 -0.008872 -0.005410 0.021578 0.000000 0.000000 0.000000
# 4 0.000000 0.000000 0.000000 0.035191 0.000000 0.000000
# 5 0.000000 0.000000 0.000000 0.000000 0.044089 0.000000
# 6 0.000000 0.000000 0.000000 0.000000 0.000000 0.379727
#
#
# Mechanical properties :
#
#
# Convention : Reuss Voigt Hill
#
# Bulk Modulus (GPa) = 66.65178 72.39824 69.52501
# Shear Modulus (GPa) = 8.60622 17.87893 13.24257
#
# Velocity S-wave (km/s) = 2.23941 3.22773 2.77788
# Velocity P-wave (km/s) = 6.74725 7.48855 7.12754
#
# Compressibility (1/GPa) = 0.01500335
#
# Stress axis : x y z
#
# Youngs Moduli (GPa) = 36.48636 58.82607 46.34253
#
# Poissons Ratio (x) = 0.65935 0.41116
# Poissons Ratio (y) = 0.40896 0.25072
# Poissons Ratio (z) = 0.32372 0.31826
#
# Static dielectric constant tensor:
#      x y z
#    x 2.834390 0.000000 0.000000 
#    y 0.000000 3.463650 0.000000 
#    z 0.000000 0.000000 3.336540 
# 
# 
# High freq. dielectric constant tensor:
#      x y z
#    x 1.618790 0.000000 0.000000 
#    y 0.000000 1.675460 0.000000 
#    z 0.000000 0.000000 1.668410 
# 
# From -- ./inp_files/3319.got.cif
#   From: 2010.03.12/outbox.cif.g09.slc.cpg/sg57_2_cif.got.tgz:3319.got - 2010.04.16 15:48:40.
