data_PCOD8230098
_publ_section_title
;
Structure prediction by ZEFSAII (Michael W. Deem and Ramdas Pophale) SiO2 
 PCOD8230098
Probable space group: P B C M
;
_chemical_formula_sum "Si O2"
_cell_formula_units_Z 64
_cell_length_a 25.925744
_cell_length_b 18.467743
_cell_length_c 8.987464
_cell_angle_alpha 90.000000
_cell_angle_beta 90.000000
_cell_angle_gamma 90.000000
_cell_volume 4303.107684
_symmetry_space_group_name_H-M "P B C M"
_symmetry_group_IT_number 57
_symmetry_cell_setting 'orthorhombic'
loop_
_space_group_symop_operation_xyz
x,y,z
-x,-y,1/2+z
x,1/2-y,-z
-x,1/2+y,1/2-z
-x,-y,-z
x,y,1/2-z
-x,1/2+y,z
x,1/2-y,1/2+z
loop_
_atom_site_type_symbol
_atom_site_label
_atom_site_fract_x
_atom_site_fract_y
_atom_site_fract_z
Si Si1 0.988801 0.674436 0.074614
Si Si2 0.312006 0.176281 0.422967
Si Si3 0.394288 0.411923 0.419379
Si Si4 0.106700 0.092241 0.574405
Si Si5 0.806482 0.675192 0.074953
Si Si6 0.045364 0.538791 0.080272
Si Si7 0.499009 0.327491 0.424808
Si Si8 0.456297 0.953931 0.922837
O O1 0.977876 0.683884 0.250000
O O2 0.040387 0.624633 0.044887
O O3 0.002326 0.750000 0.000000
O O4 0.938355 0.640328 0.998476
O O5 0.330790 0.250000 0.500000
O O6 0.320082 0.187731 0.250000
O O7 0.346666 0.109592 0.476943
O O8 0.252932 0.158677 0.462873
O O9 0.379058 0.395094 0.250000
O O10 0.444699 0.365392 0.462730
O O11 0.404140 0.498328 0.440831
O O12 0.109164 0.109047 0.750000
O O13 0.160722 0.110653 0.497047
O O14 0.097929 0.005440 0.542191
O O15 0.816657 0.680230 0.250000
O O16 0.824366 0.750000 0.000000
O O17 0.032579 0.525913 0.250000
O O18 0.000000 0.500000 0.000000
O O19 0.500302 0.250000 0.500000
O O20 0.508444 0.320265 0.250000
O O21 0.545506 0.376005 0.495358
O O22 0.469701 0.942713 0.750000
O O23 0.500000 0.000000 0.000000
#
# Coordination Sequence:
#
# PCOD8230098 Si02
#       8
#     8   8   8   8   8   8   8   8
#     4  10  18  28  41  59  83 109 135 166 198 235
#     4  10  20  31  44  60  81 108 139 173 207 241
#     4   9  18  30  44  61  82 109 141 172 206 244
#     4  10  18  29  44  60  78 106 139 169 202 240
#     4  10  20  32  43  59  81 107 138 172 206 240
#     4   8  16  28  41  57  78 103 133 165 198 235
#     4  10  19  29  42  62  86 113 142 173 206 244
#     4   9  17  29  43  60  82 109 139 172 206 245
#
# _framework density 14.872971
#
# number of rings (size 3 to 8) (size 9 to 14) (size 15 to 20)
#    0.000    2.500    0.000    3.750    0.000    6.500 
#    0.000    0.000    0.000    0.000    0.000    0.000 
#    0.000    1.000    0.000    4.500    0.000    4.500 
#
# Total GULP energy -793038.226065 kJ/mol
# GULP energy per Si atom -12391.222282 kJ/mol
# Density = 1.483912 g / cm^3
# Si number density = 14.872971 Si / 1000 Ang^3
#
#
#
# Elastic Constant Matrix: (Units=GPa)
#
#
# Indices 1 2 3 4 5 6 
#
# 1 60.4016 44.7717 39.1695 0.0000 0.0000 0.0000
# 2 44.7717 102.7140 50.9152 0.0000 0.0000 0.0000
# 3 39.1695 50.9152 86.5691 0.0000 0.0000 0.0000
# 4 0.0000 0.0000 0.0000 25.9809 0.0000 0.0000
# 5 0.0000 0.0000 0.0000 0.0000 22.2702 0.0000
# 6 0.0000 0.0000 0.0000 0.0000 0.0000 23.1785
#
#
#
# Elastic Compliance Matrix: (Units=1/GPa)
#
#
# Indices 1 2 3 4 5 6 
#
# 1 0.027634 -0.008254 -0.007649 0.000000 0.000000 0.000000
# 2 -0.008254 0.016207 -0.005798 0.000000 0.000000 0.000000
# 3 -0.007649 -0.005798 0.018422 0.000000 0.000000 0.000000
# 4 0.000000 0.000000 0.000000 0.038490 0.000000 0.000000
# 5 0.000000 0.000000 0.000000 0.000000 0.044903 0.000000
# 6 0.000000 0.000000 0.000000 0.000000 0.000000 0.043144
#
#
# Mechanical properties :
#
#
# Convention : Reuss Voigt Hill
#
# Bulk Modulus (GPa) = 53.01474 57.71086 55.36280
# Shear Modulus (GPa) = 20.96532 21.94112 21.45322
#
# Velocity S-wave (km/s) = 3.75857 3.84505 3.80205
# Velocity P-wave (km/s) = 7.38635 7.65501 7.52188
#
# Compressibility (1/GPa) = 0.01886268
#
# Stress axis : x y z
#
# Youngs Moduli (GPa) = 36.18718 61.70016 54.28180
#
# Poissons Ratio (x) = 0.50925 0.41521
# Poissons Ratio (y) = 0.29868 0.31472
# Poissons Ratio (z) = 0.27680 0.35773
#
# Static dielectric constant tensor:
#      x y z
#    x 2.772370 0.000000 0.000000 
#    y 0.000000 3.418390 0.000000 
#    z 0.000000 0.000000 3.098210 
# 
# 
# High freq. dielectric constant tensor:
#      x y z
#    x 1.529650 0.000000 0.000000 
#    y 0.000000 1.563400 0.000000 
#    z 0.000000 0.000000 1.590270 
# 
# From -- ./inp_files/9809.got.cif
#   From: 2010.03.12/outbox.cif.g09.slc.cpg/sg57_5_cif.got.tgz:9809.got - 2010.04.16 15:48:40.
