data_PCOD8230443
_publ_section_title
;
Structure prediction by ZEFSAII (Michael W. Deem and Ramdas Pophale) SiO2 
 PCOD8230443
Probable space group: P B C M
;
_chemical_formula_sum "Si O2"
_cell_formula_units_Z 36
_cell_length_a 9.044288
_cell_length_b 22.587092
_cell_length_c 9.462412
_cell_angle_alpha 90.000000
_cell_angle_beta 90.000000
_cell_angle_gamma 90.000000
_cell_volume 1933.020936
_symmetry_space_group_name_H-M "P B C M"
_symmetry_group_IT_number 57
_symmetry_cell_setting 'orthorhombic'
loop_
_space_group_symop_operation_xyz
x,y,z
-x,-y,1/2+z
x,1/2-y,-z
-x,1/2+y,1/2-z
-x,-y,-z
x,y,1/2-z
-x,1/2+y,z
x,1/2-y,1/2+z
loop_
_atom_site_type_symbol
_atom_site_label
_atom_site_fract_x
_atom_site_fract_y
_atom_site_fract_z
Si Si1 0.498881 0.559940 0.913453
Si Si2 0.668384 0.347970 0.907392
Si Si3 0.544497 0.750000 0.500000
Si Si4 0.997250 0.309021 0.915408
Si Si5 0.246398 0.351210 0.094273
O O1 0.458605 0.548153 0.750000
O O2 0.658697 0.589722 0.929571
O O3 0.500000 0.500000 0.000000
O O4 0.376498 0.603443 0.978429
O O5 0.665348 0.375644 0.750000
O O6 0.833560 0.330231 0.950048
O O7 0.562209 0.290537 0.903732
O O8 0.648432 0.706729 0.590491
O O9 0.023166 0.298840 0.750000
O O10 0.032171 0.250000 0.000000
O O11 0.119503 0.354654 0.974891
O O12 0.173582 0.352161 0.250000
#
# Coordination Sequence:
#
# PCOD8230443 Si02
#       5
#     8   8   4   8   8
#     4  10  22  40  62  85 110 145 190 239 285 332
#     4  10  21  36  56  83 115 150 189 232 280 333
#     4  10  18  32  54  84 112 148 184 230 276 334
#     4  11  22  35  54  82 118 155 186 225 278 336
#     4  10  21  35  55  83 114 147 186 229 278 333
#
# _framework density 18.623698999999998
#
# number of rings (size 3 to 8) (size 9 to 14) (size 15 to 20)
#    0.000    1.778    2.222    2.000    0.000    7.111 
#    0.000    1.111    0.000    0.000    0.000    0.000 
#    0.000    0.000    0.000    0.000    0.000    0.000 
#
# Total GULP energy -446353.989899 kJ/mol
# GULP energy per Si atom -12398.721942 kJ/mol
# Density = 1.858131 g / cm^3
# Si number density = 18.623699 Si / 1000 Ang^3
#
#
#
# Elastic Constant Matrix: (Units=GPa)
#
#
# Indices 1 2 3 4 5 6 
#
# 1 108.9614 23.2048 51.0347 0.0000 0.0000 0.0000
# 2 23.2048 84.3561 42.4202 0.0000 0.0000 0.0000
# 3 51.0347 42.4202 125.9070 0.0000 0.0000 0.0000
# 4 0.0000 0.0000 0.0000 30.1325 0.0000 0.0000
# 5 0.0000 0.0000 0.0000 0.0000 31.8841 0.0000
# 6 0.0000 0.0000 0.0000 0.0000 0.0000 14.9479
#
#
#
# Elastic Compliance Matrix: (Units=1/GPa)
#
#
# Indices 1 2 3 4 5 6 
#
# 1 0.011395 -0.000977 -0.004289 0.000000 0.000000 0.000000
# 2 -0.000977 0.014357 -0.004441 0.000000 0.000000 0.000000
# 3 -0.004289 -0.004441 0.011177 0.000000 0.000000 0.000000
# 4 0.000000 0.000000 0.000000 0.033187 0.000000 0.000000
# 5 0.000000 0.000000 0.000000 0.000000 0.031364 0.000000
# 6 0.000000 0.000000 0.000000 0.000000 0.000000 0.066899
#
#
# Mechanical properties :
#
#
# Convention : Reuss Voigt Hill
#
# Bulk Modulus (GPa) = 57.09970 61.39379 59.24674
# Shear Modulus (GPa) = 25.82232 28.89721 27.35976
#
# Velocity S-wave (km/s) = 3.72765 3.94336 3.83702
# Velocity P-wave (km/s) = 7.01808 7.33283 7.17718
#
# Compressibility (1/GPa) = 0.01751323
#
# Stress axis : x y z
#
# Youngs Moduli (GPa) = 87.75958 69.65483 89.46805
#
# Poissons Ratio (x) = 0.06809 0.38376
# Poissons Ratio (y) = 0.08578 0.39730
# Poissons Ratio (z) = 0.37643 0.30932
#
# Static dielectric constant tensor:
#      x y z
#    x 3.507830 0.000000 0.000000 
#    y 0.000000 3.293380 0.000000 
#    z 0.000000 0.000000 3.509200 
# 
# 
# High freq. dielectric constant tensor:
#      x y z
#    x 1.726840 0.000000 0.000000 
#    y 0.000000 1.702310 0.000000 
#    z 0.000000 0.000000 1.734590 
# 
# From -- ./inp_files/1346.got.cif
#   From: 2010.03.12/outbox.cif.g09.slc.cpg/sg57_1_cif.got.tgz:1346.got - 2010.04.16 15:48:40.
