data_PCOD8230892
_publ_section_title
;
Structure prediction by ZEFSAII (Michael W. Deem and Ramdas Pophale) SiO2 
 PCOD8230892
Probable space group: P B C M
;
_chemical_formula_sum "Si O2"
_cell_formula_units_Z 64
_cell_length_a 22.633295
_cell_length_b 16.183519
_cell_length_c 9.420427
_cell_angle_alpha 90.000000
_cell_angle_beta 90.000000
_cell_angle_gamma 90.000000
_cell_volume 3450.573912
_symmetry_space_group_name_H-M "P B C M"
_symmetry_group_IT_number 57
_symmetry_cell_setting 'orthorhombic'
loop_
_space_group_symop_operation_xyz
x,y,z
-x,-y,1/2+z
x,1/2-y,-z
-x,1/2+y,1/2-z
-x,-y,-z
x,y,1/2-z
-x,1/2+y,z
x,1/2-y,1/2+z
loop_
_atom_site_type_symbol
_atom_site_label
_atom_site_fract_x
_atom_site_fract_y
_atom_site_fract_z
Si Si1 0.935066 0.332299 0.415967
Si Si2 0.581620 0.608453 0.413494
Si Si3 0.373562 0.532220 0.404591
Si Si4 0.708918 0.671850 0.415046
Si Si5 0.539695 0.177666 0.092693
Si Si6 0.925154 0.669532 0.587833
Si Si7 0.117697 0.512774 0.415365
Si Si8 0.751172 0.521721 0.910837
O O1 0.912171 0.250000 0.500000
O O2 0.915077 0.328046 0.250000
O O3 0.912138 0.416734 0.488623
O O4 0.005021 0.336573 0.427330
O O5 0.570991 0.590343 0.250000
O O6 0.592145 0.520230 0.480821
O O7 0.638360 0.665920 0.441500
O O8 0.521175 0.644831 0.478910
O O9 0.380979 0.489410 0.250000
O O10 0.404202 0.619389 0.404967
O O11 0.303459 0.541384 0.436563
O O12 0.733032 0.750000 0.500000
O O13 0.723884 0.680492 0.250000
O O14 0.744295 0.594752 0.476554
O O15 0.523727 0.208355 0.250000
O O16 0.565165 0.250000 0.000000
O O17 0.901657 0.750000 0.500000
O O18 0.905542 0.684245 0.750000
O O19 0.899127 0.580932 0.534300
O O20 0.099176 0.524901 0.250000
O O21 0.187737 0.525576 0.437537
O O22 0.750304 0.557680 0.750000
#
# Coordination Sequence:
#
# PCOD8230892 Si02
#       8
#     8   8   8   8   8   8   8   8
#     4  10  20  35  56  81 108 138 174 216 262 311
#     4   9  18  31  48  71  95 120 154 196 242 295
#     4   9  18  33  51  69  92 125 161 196 238 287
#     4  10  19  31  48  70  98 130 164 203 248 299
#     4  10  20  32  47  70  96 120 152 195 243 294
#     4   9  19  34  53  80 112 143 173 209 256 309
#     4  10  20  35  55  79 108 141 177 218 261 304
#     4   9  19  35  52  70  97 133 170 207 247 293
#
# _framework density 18.547637999999999
#
# number of rings (size 3 to 8) (size 9 to 14) (size 15 to 20)
#    0.000    2.500    0.000    1.875    0.000    3.500 
#    0.000    1.875    0.000    1.500    0.000    0.000 
#    0.000    0.000    0.000    0.000    0.000    0.000 
#
# Total GULP energy -793159.693098 kJ/mol
# GULP energy per Si atom -12393.120205 kJ/mol
# Density = 1.850542 g / cm^3
# Si number density = 18.547638 Si / 1000 Ang^3
#
#
#
# Elastic Constant Matrix: (Units=GPa)
#
#
# Indices 1 2 3 4 5 6 
#
# 1 53.0270 28.1206 26.8559 0.0000 0.0000 0.0000
# 2 28.1206 102.1240 58.4062 0.0000 0.0000 0.0000
# 3 26.8559 58.4062 87.7965 0.0000 0.0000 0.0000
# 4 0.0000 0.0000 0.0000 34.9885 0.0000 0.0000
# 5 0.0000 0.0000 0.0000 0.0000 18.2600 0.0000
# 6 0.0000 0.0000 0.0000 0.0000 0.0000 9.0155
#
#
#
# Elastic Compliance Matrix: (Units=1/GPa)
#
#
# Indices 1 2 3 4 5 6 
#
# 1 0.023175 -0.003756 -0.004590 0.000000 0.000000 0.000000
# 2 -0.003756 0.016414 -0.009770 0.000000 0.000000 0.000000
# 3 -0.004590 -0.009770 0.019294 0.000000 0.000000 0.000000
# 4 0.000000 0.000000 0.000000 0.028581 0.000000 0.000000
# 5 0.000000 0.000000 0.000000 0.000000 0.054764 0.000000
# 6 0.000000 0.000000 0.000000 0.000000 0.000000 0.110921
#
#
# Mechanical properties :
#
#
# Convention : Reuss Voigt Hill
#
# Bulk Modulus (GPa) = 44.15147 52.19031 48.17089
# Shear Modulus (GPa) = 16.83886 21.09045 18.96465
#
# Velocity S-wave (km/s) = 3.01636 3.37574 3.20110
# Velocity P-wave (km/s) = 5.99894 6.58740 6.30004
#
# Compressibility (1/GPa) = 0.02264930
#
# Stress axis : x y z
#
# Youngs Moduli (GPa) = 43.14994 60.92276 51.83008
#
# Poissons Ratio (x) = 0.22884 0.23791
# Poissons Ratio (y) = 0.16208 0.50641
# Poissons Ratio (z) = 0.19806 0.59525
#
# Static dielectric constant tensor:
#      x y z
#    x 3.416320 0.000000 0.000000 
#    y 0.000000 3.259900 0.000000 
#    z 0.000000 0.000000 3.583140 
# 
# 
# High freq. dielectric constant tensor:
#      x y z
#    x 1.717860 0.000000 0.000000 
#    y 0.000000 1.703660 0.000000 
#    z 0.000000 0.000000 1.722780 
# 
# From -- ./inp_files/9411.got.cif
#   From: 2010.03.12/outbox.cif.g09.slc.cpg/sg57_5_cif.got.tgz:9411.got - 2010.04.16 15:48:40.
