data_PCOD8230506
_publ_section_title
;
Structure prediction by ZEFSAII (Michael W. Deem and Ramdas Pophale) SiO2 
 PCOD8230506
Probable space group: P B C M
;
_chemical_formula_sum "Si O2"
_cell_formula_units_Z 64
_cell_length_a 15.287525
_cell_length_b 23.761343
_cell_length_c 8.916015
_cell_angle_alpha 90.000000
_cell_angle_beta 90.000000
_cell_angle_gamma 90.000000
_cell_volume 3238.761397
_symmetry_space_group_name_H-M "P B C M"
_symmetry_group_IT_number 57
_symmetry_cell_setting 'orthorhombic'
loop_
_space_group_symop_operation_xyz
x,y,z
-x,-y,1/2+z
x,1/2-y,-z
-x,1/2+y,1/2-z
-x,-y,-z
x,y,1/2-z
-x,1/2+y,z
x,1/2-y,1/2+z
loop_
_atom_site_type_symbol
_atom_site_label
_atom_site_fract_x
_atom_site_fract_y
_atom_site_fract_z
Si Si1 0.593004 0.877502 0.421923
Si Si2 0.849509 0.001255 0.424267
Si Si3 0.101345 0.388317 0.573733
Si Si4 0.257981 0.310240 0.927648
Si Si5 0.395332 0.886788 0.422371
Si Si6 0.908158 0.121202 0.426716
Si Si7 0.355003 0.998741 0.576408
Si Si8 0.254315 0.809599 0.927432
O O1 0.624381 0.870867 0.250000
O O2 0.649501 0.836285 0.524901
O O3 0.491878 0.860378 0.440386
O O4 0.605200 0.941763 0.474007
O O5 0.871080 0.995086 0.250000
O O6 0.896522 0.950356 0.507068
O O7 0.886735 0.059432 0.492575
O O8 0.747269 0.999485 0.456484
O O9 0.111120 0.394502 0.750000
O O10 0.178955 0.349269 0.510558
O O11 0.007142 0.360945 0.530819
O O12 0.255223 0.304120 0.750000
O O13 0.244819 0.250000 0.000000
O O14 0.364592 0.883399 0.250000
O O15 0.399200 0.951552 0.473476
O O16 0.329629 0.852965 0.527547
O O17 0.894198 0.117215 0.250000
O O18 0.839179 0.167215 0.488270
O O19 0.374918 0.985407 0.750000
O O20 0.255193 0.802794 0.750000
O O21 0.274237 0.750000 0.000000
#
# Coordination Sequence:
#
# PCOD8230506 Si02
#       8
#     8   8   8   8   8   8   8   8
#     4  10  22  40  61  86 119 154 191 236 288 346
#     4  10  18  33  59  87 117 156 189 226 287 347
#     4  10  21  37  58  87 118 150 190 238 285 337
#     4  11  24  40  60  84 112 151 195 243 291 338
#     4  11  23  38  60  90 119 152 193 238 286 342
#     4   9  19  37  59  84 118 154 188 230 286 344
#     4  10  19  35  60  88 120 157 189 230 290 346
#     4  11  23  42  63  84 114 154 196 243 292 344
#
# _framework density 19.760642000000001
#
# number of rings (size 3 to 8) (size 9 to 14) (size 15 to 20)
#    0.000    1.750    2.500    1.875    0.000    3.500 
#    0.000    1.250    0.000    0.000    0.000    0.000 
#    0.000    0.000    0.000    0.000    0.000    0.000 
#
# Total GULP energy -793777.340090 kJ/mol
# GULP energy per Si atom -12402.770939 kJ/mol
# Density = 1.971567 g / cm^3
# Si number density = 19.760642 Si / 1000 Ang^3
#
#
#
# Elastic Constant Matrix: (Units=GPa)
#
#
# Indices 1 2 3 4 5 6 
#
# 1 92.3837 25.3150 28.3294 0.0000 0.0000 0.0000
# 2 25.3150 90.7590 26.4889 0.0000 0.0000 0.0000
# 3 28.3294 26.4889 53.8686 0.0000 0.0000 0.0000
# 4 0.0000 0.0000 0.0000 34.8555 0.0000 0.0000
# 5 0.0000 0.0000 0.0000 0.0000 22.8294 0.0000
# 6 0.0000 0.0000 0.0000 0.0000 0.0000 18.5023
#
#
#
# Elastic Compliance Matrix: (Units=1/GPa)
#
#
# Indices 1 2 3 4 5 6 
#
# 1 0.013189 -0.001932 -0.005986 0.000000 0.000000 0.000000
# 2 -0.001932 0.013147 -0.005449 0.000000 0.000000 0.000000
# 3 -0.005986 -0.005449 0.024391 0.000000 0.000000 0.000000
# 4 0.000000 0.000000 0.000000 0.028690 0.000000 0.000000
# 5 0.000000 0.000000 0.000000 0.000000 0.043803 0.000000
# 6 0.000000 0.000000 0.000000 0.000000 0.000000 0.054047
#
#
# Mechanical properties :
#
#
# Convention : Reuss Voigt Hill
#
# Bulk Modulus (GPa) = 41.67739 44.14196 42.90968
# Shear Modulus (GPa) = 23.58477 25.69596 24.64036
#
# Velocity S-wave (km/s) = 3.45849 3.60996 3.53504
# Velocity P-wave (km/s) = 6.08975 6.30576 6.19870
#
# Compressibility (1/GPa) = 0.02399382
#
# Stress axis : x y z
#
# Youngs Moduli (GPa) = 75.81800 76.06086 40.99794
#
# Poissons Ratio (x) = 0.14692 0.24543
# Poissons Ratio (y) = 0.14646 0.22340
# Poissons Ratio (z) = 0.45388 0.41446
#
# Static dielectric constant tensor:
#      x y z
#    x 3.792200 0.000000 0.000000 
#    y 0.000000 3.590670 0.000000 
#    z 0.000000 0.000000 3.404300 
# 
# 
# High freq. dielectric constant tensor:
#      x y z
#    x 1.784540 0.000000 0.000000 
#    y 0.000000 1.767790 0.000000 
#    z 0.000000 0.000000 1.754550 
# 
# From -- ./inp_files/5572.got.cif
#   From: 2010.03.12/outbox.cif.g09.slc.cpg/sg57_3_cif.got.tgz:5572.got - 2010.04.16 15:48:40.
