data_PCOD8230878
_publ_section_title
;
Structure prediction by ZEFSAII (Michael W. Deem and Ramdas Pophale) SiO2 
 PCOD8230878
Probable space group: P B C M
;
_chemical_formula_sum "Si O2"
_cell_formula_units_Z 64
_cell_length_a 20.149904
_cell_length_b 19.490398
_cell_length_c 9.415249
_cell_angle_alpha 90.000000
_cell_angle_beta 90.000000
_cell_angle_gamma 90.000000
_cell_volume 3697.647431
_symmetry_space_group_name_H-M "P B C M"
_symmetry_group_IT_number 57
_symmetry_cell_setting 'orthorhombic'
loop_
_space_group_symop_operation_xyz
x,y,z
-x,-y,1/2+z
x,1/2-y,-z
-x,1/2+y,1/2-z
-x,-y,-z
x,y,1/2-z
-x,1/2+y,z
x,1/2-y,1/2+z
loop_
_atom_site_type_symbol
_atom_site_label
_atom_site_fract_x
_atom_site_fract_y
_atom_site_fract_z
Si Si1 0.845765 0.815947 0.087849
Si Si2 0.524831 0.183336 0.409818
Si Si3 0.668903 0.320950 0.916125
Si Si4 0.380348 0.322160 0.917424
Si Si5 0.235461 0.560298 0.418681
Si Si6 0.086667 0.945879 0.915419
Si Si7 0.032574 0.095635 0.585379
Si Si8 0.277929 0.088239 0.914449
O O1 0.848674 0.792655 0.250000
O O2 0.917413 0.844064 0.038528
O O3 0.792447 0.875368 0.065784
O O4 0.824145 0.750000 0.000000
O O5 0.525210 0.250000 0.500000
O O6 0.524787 0.209850 0.250000
O O7 0.594971 0.144839 0.439958
O O8 0.454775 0.144874 0.438822
O O9 0.681384 0.306148 0.750000
O O10 0.721388 0.375959 0.975881
O O11 0.677862 0.250000 0.000000
O O12 0.364396 0.310780 0.750000
O O13 0.372574 0.250000 0.000000
O O14 0.331651 0.377412 0.984090
O O15 0.233133 0.558352 0.250000
O O16 0.160379 0.568223 0.475887
O O17 0.268962 0.489479 0.469469
O O18 0.081615 0.928467 0.750000
O O19 0.069225 0.024425 0.947701
O O20 0.035039 0.896552 0.996531
O O21 0.014145 0.100997 0.750000
O O22 0.301258 0.091830 0.750000
#
# Coordination Sequence:
#
# PCOD8230878 Si02
#       8
#     8   8   8   8   8   8   8   8
#     4  10  20  33  49  69  98 131 164 203 243 283
#     4   8  15  28  47  69  94 124 161 202 241 287
#     4   9  17  32  54  76  96 124 162 202 247 298
#     4  10  19  31  47  70  99 131 166 205 246 286
#     4   9  17  32  54  75  97 130 166 198 241 299
#     4   9  16  30  52  73  93 121 159 197 234 283
#     4   9  17  31  49  70  94 121 156 200 241 277
#     4  10  19  33  50  70  98 132 168 204 241 289
#
# _framework density 17.308302000000001
#
# number of rings (size 3 to 8) (size 9 to 14) (size 15 to 20)
#    0.000    2.750    1.250    0.750    0.000    2.500 
#    0.000    3.125    0.000    3.000    0.000    0.000 
#    0.000    0.000    0.000    0.000    0.000    0.000 
#
# Total GULP energy -793070.780691 kJ/mol
# GULP energy per Si atom -12391.730948 kJ/mol
# Density = 1.726891 g / cm^3
# Si number density = 17.308302 Si / 1000 Ang^3
#
#
#
# Elastic Constant Matrix: (Units=GPa)
#
#
# Indices 1 2 3 4 5 6 
#
# 1 146.8653 55.8917 51.5518 0.0000 0.0000 0.0000
# 2 55.8917 85.4061 34.8988 0.0000 0.0000 0.0000
# 3 51.5518 34.8988 55.9535 0.0000 0.0000 0.0000
# 4 0.0000 0.0000 0.0000 20.7336 0.0000 0.0000
# 5 0.0000 0.0000 0.0000 0.0000 26.5624 0.0000
# 6 0.0000 0.0000 0.0000 0.0000 0.0000 25.3471
#
#
#
# Elastic Compliance Matrix: (Units=1/GPa)
#
#
# Indices 1 2 3 4 5 6 
#
# 1 0.011048 -0.004121 -0.007609 0.000000 0.000000 0.000000
# 2 -0.004121 0.017251 -0.006963 0.000000 0.000000 0.000000
# 3 -0.007609 -0.006963 0.029225 0.000000 0.000000 0.000000
# 4 0.000000 0.000000 0.000000 0.048231 0.000000 0.000000
# 5 0.000000 0.000000 0.000000 0.000000 0.037647 0.000000
# 6 0.000000 0.000000 0.000000 0.000000 0.000000 0.039452
#
#
# Mechanical properties :
#
#
# Convention : Reuss Voigt Hill
#
# Bulk Modulus (GPa) = 49.65501 63.65662 56.65582
# Shear Modulus (GPa) = 22.03119 24.25413 23.14266
#
# Velocity S-wave (km/s) = 3.57160 3.74746 3.66058
# Velocity P-wave (km/s) = 6.76456 7.45537 7.11835
#
# Compressibility (1/GPa) = 0.02013895
#
# Stress axis : x y z
#
# Youngs Moduli (GPa) = 90.51434 57.96843 34.21772
#
# Poissons Ratio (x) = 0.23889 0.26035
# Poissons Ratio (y) = 0.37301 0.23825
# Poissons Ratio (z) = 0.68868 0.40361
#
# Static dielectric constant tensor:
#      x y z
#    x 3.926080 0.000000 0.000000 
#    y 0.000000 2.950660 0.000000 
#    z 0.000000 0.000000 3.124010 
# 
# 
# High freq. dielectric constant tensor:
#      x y z
#    x 1.686500 0.000000 0.000000 
#    y 0.000000 1.635860 0.000000 
#    z 0.000000 0.000000 1.655970 
# 
# From -- ./inp_files/8756.got.cif
#   From: 2010.03.12/outbox.cif.g09.slc.cpg/sg57_5_cif.got.tgz:8756.got - 2010.04.16 15:48:40.
