data_PCOD8230704
_publ_section_title
;
Structure prediction by ZEFSAII (Michael W. Deem and Ramdas Pophale) SiO2 
 PCOD8230704
Probable space group: P B C M
;
_chemical_formula_sum "Si O2"
_cell_formula_units_Z 48
_cell_length_a 23.708112
_cell_length_b 13.590984
_cell_length_c 9.200657
_cell_angle_alpha 90.000000
_cell_angle_beta 90.000000
_cell_angle_gamma 90.000000
_cell_volume 2964.604148
_symmetry_space_group_name_H-M "P B C M"
_symmetry_group_IT_number 57
_symmetry_cell_setting 'orthorhombic'
loop_
_space_group_symop_operation_xyz
x,y,z
-x,-y,1/2+z
x,1/2-y,-z
-x,1/2+y,1/2-z
-x,-y,-z
x,y,1/2-z
-x,1/2+y,z
x,1/2-y,1/2+z
loop_
_atom_site_type_symbol
_atom_site_label
_atom_site_fract_x
_atom_site_fract_y
_atom_site_fract_z
Si Si1 0.524954 0.147658 0.918894
Si Si2 0.416812 0.480986 0.417893
Si Si3 0.811678 0.652458 0.917888
Si Si4 0.314625 0.349279 0.419948
Si Si5 0.981443 0.151848 0.080205
Si Si6 0.078119 0.454314 0.082665
O O1 0.537240 0.164108 0.750000
O O2 0.463504 0.102266 0.947191
O O3 0.528790 0.250000 0.000000
O O4 0.572663 0.075609 0.982678
O O5 0.417818 0.513946 0.250000
O O6 0.356398 0.437118 0.464773
O O7 0.811796 0.680609 0.750000
O O8 0.748883 0.618795 0.965639
O O9 0.855973 0.565163 0.951344
O O10 0.831334 0.750000 0.000000
O O11 0.332930 0.250000 0.500000
O O12 0.319955 0.327562 0.250000
O O13 0.988575 0.173538 0.250000
O O14 0.934545 0.068353 0.048837
O O15 0.960601 0.250000 0.000000
O O16 0.041428 0.117036 0.018127
O O17 0.063166 0.429958 0.250000
#
# Coordination Sequence:
#
# PCOD8230704 Si02
#       6
#     8   8   8   8   8   8
#     4  10  19  30  46  67  91 118 148 183 221 262
#     4   9  18  31  46  66  91 119 149 180 218 262
#     4   9  17  29  45  66  90 116 145 177 216 259
#     4   9  17  29  46  67  91 118 146 179 218 260
#     4  10  19  30  45  65  89 116 146 181 220 261
#     4   9  18  31  46  65  89 117 148 180 216 259
#
# _framework density 16.191032
#
# number of rings (size 3 to 8) (size 9 to 14) (size 15 to 20)
#    0.000    2.667    0.000    2.000    0.000    4.000 
#    0.000    0.000    0.000    1.000    0.000    2.333 
#    0.000    0.000    0.000    0.000    0.000    0.000 
#
# Total GULP energy -595212.589222 kJ/mol
# GULP energy per Si atom -12400.262275 kJ/mol
# Density = 1.615418 g / cm^3
# Si number density = 16.191032 Si / 1000 Ang^3
#
#
#
# Elastic Constant Matrix: (Units=GPa)
#
#
# Indices 1 2 3 4 5 6 
#
# 1 100.1662 61.3413 42.9925 0.0000 0.0000 0.0000
# 2 61.3413 120.9242 63.1299 0.0000 0.0000 0.0000
# 3 42.9925 63.1299 76.9854 0.0000 0.0000 0.0000
# 4 0.0000 0.0000 0.0000 31.8370 0.0000 0.0000
# 5 0.0000 0.0000 0.0000 0.0000 20.2821 0.0000
# 6 0.0000 0.0000 0.0000 0.0000 0.0000 22.5845
#
#
#
# Elastic Compliance Matrix: (Units=1/GPa)
#
#
# Indices 1 2 3 4 5 6 
#
# 1 0.015079 -0.005688 -0.003757 0.000000 0.000000 0.000000
# 2 -0.005688 0.016606 -0.010441 0.000000 0.000000 0.000000
# 3 -0.003757 -0.010441 0.023649 0.000000 0.000000 0.000000
# 4 0.000000 0.000000 0.000000 0.031410 0.000000 0.000000
# 5 0.000000 0.000000 0.000000 0.000000 0.049305 0.000000
# 6 0.000000 0.000000 0.000000 0.000000 0.000000 0.044278
#
#
# Mechanical properties :
#
#
# Convention : Reuss Voigt Hill
#
# Bulk Modulus (GPa) = 64.25395 70.33368 67.29382
# Shear Modulus (GPa) = 22.19417 23.64818 22.92117
#
# Velocity S-wave (km/s) = 3.70641 3.82589 3.76662
# Velocity P-wave (km/s) = 7.62153 7.94045 7.78262
#
# Compressibility (1/GPa) = 0.01556325
#
# Stress axis : x y z
#
# Youngs Moduli (GPa) = 66.31691 60.22065 42.28534
#
# Poissons Ratio (x) = 0.34254 0.15885
# Poissons Ratio (y) = 0.37721 0.44148
# Poissons Ratio (z) = 0.24913 0.62874
#
# Static dielectric constant tensor:
#      x y z
#    x 3.164600 0.000000 0.000000 
#    y 0.000000 2.990220 0.000000 
#    z 0.000000 0.000000 3.151500 
# 
# 
# High freq. dielectric constant tensor:
#      x y z
#    x 1.613230 0.000000 0.000000 
#    y 0.000000 1.610160 0.000000 
#    z 0.000000 0.000000 1.630140 
# 
# From -- ./inp_files/7863.got.cif
#   From: 2010.03.12/outbox.cif.g09.slc.cpg/sg57_4_cif.got.tgz:7863.got - 2010.04.16 15:48:40.
