data_PCOD8230943
_publ_section_title
;
Structure prediction by ZEFSAII (Michael W. Deem and Ramdas Pophale) SiO2 
 PCOD8230943
Probable space group: P B C M
;
_chemical_formula_sum "Si O2"
_cell_formula_units_Z 48
_cell_length_a 10.258150
_cell_length_b 30.054049
_cell_length_c 8.810838
_cell_angle_alpha 90.000000
_cell_angle_beta 90.000000
_cell_angle_gamma 90.000000
_cell_volume 2716.372040
_symmetry_space_group_name_H-M "P B C M"
_symmetry_group_IT_number 57
_symmetry_cell_setting 'orthorhombic'
loop_
_space_group_symop_operation_xyz
x,y,z
-x,-y,1/2+z
x,1/2-y,-z
-x,1/2+y,1/2-z
-x,-y,-z
x,y,1/2-z
-x,1/2+y,z
x,1/2-y,1/2+z
loop_
_atom_site_type_symbol
_atom_site_label
_atom_site_fract_x
_atom_site_fract_y
_atom_site_fract_z
Si Si1 0.223336 0.391431 0.926933
Si Si2 0.499977 0.388133 0.423459
Si Si3 0.625144 0.021902 0.926535
Si Si4 0.126171 0.477884 0.429546
Si Si5 0.771711 0.707305 0.072389
Si Si6 0.510771 0.208357 0.574853
O O1 0.212183 0.402573 0.750000
O O2 0.167144 0.341575 0.961564
O O3 0.375267 0.396509 0.970645
O O4 0.136359 0.426542 0.018835
O O5 0.447802 0.389221 0.250000
O O6 0.610779 0.425029 0.448648
O O7 0.571216 0.340566 0.456664
O O8 0.636384 0.008637 0.750000
O O9 0.500000 0.000000 0.000000
O O10 0.750805 0.006036 0.015699
O O11 0.116869 0.479690 0.250000
O O12 0.000000 0.500000 0.500000
O O13 0.759251 0.715168 0.250000
O O14 0.849913 0.750000 0.000000
O O15 0.631199 0.706745 0.997161
O O16 0.590179 0.250000 0.500000
O O17 0.499973 0.219174 0.750000
#
# Coordination Sequence:
#
# PCOD8230943 Si02
#       6
#     8   8   8   8   8   8
#     4  10  19  31  49  73 102 135 173 214 258 309
#     4   9  18  30  47  71 101 135 171 209 256 308
#     4  11  21  35  55  80 106 137 176 217 260 310
#     4  12  25  40  56  76 104 140 178 221 271 321
#     4   9  16  25  40  65  96 130 165 205 251 302
#     4   9  15  24  38  61  94 131 165 202 248 301
#
# _framework density 17.670627
#
# number of rings (size 3 to 8) (size 9 to 14) (size 15 to 20)
#    0.000    2.000    1.667    4.500    0.000    3.333 
#    0.000    0.000    0.000    0.000    0.000    1.167 
#    0.000    5.333    0.000    0.000    0.000    0.000 
#
# Total GULP energy -594752.105574 kJ/mol
# GULP energy per Si atom -12390.668866 kJ/mol
# Density = 1.763041 g / cm^3
# Si number density = 17.670627 Si / 1000 Ang^3
#
#
#
# Elastic Constant Matrix: (Units=GPa)
#
#
# Indices 1 2 3 4 5 6 
#
# 1 65.5209 46.0368 38.0405 0.0000 0.0000 0.0000
# 2 46.0368 181.1092 75.4064 0.0000 0.0000 0.0000
# 3 38.0405 75.4064 136.4609 0.0000 0.0000 0.0000
# 4 0.0000 0.0000 0.0000 32.6178 0.0000 0.0000
# 5 0.0000 0.0000 0.0000 0.0000 20.6983 0.0000
# 6 0.0000 0.0000 0.0000 0.0000 0.0000 14.1336
#
#
#
# Elastic Compliance Matrix: (Units=1/GPa)
#
#
# Indices 1 2 3 4 5 6 
#
# 1 0.019830 -0.003558 -0.003562 0.000000 0.000000 0.000000
# 2 -0.003558 0.007810 -0.003324 0.000000 0.000000 0.000000
# 3 -0.003562 -0.003324 0.010158 0.000000 0.000000 0.000000
# 4 0.000000 0.000000 0.000000 0.030658 0.000000 0.000000
# 5 0.000000 0.000000 0.000000 0.000000 0.048313 0.000000
# 6 0.000000 0.000000 0.000000 0.000000 0.000000 0.070753
#
#
# Mechanical properties :
#
#
# Convention : Reuss Voigt Hill
#
# Bulk Modulus (GPa) = 59.13431 78.00648 68.57039
# Shear Modulus (GPa) = 23.35946 28.39708 25.87827
#
# Velocity S-wave (km/s) = 3.63979 4.01312 3.83100
# Velocity P-wave (km/s) = 7.15552 8.10642 7.64577
#
# Compressibility (1/GPa) = 0.01691066
#
# Stress axis : x y z
#
# Youngs Moduli (GPa) = 50.42854 128.04497 98.44666
#
# Poissons Ratio (x) = 0.45553 0.35067
# Poissons Ratio (y) = 0.17940 0.32722
# Poissons Ratio (z) = 0.17963 0.42560
#
# Static dielectric constant tensor:
#      x y z
#    x 2.987600 0.000000 0.000000 
#    y 0.000000 5.285420 0.000000 
#    z 0.000000 0.000000 3.487320 
# 
# 
# High freq. dielectric constant tensor:
#      x y z
#    x 1.600840 0.000000 0.000000 
#    y 0.000000 1.720960 0.000000 
#    z 0.000000 0.000000 1.703060 
# 
# From -- ./inp_files/3532.got.cif
#   From: 2010.03.12/outbox.cif.g09.slc.cpg/sg57_2_cif.got.tgz:3532.got - 2010.04.16 15:48:40.
