data_PCOD8230620
_publ_section_title
;
Structure prediction by ZEFSAII (Michael W. Deem and Ramdas Pophale) SiO2 
 PCOD8230620
Probable space group: P B C M
;
_chemical_formula_sum "Si O2"
_cell_formula_units_Z 48
_cell_length_a 11.590376
_cell_length_b 25.992306
_cell_length_c 9.106154
_cell_angle_alpha 90.000000
_cell_angle_beta 90.000000
_cell_angle_gamma 90.000000
_cell_volume 2743.325415
_symmetry_space_group_name_H-M "P B C M"
_symmetry_group_IT_number 57
_symmetry_cell_setting 'orthorhombic'
loop_
_space_group_symop_operation_xyz
x,y,z
-x,-y,1/2+z
x,1/2-y,-z
-x,1/2+y,1/2-z
-x,-y,-z
x,y,1/2-z
-x,1/2+y,z
x,1/2-y,1/2+z
loop_
_atom_site_type_symbol
_atom_site_label
_atom_site_fract_x
_atom_site_fract_y
_atom_site_fract_z
Si Si1 0.628822 0.695875 0.075249
Si Si2 0.366337 0.698701 0.081200
Si Si3 0.025170 0.053633 0.424814
Si Si4 0.977607 0.706184 0.907602
Si Si5 0.795026 0.880642 0.414152
Si Si6 0.855171 0.143270 0.081166
O O1 0.653220 0.699409 0.250000
O O2 0.496039 0.683528 0.036527
O O3 0.665551 0.750000 0.000000
O O4 0.694564 0.647086 0.005988
O O5 0.362524 0.713903 0.250000
O O6 0.282624 0.649047 0.050378
O O7 0.324099 0.750000 0.000000
O O8 0.038814 0.047777 0.250000
O O9 0.914361 0.089476 0.466809
O O10 0.147475 0.073574 0.490725
O O11 0.000000 0.000000 0.500000
O O12 0.013597 0.728599 0.750000
O O13 0.896064 0.658705 0.887303
O O14 0.911360 0.750000 0.000000
O O15 0.092266 0.690823 0.993300
O O16 0.752745 0.898986 0.250000
O O17 0.885152 0.151912 0.250000
#
# Coordination Sequence:
#
# PCOD8230620 Si02
#       6
#     8   8   8   8   8   8
#     4  10  19  31  48  71 101 135 168 200 234 278
#     4   9  18  31  47  70 100 133 166 197 232 277
#     4  10  20  35  55  76  98 124 157 201 253 303
#     4  10  19  28  41  64  94 125 155 191 233 280
#     4  10  20  33  49  70  96 126 162 201 242 289
#     4   9  18  32  49  69  94 125 159 196 240 289
#
# _framework density 17.497012000000002
#
# number of rings (size 3 to 8) (size 9 to 14) (size 15 to 20)
#    0.000    2.333    0.000    3.000    0.000    6.667 
#    0.000    0.000    0.000    1.000    0.000    0.000 
#    0.000    0.000    0.000    0.000    0.000    0.000 
#
# Total GULP energy -594694.430536 kJ/mol
# GULP energy per Si atom -12389.467303 kJ/mol
# Density = 1.745719 g / cm^3
# Si number density = 17.497012 Si / 1000 Ang^3
#
#
#
# Elastic Constant Matrix: (Units=GPa)
#
#
# Indices 1 2 3 4 5 6 
#
# 1 91.4593 41.2770 38.3914 0.0000 0.0000 0.0000
# 2 41.2770 84.1220 48.3669 0.0000 0.0000 0.0000
# 3 38.3914 48.3669 106.4370 0.0000 0.0000 0.0000
# 4 0.0000 0.0000 0.0000 28.8977 0.0000 0.0000
# 5 0.0000 0.0000 0.0000 0.0000 34.6644 0.0000
# 6 0.0000 0.0000 0.0000 0.0000 0.0000 22.9474
#
#
#
# Elastic Compliance Matrix: (Units=1/GPa)
#
#
# Indices 1 2 3 4 5 6 
#
# 1 0.014604 -0.005601 -0.002723 0.000000 0.000000 0.000000
# 2 -0.005601 0.018240 -0.006268 0.000000 0.000000 0.000000
# 3 -0.002723 -0.006268 0.013226 0.000000 0.000000 0.000000
# 4 0.000000 0.000000 0.000000 0.034605 0.000000 0.000000
# 5 0.000000 0.000000 0.000000 0.000000 0.028848 0.000000
# 6 0.000000 0.000000 0.000000 0.000000 0.000000 0.043578
#
#
# Mechanical properties :
#
#
# Convention : Reuss Voigt Hill
#
# Bulk Modulus (GPa) = 59.21902 59.78767 59.50334
# Shear Modulus (GPa) = 26.60810 27.56743 27.08776
#
# Velocity S-wave (km/s) = 3.90388 3.97363 3.93891
# Velocity P-wave (km/s) = 7.36471 7.43622 7.40055
#
# Compressibility (1/GPa) = 0.01688647
#
# Stress axis : x y z
#
# Youngs Moduli (GPa) = 68.47264 54.82565 75.61023
#
# Poissons Ratio (x) = 0.30706 0.20587
# Poissons Ratio (y) = 0.38349 0.47395
# Poissons Ratio (z) = 0.18643 0.34366
#
# Static dielectric constant tensor:
#      x y z
#    x 3.413260 0.000000 0.000000 
#    y 0.000000 3.147210 0.000000 
#    z 0.000000 0.000000 3.778500 
# 
# 
# High freq. dielectric constant tensor:
#      x y z
#    x 1.669070 0.000000 0.000000 
#    y 0.000000 1.644470 0.000000 
#    z 0.000000 0.000000 1.695290 
# 
# From -- ./inp_files/3081.got.cif
#   From: 2010.03.12/outbox.cif.g09.slc.cpg/sg57_2_cif.got.tgz:3081.got - 2010.04.16 15:48:40.
