data_PCOD8230019
_publ_section_title
;
Structure prediction by ZEFSAII (Michael W. Deem and Ramdas Pophale) SiO2 
 PCOD8230019
Probable space group: P B C M
;
_chemical_formula_sum "Si O2"
_cell_formula_units_Z 64
_cell_length_a 11.928156
_cell_length_b 31.013976
_cell_length_c 8.910755
_cell_angle_alpha 90.000000
_cell_angle_beta 90.000000
_cell_angle_gamma 90.000000
_cell_volume 3296.440641
_symmetry_space_group_name_H-M "P B C M"
_symmetry_group_IT_number 57
_symmetry_cell_setting 'orthorhombic'
loop_
_space_group_symop_operation_xyz
x,y,z
-x,-y,1/2+z
x,1/2-y,-z
-x,1/2+y,1/2-z
-x,-y,-z
x,y,1/2-z
-x,1/2+y,z
x,1/2-y,1/2+z
loop_
_atom_site_type_symbol
_atom_site_label
_atom_site_fract_x
_atom_site_fract_y
_atom_site_fract_z
Si Si1 0.260276 0.206259 0.926031
Si Si2 0.496305 0.326213 0.427185
Si Si3 0.866981 0.371939 0.927355
Si Si4 0.737677 0.548835 0.574202
Si Si5 0.735145 0.206096 0.572548
Si Si6 0.893589 0.624998 0.572972
Si Si7 0.497607 0.576992 0.928345
Si Si8 0.277281 0.546769 0.074779
O O1 0.266445 0.213745 0.750000
O O2 0.383942 0.195641 0.993053
O O3 0.177405 0.167424 0.965858
O O4 0.214179 0.250000 0.000000
O O5 0.483202 0.329582 0.250000
O O6 0.605000 0.298901 0.474302
O O7 0.510843 0.374336 0.491057
O O8 0.859430 0.365080 0.750000
O O9 0.808839 0.416569 0.978768
O O10 0.805727 0.333209 0.009791
O O11 0.994113 0.373042 0.978529
O O12 0.730787 0.557470 0.750000
O O13 0.826886 0.583174 0.510847
O O14 0.613462 0.557180 0.508890
O O15 0.775961 0.500062 0.535718
O O16 0.781196 0.250000 0.500000
O O17 0.751145 0.207768 0.750000
O O18 0.919941 0.622020 0.750000
O O19 0.490662 0.575404 0.750000
O O20 0.395372 0.549629 0.991989
O O21 0.302069 0.550672 0.250000
#
# Coordination Sequence:
#
# PCOD8230019 Si02
#       8
#     8   8   8   8   8   8   8   8
#     4  10  20  36  58  85 113 143 179 225 277 333
#     4   9  17  32  57  86 114 143 179 221 270 331
#     4  11  24  40  56  79 115 151 189 237 285 329
#     4   9  18  35  60  85 112 147 187 232 285 340
#     4  11  22  38  61  87 115 147 186 228 276 335
#     4  10  21  39  61  80 105 148 198 237 279 336
#     4  10  17  32  59  86 113 147 184 224 275 342
#     4  10  21  36  55  84 118 149 183 232 287 335
#
# _framework density 19.41488
#
# number of rings (size 3 to 8) (size 9 to 14) (size 15 to 20)
#    0.000    2.000    2.500    1.500    0.000    2.000 
#    0.000    3.750    0.000    0.000    0.000    0.000 
#    0.000    0.000    0.000    0.000    0.000    0.000 
#
# Total GULP energy -793639.181021 kJ/mol
# GULP energy per Si atom -12400.612203 kJ/mol
# Density = 1.937069 g / cm^3
# Si number density = 19.414880 Si / 1000 Ang^3
#
#
#
# Elastic Constant Matrix: (Units=GPa)
#
#
# Indices 1 2 3 4 5 6 
#
# 1 133.1218 66.3679 43.7713 0.0000 0.0000 0.0000
# 2 66.3679 172.1054 46.8997 0.0000 0.0000 0.0000
# 3 43.7713 46.8997 42.1885 0.0000 0.0000 0.0000
# 4 0.0000 0.0000 0.0000 22.3470 0.0000 0.0000
# 5 0.0000 0.0000 0.0000 0.0000 26.0542 0.0000
# 6 0.0000 0.0000 0.0000 0.0000 0.0000 5.9487
#
#
#
# Elastic Compliance Matrix: (Units=1/GPa)
#
#
# Indices 1 2 3 4 5 6 
#
# 1 0.011752 -0.001735 -0.010264 0.000000 0.000000 0.000000
# 2 -0.001735 0.008592 -0.007751 0.000000 0.000000 0.000000
# 3 -0.010264 -0.007751 0.042969 0.000000 0.000000 0.000000
# 4 0.000000 0.000000 0.000000 0.044749 0.000000 0.000000
# 5 0.000000 0.000000 0.000000 0.000000 0.038382 0.000000
# 6 0.000000 0.000000 0.000000 0.000000 0.000000 0.168103
#
#
# Mechanical properties :
#
#
# Convention : Reuss Voigt Hill
#
# Bulk Modulus (GPa) = 41.99518 73.49930 57.74724
# Shear Modulus (GPa) = 13.81278 23.56176 18.68727
#
# Velocity S-wave (km/s) = 2.67020 3.48745 3.10582
# Velocity P-wave (km/s) = 5.58426 7.35906 6.53222
#
# Compressibility (1/GPa) = 0.02381226
#
# Stress axis : x y z
#
# Youngs Moduli (GPa) = 85.09432 116.39308 23.27251
#
# Poissons Ratio (x) = 0.20190 0.23887
# Poissons Ratio (y) = 0.14761 0.18039
# Poissons Ratio (z) = 0.87342 0.90219
#
# Static dielectric constant tensor:
#      x y z
#    x 3.584630 0.000000 0.000000 
#    y 0.000000 3.770770 0.000000 
#    z 0.000000 0.000000 3.206960 
# 
# 
# High freq. dielectric constant tensor:
#      x y z
#    x 1.755460 0.000000 0.000000 
#    y 0.000000 1.774350 0.000000 
#    z 0.000000 0.000000 1.725150 
# 
# From -- ./inp_files/3914.got.cif
#   From: 2010.03.12/outbox.cif.g09.slc.cpg/sg57_2_cif.got.tgz:3914.got - 2010.04.16 15:48:40.
