data_PCOD8230202
_publ_section_title
;
Structure prediction by ZEFSAII (Michael W. Deem and Ramdas Pophale) SiO2 
 PCOD8230202
Probable space group: P B C M
;
_chemical_formula_sum "Si O2"
_cell_formula_units_Z 64
_cell_length_a 16.835780
_cell_length_b 23.883225
_cell_length_c 8.836916
_cell_angle_alpha 90.000000
_cell_angle_beta 90.000000
_cell_angle_gamma 90.000000
_cell_volume 3553.259607
_symmetry_space_group_name_H-M "P B C M"
_symmetry_group_IT_number 57
_symmetry_cell_setting 'orthorhombic'
loop_
_space_group_symop_operation_xyz
x,y,z
-x,-y,1/2+z
x,1/2-y,-z
-x,1/2+y,1/2-z
-x,-y,-z
x,y,1/2-z
-x,1/2+y,z
x,1/2-y,1/2+z
loop_
_atom_site_type_symbol
_atom_site_label
_atom_site_fract_x
_atom_site_fract_y
_atom_site_fract_z
Si Si1 0.569817 0.810285 0.927579
Si Si2 0.033018 0.096068 0.074121
Si Si3 0.818229 0.976799 0.923587
Si Si4 0.252268 0.689261 0.070440
Si Si5 0.873389 0.807266 0.427381
Si Si6 0.266992 0.133028 0.073847
Si Si7 0.145706 0.913342 0.573194
Si Si8 0.587429 0.311535 0.069224
O O1 0.553831 0.801383 0.750000
O O2 0.641275 0.853609 0.956907
O O3 0.590076 0.750000 0.000000
O O4 0.493476 0.840061 0.007252
O O5 0.033123 0.114005 0.250000
O O6 0.091333 0.043606 0.047476
O O7 0.944851 0.081909 0.015885
O O8 0.062336 0.147003 0.973234
O O9 0.802020 0.989016 0.750000
O O10 0.755680 0.929709 0.982213
O O11 0.803466 0.035264 0.007273
O O12 0.262634 0.696008 0.250000
O O13 0.182076 0.646619 0.025592
O O14 0.232843 0.750000 0.000000
O O15 0.332277 0.661820 0.998780
O O16 0.902770 0.750000 0.500000
O O17 0.870268 0.800537 0.250000
O O18 0.785419 0.822034 0.485122
O O19 0.244328 0.138538 0.250000
O O20 0.150284 0.920367 0.750000
O O21 0.590013 0.311879 0.250000
O O22 0.583295 0.250000 0.000000
#
# Coordination Sequence:
#
# PCOD8230202 Si02
#       8
#     8   8   8   8   8   8   8   8
#     4  10  18  29  48  74 104 134 166 202 242 289
#     4   9  19  36  52  71 100 131 167 211 253 293
#     4   9  18  33  53  74 100 132 166 205 247 293
#     4  10  20  35  53  75 102 130 161 200 248 298
#     4  11  21  32  48  70  99 136 171 205 249 299
#     4   9  19  34  50  72 102 135 169 207 247 287
#     4  10  21  35  54  77 100 127 162 207 252 297
#     4  10  18  30  49  73 101 131 163 199 242 292
#
# _framework density 18.011631000000001
#
# number of rings (size 3 to 8) (size 9 to 14) (size 15 to 20)
#    0.000    2.250    0.000    6.000    0.000    6.000 
#    0.000    1.250    0.000    0.750    0.000    0.000 
#    0.000    0.000    0.000    0.000    0.000    0.000 
#
# Total GULP energy -793417.603421 kJ/mol
# GULP energy per Si atom -12397.150053 kJ/mol
# Density = 1.797064 g / cm^3
# Si number density = 18.011631 Si / 1000 Ang^3
#
#
#
# Elastic Constant Matrix: (Units=GPa)
#
#
# Indices 1 2 3 4 5 6 
#
# 1 95.4394 36.7829 36.6987 0.0000 0.0000 0.0000
# 2 36.7829 87.2616 41.4283 0.0000 0.0000 0.0000
# 3 36.6987 41.4283 92.6736 0.0000 0.0000 0.0000
# 4 0.0000 0.0000 0.0000 28.6146 0.0000 0.0000
# 5 0.0000 0.0000 0.0000 0.0000 26.0234 0.0000
# 6 0.0000 0.0000 0.0000 0.0000 0.0000 14.8702
#
#
#
# Elastic Compliance Matrix: (Units=1/GPa)
#
#
# Indices 1 2 3 4 5 6 
#
# 1 0.013357 -0.003959 -0.003519 0.000000 0.000000 0.000000
# 2 -0.003959 0.015721 -0.005460 0.000000 0.000000 0.000000
# 3 -0.003519 -0.005460 0.014625 0.000000 0.000000 0.000000
# 4 0.000000 0.000000 0.000000 0.034947 0.000000 0.000000
# 5 0.000000 0.000000 0.000000 0.000000 0.038427 0.000000
# 6 0.000000 0.000000 0.000000 0.000000 0.000000 0.067248
#
#
# Mechanical properties :
#
#
# Convention : Reuss Voigt Hill
#
# Bulk Modulus (GPa) = 56.09912 56.13272 56.11592
# Shear Modulus (GPa) = 23.13263 24.59931 23.86597
#
# Velocity S-wave (km/s) = 3.58762 3.69961 3.64405
# Velocity P-wave (km/s) = 6.95522 7.03433 6.99489
#
# Compressibility (1/GPa) = 0.01782559
#
# Stress axis : x y z
#
# Youngs Moduli (GPa) = 74.86627 63.60946 68.37620
#
# Poissons Ratio (x) = 0.25186 0.24064
# Poissons Ratio (y) = 0.29643 0.37332
# Poissons Ratio (z) = 0.26348 0.34730
#
# Static dielectric constant tensor:
#      x y z
#    x 3.836820 0.000000 0.000000 
#    y 0.000000 3.184220 0.000000 
#    z 0.000000 0.000000 3.320310 
# 
# 
# High freq. dielectric constant tensor:
#      x y z
#    x 1.697390 0.000000 0.000000 
#    y 0.000000 1.673840 0.000000 
#    z 0.000000 0.000000 1.702670 
# 
# From -- ./inp_files/7409.got.cif
#   From: 2010.03.12/outbox.cif.g09.slc.cpg/sg57_4_cif.got.tgz:7409.got - 2010.04.16 15:48:40.
