data_PCOD8230105
_publ_section_title
;
Structure prediction by ZEFSAII (Michael W. Deem and Ramdas Pophale) SiO2 
 PCOD8230105
Probable space group: P B C M
;
_chemical_formula_sum "Si O2"
_cell_formula_units_Z 64
_cell_length_a 18.210769
_cell_length_b 25.055353
_cell_length_c 9.163942
_cell_angle_alpha 90.000000
_cell_angle_beta 90.000000
_cell_angle_gamma 90.000000
_cell_volume 4181.298215
_symmetry_space_group_name_H-M "P B C M"
_symmetry_group_IT_number 57
_symmetry_cell_setting 'orthorhombic'
loop_
_space_group_symop_operation_xyz
x,y,z
-x,-y,1/2+z
x,1/2-y,-z
-x,1/2+y,1/2-z
-x,-y,-z
x,y,1/2-z
-x,1/2+y,z
x,1/2-y,1/2+z
loop_
_atom_site_type_symbol
_atom_site_label
_atom_site_fract_x
_atom_site_fract_y
_atom_site_fract_z
Si Si1 0.560923 0.198161 0.585246
Si Si2 0.264883 0.698446 0.916237
Si Si3 0.191549 0.602081 0.422277
Si Si4 0.603911 0.518720 0.081965
Si Si5 0.035056 0.573821 0.087890
Si Si6 0.772259 0.506250 0.420373
Si Si7 0.096688 0.454599 0.085740
Si Si8 0.486266 0.583057 0.577505
O O1 0.530373 0.250000 0.500000
O O2 0.532594 0.204045 0.750000
O O3 0.648084 0.196561 0.579887
O O4 0.532307 0.142249 0.516173
O O5 0.235848 0.698270 0.750000
O O6 0.234457 0.750000 0.000000
O O7 0.235730 0.648694 0.003997
O O8 0.207245 0.599308 0.250000
O O9 0.104432 0.611119 0.452745
O O10 0.220812 0.548609 0.494609
O O11 0.582869 0.527387 0.250000
O O12 0.690039 0.527178 0.055678
O O13 0.577815 0.459186 0.033375
O O14 0.563228 0.563990 0.989072
O O15 0.006040 0.586305 0.250000
O O16 0.065956 0.514094 0.080954
O O17 0.967062 0.583703 0.978964
O O18 0.790137 0.497576 0.250000
O O19 0.829458 0.549076 0.488340
O O20 0.114723 0.436176 0.250000
O O21 0.493871 0.586145 0.750000
#
# Coordination Sequence:
#
# PCOD8230105 Si02
#       8
#     8   8   8   8   8   8   8   8
#     4   9  18  31  46  64  85 111 143 178 216 256
#     4  10  19  31  45  61  84 111 140 175 213 250
#     4  10  19  29  42  61  83 109 144 178 208 248
#     4   9  18  30  43  61  84 113 146 176 212 259
#     4   8  15  26  38  54  78 107 136 166 200 237
#     4  10  18  28  42  59  83 113 142 173 210 251
#     4   9  16  25  38  57  80 105 136 170 200 236
#     4   9  17  30  45  61  84 111 141 178 216 254
#
# _framework density 15.306252000000001
#
# number of rings (size 3 to 8) (size 9 to 14) (size 15 to 20)
#    0.000    2.750    0.000    3.000    0.000    7.500 
#    0.000    2.500    0.000    0.000    0.000    0.000 
#    0.000    1.000    0.000    7.000    0.000    5.250 
#
# Total GULP energy -793321.165360 kJ/mol
# GULP energy per Si atom -12395.643209 kJ/mol
# Density = 1.527141 g / cm^3
# Si number density = 15.306252 Si / 1000 Ang^3
#
#
#
# Elastic Constant Matrix: (Units=GPa)
#
#
# Indices 1 2 3 4 5 6 
#
# 1 49.7758 5.3480 28.6193 0.0000 0.0000 0.0000
# 2 5.3480 46.9177 18.7322 0.0000 0.0000 0.0000
# 3 28.6193 18.7322 81.5516 0.0000 0.0000 0.0000
# 4 0.0000 0.0000 0.0000 20.8037 0.0000 0.0000
# 5 0.0000 0.0000 0.0000 0.0000 -6.2720 0.0000
# 6 0.0000 0.0000 0.0000 0.0000 0.0000 9.6580
#
#
#
# Elastic Compliance Matrix: (Units=1/GPa)
#
#
# Indices 1 2 3 4 5 6 
#
# 1 0.025191 0.000725 -0.009007 0.000000 0.000000 0.000000
# 2 0.000725 0.023487 -0.005649 0.000000 0.000000 0.000000
# 3 -0.009007 -0.005649 0.016721 0.000000 0.000000 0.000000
# 4 0.000000 0.000000 0.000000 0.048068 0.000000 0.000000
# 5 0.000000 0.000000 0.000000 0.000000 -0.159439 0.000000
# 6 0.000000 0.000000 0.000000 0.000000 0.000000 0.103541
#
#
# Mechanical properties :
#
#
# Convention : Reuss Voigt Hill
#
# Bulk Modulus (GPa) = 26.64145 31.51602 29.07873
# Shear Modulus (GPa) = 51.05011 13.20765 32.12888
#
# Velocity S-wave (km/s) = 5.78142 2.94069 4.58653
# Velocity P-wave (km/s) = 7.87463 5.67144 6.86204
#
# Compressibility (1/GPa) = 0.03753549
#
# Stress axis : x y z
#
# Youngs Moduli (GPa) = 39.69708 42.57711 59.80664
#
# Poissons Ratio (x) = -0.03085 0.53866
# Poissons Ratio (y) = -0.02876 0.33786
# Poissons Ratio (z) = 0.35754 0.24052
#
# Static dielectric constant tensor:
#      x y z
#    x 2.990320 0.000000 0.000000 
#    y 0.000000 2.689520 0.000000 
#    z 0.000000 0.000000 3.127630 
# 
# 
# High freq. dielectric constant tensor:
#      x y z
#    x 1.577130 0.000000 0.000000 
#    y 0.000000 1.544590 0.000000 
#    z 0.000000 0.000000 1.599350 
# 
# From -- ./inp_files/7378.got.cif
#   From: 2010.03.12/outbox.cif.g09.slc.cpg/sg57_4_cif.got.tgz:7378.got - 2010.04.16 15:48:40.
