data_PCOD8230749
_publ_section_title
;
Structure prediction by ZEFSAII (Michael W. Deem and Ramdas Pophale) SiO2 
 PCOD8230749
Probable space group: P B C M
;
_chemical_formula_sum "Si O2"
_cell_formula_units_Z 64
_cell_length_a 16.063648
_cell_length_b 23.807242
_cell_length_c 9.383740
_cell_angle_alpha 90.000000
_cell_angle_beta 90.000000
_cell_angle_gamma 90.000000
_cell_volume 3588.634530
_symmetry_space_group_name_H-M "P B C M"
_symmetry_group_IT_number 57
_symmetry_cell_setting 'orthorhombic'
loop_
_space_group_symop_operation_xyz
x,y,z
-x,-y,1/2+z
x,1/2-y,-z
-x,1/2+y,1/2-z
-x,-y,-z
x,y,1/2-z
-x,1/2+y,z
x,1/2-y,1/2+z
loop_
_atom_site_type_symbol
_atom_site_label
_atom_site_fract_x
_atom_site_fract_y
_atom_site_fract_z
Si Si1 0.867009 0.883556 0.089167
Si Si2 0.483730 0.694639 0.082758
Si Si3 0.967296 0.053193 0.585074
Si Si4 0.619662 0.609438 0.090220
Si Si5 0.707351 0.195664 0.415119
Si Si6 0.804605 0.083796 0.416772
Si Si7 0.769081 0.696408 0.410787
Si Si8 0.275818 0.030804 0.586444
O O1 0.845895 0.864501 0.250000
O O2 0.809875 0.937062 0.047872
O O3 0.963298 0.898741 0.074379
O O4 0.849646 0.832069 0.983121
O O5 0.499100 0.705323 0.250000
O O6 0.536859 0.640472 0.031427
O O7 0.388043 0.681725 0.046145
O O8 0.514448 0.750000 0.000000
O O9 0.950562 0.036774 0.750000
O O10 0.885221 0.077994 0.514021
O O11 0.000000 0.000000 0.500000
O O12 0.604186 0.587877 0.250000
O O13 0.693216 0.654014 0.084276
O O14 0.644737 0.554955 0.998653
O O15 0.739675 0.250000 0.500000
O O16 0.716640 0.209996 0.250000
O O17 0.762234 0.142345 0.458355
O O18 0.829868 0.080866 0.250000
O O19 0.738974 0.034302 0.452130
O O20 0.741220 0.750000 0.500000
O O21 0.792281 0.713536 0.250000
O O22 0.299372 0.038454 0.750000
#
# Coordination Sequence:
#
# PCOD8230749 Si02
#       8
#     8   8   8   8   8   8   8   8
#     4   9  18  33  49  69  98 131 166 206 245 295
#     4   9  17  31  51  75 101 134 174 219 263 307
#     4  11  21  34  55  81 106 132 168 212 255 303
#     4   9  18  30  46  72 104 133 171 213 257 305
#     4   9  19  36  58  78 103 136 173 218 265 311
#     4  10  20  36  55  78 105 137 175 213 259 312
#     4  10  19  30  46  69  98 135 170 206 251 302
#     4   9  17  31  49  70 101 136 170 205 250 305
#
# _framework density 17.834081999999999
#
# number of rings (size 3 to 8) (size 9 to 14) (size 15 to 20)
#    0.000    2.500    1.250    1.125    0.000    3.000 
#    0.000    1.250    0.000    1.500    0.000    0.000 
#    0.000    0.000    0.000    0.000    0.000    0.000 
#
# Total GULP energy -793595.672773 kJ/mol
# GULP energy per Si atom -12399.932387 kJ/mol
# Density = 1.779349 g / cm^3
# Si number density = 17.834082 Si / 1000 Ang^3
#
#
#
# Elastic Constant Matrix: (Units=GPa)
#
#
# Indices 1 2 3 4 5 6 
#
# 1 84.8408 49.4333 45.5641 0.0000 0.0000 0.0000
# 2 49.4333 99.1556 52.1935 0.0000 0.0000 0.0000
# 3 45.5641 52.1935 87.3878 0.0000 0.0000 0.0000
# 4 0.0000 0.0000 0.0000 31.2154 0.0000 0.0000
# 5 0.0000 0.0000 0.0000 0.0000 26.2436 0.0000
# 6 0.0000 0.0000 0.0000 0.0000 0.0000 25.8501
#
#
#
# Elastic Compliance Matrix: (Units=1/GPa)
#
#
# Indices 1 2 3 4 5 6 
#
# 1 0.018580 -0.006073 -0.006061 0.000000 0.000000 0.000000
# 2 -0.006073 0.016695 -0.006805 0.000000 0.000000 0.000000
# 3 -0.006061 -0.006805 0.018667 0.000000 0.000000 0.000000
# 4 0.000000 0.000000 0.000000 0.032035 0.000000 0.000000
# 5 0.000000 0.000000 0.000000 0.000000 0.038105 0.000000
# 6 0.000000 0.000000 0.000000 0.000000 0.000000 0.038685
#
#
# Mechanical properties :
#
#
# Convention : Reuss Voigt Hill
#
# Bulk Modulus (GPa) = 62.24367 62.86288 62.55327
# Shear Modulus (GPa) = 24.27209 24.94138 24.60673
#
# Velocity S-wave (km/s) = 3.69317 3.74374 3.71854
# Velocity P-wave (km/s) = 7.29132 7.34933 7.32038
#
# Compressibility (1/GPa) = 0.01606589
#
# Stress axis : x y z
#
# Youngs Moduli (GPa) = 53.82126 59.89985 53.56921
#
# Poissons Ratio (x) = 0.36376 0.32466
# Poissons Ratio (y) = 0.32684 0.36452
# Poissons Ratio (z) = 0.32619 0.40760
#
# Static dielectric constant tensor:
#      x y z
#    x 3.258840 0.000000 0.000000 
#    y 0.000000 3.258500 0.000000 
#    z 0.000000 0.000000 3.445070 
# 
# 
# High freq. dielectric constant tensor:
#      x y z
#    x 1.677260 0.000000 0.000000 
#    y 0.000000 1.680490 0.000000 
#    z 0.000000 0.000000 1.692240 
# 
# From -- ./inp_files/5682.got.cif
#   From: 2010.03.12/outbox.cif.g09.slc.cpg/sg57_3_cif.got.tgz:5682.got - 2010.04.16 15:48:40.
