data_PCOD8230332
_publ_section_title
;
Structure prediction by ZEFSAII (Michael W. Deem and Ramdas Pophale) SiO2 
 PCOD8230332
Probable space group: P B C M
;
_chemical_formula_sum "Si O2"
_cell_formula_units_Z 40
_cell_length_a 12.765790
_cell_length_b 20.015861
_cell_length_c 8.851250
_cell_angle_alpha 90.000000
_cell_angle_beta 90.000000
_cell_angle_gamma 90.000000
_cell_volume 2261.656160
_symmetry_space_group_name_H-M "P B C M"
_symmetry_group_IT_number 57
_symmetry_cell_setting 'orthorhombic'
loop_
_space_group_symop_operation_xyz
x,y,z
-x,-y,1/2+z
x,1/2-y,-z
-x,1/2+y,1/2-z
-x,-y,-z
x,y,1/2-z
-x,1/2+y,z
x,1/2-y,1/2+z
loop_
_atom_site_type_symbol
_atom_site_label
_atom_site_fract_x
_atom_site_fract_y
_atom_site_fract_z
Si Si1 0.616295 0.179965 0.926751
Si Si2 0.194504 0.903851 0.073369
Si Si3 0.451899 0.434013 0.072243
Si Si4 0.970246 0.569808 0.927556
Si Si5 0.235166 0.446273 0.570617
O O1 0.626099 0.191682 0.750000
O O2 0.726248 0.151172 0.994979
O O3 0.525245 0.128235 0.967068
O O4 0.588163 0.250000 0.000000
O O5 0.216695 0.908634 0.250000
O O6 0.072884 0.883482 0.041394
O O7 0.222296 0.977640 0.010598
O O8 0.441583 0.445524 0.250000
O O9 0.500000 0.500000 0.000000
O O10 0.339955 0.416175 0.000491
O O11 0.950395 0.561598 0.750000
O O12 0.864690 0.596593 0.008277
O O13 0.000000 0.500000 0.000000
O O14 0.239111 0.440286 0.750000
#
# Coordination Sequence:
#
# PCOD8230332 Si02
#       5
#     8   8   8   8   8
#     4  10  21  37  53  75 106 141 176 218 267 320
#     4   8  15  30  49  70 103 136 164 209 260 307
#     4  11  21  34  54  78 107 139 178 223 271 322
#     4   9  16  27  46  73 103 135 168 207 261 312
#     4  10  18  31  50  75 107 137 171 218 266 312
#
# _framework density 17.686156
#
# number of rings (size 3 to 8) (size 9 to 14) (size 15 to 20)
#    0.000    2.400    2.000    3.000    0.000    1.600 
#    0.000    2.000    0.000    1.200    0.000    2.800 
#    0.000    0.000    0.000    0.000    0.000    0.000 
#
# Total GULP energy -495716.055856 kJ/mol
# GULP energy per Si atom -12392.901396 kJ/mol
# Density = 1.764590 g / cm^3
# Si number density = 17.686156 Si / 1000 Ang^3
#
#
#
# Elastic Constant Matrix: (Units=GPa)
#
#
# Indices 1 2 3 4 5 6 
#
# 1 186.9786 55.6241 69.1881 0.0000 0.0000 0.0000
# 2 55.6241 80.0268 40.9891 0.0000 0.0000 0.0000
# 3 69.1881 40.9891 77.2170 0.0000 0.0000 0.0000
# 4 0.0000 0.0000 0.0000 20.3001 0.0000 0.0000
# 5 0.0000 0.0000 0.0000 0.0000 33.2749 0.0000
# 6 0.0000 0.0000 0.0000 0.0000 0.0000 16.5495
#
#
#
# Elastic Compliance Matrix: (Units=1/GPa)
#
#
# Indices 1 2 3 4 5 6 
#
# 1 0.008414 -0.002729 -0.006090 0.000000 0.000000 0.000000
# 2 -0.002729 0.018047 -0.007135 0.000000 0.000000 0.000000
# 3 -0.006090 -0.007135 0.022195 0.000000 0.000000 0.000000
# 4 0.000000 0.000000 0.000000 0.049261 0.000000 0.000000
# 5 0.000000 0.000000 0.000000 0.000000 0.030053 0.000000
# 6 0.000000 0.000000 0.000000 0.000000 0.000000 0.060425
#
#
# Mechanical properties :
#
#
# Convention : Reuss Voigt Hill
#
# Bulk Modulus (GPa) = 59.70960 75.09167 67.40063
# Shear Modulus (GPa) = 22.13527 25.91964 24.02746
#
# Velocity S-wave (km/s) = 3.54158 3.83238 3.68984
# Velocity P-wave (km/s) = 7.11039 7.88244 7.50635
#
# Compressibility (1/GPa) = 0.01674773
#
# Stress axis : x y z
#
# Youngs Moduli (GPa) = 118.85625 55.41143 45.05524
#
# Poissons Ratio (x) = 0.15119 0.27440
# Poissons Ratio (y) = 0.32431 0.32147
# Poissons Ratio (z) = 0.72387 0.39536
#
# Static dielectric constant tensor:
#      x y z
#    x 4.024150 0.000000 0.000000 
#    y 0.000000 3.004500 0.000000 
#    z 0.000000 0.000000 3.246510 
# 
# 
# High freq. dielectric constant tensor:
#      x y z
#    x 1.711710 0.000000 0.000000 
#    y 0.000000 1.626330 0.000000 
#    z 0.000000 0.000000 1.678930 
# 
# From -- ./inp_files/2872.got.cif
#   From: 2010.03.12/outbox.cif.g09.slc.cpg/sg57_2_cif.got.tgz:2872.got - 2010.04.16 15:48:40.
