data_PCOD8230937
_publ_section_title
;
Structure prediction by ZEFSAII (Michael W. Deem and Ramdas Pophale) SiO2 
 PCOD8230937
Probable space group: P B C M
;
_chemical_formula_sum "Si O2"
_cell_formula_units_Z 64
_cell_length_a 15.952573
_cell_length_b 24.077710
_cell_length_c 9.495812
_cell_angle_alpha 90.000000
_cell_angle_beta 90.000000
_cell_angle_gamma 90.000000
_cell_volume 3647.354934
_symmetry_space_group_name_H-M "P B C M"
_symmetry_group_IT_number 57
_symmetry_cell_setting 'orthorhombic'
loop_
_space_group_symop_operation_xyz
x,y,z
-x,-y,1/2+z
x,1/2-y,-z
-x,1/2+y,1/2-z
-x,-y,-z
x,y,1/2-z
-x,1/2+y,z
x,1/2-y,1/2+z
loop_
_atom_site_type_symbol
_atom_site_label
_atom_site_fract_x
_atom_site_fract_y
_atom_site_fract_z
Si Si1 0.041706 0.918509 0.914762
Si Si2 0.890810 0.536861 0.913304
Si Si3 0.542533 0.545906 0.908638
Si Si4 0.867311 0.305514 0.915731
Si Si5 0.321207 0.799141 0.593690
Si Si6 0.511244 0.359671 0.595558
Si Si7 0.656285 0.696280 0.411715
Si Si8 0.283155 0.092458 0.588502
O O1 0.021237 0.916000 0.750000
O O2 0.081886 0.860118 0.964942
O O3 0.102916 0.970908 0.948085
O O4 0.955716 0.926793 0.997709
O O5 0.910583 0.547304 0.750000
O O6 0.799485 0.558907 0.955179
O O7 0.513997 0.536502 0.750000
O O8 0.642884 0.546929 0.924926
O O9 0.500000 0.500000 0.000000
O O10 0.506630 0.603765 0.960921
O O11 0.880278 0.294367 0.750000
O O12 0.770614 0.319981 0.953975
O O13 0.896490 0.250000 0.000000
O O14 0.355791 0.750000 0.500000
O O15 0.313730 0.775105 0.750000
O O16 0.390808 0.846274 0.584350
O O17 0.496946 0.388428 0.750000
O O18 0.445250 0.308778 0.585395
O O19 0.683633 0.750000 0.500000
O O20 0.687720 0.701733 0.250000
O O21 0.701672 0.643269 0.482249
O O22 0.278908 0.114701 0.750000
#
# Coordination Sequence:
#
# PCOD8230937 Si02
#       8
#     8   8   8   8   8   8   8   8
#     4   9  18  33  53  77 102 128 159 198 247 298
#     4   9  18  34  56  78  98 124 162 205 247 295
#     4  10  20  33  49  69  96 129 163 201 243 288
#     4   9  18  32  50  73 103 136 167 200 242 294
#     4   9  17  29  46  68  95 127 161 197 234 277
#     4   9  18  31  47  68  94 127 166 204 242 285
#     4  10  19  31  49  72  99 131 167 208 251 296
#     4   9  19  35  53  73  98 130 166 205 249 296
#
# _framework density 17.546962000000001
#
# number of rings (size 3 to 8) (size 9 to 14) (size 15 to 20)
#    0.000    2.750    0.000    1.125    0.000    3.500 
#    0.000    4.375    0.000    4.500    0.000    0.000 
#    0.000    0.000    0.000    0.000    0.000    0.000 
#
# Total GULP energy -793156.852617 kJ/mol
# GULP energy per Si atom -12393.075822 kJ/mol
# Density = 1.750702 g / cm^3
# Si number density = 17.546962 Si / 1000 Ang^3
#
#
#
# Elastic Constant Matrix: (Units=GPa)
#
#
# Indices 1 2 3 4 5 6 
#
# 1 101.5464 64.6311 56.6756 0.0000 0.0000 0.0000
# 2 64.6311 103.6316 58.5260 0.0000 0.0000 0.0000
# 3 56.6756 58.5260 97.9055 0.0000 0.0000 0.0000
# 4 0.0000 0.0000 0.0000 33.5896 0.0000 0.0000
# 5 0.0000 0.0000 0.0000 0.0000 22.7742 0.0000
# 6 0.0000 0.0000 0.0000 0.0000 0.0000 21.5627
#
#
#
# Elastic Compliance Matrix: (Units=1/GPa)
#
#
# Indices 1 2 3 4 5 6 
#
# 1 0.018194 -0.008151 -0.005660 0.000000 0.000000 0.000000
# 2 -0.008151 0.018219 -0.006173 0.000000 0.000000 0.000000
# 3 -0.005660 -0.006173 0.017180 0.000000 0.000000 0.000000
# 4 0.000000 0.000000 0.000000 0.029771 0.000000 0.000000
# 5 0.000000 0.000000 0.000000 0.000000 0.043909 0.000000
# 6 0.000000 0.000000 0.000000 0.000000 0.000000 0.046376
#
#
# Mechanical properties :
#
#
# Convention : Reuss Voigt Hill
#
# Bulk Modulus (GPa) = 73.38453 73.63878 73.51165
# Shear Modulus (GPa) = 22.91905 23.80202 23.36054
#
# Velocity S-wave (km/s) = 3.61800 3.68703 3.65268
# Velocity P-wave (km/s) = 7.70492 7.75780 7.73140
#
# Compressibility (1/GPa) = 0.01362685
#
# Stress axis : x y z
#
# Youngs Moduli (GPa) = 54.96212 54.88849 58.20617
#
# Poissons Ratio (x) = 0.44737 0.32945
# Poissons Ratio (y) = 0.44797 0.35928
# Poissons Ratio (z) = 0.31109 0.33880
#
# Static dielectric constant tensor:
#      x y z
#    x 3.210200 0.000000 0.000000 
#    y 0.000000 2.732720 0.000000 
#    z 0.000000 0.000000 3.262980 
# 
# 
# High freq. dielectric constant tensor:
#      x y z
#    x 1.670380 0.000000 0.000000 
#    y 0.000000 1.664840 0.000000 
#    z 0.000000 0.000000 1.686690 
# 
# From -- ./inp_files/5620.got.cif
#   From: 2010.03.12/outbox.cif.g09.slc.cpg/sg57_3_cif.got.tgz:5620.got - 2010.04.16 15:48:40.
