data_PCOD8230018
_publ_section_title
;
Structure prediction by ZEFSAII (Michael W. Deem and Ramdas Pophale) SiO2 
 PCOD8230018
Probable space group: P B C M
;
_chemical_formula_sum "Si O2"
_cell_formula_units_Z 64
_cell_length_a 15.445433
_cell_length_b 23.844233
_cell_length_c 8.856813
_cell_angle_alpha 90.000000
_cell_angle_beta 90.000000
_cell_angle_gamma 90.000000
_cell_volume 3261.826976
_symmetry_space_group_name_H-M "P B C M"
_symmetry_group_IT_number 57
_symmetry_cell_setting 'orthorhombic'
loop_
_space_group_symop_operation_xyz
x,y,z
-x,-y,1/2+z
x,1/2-y,-z
-x,1/2+y,1/2-z
-x,-y,-z
x,y,1/2-z
-x,1/2+y,z
x,1/2-y,1/2+z
loop_
_atom_site_type_symbol
_atom_site_label
_atom_site_fract_x
_atom_site_fract_y
_atom_site_fract_z
Si Si1 0.248250 0.809205 0.072915
Si Si2 0.914029 0.386179 0.072496
Si Si3 0.593466 0.120343 0.927358
Si Si4 0.347537 0.999336 0.429456
Si Si5 0.753570 0.689878 0.929598
Si Si6 0.153085 0.495959 0.571342
Si Si7 0.909797 0.624517 0.428713
Si Si8 0.402179 0.389188 0.073264
O O1 0.255383 0.800148 0.250000
O O2 0.170933 0.851163 0.031502
O O3 0.337769 0.835039 0.005608
O O4 0.228376 0.750000 0.000000
O O5 0.934332 0.384189 0.250000
O O6 0.899656 0.449877 0.013506
O O7 0.994065 0.359259 0.981951
O O8 0.610451 0.117313 0.750000
O O9 0.611025 0.058108 0.992204
O O10 0.495254 0.139172 0.965345
O O11 0.349419 0.002411 0.250000
O O12 0.250050 0.003147 0.493733
O O13 0.401660 0.051085 0.492657
O O14 0.757539 0.694408 0.750000
O O15 0.674729 0.650523 0.985400
O O16 0.735525 0.750000 0.000000
O O17 0.843465 0.666162 0.991202
O O18 0.158220 0.498843 0.750000
O O19 0.107385 0.439104 0.516095
O O20 0.900048 0.631453 0.250000
O O21 0.392979 0.399918 0.250000
#
# Coordination Sequence:
#
# PCOD8230018 Si02
#       8
#     8   8   8   8   8   8   8   8
#     4  10  21  38  59  80 108 148 190 232 274 325
#     4  10  20  37  59  83 113 151 191 227 278 338
#     4   9  18  35  59  84 113 151 187 222 273 336
#     4  10  17  32  59  85 113 150 187 222 272 339
#     4  11  24  41  59  80 110 149 191 236 281 330
#     4   9  17  32  57  85 112 146 185 226 274 334
#     4  11  22  37  59  87 116 144 183 233 284 337
#     4  10  21  36  56  86 118 145 181 230 282 330
#
# _framework density 19.620905
#
# number of rings (size 3 to 8) (size 9 to 14) (size 15 to 20)
#    0.000    2.000    2.500    1.500    0.000    2.000 
#    0.000    3.750    0.000    0.000    0.000    0.000 
#    0.000    0.000    0.000    0.000    0.000    0.000 
#
# Total GULP energy -793649.341533 kJ/mol
# GULP energy per Si atom -12400.770961 kJ/mol
# Density = 1.957625 g / cm^3
# Si number density = 19.620905 Si / 1000 Ang^3
#
#
#
# Elastic Constant Matrix: (Units=GPa)
#
#
# Indices 1 2 3 4 5 6 
#
# 1 114.3720 20.9000 25.9287 0.0000 0.0000 0.0000
# 2 20.9000 97.8352 24.2697 0.0000 0.0000 0.0000
# 3 25.9287 24.2697 35.1898 0.0000 0.0000 0.0000
# 4 0.0000 0.0000 0.0000 28.5680 0.0000 0.0000
# 5 0.0000 0.0000 0.0000 0.0000 19.2178 0.0000
# 6 0.0000 0.0000 0.0000 0.0000 0.0000 15.1766
#
#
#
# Elastic Compliance Matrix: (Units=1/GPa)
#
#
# Indices 1 2 3 4 5 6 
#
# 1 0.010509 -0.000391 -0.007474 0.000000 0.000000 0.000000
# 2 -0.000391 0.012345 -0.008226 0.000000 0.000000 0.000000
# 3 -0.007474 -0.008226 0.039598 0.000000 0.000000 0.000000
# 4 0.000000 0.000000 0.000000 0.035004 0.000000 0.000000
# 5 0.000000 0.000000 0.000000 0.000000 0.052035 0.000000
# 6 0.000000 0.000000 0.000000 0.000000 0.000000 0.065891
#
#
# Mechanical properties :
#
#
# Convention : Reuss Voigt Hill
#
# Bulk Modulus (GPa) = 33.03581 43.28822 38.16201
# Shear Modulus (GPa) = 19.40580 24.34571 21.87575
#
# Velocity S-wave (km/s) = 3.14831 3.52633 3.34267
# Velocity P-wave (km/s) = 5.48538 6.22014 5.86428
#
# Compressibility (1/GPa) = 0.03027018
#
# Stress axis : x y z
#
# Youngs Moduli (GPa) = 95.15481 81.00128 25.25398
#
# Poissons Ratio (x) = 0.03167 0.18874
# Poissons Ratio (y) = 0.03721 0.20775
# Poissons Ratio (z) = 0.71116 0.66634
#
# Static dielectric constant tensor:
#      x y z
#    x 3.747080 0.000000 0.000000 
#    y 0.000000 3.634790 0.000000 
#    z 0.000000 0.000000 3.215450 
# 
# 
# High freq. dielectric constant tensor:
#      x y z
#    x 1.781560 0.000000 0.000000 
#    y 0.000000 1.763540 0.000000 
#    z 0.000000 0.000000 1.732430 
# 
# From -- ./inp_files/5657.got.cif
#   From: 2010.03.12/outbox.cif.g09.slc.cpg/sg57_3_cif.got.tgz:5657.got - 2010.04.16 15:48:40.
