data_PCOD8230505
_publ_section_title
;
Structure prediction by ZEFSAII (Michael W. Deem and Ramdas Pophale) SiO2 
 PCOD8230505
Probable space group: P B C M
;
_chemical_formula_sum "Si O2"
_cell_formula_units_Z 64
_cell_length_a 9.456475
_cell_length_b 18.433829
_cell_length_c 19.013599
_cell_angle_alpha 90.000000
_cell_angle_beta 90.000000
_cell_angle_gamma 90.000000
_cell_volume 3314.432383
_symmetry_space_group_name_H-M "P B C M"
_symmetry_group_IT_number 57
_symmetry_cell_setting 'orthorhombic'
loop_
_space_group_symop_operation_xyz
x,y,z
-x,-y,1/2+z
x,1/2-y,-z
-x,1/2+y,1/2-z
-x,-y,-z
x,y,1/2-z
-x,1/2+y,z
x,1/2-y,1/2+z
loop_
_atom_site_type_symbol
_atom_site_label
_atom_site_fract_x
_atom_site_fract_y
_atom_site_fract_z
Si Si1 0.119460 0.089407 0.535430
Si Si2 0.639299 0.690794 0.946745
Si Si3 0.820371 0.764971 0.670025
Si Si4 0.759825 0.462811 0.170975
Si Si5 0.577111 0.065053 0.540617
Si Si6 0.155772 0.925885 0.539090
Si Si7 0.992815 0.629962 0.673151
Si Si8 0.977575 0.591547 0.169355
O O1 0.231971 0.150269 0.513195
O O2 0.106747 0.086271 0.619768
O O3 0.970136 0.113941 0.502604
O O4 0.163767 0.009360 0.511744
O O5 0.692530 0.731864 0.876337
O O6 0.523755 0.629060 0.931334
O O7 0.576007 0.750000 0.000000
O O8 0.762718 0.769119 0.750000
O O9 0.961398 0.715311 0.665268
O O10 0.874178 0.843411 0.644421
O O11 0.695608 0.472293 0.250000
O O12 0.640642 0.469690 0.112030
O O13 0.884960 0.520221 0.157559
O O14 0.839347 0.384989 0.162320
O O15 0.691825 0.102649 0.487373
O O16 0.500000 0.000000 0.500000
O O17 0.120502 0.914212 0.621684
O O18 0.947289 0.601061 0.750000
O O19 0.026334 0.602172 0.250000
#
# Coordination Sequence:
#
# PCOD8230505 Si02
#       8
#     8   8   8   8   8   8   8   8
#     4  10  18  33  59  86 109 146 195 243 302 343
#     4  11  24  40  58  85 119 163 204 243 294 372
#     4   9  20  37  61  90 120 152 195 255 309 355
#     4  10  20  37  63  89 115 154 204 250 299 362
#     4  12  25  40  57  86 130 165 199 248 308 362
#     4  11  19  34  58  87 116 149 191 250 304 350
#     4   9  16  31  55  85 114 139 185 245 294 345
#     4  10  20  36  64  95 118 150 203 261 311 359
#
# _framework density 19.30949
#
# number of rings (size 3 to 8) (size 9 to 14) (size 15 to 20)
#    0.000    1.750    3.750    1.500    1.750    0.500 
#    2.250    1.250    0.000    0.750    0.000    0.000 
#    0.000    0.000    0.000    0.000    0.000    0.000 
#
# Total GULP energy -793065.364588 kJ/mol
# GULP energy per Si atom -12391.646322 kJ/mol
# Density = 1.926554 g / cm^3
# Si number density = 19.309490 Si / 1000 Ang^3
#
#
#
# Elastic Constant Matrix: (Units=GPa)
#
#
# Indices 1 2 3 4 5 6 
#
# 1 87.8886 24.1422 46.9900 0.0000 0.0000 0.0000
# 2 24.1422 59.4323 28.4940 0.0000 0.0000 0.0000
# 3 46.9900 28.4940 117.1707 0.0000 0.0000 0.0000
# 4 0.0000 0.0000 0.0000 24.4768 0.0000 0.0000
# 5 0.0000 0.0000 0.0000 0.0000 33.3134 0.0000
# 6 0.0000 0.0000 0.0000 0.0000 0.0000 28.0164
#
#
#
# Elastic Compliance Matrix: (Units=1/GPa)
#
#
# Indices 1 2 3 4 5 6 
#
# 1 0.015160 -0.003671 -0.005187 0.000000 0.000000 0.000000
# 2 -0.003671 0.019936 -0.003376 0.000000 0.000000 0.000000
# 3 -0.005187 -0.003376 0.011436 0.000000 0.000000 0.000000
# 4 0.000000 0.000000 0.000000 0.040855 0.000000 0.000000
# 5 0.000000 0.000000 0.000000 0.000000 0.030018 0.000000
# 6 0.000000 0.000000 0.000000 0.000000 0.000000 0.035693
#
#
# Mechanical properties :
#
#
# Convention : Reuss Voigt Hill
#
# Bulk Modulus (GPa) = 45.32423 51.52714 48.42569
# Shear Modulus (GPa) = 27.03883 28.15235 27.59559
#
# Velocity S-wave (km/s) = 3.74610 3.82246 3.78447
# Velocity P-wave (km/s) = 6.49881 6.79885 6.65052
#
# Compressibility (1/GPa) = 0.02206325
#
# Stress axis : x y z
#
# Youngs Moduli (GPa) = 65.96453 50.16150 87.44636
#
# Poissons Ratio (x) = 0.18416 0.45357
# Poissons Ratio (y) = 0.24218 0.29519
# Poissons Ratio (z) = 0.34215 0.16933
#
# Static dielectric constant tensor:
#      x y z
#    x 3.346140 0.000000 0.000000 
#    y 0.000000 3.562720 0.000000 
#    z 0.000000 0.000000 3.729970 
# 
# 
# High freq. dielectric constant tensor:
#      x y z
#    x 1.715490 0.000000 0.000000 
#    y 0.000000 1.745270 0.000000 
#    z 0.000000 0.000000 1.766800 
# 
# From -- ./inp_files/24615.got.cif
#   From: 2010.03.12/outbox.cif.g09.slc.cpg/sg57_13_cif.got.tgz:24615.got - 2010.04.16 15:48:40.
