data_PCOD8230421
_publ_section_title
;
Structure prediction by ZEFSAII (Michael W. Deem and Ramdas Pophale) SiO2 
 PCOD8230421
Probable space group: P B C M
;
_chemical_formula_sum "Si O2"
_cell_formula_units_Z 64
_cell_length_a 15.117345
_cell_length_b 24.177925
_cell_length_c 8.725225
_cell_angle_alpha 90.000000
_cell_angle_beta 90.000000
_cell_angle_gamma 90.000000
_cell_volume 3189.122382
_symmetry_space_group_name_H-M "P B C M"
_symmetry_group_IT_number 57
_symmetry_cell_setting 'orthorhombic'
loop_
_space_group_symop_operation_xyz
x,y,z
-x,-y,1/2+z
x,1/2-y,-z
-x,1/2+y,1/2-z
-x,-y,-z
x,y,1/2-z
-x,1/2+y,z
x,1/2-y,1/2+z
loop_
_atom_site_type_symbol
_atom_site_label
_atom_site_fract_x
_atom_site_fract_y
_atom_site_fract_z
Si Si1 0.847576 0.026008 0.075730
Si Si2 0.197924 0.692801 0.071996
Si Si3 0.951063 0.376360 0.067142
Si Si4 0.625488 0.128967 0.072383
Si Si5 0.531276 0.808383 0.069185
Si Si6 0.661230 0.017798 0.929512
Si Si7 0.138686 0.099533 0.578097
Si Si8 0.333184 0.402470 0.432338
O O1 0.819724 0.042429 0.250000
O O2 0.888226 0.964909 0.072594
O O3 0.919845 0.067684 0.013085
O O4 0.763159 0.028412 0.966556
O O5 0.178394 0.701363 0.250000
O O6 0.272649 0.646410 0.044460
O O7 0.231309 0.750000 0.000000
O O8 0.107585 0.674964 0.988283
O O9 0.945917 0.382643 0.250000
O O10 0.053563 0.367398 0.011196
O O11 0.601257 0.128044 0.250000
O O12 0.564579 0.174377 0.991244
O O13 0.605996 0.068707 0.001213
O O14 0.527401 0.803284 0.250000
O O15 0.603878 0.852996 0.015532
O O16 0.560168 0.750000 0.000000
O O17 0.644297 0.017211 0.750000
O O18 0.628631 0.959717 0.000053
O O19 0.152137 0.120386 0.750000
O O20 0.234329 0.109438 0.497478
O O21 0.328586 0.410121 0.250000
#
# Coordination Sequence:
#
# PCOD8230421 Si02
#       8
#     8   8   8   8   8   8   8   8
#     4  10  18  32  52  79 119 159 193 232 284 345
#     4  11  24  40  58  80 112 155 196 242 296 352
#     4  11  20  32  54  83 114 151 196 242 284 340
#     4  11  23  40  63  88 120 155 191 239 296 358
#     4  11  24  42  66  91 116 151 197 247 296 350
#     4  11  21  34  58  91 124 156 195 240 293 353
#     4   8  17  33  55  82 114 152 193 237 287 337
#     4   9  20  41  63  85 120 160 197 242 297 353
#
# _framework density 20.068216
#
# number of rings (size 3 to 8) (size 9 to 14) (size 15 to 20)
#    0.000    1.750    1.250    4.500    0.000    4.000 
#    0.000    6.250    0.000    1.500    0.000    0.000 
#    0.000    0.000    0.000    0.000    0.000    0.000 
#
# Total GULP energy -793529.596008 kJ/mol
# GULP energy per Si atom -12398.899938 kJ/mol
# Density = 2.002254 g / cm^3
# Si number density = 20.068216 Si / 1000 Ang^3
#
#
#
# Elastic Constant Matrix: (Units=GPa)
#
#
# Indices 1 2 3 4 5 6 
#
# 1 67.6462 44.3890 26.6779 0.0000 0.0000 0.0000
# 2 44.3890 122.1660 44.8876 0.0000 0.0000 0.0000
# 3 26.6779 44.8876 75.3321 0.0000 0.0000 0.0000
# 4 0.0000 0.0000 0.0000 34.2123 0.0000 0.0000
# 5 0.0000 0.0000 0.0000 0.0000 21.2610 0.0000
# 6 0.0000 0.0000 0.0000 0.0000 0.0000 29.2805
#
#
#
# Elastic Compliance Matrix: (Units=1/GPa)
#
#
# Indices 1 2 3 4 5 6 
#
# 1 0.020125 -0.006009 -0.003546 0.000000 0.000000 0.000000
# 2 -0.006009 0.012274 -0.005186 0.000000 0.000000 0.000000
# 3 -0.003546 -0.005186 0.017620 0.000000 0.000000 0.000000
# 4 0.000000 0.000000 0.000000 0.029229 0.000000 0.000000
# 5 0.000000 0.000000 0.000000 0.000000 0.047035 0.000000
# 6 0.000000 0.000000 0.000000 0.000000 0.000000 0.034152
#
#
# Mechanical properties :
#
#
# Convention : Reuss Voigt Hill
#
# Bulk Modulus (GPa) = 48.69266 55.22814 51.96040
# Shear Modulus (GPa) = 25.41119 26.89675 26.15397
#
# Velocity S-wave (km/s) = 3.56229 3.66494 3.61398
# Velocity P-wave (km/s) = 6.42153 6.74455 6.58502
#
# Compressibility (1/GPa) = 0.02053698
#
# Stress axis : x y z
#
# Youngs Moduli (GPa) = 49.69056 81.46988 56.75246
#
# Poissons Ratio (x) = 0.48958 0.20125
# Poissons Ratio (y) = 0.29861 0.29431
# Poissons Ratio (z) = 0.17621 0.42249
#
# Static dielectric constant tensor:
#      x y z
#    x 3.710760 0.000000 0.000000 
#    y 0.000000 3.630730 0.000000 
#    z 0.000000 0.000000 3.566550 
# 
# 
# High freq. dielectric constant tensor:
#      x y z
#    x 1.782530 0.000000 0.000000 
#    y 0.000000 1.775170 0.000000 
#    z 0.000000 0.000000 1.776790 
# 
# From -- ./inp_files/5579.got.cif
#   From: 2010.03.12/outbox.cif.g09.slc.cpg/sg57_3_cif.got.tgz:5579.got - 2010.04.16 15:48:40.
