data_PCOD8230700
_publ_section_title
;
Structure prediction by ZEFSAII (Michael W. Deem and Ramdas Pophale) SiO2 
 PCOD8230700
Probable space group: P B C M
;
_chemical_formula_sum "Si O2"
_cell_formula_units_Z 56
_cell_length_a 14.070852
_cell_length_b 23.862971
_cell_length_c 9.240012
_cell_angle_alpha 90.000000
_cell_angle_beta 90.000000
_cell_angle_gamma 90.000000
_cell_volume 3102.540388
_symmetry_space_group_name_H-M "P B C M"
_symmetry_group_IT_number 57
_symmetry_cell_setting 'orthorhombic'
loop_
_space_group_symop_operation_xyz
x,y,z
-x,-y,1/2+z
x,1/2-y,-z
-x,1/2+y,1/2-z
-x,-y,-z
x,y,1/2-z
-x,1/2+y,z
x,1/2-y,1/2+z
loop_
_atom_site_type_symbol
_atom_site_label
_atom_site_fract_x
_atom_site_fract_y
_atom_site_fract_z
Si Si1 0.199224 0.027728 0.916946
Si Si2 0.683772 0.632351 0.918003
Si Si3 0.840413 0.695706 0.417297
Si Si4 0.177040 0.595789 0.081465
Si Si5 0.285658 0.692665 0.921350
Si Si6 0.040036 0.412790 0.915388
Si Si7 0.498969 0.304972 0.416715
O O1 0.174442 0.035222 0.750000
O O2 0.286187 0.068923 0.962793
O O3 0.229668 0.963637 0.948673
O O4 0.101383 0.042367 0.996842
O O5 0.707494 0.643271 0.750000
O O6 0.571984 0.642945 0.949565
O O7 0.741350 0.676507 0.013298
O O8 0.878929 0.750000 0.500000
O O9 0.822398 0.709543 0.250000
O O10 0.920585 0.649359 0.439944
O O11 0.185126 0.613507 0.250000
O O12 0.068343 0.587592 0.033020
O O13 0.222213 0.642526 0.980539
O O14 0.270106 0.699217 0.750000
O O15 0.394571 0.677683 0.962061
O O16 0.254848 0.750000 0.000000
O O17 0.047777 0.431473 0.750000
O O18 0.463875 0.250000 0.500000
O O19 0.496445 0.288177 0.250000
#
# Coordination Sequence:
#
# PCOD8230700 Si02
#       7
#     8   8   8   8   8   8   8
#     4   9  18  32  52  76 102 131 165 203 244 291
#     4   9  17  31  50  73 100 130 161 197 242 293
#     4  10  19  30  44  67  98 129 160 199 244 292
#     4  10  20  35  53  74 100 132 167 204 246 292
#     4  10  21  37  55  75  98 127 163 206 249 292
#     4   9  19  33  49  70  99 132 168 208 246 287
#     4   9  18  32  51  73  98 127 162 201 244 293
#
# _framework density 18.049726
#
# number of rings (size 3 to 8) (size 9 to 14) (size 15 to 20)
#    0.000    2.571    0.000    1.714    0.000    4.571 
#    0.000    2.143    0.000    0.000    0.000    0.000 
#    0.000    0.000    0.000    0.000    0.000    0.000 
#
# Total GULP energy -694340.434027 kJ/mol
# GULP energy per Si atom -12398.936322 kJ/mol
# Density = 1.800864 g / cm^3
# Si number density = 18.049726 Si / 1000 Ang^3
#
#
#
# Elastic Constant Matrix: (Units=GPa)
#
#
# Indices 1 2 3 4 5 6 
#
# 1 79.0977 55.5517 36.5802 0.0000 0.0000 0.0000
# 2 55.5517 115.4441 50.9605 0.0000 0.0000 0.0000
# 3 36.5802 50.9605 70.6657 0.0000 0.0000 0.0000
# 4 0.0000 0.0000 0.0000 27.4134 0.0000 0.0000
# 5 0.0000 0.0000 0.0000 0.0000 24.8963 0.0000
# 6 0.0000 0.0000 0.0000 0.0000 0.0000 22.3692
#
#
#
# Elastic Compliance Matrix: (Units=1/GPa)
#
#
# Indices 1 2 3 4 5 6 
#
# 1 0.020264 -0.007512 -0.005073 0.000000 0.000000 0.000000
# 2 -0.007512 0.015492 -0.007284 0.000000 0.000000 0.000000
# 3 -0.005073 -0.007284 0.022029 0.000000 0.000000 0.000000
# 4 0.000000 0.000000 0.000000 0.036478 0.000000 0.000000
# 5 0.000000 0.000000 0.000000 0.000000 0.040167 0.000000
# 6 0.000000 0.000000 0.000000 0.000000 0.000000 0.044704
#
#
# Mechanical properties :
#
#
# Convention : Reuss Voigt Hill
#
# Bulk Modulus (GPa) = 55.40262 61.26580 58.33421
# Shear Modulus (GPa) = 22.23328 23.07680 22.65504
#
# Velocity S-wave (km/s) = 3.51348 3.57951 3.54665
# Velocity P-wave (km/s) = 6.87171 7.14845 7.01145
#
# Compressibility (1/GPa) = 0.01804969
#
# Stress axis : x y z
#
# Youngs Moduli (GPa) = 49.34783 64.54889 45.39374
#
# Poissons Ratio (x) = 0.48489 0.23026
# Poissons Ratio (y) = 0.37070 0.33063
# Poissons Ratio (z) = 0.25032 0.47014
#
# Static dielectric constant tensor:
#      x y z
#    x 3.324200 0.000000 0.000000 
#    y 0.000000 3.450460 0.000000 
#    z 0.000000 0.000000 3.376610 
# 
# 
# High freq. dielectric constant tensor:
#      x y z
#    x 1.687530 0.000000 0.000000 
#    y 0.000000 1.698370 0.000000 
#    z 0.000000 0.000000 1.700800 
# 
# From -- ./inp_files/5274.got.cif
#   From: 2010.03.12/outbox.cif.g09.slc.cpg/sg57_3_cif.got.tgz:5274.got - 2010.04.16 15:48:40.
