data_PCOD8230258
_publ_section_title
;
Structure prediction by ZEFSAII (Michael W. Deem and Ramdas Pophale) SiO2 
 PCOD8230258
Probable space group: P B C M
;
_chemical_formula_sum "Si O2"
_cell_formula_units_Z 48
_cell_length_a 10.253410
_cell_length_b 29.580087
_cell_length_c 9.036254
_cell_angle_alpha 90.000000
_cell_angle_beta 90.000000
_cell_angle_gamma 90.000000
_cell_volume 2740.666559
_symmetry_space_group_name_H-M "P B C M"
_symmetry_group_IT_number 57
_symmetry_cell_setting 'orthorhombic'
loop_
_space_group_symop_operation_xyz
x,y,z
-x,-y,1/2+z
x,1/2-y,-z
-x,1/2+y,1/2-z
-x,-y,-z
x,y,1/2-z
-x,1/2+y,z
x,1/2-y,1/2+z
loop_
_atom_site_type_symbol
_atom_site_label
_atom_site_fract_x
_atom_site_fract_y
_atom_site_fract_z
Si Si1 0.379163 0.524645 0.926683
Si Si2 0.117336 0.023887 0.079368
Si Si3 0.014522 0.380897 0.580261
Si Si4 0.020907 0.206832 0.585111
Si Si5 0.714622 0.113582 0.425386
Si Si6 0.710407 0.205412 0.918558
O O1 0.394886 0.527318 0.750000
O O2 0.254586 0.495132 0.976385
O O3 0.500000 0.500000 0.000000
O O4 0.367474 0.574685 0.993898
O O5 0.097703 0.013065 0.250000
O O6 0.110597 0.077426 0.048311
O O7 0.000000 0.000000 0.000000
O O8 0.014864 0.365745 0.750000
O O9 0.071509 0.339251 0.488038
O O10 0.866776 0.393912 0.534816
O O11 0.078789 0.250000 0.500000
O O12 0.076162 0.208666 0.750000
O O13 0.865630 0.207805 0.581400
O O14 0.689151 0.112221 0.250000
O O15 0.664697 0.161365 0.490334
O O16 0.657733 0.203312 0.750000
O O17 0.653850 0.250000 0.000000
#
# Coordination Sequence:
#
# PCOD8230258 Si02
#       6
#     8   8   8   8   8   8
#     4  11  23  37  53  74 103 138 176 215 260 311
#     4  10  20  34  53  76 101 132 170 212 255 302
#     4   9  17  29  46  70  98 128 163 206 253 300
#     4   9  16  25  39  62  94 130 163 199 245 297
#     4  10  18  30  49  71  99 133 168 208 258 305
#     4   9  16  26  41  65  97 130 166 205 250 301
#
# _framework density 17.513987
#
# number of rings (size 3 to 8) (size 9 to 14) (size 15 to 20)
#    0.000    2.333    1.667    2.000    0.000    6.000 
#    0.000    0.000    0.000    0.000    0.000    1.167 
#    0.000    2.667    0.000    0.000    0.000    0.000 
#
# Total GULP energy -595192.357377 kJ/mol
# GULP energy per Si atom -12399.840779 kJ/mol
# Density = 1.747412 g / cm^3
# Si number density = 17.513987 Si / 1000 Ang^3
#
#
#
# Elastic Constant Matrix: (Units=GPa)
#
#
# Indices 1 2 3 4 5 6 
#
# 1 63.3073 51.8905 37.3680 0.0000 0.0000 0.0000
# 2 51.8905 149.6282 73.1512 0.0000 0.0000 0.0000
# 3 37.3680 73.1512 109.6363 0.0000 0.0000 0.0000
# 4 0.0000 0.0000 0.0000 39.7761 0.0000 0.0000
# 5 0.0000 0.0000 0.0000 0.0000 16.1517 0.0000
# 6 0.0000 0.0000 0.0000 0.0000 0.0000 14.0092
#
#
#
# Elastic Compliance Matrix: (Units=1/GPa)
#
#
# Indices 1 2 3 4 5 6 
#
# 1 0.023061 -0.006166 -0.003746 0.000000 0.000000 0.000000
# 2 -0.006166 0.011567 -0.005616 0.000000 0.000000 0.000000
# 3 -0.003746 -0.005616 0.014145 0.000000 0.000000 0.000000
# 4 0.000000 0.000000 0.000000 0.025141 0.000000 0.000000
# 5 0.000000 0.000000 0.000000 0.000000 0.061913 0.000000
# 6 0.000000 0.000000 0.000000 0.000000 0.000000 0.071382
#
#
# Mechanical properties :
#
#
# Convention : Reuss Voigt Hill
#
# Bulk Modulus (GPa) = 56.44328 71.93235 64.18781
# Shear Modulus (GPa) = 20.47743 24.66489 22.57116
#
# Velocity S-wave (km/s) = 3.42307 3.75680 3.59381
# Velocity P-wave (km/s) = 6.92248 7.74458 7.34504
#
# Compressibility (1/GPa) = 0.01771690
#
# Stress axis : x y z
#
# Youngs Moduli (GPa) = 43.36283 86.45002 70.69594
#
# Poissons Ratio (x) = 0.53307 0.26482
# Poissons Ratio (y) = 0.26738 0.39705
# Poissons Ratio (z) = 0.16243 0.48553
#
# Static dielectric constant tensor:
#      x y z
#    x 2.753920 0.000000 0.000000 
#    y 0.000000 3.379220 0.000000 
#    z 0.000000 0.000000 3.403690 
# 
# 
# High freq. dielectric constant tensor:
#      x y z
#    x 1.609310 0.000000 0.000000 
#    y 0.000000 1.695920 0.000000 
#    z 0.000000 0.000000 1.690890 
# 
# From -- ./inp_files/2035.got.cif
#   From: 2010.03.12/outbox.cif.g09.slc.cpg/sg57_2_cif.got.tgz:2035.got - 2010.04.16 15:48:40.
