data_PCOD8230960
_publ_section_title
;
Structure prediction by ZEFSAII (Michael W. Deem and Ramdas Pophale) SiO2 
 PCOD8230960
Probable space group: P B C M
;
_chemical_formula_sum "Si O2"
_cell_formula_units_Z 48
_cell_length_a 14.666106
_cell_length_b 20.641959
_cell_length_c 9.136065
_cell_angle_alpha 90.000000
_cell_angle_beta 90.000000
_cell_angle_gamma 90.000000
_cell_volume 2765.826360
_symmetry_space_group_name_H-M "P B C M"
_symmetry_group_IT_number 57
_symmetry_cell_setting 'orthorhombic'
loop_
_space_group_symop_operation_xyz
x,y,z
-x,-y,1/2+z
x,1/2-y,-z
-x,1/2+y,1/2-z
-x,-y,-z
x,y,1/2-z
-x,1/2+y,z
x,1/2-y,1/2+z
loop_
_atom_site_type_symbol
_atom_site_label
_atom_site_fract_x
_atom_site_fract_y
_atom_site_fract_z
Si Si1 0.561088 0.447711 0.579679
Si Si2 0.897077 0.684405 0.074850
Si Si3 0.303031 0.149076 0.085252
Si Si4 0.271361 0.473265 0.416950
Si Si5 0.499409 0.810550 0.583698
Si Si6 0.931898 0.550105 0.925485
O O1 0.500000 0.500000 0.500000
O O2 0.534018 0.449728 0.750000
O O3 0.669163 0.461905 0.555739
O O4 0.540035 0.376756 0.514772
O O5 0.915716 0.684574 0.250000
O O6 0.789458 0.684447 0.034460
O O7 0.937237 0.750000 0.000000
O O8 0.943219 0.621208 0.999499
O O9 0.289468 0.125755 0.250000
O O10 0.390875 0.194549 0.068061
O O11 0.323462 0.084388 0.996758
O O12 0.272159 0.452442 0.250000
O O13 0.166815 0.479974 0.467483
O O14 0.455491 0.750000 0.500000
O O15 0.467635 0.805034 0.750000
O O16 0.947484 0.554893 0.750000
O O17 0.000000 0.500000 0.000000
#
# Coordination Sequence:
#
# PCOD8230960 Si02
#       6
#     8   8   8   8   8   8
#     4  10  19  32  50  72  98 130 169 208 246 293
#     4  10  19  31  49  74 105 137 167 203 252 307
#     4   9  17  29  45  69 100 132 164 200 242 294
#     4   9  18  31  50  74  98 128 165 207 253 300
#     4  10  20  31  44  66  98 133 169 206 245 289
#     4  10  20  35  54  77 103 132 170 213 263 315
#
# _framework density 17.354669000000001
#
# number of rings (size 3 to 8) (size 9 to 14) (size 15 to 20)
#    0.000    2.333    1.667    1.500    0.000    2.667 
#    0.000    0.000    0.000    1.000    0.000    2.333 
#    0.000    0.000    0.000    0.000    0.000    0.000 
#
# Total GULP energy -594885.339101 kJ/mol
# GULP energy per Si atom -12393.444565 kJ/mol
# Density = 1.731517 g / cm^3
# Si number density = 17.354669 Si / 1000 Ang^3
#
#
#
# Elastic Constant Matrix: (Units=GPa)
#
#
# Indices 1 2 3 4 5 6 
#
# 1 51.0532 48.6577 28.1801 0.0000 0.0000 0.0000
# 2 48.6577 155.8275 61.3212 0.0000 0.0000 0.0000
# 3 28.1801 61.3212 66.3687 0.0000 0.0000 0.0000
# 4 0.0000 0.0000 0.0000 33.9786 0.0000 0.0000
# 5 0.0000 0.0000 0.0000 0.0000 17.8730 0.0000
# 6 0.0000 0.0000 0.0000 0.0000 0.0000 20.2217
#
#
#
# Elastic Compliance Matrix: (Units=1/GPa)
#
#
# Indices 1 2 3 4 5 6 
#
# 1 0.029474 -0.006723 -0.006303 0.000000 0.000000 0.000000
# 2 -0.006723 0.011617 -0.007879 0.000000 0.000000 0.000000
# 3 -0.006303 -0.007879 0.025023 0.000000 0.000000 0.000000
# 4 0.000000 0.000000 0.000000 0.029430 0.000000 0.000000
# 5 0.000000 0.000000 0.000000 0.000000 0.055950 0.000000
# 6 0.000000 0.000000 0.000000 0.000000 0.000000 0.049452
#
#
# Mechanical properties :
#
#
# Convention : Reuss Voigt Hill
#
# Bulk Modulus (GPa) = 41.14450 61.06304 51.10377
# Shear Modulus (GPa) = 19.93153 23.42069 21.67611
#
# Velocity S-wave (km/s) = 3.39260 3.67758 3.53796
# Velocity P-wave (km/s) = 6.25347 7.30031 6.79707
#
# Compressibility (1/GPa) = 0.02430458
#
# Stress axis : x y z
#
# Youngs Moduli (GPa) = 33.92817 86.07905 39.96263
#
# Poissons Ratio (x) = 0.57872 0.25188
# Poissons Ratio (y) = 0.22810 0.31487
# Poissons Ratio (z) = 0.21384 0.67822
#
# Static dielectric constant tensor:
#      x y z
#    x 3.169240 0.000000 0.000000 
#    y 0.000000 3.266280 0.000000 
#    z 0.000000 0.000000 3.252810 
# 
# 
# High freq. dielectric constant tensor:
#      x y z
#    x 1.639980 0.000000 0.000000 
#    y 0.000000 1.666550 0.000000 
#    z 0.000000 0.000000 1.675640 
# 
# From -- ./inp_files/4839.got.cif
#   From: 2010.03.12/outbox.cif.g09.slc.cpg/sg57_3_cif.got.tgz:4839.got - 2010.04.16 15:48:40.
