data_PCOD8230836
_publ_section_title
;
Structure prediction by ZEFSAII (Michael W. Deem and Ramdas Pophale) SiO2 
 PCOD8230836
Probable space group: P B C M
;
_chemical_formula_sum "Si O2"
_cell_formula_units_Z 64
_cell_length_a 14.121847
_cell_length_b 28.087506
_cell_length_c 8.872626
_cell_angle_alpha 90.000000
_cell_angle_beta 90.000000
_cell_angle_gamma 90.000000
_cell_volume 3519.304587
_symmetry_space_group_name_H-M "P B C M"
_symmetry_group_IT_number 57
_symmetry_cell_setting 'orthorhombic'
loop_
_space_group_symop_operation_xyz
x,y,z
-x,-y,1/2+z
x,1/2-y,-z
-x,1/2+y,1/2-z
-x,-y,-z
x,y,1/2-z
-x,1/2+y,z
x,1/2-y,1/2+z
loop_
_atom_site_type_symbol
_atom_site_label
_atom_site_fract_x
_atom_site_fract_y
_atom_site_fract_z
Si Si1 0.390164 0.125399 0.076241
Si Si2 0.599359 0.985125 0.925226
Si Si3 0.020457 0.200129 0.070030
Si Si4 0.712588 0.063381 0.069423
Si Si5 0.712259 0.294085 0.915080
Si Si6 0.764588 0.798542 0.925711
Si Si7 0.128570 0.872054 0.585681
Si Si8 0.580715 0.140125 0.574007
O O1 0.418462 0.135049 0.250000
O O2 0.373786 0.069638 0.049114
O O3 0.297095 0.155378 0.030747
O O4 0.470637 0.143272 0.964046
O O5 0.591615 0.998269 0.750000
O O6 0.500000 0.000000 0.000000
O O7 0.688976 0.012131 0.999745
O O8 0.005926 0.202822 0.250000
O O9 0.128275 0.190722 0.020442
O O10 0.958787 0.155093 0.002901
O O11 0.984655 0.250000 0.000000
O O12 0.713674 0.061426 0.250000
O O13 0.816514 0.082704 0.008598
O O14 0.626490 0.096904 0.018529
O O15 0.673812 0.279588 0.750000
O O16 0.788757 0.334341 0.895358
O O17 0.760786 0.250000 0.000000
O O18 0.625584 0.310411 0.020268
O O19 0.763214 0.788827 0.750000
O O20 0.725381 0.750000 0.000000
O O21 0.091897 0.888595 0.750000
O O22 0.597310 0.131771 0.750000
#
# Coordination Sequence:
#
# PCOD8230836 Si02
#       8
#     8   8   8   8   8   8   8   8
#     4  10  21  36  52  72 101 135 169 210 258 304
#     4  11  21  33  53  76 101 134 175 217 260 303
#     4   9  16  30  52  77 101 128 168 210 253 306
#     4  10  19  33  50  72 104 134 164 207 255 302
#     4  10  19  31  45  65  97 132 166 204 249 300
#     4   9  19  35  55  77 102 133 168 210 256 302
#     4   8  16  29  48  72  99 131 163 202 252 302
#     4  11  21  32  48  69  94 129 170 207 251 304
#
# _framework density 18.185411999999999
#
# number of rings (size 3 to 8) (size 9 to 14) (size 15 to 20)
#    0.000    2.250    1.250    3.375    0.000    1.500 
#    0.000    4.375    0.000    0.750    0.000    0.000 
#    0.000    0.000    0.000    0.000    0.000    0.625 
#
# Total GULP energy -793038.233176 kJ/mol
# GULP energy per Si atom -12391.222393 kJ/mol
# Density = 1.814402 g / cm^3
# Si number density = 18.185412 Si / 1000 Ang^3
#
#
#
# Elastic Constant Matrix: (Units=GPa)
#
#
# Indices 1 2 3 4 5 6 
#
# 1 85.4040 46.8411 24.9013 0.0000 0.0000 0.0000
# 2 46.8411 90.1242 32.0874 0.0000 0.0000 0.0000
# 3 24.9013 32.0874 70.1635 0.0000 0.0000 0.0000
# 4 0.0000 0.0000 0.0000 28.1486 0.0000 0.0000
# 5 0.0000 0.0000 0.0000 0.0000 16.6076 0.0000
# 6 0.0000 0.0000 0.0000 0.0000 0.0000 31.3575
#
#
#
# Elastic Compliance Matrix: (Units=1/GPa)
#
#
# Indices 1 2 3 4 5 6 
#
# 1 0.016692 -0.007844 -0.002337 0.000000 0.000000 0.000000
# 2 -0.007844 0.016939 -0.004963 0.000000 0.000000 0.000000
# 3 -0.002337 -0.004963 0.017352 0.000000 0.000000 0.000000
# 4 0.000000 0.000000 0.000000 0.035526 0.000000 0.000000
# 5 0.000000 0.000000 0.000000 0.000000 0.060214 0.000000
# 6 0.000000 0.000000 0.000000 0.000000 0.000000 0.031890
#
#
# Mechanical properties :
#
#
# Convention : Reuss Voigt Hill
#
# Bulk Modulus (GPa) = 48.31889 50.37237 49.34563
# Shear Modulus (GPa) = 23.16967 24.68019 23.92493
#
# Velocity S-wave (km/s) = 3.57330 3.68794 3.63107
# Velocity P-wave (km/s) = 6.60700 6.77451 6.69128
#
# Compressibility (1/GPa) = 0.02069584
#
# Stress axis : x y z
#
# Youngs Moduli (GPa) = 59.90737 59.03379 57.63153
#
# Poissons Ratio (x) = 0.46304 0.13469
# Poissons Ratio (y) = 0.46989 0.28603
# Poissons Ratio (z) = 0.14001 0.29299
#
# Static dielectric constant tensor:
#      x y z
#    x 3.430140 0.000000 0.000000 
#    y 0.000000 3.646390 0.000000 
#    z 0.000000 0.000000 3.315390 
# 
# 
# High freq. dielectric constant tensor:
#      x y z
#    x 1.688710 0.000000 0.000000 
#    y 0.000000 1.696610 0.000000 
#    z 0.000000 0.000000 1.695990 
# 
# From -- ./inp_files/6050.got.cif
#   From: 2010.03.12/outbox.cif.g09.slc.cpg/sg57_4_cif.got.tgz:6050.got - 2010.04.16 15:48:40.
