data_PCOD8230744
_publ_section_title
;
Structure prediction by ZEFSAII (Michael W. Deem and Ramdas Pophale) SiO2 
 PCOD8230744
Probable space group: P B C M
;
_chemical_formula_sum "Si O2"
_cell_formula_units_Z 48
_cell_length_a 11.803042
_cell_length_b 25.643961
_cell_length_c 9.222546
_cell_angle_alpha 90.000000
_cell_angle_beta 90.000000
_cell_angle_gamma 90.000000
_cell_volume 2791.450238
_symmetry_space_group_name_H-M "P B C M"
_symmetry_group_IT_number 57
_symmetry_cell_setting 'orthorhombic'
loop_
_space_group_symop_operation_xyz
x,y,z
-x,-y,1/2+z
x,1/2-y,-z
-x,1/2+y,1/2-z
-x,-y,-z
x,y,1/2-z
-x,1/2+y,z
x,1/2-y,1/2+z
loop_
_atom_site_type_symbol
_atom_site_label
_atom_site_fract_x
_atom_site_fract_y
_atom_site_fract_z
Si Si1 0.537259 0.448177 0.081756
Si Si2 0.215327 0.577160 0.914648
Si Si3 0.821551 0.695017 0.077489
Si Si4 0.839652 0.539191 0.087178
Si Si5 0.683758 0.611888 0.917834
Si Si6 0.024025 0.879405 0.585995
O O1 0.550479 0.463748 0.250000
O O2 0.657858 0.427745 0.020489
O O3 0.448633 0.401074 0.060814
O O4 0.500000 0.500000 0.000000
O O5 0.222367 0.595871 0.750000
O O6 0.150321 0.522392 0.931920
O O7 0.140755 0.620797 0.996113
O O8 0.807248 0.700746 0.250000
O O9 0.938641 0.666169 0.035179
O O10 0.822142 0.750000 0.000000
O O11 0.716305 0.661798 0.014851
O O12 0.795686 0.553345 0.250000
O O13 0.962348 0.564954 0.064678
O O14 0.752170 0.561082 0.969569
O O15 0.712538 0.623139 0.750000
O O16 0.060288 0.869748 0.750000
#
# Coordination Sequence:
#
# PCOD8230744 Si02
#       6
#     8   8   8   8   8   8
#     4  10  20  32  48  72 104 142 180 213 247 294
#     4  10  19  30  46  69 102 141 175 207 246 292
#     4  10  21  38  59  80 101 126 161 212 266 313
#     4   9  17  30  46  67 101 138 171 210 249 291
#     4  10  19  31  50  77 104 134 174 214 252 300
#     4   9  19  32  47  72 101 129 165 207 253 305
#
# _framework density 17.195363
#
# number of rings (size 3 to 8) (size 9 to 14) (size 15 to 20)
#    0.000    2.333    1.667    2.500    0.000    5.333 
#    0.000    0.000    0.000    1.000    0.000    2.333 
#    0.000    0.000    0.000    0.000    0.000    0.000 
#
# Total GULP energy -595074.481407 kJ/mol
# GULP energy per Si atom -12397.385029 kJ/mol
# Density = 1.715623 g / cm^3
# Si number density = 17.195363 Si / 1000 Ang^3
#
#
#
# Elastic Constant Matrix: (Units=GPa)
#
#
# Indices 1 2 3 4 5 6 
#
# 1 110.8308 46.4024 52.1389 0.0000 0.0000 0.0000
# 2 46.4024 73.3693 43.6318 0.0000 0.0000 0.0000
# 3 52.1389 43.6318 81.9342 0.0000 0.0000 0.0000
# 4 0.0000 0.0000 0.0000 25.4954 0.0000 0.0000
# 5 0.0000 0.0000 0.0000 0.0000 28.3428 0.0000
# 6 0.0000 0.0000 0.0000 0.0000 0.0000 15.2951
#
#
#
# Elastic Compliance Matrix: (Units=1/GPa)
#
#
# Indices 1 2 3 4 5 6 
#
# 1 0.014139 -0.005256 -0.006199 0.000000 0.000000 0.000000
# 2 -0.005256 0.021900 -0.008318 0.000000 0.000000 0.000000
# 3 -0.006199 -0.008318 0.020579 0.000000 0.000000 0.000000
# 4 0.000000 0.000000 0.000000 0.039223 0.000000 0.000000
# 5 0.000000 0.000000 0.000000 0.000000 0.035282 0.000000
# 6 0.000000 0.000000 0.000000 0.000000 0.000000 0.065381
#
#
# Mechanical properties :
#
#
# Convention : Reuss Voigt Hill
#
# Bulk Modulus (GPa) = 58.56986 61.16448 59.86717
# Shear Modulus (GPa) = 20.68334 22.09073 21.38703
#
# Velocity S-wave (km/s) = 3.47197 3.58815 3.53053
# Velocity P-wave (km/s) = 7.08577 7.26732 7.17712
#
# Compressibility (1/GPa) = 0.01707363
#
# Stress axis : x y z
#
# Youngs Moduli (GPa) = 70.72389 45.66130 48.59398
#
# Poissons Ratio (x) = 0.24001 0.30121
# Poissons Ratio (y) = 0.37175 0.40418
# Poissons Ratio (z) = 0.43839 0.37979
#
# Static dielectric constant tensor:
#      x y z
#    x 3.240410 0.000000 0.000000 
#    y 0.000000 2.940810 0.000000 
#    z 0.000000 0.000000 3.279270 
# 
# 
# High freq. dielectric constant tensor:
#      x y z
#    x 1.661160 0.000000 0.000000 
#    y 0.000000 1.630440 0.000000 
#    z 0.000000 0.000000 1.669360 
# 
# From -- ./inp_files/3175.got.cif
#   From: 2010.03.12/outbox.cif.g09.slc.cpg/sg57_2_cif.got.tgz:3175.got - 2010.04.16 15:48:40.
