data_PCOD8230329
_publ_section_title
;
Structure prediction by ZEFSAII (Michael W. Deem and Ramdas Pophale) SiO2 
 PCOD8230329
Probable space group: P B C M
;
_chemical_formula_sum "Si O2"
_cell_formula_units_Z 48
_cell_length_a 9.270838
_cell_length_b 19.294838
_cell_length_c 16.481784
_cell_angle_alpha 90.000000
_cell_angle_beta 90.000000
_cell_angle_gamma 90.000000
_cell_volume 2948.250270
_symmetry_space_group_name_H-M "P B C M"
_symmetry_group_IT_number 57
_symmetry_cell_setting 'orthorhombic'
loop_
_space_group_symop_operation_xyz
x,y,z
-x,-y,1/2+z
x,1/2-y,-z
-x,1/2+y,1/2-z
-x,-y,-z
x,y,1/2-z
-x,1/2+y,z
x,1/2-y,1/2+z
loop_
_atom_site_type_symbol
_atom_site_label
_atom_site_fract_x
_atom_site_fract_y
_atom_site_fract_z
Si Si1 0.145300 0.866855 0.457585
Si Si2 0.656440 0.877924 0.843205
Si Si3 0.590996 0.310015 0.557625
Si Si4 0.963990 0.629143 0.110668
Si Si5 0.829667 0.245446 0.160251
Si Si6 0.835458 0.004704 0.659882
O O1 0.292033 0.854812 0.507801
O O2 0.105920 0.802034 0.400847
O O3 0.007999 0.873500 0.516285
O O4 0.165311 0.935564 0.405850
O O5 0.622582 0.855254 0.750000
O O6 0.530150 0.859791 0.905767
O O7 0.802531 0.840015 0.875669
O O8 0.685075 0.961136 0.846537
O O9 0.523644 0.250000 0.500000
O O10 0.667930 0.273184 0.633539
O O11 0.966933 0.549847 0.144423
O O12 0.073425 0.676592 0.160704
O O13 0.823659 0.277106 0.250000
O O14 0.852175 0.036665 0.750000
#
# Coordination Sequence:
#
# PCOD8230329 Si02
#       6
#     8   8   8   8   8   8
#     4  10  19  31  49  74  96 123 156 198 240 275
#     4   9  18  32  50  69  93 126 160 191 232 282
#     4   9  19  31  46  71  97 122 158 196 236 276
#     4   9  18  32  49  70  95 122 159 196 230 280
#     4  10  18  31  50  72  97 124 158 197 234 276
#     4   9  18  32  50  70  95 125 160 193 234 283
#
# _framework density 16.280843000000001
#
# number of rings (size 3 to 8) (size 9 to 14) (size 15 to 20)
#    1.000    1.667    0.000    4.000    0.000    2.000 
#    0.000    0.000    0.000    0.000    0.000    2.333 
#    0.000    0.000    0.000    0.000    0.000    0.000 
#
# Total GULP energy -594693.312145 kJ/mol
# GULP energy per Si atom -12389.444003 kJ/mol
# Density = 1.624379 g / cm^3
# Si number density = 16.280843 Si / 1000 Ang^3
#
#
#
# Elastic Constant Matrix: (Units=GPa)
#
#
# Indices 1 2 3 4 5 6 
#
# 1 56.6034 24.6988 44.0193 0.0000 0.0000 0.0000
# 2 24.6988 70.6834 44.2133 0.0000 0.0000 0.0000
# 3 44.0193 44.2133 135.4996 0.0000 0.0000 0.0000
# 4 0.0000 0.0000 0.0000 20.3083 0.0000 0.0000
# 5 0.0000 0.0000 0.0000 0.0000 19.5977 0.0000
# 6 0.0000 0.0000 0.0000 0.0000 0.0000 14.1807
#
#
#
# Elastic Compliance Matrix: (Units=1/GPa)
#
#
# Indices 1 2 3 4 5 6 
#
# 1 0.024750 -0.004547 -0.006557 0.000000 0.000000 0.000000
# 2 -0.004547 0.018611 -0.004596 0.000000 0.000000 0.000000
# 3 -0.006557 -0.004596 0.011010 0.000000 0.000000 0.000000
# 4 0.000000 0.000000 0.000000 0.049241 0.000000 0.000000
# 5 0.000000 0.000000 0.000000 0.000000 0.051026 0.000000
# 6 0.000000 0.000000 0.000000 0.000000 0.000000 0.070518
#
#
# Mechanical properties :
#
#
# Convention : Reuss Voigt Hill
#
# Bulk Modulus (GPa) = 43.53126 54.29435 48.91281
# Shear Modulus (GPa) = 18.92416 20.80766 19.86591
#
# Velocity S-wave (km/s) = 3.41304 3.57885 3.49693
# Velocity P-wave (km/s) = 6.50596 7.10624 6.81271
#
# Compressibility (1/GPa) = 0.02297200
#
# Stress axis : x y z
#
# Youngs Moduli (GPa) = 40.40417 53.73155 90.82900
#
# Poissons Ratio (x) = 0.24432 0.59554
# Poissons Ratio (y) = 0.18372 0.41741
# Poissons Ratio (z) = 0.26492 0.24693
#
# Static dielectric constant tensor:
#      x y z
#    x 2.796460 0.000000 0.000000 
#    y 0.000000 2.936670 0.000000 
#    z 0.000000 0.000000 3.179360 
# 
# 
# High freq. dielectric constant tensor:
#      x y z
#    x 1.599760 0.000000 0.000000 
#    y 0.000000 1.614230 0.000000 
#    z 0.000000 0.000000 1.643270 
# 
# From -- ./inp_files/21302.got.cif
#   From: 2010.03.12/outbox.cif.g09.slc.cpg/sg57_11_cif.got.tgz:21302.got - 2010.04.16 15:48:40.
