data_PCOD8230797
_publ_section_title
;
Structure prediction by ZEFSAII (Michael W. Deem and Ramdas Pophale) SiO2 
 PCOD8230797
Probable space group: P B C M
;
_chemical_formula_sum "Si O2"
_cell_formula_units_Z 48
_cell_length_a 20.741265
_cell_length_b 5.156650
_cell_length_c 25.252367
_cell_angle_alpha 90.000000
_cell_angle_beta 90.000000
_cell_angle_gamma 90.000000
_cell_volume 2700.878129
_symmetry_space_group_name_H-M "P B C M"
_symmetry_group_IT_number 57
_symmetry_cell_setting 'orthorhombic'
loop_
_space_group_symop_operation_xyz
x,y,z
-x,-y,1/2+z
x,1/2-y,-z
-x,1/2+y,1/2-z
-x,-y,-z
x,y,1/2-z
-x,1/2+y,z
x,1/2-y,1/2+z
loop_
_atom_site_type_symbol
_atom_site_label
_atom_site_fract_x
_atom_site_fract_y
_atom_site_fract_z
Si Si1 0.243599 0.845021 0.555519
Si Si2 0.684976 0.184536 0.158495
Si Si3 0.973696 0.554935 0.440410
Si Si4 0.829570 0.657553 0.415290
Si Si5 0.538594 0.176048 0.312613
Si Si6 0.760432 0.807203 0.690947
O O1 0.272912 0.750000 0.500000
O O2 0.302118 0.856101 0.596323
O O3 0.191299 0.634753 0.573469
O O4 0.209320 0.125928 0.551243
O O5 0.608834 0.184085 0.162683
O O6 0.713086 0.454625 0.179196
O O7 0.717276 0.951381 0.190899
O O8 0.902705 0.672793 0.434804
O O9 0.000000 0.500000 0.500000
O O10 0.981164 0.275103 0.412221
O O11 0.818220 0.711615 0.352295
O O12 0.546099 0.178653 0.250000
O O13 0.498128 0.421502 0.332791
O O14 0.790360 0.836677 0.750000
#
# Coordination Sequence:
#
# PCOD8230797 Si02
#       6
#     8   8   8   8   8   8
#     4  10  21  33  54  73 102 135 164 216 255 297
#     4  10  20  34  50  78 104 133 171 206 257 306
#     4  10  21  32  48  72  99 134 161 200 248 305
#     4  10  21  34  50  77 102 129 172 206 257 303
#     4  10  19  30  48  73 101 133 164 204 252 299
#     4  10  19  33  54  75 100 134 167 214 257 301
#
# _framework density 17.771998
#
# number of rings (size 3 to 8) (size 9 to 14) (size 15 to 20)
#    0.000    2.000    0.000    4.000    7.000    1.333 
#    0.000    0.000    0.000    2.000    0.000    0.000 
#    0.000    0.000    0.000    0.000    0.000    0.000 
#
# Total GULP energy -594881.905365 kJ/mol
# GULP energy per Si atom -12393.373028 kJ/mol
# Density = 1.773155 g / cm^3
# Si number density = 17.771998 Si / 1000 Ang^3
#
#
#
# Elastic Constant Matrix: (Units=GPa)
#
#
# Indices 1 2 3 4 5 6 
#
# 1 105.1858 36.2742 39.1756 0.0000 0.0000 0.0000
# 2 36.2742 124.4220 18.7648 0.0000 0.0000 0.0000
# 3 39.1756 18.7648 90.7301 0.0000 0.0000 0.0000
# 4 0.0000 0.0000 0.0000 2.4350 0.0000 0.0000
# 5 0.0000 0.0000 0.0000 0.0000 -10.7829 0.0000
# 6 0.0000 0.0000 0.0000 0.0000 0.0000 23.3874
#
#
#
# Elastic Compliance Matrix: (Units=1/GPa)
#
#
# Indices 1 2 3 4 5 6 
#
# 1 0.012242 -0.002861 -0.004694 0.000000 0.000000 0.000000
# 2 -0.002861 0.008965 -0.000619 0.000000 0.000000 0.000000
# 3 -0.004694 -0.000619 0.013177 0.000000 0.000000 0.000000
# 4 0.000000 0.000000 0.000000 0.410673 0.000000 0.000000
# 5 0.000000 0.000000 0.000000 0.000000 -0.092739 0.000000
# 6 0.000000 0.000000 0.000000 0.000000 0.000000 0.042758
#
#
# Mechanical properties :
#
#
# Convention : Reuss Voigt Hill
#
# Bulk Modulus (GPa) = 55.44700 56.52967 55.98833
# Shear Modulus (GPa) = 11.97791 18.08278 15.03034
#
# Velocity S-wave (km/s) = 2.59892 3.19327 2.91130
# Velocity P-wave (km/s) = 6.34608 6.74339 6.54775
#
# Compressibility (1/GPa) = 0.01803524
#
# Stress axis : x y z
#
# Youngs Moduli (GPa) = 81.68631 111.54989 75.89266
#
# Poissons Ratio (x) = 0.31915 0.35625
# Poissons Ratio (y) = 0.23371 0.04695
# Poissons Ratio (z) = 0.38345 0.06901
#
# Static dielectric constant tensor:
#      x y z
#    x 3.075680 0.000000 0.000000 
#    y 0.000000 -7.706570 0.000000 
#    z 0.000000 0.000000 3.309370 
# 
# 
# High freq. dielectric constant tensor:
#      x y z
#    x 1.664550 0.000000 0.000000 
#    y 0.000000 1.725230 0.000000 
#    z 0.000000 0.000000 1.662060 
# 
# From -- ./inp_files/27559.got.cif
#   From: 2010.03.12/outbox.cif.g09.slc.cpg/sg57_14_cif.got.tgz:27559.got - 2010.04.16 15:48:40.
