data_PCOD8230441
_publ_section_title
;
Structure prediction by ZEFSAII (Michael W. Deem and Ramdas Pophale) SiO2 
 PCOD8230441
Probable space group: P B C M
;
_chemical_formula_sum "Si O2"
_cell_formula_units_Z 32
_cell_length_a 20.895967
_cell_length_b 9.229135
_cell_length_c 8.469380
_cell_angle_alpha 90.000000
_cell_angle_beta 90.000000
_cell_angle_gamma 90.000000
_cell_volume 1633.334334
_symmetry_space_group_name_H-M "P B C M"
_symmetry_group_IT_number 57
_symmetry_cell_setting 'orthorhombic'
loop_
_space_group_symop_operation_xyz
x,y,z
-x,-y,1/2+z
x,1/2-y,-z
-x,1/2+y,1/2-z
-x,-y,-z
x,y,1/2-z
-x,1/2+y,z
x,1/2-y,1/2+z
loop_
_atom_site_type_symbol
_atom_site_label
_atom_site_fract_x
_atom_site_fract_y
_atom_site_fract_z
Si Si1 0.809870 0.912004 0.437267
Si Si2 0.059335 0.411581 0.936983
Si Si3 0.677585 0.587504 0.063434
Si Si4 0.440533 0.911185 0.563599
O O1 0.813177 0.750000 0.500000
O O2 0.805589 0.916809 0.250000
O O3 0.875288 0.987554 0.497807
O O4 0.745794 0.981943 0.511067
O O5 0.060775 0.411470 0.750000
O O6 0.052539 0.250000 0.000000
O O7 0.000000 0.500000 0.000000
O O8 0.671833 0.590614 0.250000
O O9 0.668876 0.750000 0.000000
O O10 0.624482 0.484277 0.992198
O O11 0.444570 0.750000 0.500000
O O12 0.443132 0.908533 0.750000
O O13 0.500000 0.000000 0.500000
#
# Coordination Sequence:
#
# PCOD8230441 Si02
#       4
#     8   8   8   8
#     4  10  18  32  54  82 112 148 189 234 281 336
#     4  11  21  36  56  82 113 150 191 237 286 340
#     4  11  21  37  60  88 117 151 190 235 283 336
#     4  12  25  43  63  88 118 153 191 234 282 336
#
# _framework density 19.591825
#
# number of rings (size 3 to 8) (size 9 to 14) (size 15 to 20)
#    0.000    1.000    0.000   12.750    0.000    0.000 
#    0.000    1.250    0.000    0.000    0.000    0.000 
#    0.000    0.000    0.000    0.000    0.000    0.000 
#
# Total GULP energy -396791.279260 kJ/mol
# GULP energy per Si atom -12399.727477 kJ/mol
# Density = 1.954723 g / cm^3
# Si number density = 19.591825 Si / 1000 Ang^3
#
#
#
# Elastic Constant Matrix: (Units=GPa)
#
#
# Indices 1 2 3 4 5 6 
#
# 1 209.4933 81.7330 65.0612 0.0000 0.0000 0.0000
# 2 81.7330 95.0631 54.3515 0.0000 0.0000 0.0000
# 3 65.0612 54.3515 200.7153 0.0000 0.0000 0.0000
# 4 0.0000 0.0000 0.0000 31.3159 0.0000 0.0000
# 5 0.0000 0.0000 0.0000 0.0000 43.5304 0.0000
# 6 0.0000 0.0000 0.0000 0.0000 0.0000 39.3443
#
#
#
# Elastic Compliance Matrix: (Units=1/GPa)
#
#
# Indices 1 2 3 4 5 6 
#
# 1 0.007286 -0.005815 -0.000787 0.000000 0.000000 0.000000
# 2 -0.005815 0.017086 -0.002742 0.000000 0.000000 0.000000
# 3 -0.000787 -0.002742 0.005980 0.000000 0.000000 0.000000
# 4 0.000000 0.000000 0.000000 0.031933 0.000000 0.000000
# 5 0.000000 0.000000 0.000000 0.000000 0.022972 0.000000
# 6 0.000000 0.000000 0.000000 0.000000 0.000000 0.025417
#
#
# Mechanical properties :
#
#
# Convention : Reuss Voigt Hill
#
# Bulk Modulus (GPa) = 85.72811 100.84035 93.28423
# Shear Modulus (GPa) = 37.52329 43.11318 40.31824
#
# Velocity S-wave (km/s) = 4.38111 4.69611 4.54134
# Velocity P-wave (km/s) = 8.33332 8.99928 8.67269
#
# Compressibility (1/GPa) = 0.01166478
#
# Stress axis : x y z
#
# Youngs Moduli (GPa) = 137.24039 58.52648 167.22666
#
# Poissons Ratio (x) = 0.34031 0.13167
# Poissons Ratio (y) = 0.79799 0.45854
# Poissons Ratio (z) = 0.10806 0.16048
#
# Static dielectric constant tensor:
#      x y z
#    x 4.491970 0.000000 0.000000 
#    y 0.000000 3.328740 0.000000 
#    z 0.000000 0.000000 3.873500 
# 
# 
# High freq. dielectric constant tensor:
#      x y z
#    x 1.797660 0.000000 0.000000 
#    y 0.000000 1.725970 0.000000 
#    z 0.000000 0.000000 1.793860 
# 
# From -- ./inp_files/7543.got.cif
#   From: 2010.03.12/outbox.cif.g09.slc.cpg/sg57_4_cif.got.tgz:7543.got - 2010.04.16 15:48:40.
