data_PCOD8230935
_publ_section_title
;
Structure prediction by ZEFSAII (Michael W. Deem and Ramdas Pophale) SiO2 
 PCOD8230935
Probable space group: P B C M
;
_chemical_formula_sum "Si O2"
_cell_formula_units_Z 48
_cell_length_a 23.655351
_cell_length_b 13.653923
_cell_length_c 8.744090
_cell_angle_alpha 90.000000
_cell_angle_beta 90.000000
_cell_angle_gamma 90.000000
_cell_volume 2824.239123
_symmetry_space_group_name_H-M "P B C M"
_symmetry_group_IT_number 57
_symmetry_cell_setting 'orthorhombic'
loop_
_space_group_symop_operation_xyz
x,y,z
-x,-y,1/2+z
x,1/2-y,-z
-x,1/2+y,1/2-z
-x,-y,-z
x,y,1/2-z
-x,1/2+y,z
x,1/2-y,1/2+z
loop_
_atom_site_type_symbol
_atom_site_label
_atom_site_fract_x
_atom_site_fract_y
_atom_site_fract_z
Si Si1 0.416858 0.028857 0.928945
Si Si2 0.084723 0.046560 0.928443
Si Si3 0.306740 0.146308 0.569565
Si Si4 0.020393 0.648856 0.429023
Si Si5 0.474338 0.645780 0.929094
Si Si6 0.188514 0.355505 0.931209
O O1 0.423334 0.008875 0.750000
O O2 0.355336 0.069212 0.971482
O O3 0.464555 0.105966 0.984018
O O4 0.424891 0.927151 0.016997
O O5 0.093532 0.066403 0.750000
O O6 0.066771 0.934760 0.961463
O O7 0.142796 0.064489 0.017683
O O8 0.038019 0.121764 0.989296
O O9 0.324871 0.250000 0.500000
O O10 0.298224 0.158435 0.750000
O O11 0.248883 0.108415 0.494228
O O12 0.043560 0.750000 0.500000
O O13 0.008704 0.660804 0.250000
O O14 0.471909 0.656989 0.750000
O O15 0.462163 0.750000 0.000000
O O16 0.190672 0.347329 0.750000
O O17 0.172365 0.250000 0.000000
#
# Coordination Sequence:
#
# PCOD8230935 Si02
#       6
#     8   8   8   8   8   8
#     4   9  19  33  49  71  98 129 162 198 240 286
#     4  10  20  34  51  72  99 130 163 198 239 284
#     4  10  19  32  50  72  99 128 160 198 240 286
#     4  10  20  33  51  74 100 129 160 197 239 285
#     4  10  19  31  49  72  99 129 161 198 240 287
#     4  11  21  33  50  72  99 129 162 199 240 286
#
# _framework density 16.995728
#
# number of rings (size 3 to 8) (size 9 to 14) (size 15 to 20)
#    0.000    2.000    0.000    5.500    0.000    4.000 
#    0.000    0.000    0.000    1.000    0.000    4.667 
#    0.000    0.000    0.000    0.000    0.000    0.000 
#
# Total GULP energy -595372.573660 kJ/mol
# GULP energy per Si atom -12403.595285 kJ/mol
# Density = 1.695705 g / cm^3
# Si number density = 16.995728 Si / 1000 Ang^3
#
#
#
# Elastic Constant Matrix: (Units=GPa)
#
#
# Indices 1 2 3 4 5 6 
#
# 1 116.2833 65.2094 58.6129 0.0000 0.0000 0.0000
# 2 65.2094 122.1564 55.6659 0.0000 0.0000 0.0000
# 3 58.6129 55.6659 102.9307 0.0000 0.0000 0.0000
# 4 0.0000 0.0000 0.0000 30.9272 0.0000 0.0000
# 5 0.0000 0.0000 0.0000 0.0000 29.2888 0.0000
# 6 0.0000 0.0000 0.0000 0.0000 0.0000 37.9190
#
#
#
# Elastic Compliance Matrix: (Units=1/GPa)
#
#
# Indices 1 2 3 4 5 6 
#
# 1 0.014143 -0.005149 -0.005269 0.000000 0.000000 0.000000
# 2 -0.005149 0.012738 -0.003957 0.000000 0.000000 0.000000
# 3 -0.005269 -0.003957 0.014856 0.000000 0.000000 0.000000
# 4 0.000000 0.000000 0.000000 0.032334 0.000000 0.000000
# 5 0.000000 0.000000 0.000000 0.000000 0.034143 0.000000
# 6 0.000000 0.000000 0.000000 0.000000 0.000000 0.026372
#
#
# Mechanical properties :
#
#
# Convention : Reuss Voigt Hill
#
# Bulk Modulus (GPa) = 76.99964 77.81630 77.40797
# Shear Modulus (GPa) = 29.82169 30.41914 30.12041
#
# Velocity S-wave (km/s) = 4.19341 4.23521 4.21436
# Velocity P-wave (km/s) = 8.29758 8.35471 8.32619
#
# Compressibility (1/GPa) = 0.01298707
#
# Stress axis : x y z
#
# Youngs Moduli (GPa) = 70.70722 78.50663 67.31462
#
# Poissons Ratio (x) = 0.40420 0.35469
# Poissons Ratio (y) = 0.36404 0.26636
# Poissons Ratio (z) = 0.37256 0.31064
#
# Static dielectric constant tensor:
#      x y z
#    x 3.155000 0.000000 0.000000 
#    y 0.000000 3.120930 0.000000 
#    z 0.000000 0.000000 3.310390 
# 
# 
# High freq. dielectric constant tensor:
#      x y z
#    x 1.645880 0.000000 0.000000 
#    y 0.000000 1.645260 0.000000 
#    z 0.000000 0.000000 1.674000 
# 
# From -- ./inp_files/9129.got.cif
#   From: 2010.03.12/outbox.cif.g09.slc.cpg/sg57_5_cif.got.tgz:9129.got - 2010.04.16 15:48:40.
