data_PCOD8230825
_publ_section_title
;
Structure prediction by ZEFSAII (Michael W. Deem and Ramdas Pophale) SiO2 
 PCOD8230825
Probable space group: P B C M
;
_chemical_formula_sum "Si O2"
_cell_formula_units_Z 64
_cell_length_a 11.330032
_cell_length_b 33.471811
_cell_length_c 8.781964
_cell_angle_alpha 90.000000
_cell_angle_beta 90.000000
_cell_angle_gamma 90.000000
_cell_volume 3330.442957
_symmetry_space_group_name_H-M "P B C M"
_symmetry_group_IT_number 57
_symmetry_cell_setting 'orthorhombic'
loop_
_space_group_symop_operation_xyz
x,y,z
-x,-y,1/2+z
x,1/2-y,-z
-x,1/2+y,1/2-z
-x,-y,-z
x,y,1/2-z
-x,1/2+y,z
x,1/2-y,1/2+z
loop_
_atom_site_type_symbol
_atom_site_label
_atom_site_fract_x
_atom_site_fract_y
_atom_site_fract_z
Si Si1 0.773378 0.791121 0.072430
Si Si2 0.283509 0.368283 0.922926
Si Si3 0.544664 0.563125 0.422058
Si Si4 0.128996 0.872733 0.928856
Si Si5 0.226879 0.015890 0.073623
Si Si6 0.915895 0.581220 0.928394
Si Si7 0.048521 0.708113 0.927906
Si Si8 0.301058 0.929149 0.425245
O O1 0.745722 0.791088 0.250000
O O2 0.910891 0.799054 0.037517
O O3 0.731333 0.750000 0.000000
O O4 0.695041 0.824236 0.987813
O O5 0.234423 0.366957 0.750000
O O6 0.406657 0.391654 0.929200
O O7 0.189120 0.388816 0.032789
O O8 0.505873 0.552300 0.250000
O O9 0.645938 0.532793 0.480848
O O10 0.434434 0.559610 0.533270
O O11 0.118346 0.867598 0.750000
O O12 0.119831 0.828882 0.002006
O O13 0.254657 0.892395 0.973056
O O14 0.032638 0.903891 0.988524
O O15 0.211447 0.027939 0.250000
O O16 0.220743 0.968538 0.047089
O O17 0.120326 0.036542 0.980867
O O18 0.941688 0.581519 0.750000
O O19 0.074492 0.710032 0.750000
O O20 0.091277 0.750000 0.000000
O O21 0.295658 0.916272 0.250000
#
# Coordination Sequence:
#
# PCOD8230825 Si02
#       8
#     8   8   8   8   8   8   8   8
#     4  10  19  30  50  80 114 145 177 220 269 327
#     4  10  19  33  54  79 111 145 178 221 272 328
#     4   9  19  36  57  81 108 141 183 228 277 330
#     4  12  24  38  57  79 113 153 186 227 276 329
#     4   9  20  38  58  81 110 144 182 229 281 332
#     4  11  21  34  54  81 110 143 183 226 276 331
#     4  10  20  35  56  84 115 146 183 224 268 322
#     4  11  23  38  57  81 109 144 189 235 276 323
#
# _framework density 19.216663
#
# number of rings (size 3 to 8) (size 9 to 14) (size 15 to 20)
#    0.000    1.750    1.250    4.875    0.000    5.000 
#    0.000    0.000    0.000    0.750    0.000    1.750 
#    0.000    0.000    0.000    0.000    0.000    0.000 
#
# Total GULP energy -793778.069568 kJ/mol
# GULP energy per Si atom -12402.782337 kJ/mol
# Density = 1.917292 g / cm^3
# Si number density = 19.216663 Si / 1000 Ang^3
#
#
#
# Elastic Constant Matrix: (Units=GPa)
#
#
# Indices 1 2 3 4 5 6 
#
# 1 36.8682 15.8579 18.8838 0.0000 0.0000 0.0000
# 2 15.8579 115.3908 49.8031 0.0000 0.0000 0.0000
# 3 18.8838 49.8031 106.2786 0.0000 0.0000 0.0000
# 4 0.0000 0.0000 0.0000 35.7590 0.0000 0.0000
# 5 0.0000 0.0000 0.0000 0.0000 26.2664 0.0000
# 6 0.0000 0.0000 0.0000 0.0000 0.0000 20.8163
#
#
#
# Elastic Compliance Matrix: (Units=1/GPa)
#
#
# Indices 1 2 3 4 5 6 
#
# 1 0.030322 -0.002309 -0.004306 0.000000 0.000000 0.000000
# 2 -0.002309 0.011039 -0.004763 0.000000 0.000000 0.000000
# 3 -0.004306 -0.004763 0.012406 0.000000 0.000000 0.000000
# 4 0.000000 0.000000 0.000000 0.027965 0.000000 0.000000
# 5 0.000000 0.000000 0.000000 0.000000 0.038071 0.000000
# 6 0.000000 0.000000 0.000000 0.000000 0.000000 0.048039
#
#
# Mechanical properties :
#
#
# Convention : Reuss Voigt Hill
#
# Bulk Modulus (GPa) = 32.24478 47.51413 39.87945
# Shear Modulus (GPa) = 24.88361 28.16786 26.52573
#
# Velocity S-wave (km/s) = 3.60237 3.83274 3.71934
# Velocity P-wave (km/s) = 5.84113 6.66075 6.26436
#
# Compressibility (1/GPa) = 0.03101277
#
# Stress axis : x y z
#
# Youngs Moduli (GPa) = 32.97923 90.58681 80.60486
#
# Poissons Ratio (x) = 0.20914 0.34707
# Poissons Ratio (y) = 0.07614 0.38391
# Poissons Ratio (z) = 0.14200 0.43145
#
# Static dielectric constant tensor:
#      x y z
#    x 3.199180 0.000000 0.000000 
#    y 0.000000 3.662070 0.000000 
#    z 0.000000 0.000000 3.541680 
# 
# 
# High freq. dielectric constant tensor:
#      x y z
#    x 1.710830 0.000000 0.000000 
#    y 0.000000 1.756230 0.000000 
#    z 0.000000 0.000000 1.757380 
# 
# From -- ./inp_files/3790.got.cif
#   From: 2010.03.12/outbox.cif.g09.slc.cpg/sg57_2_cif.got.tgz:3790.got - 2010.04.16 15:48:40.
