data_PCOD8230081
_publ_section_title
;
Structure prediction by ZEFSAII (Michael W. Deem and Ramdas Pophale) SiO2 
 PCOD8230081
Probable space group: P B C M
;
_chemical_formula_sum "Si O2"
_cell_formula_units_Z 64
_cell_length_a 16.873973
_cell_length_b 22.675990
_cell_length_c 9.047304
_cell_angle_alpha 90.000000
_cell_angle_beta 90.000000
_cell_angle_gamma 90.000000
_cell_volume 3461.806508
_symmetry_space_group_name_H-M "P B C M"
_symmetry_group_IT_number 57
_symmetry_cell_setting 'orthorhombic'
loop_
_space_group_symop_operation_xyz
x,y,z
-x,-y,1/2+z
x,1/2-y,-z
-x,1/2+y,1/2-z
-x,-y,-z
x,y,1/2-z
-x,1/2+y,z
x,1/2-y,1/2+z
loop_
_atom_site_type_symbol
_atom_site_label
_atom_site_fract_x
_atom_site_fract_y
_atom_site_fract_z
Si Si1 0.081435 0.985127 0.077476
Si Si2 0.716341 0.191639 0.582847
Si Si3 0.427058 0.899037 0.083393
Si Si4 0.183621 0.895116 0.916177
Si Si5 0.555890 0.690442 0.922554
Si Si6 0.739224 0.810207 0.423751
Si Si7 0.222836 0.074353 0.077683
Si Si8 0.672605 0.014465 0.084586
O O1 0.067687 0.974654 0.250000
O O2 0.143193 0.037719 0.048376
O O3 0.112584 0.924673 0.006677
O O4 0.000000 0.000000 0.000000
O O5 0.687910 0.250000 0.500000
O O6 0.741281 0.206584 0.750000
O O7 0.644518 0.146593 0.579859
O O8 0.792599 0.164906 0.499024
O O9 0.441429 0.921552 0.250000
O O10 0.505221 0.865862 0.020992
O O11 0.406487 0.956014 0.983895
O O12 0.154903 0.880786 0.750000
O O13 0.258431 0.937864 0.912204
O O14 0.540549 0.699673 0.750000
O O15 0.647142 0.678417 0.960036
O O16 0.525755 0.750000 0.000000
O O17 0.768238 0.750000 0.500000
O O18 0.755919 0.806449 0.250000
O O19 0.788599 0.863657 0.494473
O O20 0.237877 0.085124 0.250000
O O21 0.299624 0.040856 0.012870
O O22 0.652901 0.992045 0.250000
#
# Coordination Sequence:
#
# PCOD8230081 Si02
#       8
#     8   8   8   8   8   8   8   8
#     4  10  20  34  55  82 107 129 155 190 236 289
#     4  10  18  27  42  65  94 130 170 207 244 288
#     4   9  17  29  44  65  96 131 168 213 260 302
#     4   9  17  30  47  68  97 129 161 198 237 280
#     4   9  18  31  47  68  95 129 170 217 265 307
#     4  10  20  35  55  77 101 131 170 213 255 300
#     4  10  20  35  55  78 104 133 165 202 245 296
#     4   9  17  29  47  71  97 128 166 206 249 296
#
# _framework density 18.487458
#
# number of rings (size 3 to 8) (size 9 to 14) (size 15 to 20)
#    0.000    2.500    0.000    2.625    0.000    6.000 
#    0.000    0.625    0.000    0.750    0.000    1.750 
#    0.000    0.000    0.000    0.000    0.000    0.000 
#
# Total GULP energy -793650.192090 kJ/mol
# GULP energy per Si atom -12400.784251 kJ/mol
# Density = 1.844538 g / cm^3
# Si number density = 18.487458 Si / 1000 Ang^3
#
#
#
# Elastic Constant Matrix: (Units=GPa)
#
#
# Indices 1 2 3 4 5 6 
#
# 1 40.6080 9.3329 26.5146 0.0000 0.0000 0.0000
# 2 9.3329 68.4152 43.3942 0.0000 0.0000 0.0000
# 3 26.5146 43.3942 128.1148 0.0000 0.0000 0.0000
# 4 0.0000 0.0000 0.0000 36.3801 0.0000 0.0000
# 5 0.0000 0.0000 0.0000 0.0000 24.2234 0.0000
# 6 0.0000 0.0000 0.0000 0.0000 0.0000 19.9684
#
#
#
# Elastic Compliance Matrix: (Units=1/GPa)
#
#
# Indices 1 2 3 4 5 6 
#
# 1 0.028475 -0.000187 -0.005830 0.000000 0.000000 0.000000
# 2 -0.000187 0.018617 -0.006267 0.000000 0.000000 0.000000
# 3 -0.005830 -0.006267 0.011135 0.000000 0.000000 0.000000
# 4 0.000000 0.000000 0.000000 0.027488 0.000000 0.000000
# 5 0.000000 0.000000 0.000000 0.000000 0.041282 0.000000
# 6 0.000000 0.000000 0.000000 0.000000 0.000000 0.050079
#
#
# Mechanical properties :
#
#
# Convention : Reuss Voigt Hill
#
# Bulk Modulus (GPa) = 29.70927 43.95795 36.83361
# Shear Modulus (GPa) = 23.48914 26.64079 25.06497
#
# Velocity S-wave (km/s) = 3.56834 3.80019 3.68609
# Velocity P-wave (km/s) = 5.75171 6.56385 6.17116
#
# Compressibility (1/GPa) = 0.03365953
#
# Stress axis : x y z
#
# Youngs Moduli (GPa) = 35.11824 53.71340 89.80770
#
# Poissons Ratio (x) = 0.01002 0.52358
# Poissons Ratio (y) = 0.00655 0.56285
# Poissons Ratio (z) = 0.20474 0.33664
#
# Static dielectric constant tensor:
#      x y z
#    x 3.155160 0.000000 0.000000 
#    y 0.000000 3.406380 0.000000 
#    z 0.000000 0.000000 3.606420 
# 
# 
# High freq. dielectric constant tensor:
#      x y z
#    x 1.683300 0.000000 0.000000 
#    y 0.000000 1.711010 0.000000 
#    z 0.000000 0.000000 1.730880 
# 
# From -- ./inp_files/5646.got.cif
#   From: 2010.03.12/outbox.cif.g09.slc.cpg/sg57_3_cif.got.tgz:5646.got - 2010.04.16 15:48:40.
