data_PCOD8230655
_publ_section_title
;
Structure prediction by ZEFSAII (Michael W. Deem and Ramdas Pophale) SiO2 
 PCOD8230655
Probable space group: P B C M
;
_chemical_formula_sum "Si O2"
_cell_formula_units_Z 56
_cell_length_a 13.854828
_cell_length_b 28.195485
_cell_length_c 8.898287
_cell_angle_alpha 90.000000
_cell_angle_beta 90.000000
_cell_angle_gamma 90.000000
_cell_volume 3476.058823
_symmetry_space_group_name_H-M "P B C M"
_symmetry_group_IT_number 57
_symmetry_cell_setting 'orthorhombic'
loop_
_space_group_symop_operation_xyz
x,y,z
-x,-y,1/2+z
x,1/2-y,-z
-x,1/2+y,1/2-z
-x,-y,-z
x,y,1/2-z
-x,1/2+y,z
x,1/2-y,1/2+z
loop_
_atom_site_type_symbol
_atom_site_label
_atom_site_fract_x
_atom_site_fract_y
_atom_site_fract_z
Si Si1 0.601583 0.512072 0.929400
Si Si2 0.223247 0.533965 0.924818
Si Si3 0.233625 0.297875 0.428560
Si Si4 0.891442 0.545450 0.920094
Si Si5 0.932445 0.104754 0.573695
Si Si6 0.296318 0.395955 0.418028
Si Si7 0.011583 0.297641 0.427326
O O1 0.596446 0.511808 0.750000
O O2 0.635728 0.563714 0.994486
O O3 0.500000 0.500000 0.000000
O O4 0.679353 0.472443 0.979178
O O5 0.249008 0.528646 0.750000
O O6 0.175932 0.585713 0.959633
O O7 0.142416 0.495723 0.968619
O O8 0.277494 0.250000 0.500000
O O9 0.241856 0.295158 0.250000
O O10 0.295440 0.343200 0.491843
O O11 0.122522 0.304104 0.478188
O O12 0.903739 0.525392 0.750000
O O13 0.813899 0.587506 0.917579
O O14 0.989293 0.567219 0.990178
O O15 0.953826 0.106810 0.750000
O O16 0.949339 0.157678 0.509275
O O17 0.335897 0.390591 0.250000
O O18 0.967965 0.250000 0.500000
O O19 0.002293 0.292831 0.250000
#
# Coordination Sequence:
#
# PCOD8230655 Si02
#       7
#     8   8   8   8   8   8   8
#     4  10  20  35  53  69  88 115 147 185 232 280
#     4  10  19  29  43  67  92 116 150 187 221 266
#     4   9  15  25  41  61  87 119 153 182 210 252
#     4   9  15  27  43  60  87 125 158 182 215 257
#     4   9  16  27  44  62  88 126 159 184 219 267
#     4   8  14  26  45  64  85 119 152 174 212 271
#     4   9  16  27  42  60  86 122 160 191 219 255
#
# _framework density 16.110199999999999
#
# number of rings (size 3 to 8) (size 9 to 14) (size 15 to 20)
#    0.000    2.857    1.429    2.143    0.000    0.000 
#    0.000    6.429    0.000    0.000    0.000    1.000 
#    0.000    0.000    0.000    0.000    0.000    0.000 
#
# Total GULP energy -693845.499359 kJ/mol
# GULP energy per Si atom -12390.098203 kJ/mol
# Density = 1.607353 g / cm^3
# Si number density = 16.110200 Si / 1000 Ang^3
#
#
#
# Elastic Constant Matrix: (Units=GPa)
#
#
# Indices 1 2 3 4 5 6 
#
# 1 88.4871 59.8365 25.0712 0.0000 0.0000 0.0000
# 2 59.8365 110.8999 27.4640 0.0000 0.0000 0.0000
# 3 25.0712 27.4640 36.3735 0.0000 0.0000 0.0000
# 4 0.0000 0.0000 0.0000 22.6434 0.0000 0.0000
# 5 0.0000 0.0000 0.0000 0.0000 19.2487 0.0000
# 6 0.0000 0.0000 0.0000 0.0000 0.0000 17.8497
#
#
#
# Elastic Compliance Matrix: (Units=1/GPa)
#
#
# Indices 1 2 3 4 5 6 
#
# 1 0.018994 -0.008618 -0.006585 0.000000 0.000000 0.000000
# 2 -0.008618 0.015001 -0.005387 0.000000 0.000000 0.000000
# 3 -0.006585 -0.005387 0.036099 0.000000 0.000000 0.000000
# 4 0.000000 0.000000 0.000000 0.044163 0.000000 0.000000
# 5 0.000000 0.000000 0.000000 0.000000 0.051952 0.000000
# 6 0.000000 0.000000 0.000000 0.000000 0.000000 0.056023
#
#
# Mechanical properties :
#
#
# Convention : Reuss Voigt Hill
#
# Bulk Modulus (GPa) = 34.58448 51.16710 42.87579
# Shear Modulus (GPa) = 18.31171 20.17428 19.24299
#
# Velocity S-wave (km/s) = 3.37509 3.54258 3.45985
# Velocity P-wave (km/s) = 6.05824 6.96870 6.52936
#
# Compressibility (1/GPa) = 0.02891471
#
# Stress axis : x y z
#
# Youngs Moduli (GPa) = 52.64735 66.66341 27.70173
#
# Poissons Ratio (x) = 0.57448 0.18243
# Poissons Ratio (y) = 0.45369 0.14922
# Poissons Ratio (z) = 0.34671 0.35908
#
# Static dielectric constant tensor:
#      x y z
#    x 2.802520 0.000000 0.000000 
#    y 0.000000 3.334680 0.000000 
#    z 0.000000 0.000000 2.827770 
# 
# 
# High freq. dielectric constant tensor:
#      x y z
#    x 1.578930 0.000000 0.000000 
#    y 0.000000 1.621990 0.000000 
#    z 0.000000 0.000000 1.596890 
# 
# From -- ./inp_files/5880.got.cif
#   From: 2010.03.12/outbox.cif.g09.slc.cpg/sg57_3_cif.got.tgz:5880.got - 2010.04.16 15:48:40.
