data_PCOD8230177
_publ_section_title
;
Structure prediction by ZEFSAII (Michael W. Deem and Ramdas Pophale) SiO2 
 PCOD8230177
Probable space group: P B C M
;
_chemical_formula_sum "Si O2"
_cell_formula_units_Z 64
_cell_length_a 14.232365
_cell_length_b 29.981122
_cell_length_c 9.308533
_cell_angle_alpha 90.000000
_cell_angle_beta 90.000000
_cell_angle_gamma 90.000000
_cell_volume 3971.972175
_symmetry_space_group_name_H-M "P B C M"
_symmetry_group_IT_number 57
_symmetry_cell_setting 'orthorhombic'
loop_
_space_group_symop_operation_xyz
x,y,z
-x,-y,1/2+z
x,1/2-y,-z
-x,1/2+y,1/2-z
-x,-y,-z
x,y,1/2-z
-x,1/2+y,z
x,1/2-y,1/2+z
loop_
_atom_site_type_symbol
_atom_site_label
_atom_site_fract_x
_atom_site_fract_y
_atom_site_fract_z
Si Si1 0.366525 0.294151 0.417032
Si Si2 0.574041 0.874271 0.911939
Si Si3 0.270999 0.973154 0.414715
Si Si4 0.057992 0.962159 0.082146
Si Si5 0.451173 0.958748 0.920670
Si Si6 0.240361 0.426743 0.907477
Si Si7 0.147363 0.206035 0.583410
Si Si8 0.919524 0.612532 0.916479
O O1 0.396944 0.250000 0.500000
O O2 0.388092 0.288051 0.250000
O O3 0.433160 0.333194 0.478385
O O4 0.256745 0.304349 0.445137
O O5 0.549508 0.858730 0.750000
O O6 0.505731 0.913705 0.960926
O O7 0.681197 0.889572 0.920346
O O8 0.286717 0.957465 0.250000
O O9 0.166025 0.961236 0.467942
O O10 0.345987 0.950293 0.520268
O O11 0.289127 0.025726 0.430463
O O12 0.050975 0.974120 0.250000
O O13 0.018050 0.912199 0.051282
O O14 0.000000 0.000000 0.000000
O O15 0.451079 0.967725 0.750000
O O16 0.500000 0.000000 0.000000
O O17 0.192654 0.425291 0.750000
O O18 0.160113 0.419573 0.022498
O O19 0.113412 0.250000 0.500000
O O20 0.127624 0.215156 0.750000
O O21 0.087326 0.163369 0.523811
O O22 0.897319 0.615896 0.750000
#
# Coordination Sequence:
#
# PCOD8230177 Si02
#       8
#     8   8   8   8   8   8   8   8
#     4  10  19  31  48  71  97 128 160 196 240 291
#     4  10  20  33  47  68  97 129 164 201 243 287
#     4  10  20  35  48  68  99 132 168 207 246 287
#     4  10  20  32  49  70  98 130 164 204 243 286
#     4  11  22  35  51  72  98 131 168 208 249 292
#     4  10  18  29  46  67  97 131 162 200 240 283
#     4   9  18  30  44  66  95 123 157 193 233 283
#     4  10  19  31  46  70  97 127 165 201 237 285
#
# _framework density 16.112901000000001
#
# number of rings (size 3 to 8) (size 9 to 14) (size 15 to 20)
#    0.000    2.000    3.750    0.750    0.000    3.000 
#    0.000    0.000    0.000    0.000    0.000    0.875 
#    0.000    4.000    0.000    0.000    0.000    0.000 
#
# Total GULP energy -793435.774612 kJ/mol
# GULP energy per Si atom -12397.433978 kJ/mol
# Density = 1.607623 g / cm^3
# Si number density = 16.112901 Si / 1000 Ang^3
#
#
#
# Elastic Constant Matrix: (Units=GPa)
#
#
# Indices 1 2 3 4 5 6 
#
# 1 78.8415 45.3260 40.6527 0.0000 0.0000 0.0000
# 2 45.3260 114.6651 59.0725 0.0000 0.0000 0.0000
# 3 40.6527 59.0725 69.9167 0.0000 0.0000 0.0000
# 4 0.0000 0.0000 0.0000 27.8920 0.0000 0.0000
# 5 0.0000 0.0000 0.0000 0.0000 22.3175 0.0000
# 6 0.0000 0.0000 0.0000 0.0000 0.0000 24.1126
#
#
#
# Elastic Compliance Matrix: (Units=1/GPa)
#
#
# Indices 1 2 3 4 5 6 
#
# 1 0.018747 -0.003178 -0.008215 0.000000 0.000000 0.000000
# 2 -0.003178 0.015982 -0.011655 0.000000 0.000000 0.000000
# 3 -0.008215 -0.011655 0.028926 0.000000 0.000000 0.000000
# 4 0.000000 0.000000 0.000000 0.035853 0.000000 0.000000
# 5 0.000000 0.000000 0.000000 0.000000 0.044808 0.000000
# 6 0.000000 0.000000 0.000000 0.000000 0.000000 0.041472
#
#
# Mechanical properties :
#
#
# Convention : Reuss Voigt Hill
#
# Bulk Modulus (GPa) = 56.95170 61.50285 59.22728
# Shear Modulus (GPa) = 21.03170 22.75588 21.89379
#
# Velocity S-wave (km/s) = 3.61677 3.76210 3.69015
# Velocity P-wave (km/s) = 7.27073 7.55804 7.41578
#
# Compressibility (1/GPa) = 0.01755874
#
# Stress axis : x y z
#
# Youngs Moduli (GPa) = 53.34287 62.57144 34.57047
#
# Poissons Ratio (x) = 0.19887 0.28399
# Poissons Ratio (y) = 0.16954 0.40292
# Poissons Ratio (z) = 0.43820 0.72927
#
# Static dielectric constant tensor:
#      x y z
#    x 2.933160 0.000000 0.000000 
#    y 0.000000 3.124220 0.000000 
#    z 0.000000 0.000000 3.283980 
# 
# 
# High freq. dielectric constant tensor:
#      x y z
#    x 1.590090 0.000000 0.000000 
#    y 0.000000 1.614060 0.000000 
#    z 0.000000 0.000000 1.623850 
# 
# From -- ./inp_files/5950.got.cif
#   From: 2010.03.12/outbox.cif.g09.slc.cpg/sg57_3_cif.got.tgz:5950.got - 2010.04.16 15:48:40.
