data_PCOD8230465
_publ_section_title
;
Structure prediction by ZEFSAII (Michael W. Deem and Ramdas Pophale) SiO2 
 PCOD8230465
Probable space group: P B C M
;
_chemical_formula_sum "Si O2"
_cell_formula_units_Z 44
_cell_length_a 10.963014
_cell_length_b 11.975503
_cell_length_c 18.463224
_cell_angle_alpha 90.000000
_cell_angle_beta 90.000000
_cell_angle_gamma 90.000000
_cell_volume 2423.992497
_symmetry_space_group_name_H-M "P B C M"
_symmetry_group_IT_number 57
_symmetry_cell_setting 'orthorhombic'
loop_
_space_group_symop_operation_xyz
x,y,z
-x,-y,1/2+z
x,1/2-y,-z
-x,1/2+y,1/2-z
-x,-y,-z
x,y,1/2-z
-x,1/2+y,z
x,1/2-y,1/2+z
loop_
_atom_site_type_symbol
_atom_site_label
_atom_site_fract_x
_atom_site_fract_y
_atom_site_fract_z
Si Si1 0.329979 0.571637 0.016283
Si Si2 0.231573 0.223133 0.165519
Si Si3 0.045078 0.388955 0.922888
Si Si4 0.416876 0.152259 0.054098
Si Si5 0.144582 0.750000 0.000000
Si Si6 0.856357 0.570817 0.576355
O O1 0.435987 0.647753 0.051875
O O2 0.232715 0.649433 0.972714
O O3 0.257056 0.514611 0.082538
O O4 0.376555 0.474140 0.963529
O O5 0.252620 0.235739 0.250000
O O6 0.129638 0.130656 0.146907
O O7 0.362824 0.189275 0.131634
O O8 0.171765 0.334946 0.133933
O O9 0.941536 0.292927 0.934188
O O10 0.984705 0.509427 0.908332
O O11 0.134240 0.385566 0.993198
O O12 0.370463 0.250000 0.000000
#
# Coordination Sequence:
#
# PCOD8230465 Si02
#       6
#     8   8   8   8   4   8
#     4  10  20  33  62  86 109 138 186 251 290 330
#     4  12  23  36  54  82 124 159 187 228 288 359
#     4  10  19  34  59  85 117 141 192 241 282 342
#     4  11  20  37  59  84 110 144 198 246 285 331
#     4  10  18  32  58  96 108 136 182 248 302 322
#     4  10  19  36  58  85 108 148 189 243 288 331
#
# _framework density 18.151871
#
# number of rings (size 3 to 8) (size 9 to 14) (size 15 to 20)
#    0.000    1.455    6.364    0.000    0.000    0.727 
#    0.000    0.909    0.000    1.091    0.000    0.000 
#    0.000    0.000    0.000    0.000    0.000    0.000 
#
# Total GULP energy -545134.080796 kJ/mol
# GULP energy per Si atom -12389.410927 kJ/mol
# Density = 1.811056 g / cm^3
# Si number density = 18.151871 Si / 1000 Ang^3
#
#
#
# Elastic Constant Matrix: (Units=GPa)
#
#
# Indices 1 2 3 4 5 6 
#
# 1 110.3330 31.6609 47.4491 0.0000 0.0000 0.0000
# 2 31.6609 75.0077 34.4722 0.0000 0.0000 0.0000
# 3 47.4491 34.4722 107.2809 0.0000 0.0000 0.0000
# 4 0.0000 0.0000 0.0000 15.1805 0.0000 0.0000
# 5 0.0000 0.0000 0.0000 0.0000 17.5467 0.0000
# 6 0.0000 0.0000 0.0000 0.0000 0.0000 34.5744
#
#
#
# Elastic Compliance Matrix: (Units=1/GPa)
#
#
# Indices 1 2 3 4 5 6 
#
# 1 0.011746 -0.003016 -0.004226 0.000000 0.000000 0.000000
# 2 -0.003016 0.016416 -0.003941 0.000000 0.000000 0.000000
# 3 -0.004226 -0.003941 0.012457 0.000000 0.000000 0.000000
# 4 0.000000 0.000000 0.000000 0.065874 0.000000 0.000000
# 5 0.000000 0.000000 0.000000 0.000000 0.056991 0.000000
# 6 0.000000 0.000000 0.000000 0.000000 0.000000 0.028923
#
#
# Mechanical properties :
#
#
# Convention : Reuss Voigt Hill
#
# Bulk Modulus (GPa) = 54.78499 57.75399 56.26949
# Shear Modulus (GPa) = 22.63899 25.39630 24.01765
#
# Velocity S-wave (km/s) = 3.53540 3.74451 3.64146
# Velocity P-wave (km/s) = 6.84926 7.11206 6.98190
#
# Compressibility (1/GPa) = 0.01825318
#
# Stress axis : x y z
#
# Youngs Moduli (GPa) = 85.13251 60.91541 80.27684
#
# Poissons Ratio (x) = 0.18371 0.33927
# Poissons Ratio (y) = 0.25675 0.31638
# Poissons Ratio (z) = 0.35979 0.24007
#
# Static dielectric constant tensor:
#      x y z
#    x 3.844910 0.000000 0.000000 
#    y 0.000000 3.683760 0.000000 
#    z 0.000000 0.000000 2.759900 
# 
# 
# High freq. dielectric constant tensor:
#      x y z
#    x 1.730740 0.000000 0.000000 
#    y 0.000000 1.726970 0.000000 
#    z 0.000000 0.000000 1.619190 
# 
# From -- ./inp_files/21730.got.cif
#   From: 2010.03.12/outbox.cif.g09.slc.cpg/sg57_11_cif.got.tgz:21730.got - 2010.04.16 15:48:40.
