data_PCOD8230408
_publ_section_title
;
Structure prediction by ZEFSAII (Michael W. Deem and Ramdas Pophale) SiO2 
 PCOD8230408
Probable space group: P B C M
;
_chemical_formula_sum "Si O2"
_cell_formula_units_Z 56
_cell_length_a 9.243130
_cell_length_b 14.968295
_cell_length_c 22.415194
_cell_angle_alpha 90.000000
_cell_angle_beta 90.000000
_cell_angle_gamma 90.000000
_cell_volume 3101.229432
_symmetry_space_group_name_H-M "P B C M"
_symmetry_group_IT_number 57
_symmetry_cell_setting 'orthorhombic'
loop_
_space_group_symop_operation_xyz
x,y,z
-x,-y,1/2+z
x,1/2-y,-z
-x,1/2+y,1/2-z
-x,-y,-z
x,y,1/2-z
-x,1/2+y,z
x,1/2-y,1/2+z
loop_
_atom_site_type_symbol
_atom_site_label
_atom_site_fract_x
_atom_site_fract_y
_atom_site_fract_z
Si Si1 0.530435 0.876993 0.098087
Si Si2 0.604866 0.032954 0.181201
Si Si3 0.133425 0.555580 0.097414
Si Si4 0.849933 0.870550 0.051852
Si Si5 0.349249 0.850245 0.988085
Si Si6 0.122177 0.324713 0.583694
Si Si7 0.556517 0.678312 0.118970
O O1 0.679108 0.880097 0.061651
O O2 0.518563 0.781674 0.130923
O O3 0.521506 0.953011 0.147828
O O4 0.400829 0.892950 0.050761
O O5 0.620096 0.008134 0.250000
O O6 0.764167 0.047758 0.154722
O O7 0.510749 0.122508 0.173334
O O8 0.071613 0.457614 0.079712
O O9 0.218339 0.593387 0.039491
O O10 0.004764 0.621804 0.117517
O O11 0.911940 0.781310 0.083285
O O12 0.875656 0.865567 0.982015
O O13 0.486299 0.851019 0.943795
O O14 0.293110 0.750000 0.000000
O O15 0.272875 0.340684 0.617193
#
# Coordination Sequence:
#
# PCOD8230408 Si02
#       7
#     8   8   8   8   8   8   8
#     4   9  17  33  55  78 103 138 167 213 259 311
#     4  10  22  37  53  73  99 137 185 222 251 296
#     4  10  21  32  51  77 105 140 164 210 265 305
#     4   9  18  30  50  75 111 135 162 197 254 323
#     4   9  17  30  50  80 112 134 164 200 263 322
#     4  10  18  32  49  77 109 134 161 204 254 322
#     4   9  18  33  54  77 105 136 167 212 258 311
#
# _framework density 18.057354
#
# number of rings (size 3 to 8) (size 9 to 14) (size 15 to 20)
#    0.000    2.571    1.429    0.429    4.000    2.286 
#    0.000    0.714    0.000    3.429    0.000    0.000 
#    0.000    0.000    0.000    0.000    0.000    0.000 
#
# Total GULP energy -694364.240324 kJ/mol
# GULP energy per Si atom -12399.361434 kJ/mol
# Density = 1.801626 g / cm^3
# Si number density = 18.057354 Si / 1000 Ang^3
#
#
#
# Elastic Constant Matrix: (Units=GPa)
#
#
# Indices 1 2 3 4 5 6 
#
# 1 57.2311 36.0426 17.6620 0.0000 0.0000 0.0000
# 2 36.0426 106.3069 34.0758 0.0000 0.0000 0.0000
# 3 17.6620 34.0758 79.5314 0.0000 0.0000 0.0000
# 4 0.0000 0.0000 0.0000 17.6836 0.0000 0.0000
# 5 0.0000 0.0000 0.0000 0.0000 12.7393 0.0000
# 6 0.0000 0.0000 0.0000 0.0000 0.0000 30.7222
#
#
#
# Elastic Compliance Matrix: (Units=1/GPa)
#
#
# Indices 1 2 3 4 5 6 
#
# 1 0.022489 -0.006983 -0.002002 0.000000 0.000000 0.000000
# 2 -0.006983 0.013072 -0.004050 0.000000 0.000000 0.000000
# 3 -0.002002 -0.004050 0.014754 0.000000 0.000000 0.000000
# 4 0.000000 0.000000 0.000000 0.056549 0.000000 0.000000
# 5 0.000000 0.000000 0.000000 0.000000 0.078497 0.000000
# 6 0.000000 0.000000 0.000000 0.000000 0.000000 0.032550
#
#
# Mechanical properties :
#
#
# Convention : Reuss Voigt Hill
#
# Bulk Modulus (GPa) = 41.24747 46.51446 43.88097
# Shear Modulus (GPa) = 19.83628 22.58161 21.20895
#
# Velocity S-wave (km/s) = 3.31798 3.54015 3.43086
# Velocity P-wave (km/s) = 6.12950 6.52115 6.32835
#
# Compressibility (1/GPa) = 0.02424391
#
# Stress axis : x y z
#
# Youngs Moduli (GPa) = 44.46716 76.49670 67.77957
#
# Poissons Ratio (x) = 0.53416 0.13572
# Poissons Ratio (y) = 0.31050 0.27453
# Poissons Ratio (z) = 0.08904 0.30983
#
# Static dielectric constant tensor:
#      x y z
#    x 3.223500 0.000000 0.000000 
#    y 0.000000 3.732600 0.000000 
#    z 0.000000 0.000000 2.884440 
# 
# 
# High freq. dielectric constant tensor:
#      x y z
#    x 1.685380 0.000000 0.000000 
#    y 0.000000 1.719100 0.000000 
#    z 0.000000 0.000000 1.650280 
# 
# From -- ./inp_files/24400.got.cif
#   From: 2010.03.12/outbox.cif.g09.slc.cpg/sg57_13_cif.got.tgz:24400.got - 2010.04.16 15:48:40.
