data_PCOD8230767
_publ_section_title
;
Structure prediction by ZEFSAII (Michael W. Deem and Ramdas Pophale) SiO2 
 PCOD8230767
Probable space group: P B C M
;
_chemical_formula_sum "Si O2"
_cell_formula_units_Z 64
_cell_length_a 19.287613
_cell_length_b 23.218248
_cell_length_c 8.957307
_cell_angle_alpha 90.000000
_cell_angle_beta 90.000000
_cell_angle_gamma 90.000000
_cell_volume 4011.302263
_symmetry_space_group_name_H-M "P B C M"
_symmetry_group_IT_number 57
_symmetry_cell_setting 'orthorhombic'
loop_
_space_group_symop_operation_xyz
x,y,z
-x,-y,1/2+z
x,1/2-y,-z
-x,1/2+y,1/2-z
-x,-y,-z
x,y,1/2-z
-x,1/2+y,z
x,1/2-y,1/2+z
loop_
_atom_site_type_symbol
_atom_site_label
_atom_site_fract_x
_atom_site_fract_y
_atom_site_fract_z
Si Si1 0.751444 0.634143 0.073964
Si Si2 0.882950 0.690805 0.924896
Si Si3 0.103304 0.521528 0.574104
Si Si4 0.749789 0.503494 0.073939
Si Si5 0.030037 0.082583 0.576259
Si Si6 0.472254 0.089473 0.923038
Si Si7 0.599570 0.016008 0.923300
Si Si8 0.395666 0.311285 0.925446
O O1 0.765249 0.637330 0.250000
O O2 0.750173 0.568875 0.012319
O O3 0.678784 0.663122 0.030430
O O4 0.810857 0.669091 0.990811
O O5 0.872502 0.699997 0.750000
O O6 0.946035 0.647084 0.960338
O O7 0.905794 0.750000 0.000000
O O8 0.104141 0.515411 0.750000
O O9 0.182270 0.531518 0.514661
O O10 0.078736 0.460431 0.512901
O O11 0.050612 0.572826 0.526228
O O12 0.753303 0.507948 0.250000
O O13 0.679030 0.470613 0.027571
O O14 0.039125 0.068246 0.750000
O O15 0.456735 0.100820 0.750000
O O16 0.553097 0.072737 0.949973
O O17 0.455964 0.146694 0.015306
O O18 0.425474 0.036683 0.976812
O O19 0.595672 0.996350 0.750000
O O20 0.404263 0.304695 0.750000
O O21 0.406214 0.250000 0.000000
#
# Coordination Sequence:
#
# PCOD8230767 Si02
#       8
#     8   8   8   8   8   8   8   8
#     4  10  19  32  48  67  92 124 158 189 221 262
#     4  11  22  33  45  63  91 123 158 193 224 263
#     4   9  16  28  48  67  88 117 148 181 225 274
#     4   9  15  27  48  71  92 120 152 182 221 271
#     4   9  18  30  43  65  91 115 147 190 227 261
#     4  10  19  30  47  69  93 122 155 190 232 274
#     4   9  17  31  48  68  94 121 153 191 228 272
#     4  11  22  35  49  65  92 124 160 196 227 267
#
# _framework density 15.954919
#
# number of rings (size 3 to 8) (size 9 to 14) (size 15 to 20)
#    0.000    2.250    2.500    1.500    0.000    3.000 
#    0.000    0.625    0.000    0.000    0.000    0.875 
#    0.000    2.000    0.000    0.000    0.000    0.250 
#
# Total GULP energy -793302.665587 kJ/mol
# GULP energy per Si atom -12395.354150 kJ/mol
# Density = 1.591860 g / cm^3
# Si number density = 15.954919 Si / 1000 Ang^3
#
#
#
# Elastic Constant Matrix: (Units=GPa)
#
#
# Indices 1 2 3 4 5 6 
#
# 1 147.2343 66.7051 35.4241 0.0000 0.0000 0.0000
# 2 66.7051 90.0321 34.9148 0.0000 0.0000 0.0000
# 3 35.4241 34.9148 43.2989 0.0000 0.0000 0.0000
# 4 0.0000 0.0000 0.0000 22.3843 0.0000 0.0000
# 5 0.0000 0.0000 0.0000 0.0000 16.3128 0.0000
# 6 0.0000 0.0000 0.0000 0.0000 0.0000 23.1458
#
#
#
# Elastic Compliance Matrix: (Units=1/GPa)
#
#
# Indices 1 2 3 4 5 6 
#
# 1 0.010555 -0.006506 -0.003389 0.000000 0.000000 0.000000
# 2 -0.006506 0.020171 -0.010943 0.000000 0.000000 0.000000
# 3 -0.003389 -0.010943 0.034692 0.000000 0.000000 0.000000
# 4 0.000000 0.000000 0.000000 0.044674 0.000000 0.000000
# 5 0.000000 0.000000 0.000000 0.000000 0.061302 0.000000
# 6 0.000000 0.000000 0.000000 0.000000 0.000000 0.043204
#
#
# Mechanical properties :
#
#
# Convention : Reuss Voigt Hill
#
# Bulk Modulus (GPa) = 42.11867 61.62817 51.87342
# Shear Modulus (GPa) = 18.92601 21.93666 20.43134
#
# Velocity S-wave (km/s) = 3.44789 3.71201 3.58238
# Velocity P-wave (km/s) = 6.50434 7.55528 7.04942
#
# Compressibility (1/GPa) = 0.02374244
#
# Stress axis : x y z
#
# Youngs Moduli (GPa) = 94.74386 49.57644 28.82529
#
# Poissons Ratio (x) = 0.32253 0.09769
# Poissons Ratio (y) = 0.61638 0.31542
# Poissons Ratio (z) = 0.32110 0.54249
#
# Static dielectric constant tensor:
#      x y z
#    x 3.609970 0.000000 0.000000 
#    y 0.000000 2.948220 0.000000 
#    z 0.000000 0.000000 3.006780 
# 
# 
# High freq. dielectric constant tensor:
#      x y z
#    x 1.616750 0.000000 0.000000 
#    y 0.000000 1.584380 0.000000 
#    z 0.000000 0.000000 1.610080 
# 
# From -- ./inp_files/8722.got.cif
#   From: 2010.03.12/outbox.cif.g09.slc.cpg/sg57_5_cif.got.tgz:8722.got - 2010.04.16 15:48:40.
