data_PCOD8230371
_publ_section_title
;
Structure prediction by ZEFSAII (Michael W. Deem and Ramdas Pophale) SiO2 
 PCOD8230371
Probable space group: P B C M
;
_chemical_formula_sum "Si O2"
_cell_formula_units_Z 64
_cell_length_a 11.648502
_cell_length_b 12.300046
_cell_length_c 22.976878
_cell_angle_alpha 90.000000
_cell_angle_beta 90.000000
_cell_angle_gamma 90.000000
_cell_volume 3292.060687
_symmetry_space_group_name_H-M "P B C M"
_symmetry_group_IT_number 57
_symmetry_cell_setting 'orthorhombic'
loop_
_space_group_symop_operation_xyz
x,y,z
-x,-y,1/2+z
x,1/2-y,-z
-x,1/2+y,1/2-z
-x,-y,-z
x,y,1/2-z
-x,1/2+y,z
x,1/2-y,1/2+z
loop_
_atom_site_type_symbol
_atom_site_label
_atom_site_fract_x
_atom_site_fract_y
_atom_site_fract_z
Si Si1 0.347558 0.889633 0.316863
Si Si2 0.271129 0.381674 0.857903
Si Si3 0.188379 0.039373 0.685411
Si Si4 0.601095 0.823195 0.182291
Si Si5 0.944653 0.763234 0.814093
Si Si6 0.137502 0.478032 0.545706
Si Si7 0.114041 0.576005 0.070478
Si Si8 0.152968 0.705274 0.605393
O O1 0.328630 0.858849 0.250000
O O2 0.474509 0.856684 0.337517
O O3 0.261216 0.817513 0.354148
O O4 0.328956 0.018077 0.324449
O O5 0.356687 0.279397 0.856060
O O6 0.147002 0.357053 0.829857
O O7 0.245696 0.417183 0.924861
O O8 0.179833 0.984725 0.750000
O O9 0.320227 0.070820 0.671211
O O10 0.117911 0.149185 0.685545
O O11 0.137314 0.961252 0.636581
O O12 0.608271 0.788352 0.250000
O O13 0.992562 0.789955 0.750000
O O14 0.049093 0.757206 0.857999
O O15 0.165350 0.490954 0.476922
O O16 0.115285 0.598021 0.571819
O O17 0.021585 0.410708 0.557070
O O18 0.176882 0.693386 0.061774
#
# Coordination Sequence:
#
# PCOD8230371 Si02
#       8
#     8   8   8   8   8   8   8   8
#     4  10  21  35  56  85 116 153 195 236 286 351
#     4  10  19  37  58  81 112 154 194 236 290 343
#     4   9  19  35  56  83 114 142 184 239 287 338
#     4   9  19  37  59  84 115 153 197 241 284 338
#     4  10  18  31  52  82 116 147 180 230 290 348
#     4  10  22  37  56  80 113 152 196 230 283 352
#     4  11  21  37  56  82 115 150 183 238 289 345
#     4  11  21  35  52  82 116 148 186 237 286 343
#
# _framework density 19.440711
#
# number of rings (size 3 to 8) (size 9 to 14) (size 15 to 20)
#    0.000    2.000    2.500    2.625    0.000    2.000 
#    0.000    5.000    0.000    9.750    0.000    0.000 
#    0.000    0.000    0.000    0.000    0.000    0.000 
#
# Total GULP energy -793374.697689 kJ/mol
# GULP energy per Si atom -12396.479651 kJ/mol
# Density = 1.939646 g / cm^3
# Si number density = 19.440711 Si / 1000 Ang^3
#
#
#
# Elastic Constant Matrix: (Units=GPa)
#
#
# Indices 1 2 3 4 5 6 
#
# 1 90.9027 19.8739 22.0861 0.0000 0.0000 0.0000
# 2 19.8739 60.1967 20.7773 0.0000 0.0000 0.0000
# 3 22.0861 20.7773 84.6403 0.0000 0.0000 0.0000
# 4 0.0000 0.0000 0.0000 21.7095 0.0000 0.0000
# 5 0.0000 0.0000 0.0000 0.0000 27.2100 0.0000
# 6 0.0000 0.0000 0.0000 0.0000 0.0000 27.1469
#
#
#
# Elastic Compliance Matrix: (Units=1/GPa)
#
#
# Indices 1 2 3 4 5 6 
#
# 1 0.012293 -0.003225 -0.002416 0.000000 0.000000 0.000000
# 2 -0.003225 0.018996 -0.003822 0.000000 0.000000 0.000000
# 3 -0.002416 -0.003822 0.013383 0.000000 0.000000 0.000000
# 4 0.000000 0.000000 0.000000 0.046063 0.000000 0.000000
# 5 0.000000 0.000000 0.000000 0.000000 0.036751 0.000000
# 6 0.000000 0.000000 0.000000 0.000000 0.000000 0.036837
#
#
# Mechanical properties :
#
#
# Convention : Reuss Voigt Hill
#
# Bulk Modulus (GPa) = 38.83900 40.13494 39.48697
# Shear Modulus (GPa) = 26.06480 26.74677 26.40579
#
# Velocity S-wave (km/s) = 3.66557 3.71322 3.68947
# Velocity P-wave (km/s) = 6.15929 6.25089 6.20526
#
# Compressibility (1/GPa) = 0.02574732
#
# Stress axis : x y z
#
# Youngs Moduli (GPa) = 81.34856 52.64310 74.71995
#
# Poissons Ratio (x) = 0.16975 0.18053
# Poissons Ratio (y) = 0.26231 0.28555
# Poissons Ratio (z) = 0.19655 0.20118
#
# Static dielectric constant tensor:
#      x y z
#    x 3.538850 0.000000 0.000000 
#    y 0.000000 3.537880 0.000000 
#    z 0.000000 0.000000 3.729120 
# 
# 
# High freq. dielectric constant tensor:
#      x y z
#    x 1.737660 0.000000 0.000000 
#    y 0.000000 1.760920 0.000000 
#    z 0.000000 0.000000 1.751670 
# 
# From -- ./inp_files/27302.got.cif
#   From: 2010.03.12/outbox.cif.g09.slc.cpg/sg57_14_cif.got.tgz:27302.got - 2010.04.16 15:48:40.
