data_PCOD8230557
_publ_section_title
;
Structure prediction by ZEFSAII (Michael W. Deem and Ramdas Pophale) SiO2 
 PCOD8230557
Probable space group: P B C M
;
_chemical_formula_sum "Si O2"
_cell_formula_units_Z 36
_cell_length_a 9.810921
_cell_length_b 22.405408
_cell_length_c 9.552373
_cell_angle_alpha 90.000000
_cell_angle_beta 90.000000
_cell_angle_gamma 90.000000
_cell_volume 2099.780546
_symmetry_space_group_name_H-M "P B C M"
_symmetry_group_IT_number 57
_symmetry_cell_setting 'orthorhombic'
loop_
_space_group_symop_operation_xyz
x,y,z
-x,-y,1/2+z
x,1/2-y,-z
-x,1/2+y,1/2-z
-x,-y,-z
x,y,1/2-z
-x,1/2+y,z
x,1/2-y,1/2+z
loop_
_atom_site_type_symbol
_atom_site_label
_atom_site_fract_x
_atom_site_fract_y
_atom_site_fract_z
Si Si1 0.161689 0.191428 0.092143
Si Si2 0.646192 0.423754 0.750000
Si Si3 0.614080 0.991726 0.750000
Si Si4 0.930989 0.584577 0.907942
Si Si5 0.383677 0.140455 0.250000
Si Si6 0.788375 0.468778 0.006789
O O1 0.099471 0.200311 0.250000
O O2 0.322631 0.173648 0.111522
O O3 0.148368 0.250000 0.000000
O O4 0.080338 0.139280 0.014435
O O5 0.550280 0.483528 0.750000
O O6 0.548636 0.364320 0.750000
O O7 0.741980 0.423523 0.885244
O O8 0.683031 0.925988 0.750000
O O9 0.661886 0.027122 0.612956
O O10 0.903047 0.606852 0.750000
O O11 0.822158 0.533481 0.943960
O O12 0.082398 0.558153 0.914561
#
# Coordination Sequence:
#
# PCOD8230557 Si02
#       6
#     8   4   4   8   4   8
#     4  10  20  37  59  81 105 137 182 233 274 315
#     4  10  20  32  55  73 112 154 180 205 275 326
#     4  10  18  35  47  78 120 136 185 214 266 333
#     4  11  21  32  52  83 115 142 183 222 276 326
#     4   8  20  33  54  79 110 138 175 229 257 327
#     4  11  20  32  52  83 113 150 175 221 274 331
#
# _framework density 17.144648
#
# number of rings (size 3 to 8) (size 9 to 14) (size 15 to 20)
#    1.333    0.444    4.444    1.333    1.556    0.000 
#    0.000    0.000    2.444    1.333    0.000    0.000 
#    0.000    0.000    0.000    0.000    0.000    0.000 
#
# Total GULP energy -446077.645737 kJ/mol
# GULP energy per Si atom -12391.045715 kJ/mol
# Density = 1.710563 g / cm^3
# Si number density = 17.144648 Si / 1000 Ang^3
#
#
#
# Elastic Constant Matrix: (Units=GPa)
#
#
# Indices 1 2 3 4 5 6 
#
# 1 38.6874 1.9364 11.0627 0.0000 0.0000 0.0000
# 2 1.9364 71.0567 30.4380 0.0000 0.0000 0.0000
# 3 11.0627 30.4380 122.8226 0.0000 0.0000 0.0000
# 4 0.0000 0.0000 0.0000 27.6277 0.0000 0.0000
# 5 0.0000 0.0000 0.0000 0.0000 27.0020 0.0000
# 6 0.0000 0.0000 0.0000 0.0000 0.0000 15.2637
#
#
#
# Elastic Compliance Matrix: (Units=1/GPa)
#
#
# Indices 1 2 3 4 5 6 
#
# 1 0.026539 0.000336 -0.002474 0.000000 0.000000 0.000000
# 2 0.000336 0.015749 -0.003933 0.000000 0.000000 0.000000
# 3 -0.002474 -0.003933 0.009339 0.000000 0.000000 0.000000
# 4 0.000000 0.000000 0.000000 0.036196 0.000000 0.000000
# 5 0.000000 0.000000 0.000000 0.000000 0.037034 0.000000
# 6 0.000000 0.000000 0.000000 0.000000 0.000000 0.065515
#
#
# Mechanical properties :
#
#
# Convention : Reuss Voigt Hill
#
# Bulk Modulus (GPa) = 25.32541 35.49344 30.40942
# Shear Modulus (GPa) = 23.18303 26.58731 24.88517
#
# Velocity S-wave (km/s) = 3.68122 3.94225 3.81397
# Velocity P-wave (km/s) = 5.73343 6.43965 6.09677
#
# Compressibility (1/GPa) = 0.03948604
#
# Stress axis : x y z
#
# Youngs Moduli (GPa) = 37.68072 63.49638 107.07367
#
# Poissons Ratio (x) = -0.02136 0.26487
# Poissons Ratio (y) = -0.01268 0.42114
# Poissons Ratio (z) = 0.09321 0.24974
#
# Static dielectric constant tensor:
#      x y z
#    x 2.953600 0.000000 0.000000 
#    y 0.000000 2.900040 0.000000 
#    z 0.000000 0.000000 3.206810 
# 
# 
# High freq. dielectric constant tensor:
#      x y z
#    x 1.644760 0.000000 0.000000 
#    y 0.000000 1.626450 0.000000 
#    z 0.000000 0.000000 1.675330 
# 
# From -- ./inp_files/2842.got.cif
#   From: 2010.03.12/outbox.cif.g09.slc.cpg/sg57_2_cif.got.tgz:2842.got - 2010.04.16 15:48:40.
