data_PCOD8230227
_publ_section_title
;
Structure prediction by ZEFSAII (Michael W. Deem and Ramdas Pophale) SiO2 
 PCOD8230227
Probable space group: P B C M
;
_chemical_formula_sum "Si O2"
_cell_formula_units_Z 64
_cell_length_a 15.036499
_cell_length_b 29.684419
_cell_length_c 9.265886
_cell_angle_alpha 90.000000
_cell_angle_beta 90.000000
_cell_angle_gamma 90.000000
_cell_volume 4135.825776
_symmetry_space_group_name_H-M "P B C M"
_symmetry_group_IT_number 57
_symmetry_cell_setting 'orthorhombic'
loop_
_space_group_symop_operation_xyz
x,y,z
-x,-y,1/2+z
x,1/2-y,-z
-x,1/2+y,1/2-z
-x,-y,-z
x,y,1/2-z
-x,1/2+y,z
x,1/2-y,1/2+z
loop_
_atom_site_type_symbol
_atom_site_label
_atom_site_fract_x
_atom_site_fract_y
_atom_site_fract_z
Si Si1 0.527694 0.606956 0.078884
Si Si2 0.363904 0.560916 0.921003
Si Si3 0.323608 0.460007 0.919722
Si Si4 0.942835 0.055708 0.086365
Si Si5 0.217036 0.612919 0.416037
Si Si6 0.491289 0.706602 0.082931
Si Si7 0.871010 0.972037 0.581436
Si Si8 0.286165 0.707414 0.082893
O O1 0.511622 0.600938 0.250000
O O2 0.614450 0.580313 0.021011
O O3 0.540680 0.659916 0.041025
O O4 0.443459 0.586841 0.997466
O O5 0.368766 0.568754 0.750000
O O6 0.367232 0.507970 0.960972
O O7 0.271312 0.579663 0.981189
O O8 0.318540 0.454833 0.750000
O O9 0.223240 0.454971 0.984400
O O10 0.935236 0.037486 0.250000
O O11 0.888150 0.102090 0.068599
O O12 0.047851 0.063012 0.049226
O O13 0.897504 0.019607 0.984020
O O14 0.249669 0.607008 0.250000
O O15 0.230601 0.664034 0.466632
O O16 0.502958 0.717451 0.250000
O O17 0.388597 0.699403 0.040265
O O18 0.531659 0.750000 0.000000
O O19 0.857020 0.980405 0.750000
O O20 0.275269 0.717465 0.250000
O O21 0.245847 0.750000 0.000000
#
# Coordination Sequence:
#
# PCOD8230227 Si02
#       8
#     8   8   8   8   8   8   8   8
#     4  10  19  33  47  61  85 121 152 176 216 264
#     4  11  20  29  42  65  91 119 150 182 212 245
#     4   9  18  30  45  63  89 120 150 183 214 250
#     4   9  17  27  45  66  86 115 145 175 213 254
#     4  10  18  30  45  64  89 119 149 176 213 264
#     4   9  17  29  45  62  81 108 141 180 220 257
#     4   9  16  29  44  64  90 113 143 181 214 246
#     4   9  17  29  43  61  84 110 142 180 218 258
#
# _framework density 15.474539999999999
#
# number of rings (size 3 to 8) (size 9 to 14) (size 15 to 20)
#    0.000    2.500    2.500    0.750    0.000    1.000 
#    0.000    1.250    0.000    0.000    0.000    0.875 
#    0.000    0.000    0.000    0.000    0.000    0.000 
#
# Total GULP energy -793205.950318 kJ/mol
# GULP energy per Si atom -12393.842974 kJ/mol
# Density = 1.543932 g / cm^3
# Si number density = 15.474540 Si / 1000 Ang^3
#
#
#
# Elastic Constant Matrix: (Units=GPa)
#
#
# Indices 1 2 3 4 5 6 
#
# 1 81.2338 48.0914 24.5098 0.0000 0.0000 0.0000
# 2 48.0914 119.5638 35.6780 0.0000 0.0000 0.0000
# 3 24.5098 35.6780 35.8584 0.0000 0.0000 0.0000
# 4 0.0000 0.0000 0.0000 21.5401 0.0000 0.0000
# 5 0.0000 0.0000 0.0000 0.0000 13.0079 0.0000
# 6 0.0000 0.0000 0.0000 0.0000 0.0000 20.2494
#
#
#
# Elastic Compliance Matrix: (Units=1/GPa)
#
#
# Indices 1 2 3 4 5 6 
#
# 1 0.017302 -0.004879 -0.006972 0.000000 0.000000 0.000000
# 2 -0.004879 0.013271 -0.009870 0.000000 0.000000 0.000000
# 3 -0.006972 -0.009870 0.042473 0.000000 0.000000 0.000000
# 4 0.000000 0.000000 0.000000 0.046425 0.000000 0.000000
# 5 0.000000 0.000000 0.000000 0.000000 0.076876 0.000000
# 6 0.000000 0.000000 0.000000 0.000000 0.000000 0.049384
#
#
# Mechanical properties :
#
#
# Convention : Reuss Voigt Hill
#
# Bulk Modulus (GPa) = 33.77776 50.35716 42.06746
# Shear Modulus (GPa) = 16.72009 19.51793 18.11901
#
# Velocity S-wave (km/s) = 3.29065 3.55532 3.42554
# Velocity P-wave (km/s) = 6.02604 7.03323 6.54903
#
# Compressibility (1/GPa) = 0.02960528
#
# Stress axis : x y z
#
# Youngs Moduli (GPa) = 57.79654 75.35069 23.54436
#
# Poissons Ratio (x) = 0.36763 0.16415
# Poissons Ratio (y) = 0.28198 0.23238
# Poissons Ratio (z) = 0.40295 0.74369
#
# Static dielectric constant tensor:
#      x y z
#    x 3.197740 0.000000 0.000000 
#    y 0.000000 3.048480 0.000000 
#    z 0.000000 0.000000 2.907740 
# 
# 
# High freq. dielectric constant tensor:
#      x y z
#    x 1.578380 0.000000 0.000000 
#    y 0.000000 1.579940 0.000000 
#    z 0.000000 0.000000 1.585430 
# 
# From -- ./inp_files/6043.got.cif
#   From: 2010.03.12/outbox.cif.g09.slc.cpg/sg57_4_cif.got.tgz:6043.got - 2010.04.16 15:48:40.
