data_PCOD8230188
_publ_section_title
;
Structure prediction by ZEFSAII (Michael W. Deem and Ramdas Pophale) SiO2 
 PCOD8230188
Probable space group: P B C M
;
_chemical_formula_sum "Si O2"
_cell_formula_units_Z 64
_cell_length_a 20.258886
_cell_length_b 19.427586
_cell_length_c 9.031802
_cell_angle_alpha 90.000000
_cell_angle_beta 90.000000
_cell_angle_gamma 90.000000
_cell_volume 3554.747921
_symmetry_space_group_name_H-M "P B C M"
_symmetry_group_IT_number 57
_symmetry_cell_setting 'orthorhombic'
loop_
_space_group_symop_operation_xyz
x,y,z
-x,-y,1/2+z
x,1/2-y,-z
-x,1/2+y,1/2-z
-x,-y,-z
x,y,1/2-z
-x,1/2+y,z
x,1/2-y,1/2+z
loop_
_atom_site_type_symbol
_atom_site_label
_atom_site_fract_x
_atom_site_fract_y
_atom_site_fract_z
Si Si1 0.848396 0.570520 0.422723
Si Si2 0.981130 0.928756 0.424456
Si Si3 0.625924 0.603883 0.924284
Si Si4 0.652651 0.041225 0.923944
Si Si5 0.204576 0.575221 0.574841
Si Si6 0.512974 0.430214 0.080322
Si Si7 0.904541 0.322908 0.075894
Si Si8 0.262934 0.318395 0.922416
O O1 0.867251 0.568569 0.250000
O O2 0.910864 0.597123 0.515165
O O3 0.827387 0.495657 0.483588
O O4 0.788209 0.621133 0.454169
O O5 0.978547 0.940525 0.250000
O O6 0.033892 0.870660 0.467283
O O7 0.000000 0.000000 0.500000
O O8 0.641223 0.605836 0.750000
O O9 0.547739 0.621163 0.958573
O O10 0.645765 0.529186 0.986051
O O11 0.666740 0.662631 0.006510
O O12 0.658338 0.021963 0.750000
O O13 0.718909 0.080886 0.976436
O O14 0.589161 0.092013 0.954913
O O15 0.199665 0.573584 0.750000
O O16 0.162393 0.640038 0.515695
O O17 0.507353 0.449442 0.250000
O O18 0.500000 0.500000 0.000000
O O19 0.900823 0.310764 0.250000
O O20 0.913035 0.250000 0.000000
O O21 0.272934 0.304586 0.750000
O O22 0.235393 0.250000 0.000000
#
# Coordination Sequence:
#
# PCOD8230188 Si02
#       8
#     8   8   8   8   8   8   8   8
#     4  10  20  37  58  80 107 139 179 224 270 321
#     4  11  22  37  59  85 113 144 180 222 266 316
#     4  10  18  29  46  73 108 139 175 224 269 318
#     4   9  15  28  51  76 102 139 179 216 269 320
#     4   9  16  32  56  79 106 139 176 218 263 317
#     4   8  15  25  42  71 103 133 169 214 261 313
#     4  10  22  39  57  80 110 140 175 215 260 314
#     4  11  23  38  55  75 104 144 184 227 277 334
#
# _framework density 18.004089
#
# number of rings (size 3 to 8) (size 9 to 14) (size 15 to 20)
#    0.000    2.250    2.500    1.125    0.000    3.000 
#    0.000    3.125    0.000    0.750    0.000    1.750 
#    0.000    0.000    0.000    0.000    0.000    0.000 
#
# Total GULP energy -793114.384651 kJ/mol
# GULP energy per Si atom -12392.412260 kJ/mol
# Density = 1.796311 g / cm^3
# Si number density = 18.004089 Si / 1000 Ang^3
#
#
#
# Elastic Constant Matrix: (Units=GPa)
#
#
# Indices 1 2 3 4 5 6 
#
# 1 158.2892 54.1437 47.6555 0.0000 0.0000 0.0000
# 2 54.1437 102.5909 39.7201 0.0000 0.0000 0.0000
# 3 47.6555 39.7201 57.3235 0.0000 0.0000 0.0000
# 4 0.0000 0.0000 0.0000 26.0364 0.0000 0.0000
# 5 0.0000 0.0000 0.0000 0.0000 24.6716 0.0000
# 6 0.0000 0.0000 0.0000 0.0000 0.0000 20.1893
#
#
#
# Elastic Compliance Matrix: (Units=1/GPa)
#
#
# Indices 1 2 3 4 5 6 
#
# 1 0.008871 -0.002496 -0.005645 0.000000 0.000000 0.000000
# 2 -0.002496 0.014024 -0.007642 0.000000 0.000000 0.000000
# 3 -0.005645 -0.007642 0.027433 0.000000 0.000000 0.000000
# 4 0.000000 0.000000 0.000000 0.038408 0.000000 0.000000
# 5 0.000000 0.000000 0.000000 0.000000 0.040532 0.000000
# 6 0.000000 0.000000 0.000000 0.000000 0.000000 0.049531
#
#
# Mechanical properties :
#
#
# Convention : Reuss Voigt Hill
#
# Bulk Modulus (GPa) = 53.30180 66.80471 60.05325
# Shear Modulus (GPa) = 23.08197 25.95842 24.52019
#
# Velocity S-wave (km/s) = 3.58444 3.80123 3.69443
# Velocity P-wave (km/s) = 6.84110 7.51343 7.18513
#
# Compressibility (1/GPa) = 0.01876109
#
# Stress axis : x y z
#
# Youngs Moduli (GPa) = 112.72762 71.30868 36.45220
#
# Poissons Ratio (x) = 0.17799 0.20578
# Poissons Ratio (y) = 0.28138 0.27857
# Poissons Ratio (z) = 0.63637 0.54494
#
# Static dielectric constant tensor:
#      x y z
#    x 4.073090 0.000000 0.000000 
#    y 0.000000 3.084810 0.000000 
#    z 0.000000 0.000000 3.280900 
# 
# 
# High freq. dielectric constant tensor:
#      x y z
#    x 1.721620 0.000000 0.000000 
#    y 0.000000 1.659480 0.000000 
#    z 0.000000 0.000000 1.688860 
# 
# From -- ./inp_files/8446.got.cif
#   From: 2010.03.12/outbox.cif.g09.slc.cpg/sg57_5_cif.got.tgz:8446.got - 2010.04.16 15:48:40.
