data_PCOD8230154
_publ_section_title
;
Structure prediction by ZEFSAII (Michael W. Deem and Ramdas Pophale) SiO2 
 PCOD8230154
Probable space group: P B C M
;
_chemical_formula_sum "Si O2"
_cell_formula_units_Z 40
_cell_length_a 12.358578
_cell_length_b 20.966671
_cell_length_c 9.249417
_cell_angle_alpha 90.000000
_cell_angle_beta 90.000000
_cell_angle_gamma 90.000000
_cell_volume 2396.692644
_symmetry_space_group_name_H-M "P B C M"
_symmetry_group_IT_number 57
_symmetry_cell_setting 'orthorhombic'
loop_
_space_group_symop_operation_xyz
x,y,z
-x,-y,1/2+z
x,1/2-y,-z
-x,1/2+y,1/2-z
-x,-y,-z
x,y,1/2-z
-x,1/2+y,z
x,1/2-y,1/2+z
loop_
_atom_site_type_symbol
_atom_site_label
_atom_site_fract_x
_atom_site_fract_y
_atom_site_fract_z
Si Si1 0.251054 0.315668 0.582533
Si Si2 0.933969 0.587446 0.416896
Si Si3 0.653008 0.042879 0.083521
Si Si4 0.139291 0.944681 0.082647
Si Si5 0.417432 0.079552 0.415155
O O1 0.250864 0.250000 0.500000
O O2 0.241939 0.299720 0.750000
O O3 0.149286 0.358317 0.533126
O O4 0.362217 0.353087 0.547603
O O5 0.967388 0.594422 0.250000
O O6 0.876797 0.519763 0.443714
O O7 0.040713 0.594823 0.513740
O O8 0.687427 0.035840 0.250000
O O9 0.546547 0.086940 0.066012
O O10 0.749911 0.076146 0.995703
O O11 0.628868 0.972919 0.022803
O O12 0.147015 0.926662 0.250000
O O13 0.388135 0.059044 0.250000
#
# Coordination Sequence:
#
# PCOD8230154 Si02
#       5
#     8   8   8   8   8
#     4  10  20  35  52  71 100 133 165 203 243 287
#     4   9  18  32  48  69  99 131 163 200 245 292
#     4  10  18  28  49  75 100 129 162 201 249 301
#     4  10  18  30  49  72 102 130 158 202 251 297
#     4   9  18  33  48  69 101 132 162 201 248 291
#
# _framework density 16.689665000000002
#
# number of rings (size 3 to 8) (size 9 to 14) (size 15 to 20)
#    0.000    2.400    2.000    1.200    0.000    3.200 
#    0.000    0.000    0.000    1.200    0.000    2.800 
#    0.000    0.000    0.000    0.000    0.000    0.000 
#
# Total GULP energy -496038.256951 kJ/mol
# GULP energy per Si atom -12400.956424 kJ/mol
# Density = 1.665168 g / cm^3
# Si number density = 16.689665 Si / 1000 Ang^3
#
#
#
# Elastic Constant Matrix: (Units=GPa)
#
#
# Indices 1 2 3 4 5 6 
#
# 1 143.6055 55.1067 76.6737 0.0000 0.0000 0.0000
# 2 55.1067 86.2947 40.1746 0.0000 0.0000 0.0000
# 3 76.6737 40.1746 97.9491 0.0000 0.0000 0.0000
# 4 0.0000 0.0000 0.0000 25.3074 0.0000 0.0000
# 5 0.0000 0.0000 0.0000 0.0000 31.4928 0.0000
# 6 0.0000 0.0000 0.0000 0.0000 0.0000 20.9338
#
#
#
# Elastic Compliance Matrix: (Units=1/GPa)
#
#
# Indices 1 2 3 4 5 6 
#
# 1 0.013233 -0.004484 -0.008519 0.000000 0.000000 0.000000
# 2 -0.004484 0.015843 -0.002988 0.000000 0.000000 0.000000
# 3 -0.008519 -0.002988 0.018104 0.000000 0.000000 0.000000
# 4 0.000000 0.000000 0.000000 0.039514 0.000000 0.000000
# 5 0.000000 0.000000 0.000000 0.000000 0.031753 0.000000
# 6 0.000000 0.000000 0.000000 0.000000 0.000000 0.047770
#
#
# Mechanical properties :
#
#
# Convention : Reuss Voigt Hill
#
# Bulk Modulus (GPa) = 65.80417 74.63990 70.22204
# Shear Modulus (GPa) = 24.59844 25.93975 25.26909
#
# Velocity S-wave (km/s) = 3.84327 3.94666 3.89531
# Velocity P-wave (km/s) = 7.69467 8.09861 7.89922
#
# Compressibility (1/GPa) = 0.01519660
#
# Stress axis : x y z
#
# Youngs Moduli (GPa) = 75.56904 63.12048 55.23703
#
# Poissons Ratio (x) = 0.28304 0.47059
# Poissons Ratio (y) = 0.33886 0.16504
# Poissons Ratio (z) = 0.64380 0.18859
#
# Static dielectric constant tensor:
#      x y z
#    x 3.389500 0.000000 0.000000 
#    y 0.000000 2.719030 0.000000 
#    z 0.000000 0.000000 3.207440 
# 
# 
# High freq. dielectric constant tensor:
#      x y z
#    x 1.658370 0.000000 0.000000 
#    y 0.000000 1.592370 0.000000 
#    z 0.000000 0.000000 1.651910 
# 
# From -- ./inp_files/2688.got.cif
#   From: 2010.03.12/outbox.cif.g09.slc.cpg/sg57_2_cif.got.tgz:2688.got - 2010.04.16 15:48:40.
