data_PCOD8230773
_publ_section_title
;
Structure prediction by ZEFSAII (Michael W. Deem and Ramdas Pophale) SiO2 
 PCOD8230773
Probable space group: P B C M
;
_chemical_formula_sum "Si O2"
_cell_formula_units_Z 64
_cell_length_a 15.532455
_cell_length_b 28.349517
_cell_length_c 9.014254
_cell_angle_alpha 90.000000
_cell_angle_beta 90.000000
_cell_angle_gamma 90.000000
_cell_volume 3969.314946
_symmetry_space_group_name_H-M "P B C M"
_symmetry_group_IT_number 57
_symmetry_cell_setting 'orthorhombic'
loop_
_space_group_symop_operation_xyz
x,y,z
-x,-y,1/2+z
x,1/2-y,-z
-x,1/2+y,1/2-z
-x,-y,-z
x,y,1/2-z
-x,1/2+y,z
x,1/2-y,1/2+z
loop_
_atom_site_type_symbol
_atom_site_label
_atom_site_fract_x
_atom_site_fract_y
_atom_site_fract_z
Si Si1 0.666016 0.648922 0.077967
Si Si2 0.594442 0.548254 0.421171
Si Si3 0.651016 0.137285 0.573858
Si Si4 0.491130 0.700212 0.424596
Si Si5 0.004067 0.701076 0.921009
Si Si6 0.606767 0.454472 0.921800
Si Si7 0.810073 0.300305 0.076260
Si Si8 0.182355 0.199328 0.575992
O O1 0.690384 0.650730 0.250000
O O2 0.640304 0.596314 0.029818
O O3 0.588953 0.685135 0.043670
O O4 0.748526 0.662547 0.982975
O O5 0.611693 0.536132 0.250000
O O6 0.493590 0.554732 0.450428
O O7 0.632954 0.506278 0.520621
O O8 0.638182 0.138033 0.750000
O O9 0.570121 0.161305 0.495453
O O10 0.659502 0.083899 0.515993
O O11 0.737757 0.163536 0.521820
O O12 0.472049 0.750000 0.500000
O O13 0.472149 0.703430 0.250000
O O14 0.004921 0.713221 0.750000
O O15 0.095440 0.676216 0.962862
O O16 0.912625 0.676027 0.959558
O O17 0.003241 0.750000 0.000000
O O18 0.631444 0.450038 0.750000
O O19 0.800627 0.291227 0.250000
O O20 0.796178 0.250000 0.000000
O O21 0.194269 0.250000 0.500000
O O22 0.196532 0.206763 0.750000
#
# Coordination Sequence:
#
# PCOD8230773 Si02
#       8
#     8   8   8   8   8   8   8   8
#     4  10  20  34  49  67  94 125 157 192 231 277
#     4   9  18  34  51  69  91 120 155 194 237 279
#     4  11  21  32  48  70  94 126 161 194 232 278
#     4  11  22  35  46  63  93 130 164 193 228 271
#     4   8  15  29  46  65  91 120 153 194 234 275
#     4  10  19  33  51  71  93 120 154 196 239 279
#     4   9  18  31  47  68  94 125 159 193 233 276
#     4  10  19  30  47  70  95 125 159 194 234 276
#
# _framework density 16.123688999999999
#
# number of rings (size 3 to 8) (size 9 to 14) (size 15 to 20)
#    0.000    2.250    1.250    2.250    0.000    5.500 
#    0.000    0.000    0.000    0.000    0.000    0.875 
#    0.000    0.000    0.000    0.000    0.000    0.000 
#
# Total GULP energy -793246.393041 kJ/mol
# GULP energy per Si atom -12394.474891 kJ/mol
# Density = 1.608699 g / cm^3
# Si number density = 16.123689 Si / 1000 Ang^3
#
#
#
# Elastic Constant Matrix: (Units=GPa)
#
#
# Indices 1 2 3 4 5 6 
#
# 1 82.8384 34.6232 38.9671 0.0000 0.0000 0.0000
# 2 34.6232 88.0228 36.5185 0.0000 0.0000 0.0000
# 3 38.9671 36.5185 63.5584 0.0000 0.0000 0.0000
# 4 0.0000 0.0000 0.0000 27.4381 0.0000 0.0000
# 5 0.0000 0.0000 0.0000 0.0000 23.5656 0.0000
# 6 0.0000 0.0000 0.0000 0.0000 0.0000 11.0056
#
#
#
# Elastic Compliance Matrix: (Units=1/GPa)
#
#
# Indices 1 2 3 4 5 6 
#
# 1 0.017632 -0.003218 -0.008961 0.000000 0.000000 0.000000
# 2 -0.003218 0.015504 -0.006935 0.000000 0.000000 0.000000
# 3 -0.008961 -0.006935 0.025212 0.000000 0.000000 0.000000
# 4 0.000000 0.000000 0.000000 0.036446 0.000000 0.000000
# 5 0.000000 0.000000 0.000000 0.000000 0.042435 0.000000
# 6 0.000000 0.000000 0.000000 0.000000 0.000000 0.090863
#
#
# Mechanical properties :
#
#
# Convention : Reuss Voigt Hill
#
# Bulk Modulus (GPa) = 49.70224 50.51524 50.10874
# Shear Modulus (GPa) = 18.31334 20.68927 19.50131
#
# Velocity S-wave (km/s) = 3.37382 3.58601 3.48153
# Velocity P-wave (km/s) = 6.78745 6.96734 6.87798
#
# Compressibility (1/GPa) = 0.02011982
#
# Stress axis : x y z
#
# Youngs Moduli (GPa) = 56.71555 64.50149 39.66316
#
# Poissons Ratio (x) = 0.20754 0.35543
# Poissons Ratio (y) = 0.18249 0.27507
# Poissons Ratio (z) = 0.50824 0.44733
#
# Static dielectric constant tensor:
#      x y z
#    x 3.471530 0.000000 0.000000 
#    y 0.000000 2.927180 0.000000 
#    z 0.000000 0.000000 3.107600 
# 
# 
# High freq. dielectric constant tensor:
#      x y z
#    x 1.614160 0.000000 0.000000 
#    y 0.000000 1.597570 0.000000 
#    z 0.000000 0.000000 1.630770 
# 
# From -- ./inp_files/5981.got.cif
#   From: 2010.03.12/outbox.cif.g09.slc.cpg/sg57_3_cif.got.tgz:5981.got - 2010.04.16 15:48:40.
