data_PCOD8230997
_publ_section_title
;
Structure prediction by ZEFSAII (Michael W. Deem and Ramdas Pophale) SiO2 
 PCOD8230997
Probable space group: P B C M
;
_chemical_formula_sum "Si O2"
_cell_formula_units_Z 56
_cell_length_a 22.017147
_cell_length_b 14.350404
_cell_length_c 9.242129
_cell_angle_alpha 90.000000
_cell_angle_beta 90.000000
_cell_angle_gamma 90.000000
_cell_volume 2920.096447
_symmetry_space_group_name_H-M "P B C M"
_symmetry_group_IT_number 57
_symmetry_cell_setting 'orthorhombic'
loop_
_space_group_symop_operation_xyz
x,y,z
-x,-y,1/2+z
x,1/2-y,-z
-x,1/2+y,1/2-z
-x,-y,-z
x,y,1/2-z
-x,1/2+y,z
x,1/2-y,1/2+z
loop_
_atom_site_type_symbol
_atom_site_label
_atom_site_fract_x
_atom_site_fract_y
_atom_site_fract_z
Si Si1 0.862142 0.977459 0.580925
Si Si2 0.397913 0.838036 0.415059
Si Si3 0.368827 0.459175 0.581854
Si Si4 0.033147 0.340412 0.583099
Si Si5 0.106615 0.656170 0.079284
Si Si6 0.750692 0.847366 0.919197
Si Si7 0.537647 0.657861 0.920298
O O1 0.858266 0.003895 0.750000
O O2 0.926094 0.929017 0.541658
O O3 0.808727 0.907767 0.535247
O O4 0.855343 0.070642 0.486285
O O5 0.370430 0.750000 0.500000
O O6 0.394614 0.808074 0.250000
O O7 0.467458 0.858552 0.459644
O O8 0.358613 0.930563 0.446390
O O9 0.385238 0.442171 0.750000
O O10 0.308578 0.405129 0.534561
O O11 0.424882 0.428416 0.482924
O O12 0.057457 0.250000 0.500000
O O13 0.040325 0.315456 0.750000
O O14 0.963868 0.362766 0.542099
O O15 0.118514 0.664932 0.250000
O O16 0.128673 0.750000 0.000000
O O17 0.751076 0.826044 0.750000
O O18 0.751885 0.750000 0.000000
O O19 0.549136 0.667388 0.750000
O O20 0.562420 0.750000 0.000000
#
# Coordination Sequence:
#
# PCOD8230997 Si02
#       7
#     8   8   8   8   8   8   8
#     4  10  20  35  53  75 104 138 173 213 257 301
#     4   9  19  34  52  75 104 134 168 211 258 305
#     4  10  20  35  53  75 104 138 173 212 255 300
#     4   9  18  31  50  77 107 136 169 210 258 307
#     4  10  20  34  53  78 105 135 170 211 257 308
#     4  10  22  38  56  77 104 136 171 210 252 298
#     4  10  19  31  50  77 105 135 169 209 257 309
#
# _framework density 19.177448999999999
#
# number of rings (size 3 to 8) (size 9 to 14) (size 15 to 20)
#    0.000    2.286    0.000    2.571    0.000    4.571 
#    0.000    0.714    0.000    1.714    0.000    0.000 
#    0.000    0.000    0.000    0.000    0.000    0.000 
#
# Total GULP energy -694550.907129 kJ/mol
# GULP energy per Si atom -12402.694770 kJ/mol
# Density = 1.913380 g / cm^3
# Si number density = 19.177449 Si / 1000 Ang^3
#
#
#
# Elastic Constant Matrix: (Units=GPa)
#
#
# Indices 1 2 3 4 5 6 
#
# 1 59.6205 54.9966 32.7206 0.0000 0.0000 0.0000
# 2 54.9966 162.7250 70.1138 0.0000 0.0000 0.0000
# 3 32.7206 70.1138 74.3422 0.0000 0.0000 0.0000
# 4 0.0000 0.0000 0.0000 42.2307 0.0000 0.0000
# 5 0.0000 0.0000 0.0000 0.0000 18.1328 0.0000
# 6 0.0000 0.0000 0.0000 0.0000 0.0000 27.9259
#
#
#
# Elastic Compliance Matrix: (Units=1/GPa)
#
#
# Indices 1 2 3 4 5 6 
#
# 1 0.025518 -0.006376 -0.005218 0.000000 0.000000 0.000000
# 2 -0.006376 0.011945 -0.008460 0.000000 0.000000 0.000000
# 3 -0.005218 -0.008460 0.023726 0.000000 0.000000 0.000000
# 4 0.000000 0.000000 0.000000 0.023679 0.000000 0.000000
# 5 0.000000 0.000000 0.000000 0.000000 0.055149 0.000000
# 6 0.000000 0.000000 0.000000 0.000000 0.000000 0.035809
#
#
# Mechanical properties :
#
#
# Convention : Reuss Voigt Hill
#
# Bulk Modulus (GPa) = 47.43273 68.03886 57.73579
# Shear Modulus (GPa) = 22.42543 26.91501 24.67022
#
# Velocity S-wave (km/s) = 3.42331 3.75036 3.59056
# Velocity P-wave (km/s) = 6.35710 7.36948 6.88193
#
# Compressibility (1/GPa) = 0.02108249
#
# Stress axis : x y z
#
# Youngs Moduli (GPa) = 39.18799 83.71511 42.14744
#
# Poissons Ratio (x) = 0.53378 0.21992
# Poissons Ratio (y) = 0.24987 0.35655
# Poissons Ratio (z) = 0.20448 0.70819
#
# Static dielectric constant tensor:
#      x y z
#    x 3.382280 0.000000 0.000000 
#    y 0.000000 3.546600 0.000000 
#    z 0.000000 0.000000 3.437660 
# 
# 
# High freq. dielectric constant tensor:
#      x y z
#    x 1.724850 0.000000 0.000000 
#    y 0.000000 1.755640 0.000000 
#    z 0.000000 0.000000 1.743090 
# 
# From -- ./inp_files/8026.got.cif
#   From: 2010.03.12/outbox.cif.g09.slc.cpg/sg57_5_cif.got.tgz:8026.got - 2010.04.16 15:48:40.
