data_PCOD8230961
_publ_section_title
;
Structure prediction by ZEFSAII (Michael W. Deem and Ramdas Pophale) SiO2 
 PCOD8230961
Probable space group: P B C M
;
_chemical_formula_sum "Si O2"
_cell_formula_units_Z 64
_cell_length_a 14.419497
_cell_length_b 27.496494
_cell_length_c 8.919318
_cell_angle_alpha 90.000000
_cell_angle_beta 90.000000
_cell_angle_gamma 90.000000
_cell_volume 3536.381262
_symmetry_space_group_name_H-M "P B C M"
_symmetry_group_IT_number 57
_symmetry_cell_setting 'orthorhombic'
loop_
_space_group_symop_operation_xyz
x,y,z
-x,-y,1/2+z
x,1/2-y,-z
-x,1/2+y,1/2-z
-x,-y,-z
x,y,1/2-z
-x,1/2+y,z
x,1/2-y,1/2+z
loop_
_atom_site_type_symbol
_atom_site_label
_atom_site_fract_x
_atom_site_fract_y
_atom_site_fract_z
Si Si1 0.536511 0.386703 0.423513
Si Si2 0.849238 0.918873 0.924518
Si Si3 0.662918 0.578591 0.578672
Si Si4 0.357139 0.699964 0.073963
Si Si5 0.855171 0.300320 0.926465
Si Si6 0.651175 0.032866 0.424329
Si Si7 0.837954 0.469750 0.422294
Si Si8 0.973389 0.116212 0.923981
O O1 0.562635 0.380325 0.250000
O O2 0.425674 0.387097 0.447101
O O3 0.577425 0.342626 0.517160
O O4 0.576340 0.437622 0.481108
O O5 0.862238 0.908327 0.750000
O O6 0.865870 0.975377 0.964982
O O7 0.746027 0.902829 0.973545
O O8 0.922255 0.886470 0.015318
O O9 0.697516 0.580464 0.750000
O O10 0.634830 0.523497 0.537483
O O11 0.368720 0.705272 0.250000
O O12 0.251149 0.688177 0.028942
O O13 0.390508 0.750000 0.000000
O O14 0.867720 0.295791 0.750000
O O15 0.887765 0.250000 0.000000
O O16 0.918724 0.342935 0.987153
O O17 0.638700 0.045163 0.250000
O O18 0.754329 0.048795 0.473591
O O19 0.804953 0.466905 0.250000
O O20 0.925851 0.435833 0.453209
O O21 0.974453 0.130126 0.750000
#
# Coordination Sequence:
#
# PCOD8230961 Si02
#       8
#     8   8   8   8   8   8   8   8
#     4  11  21  33  52  76 104 138 175 214 256 306
#     4  10  20  34  52  74 102 137 177 219 258 300
#     4   9  20  36  51  71 102 140 178 216 259 304
#     4  10  21  37  57  81 108 136 167 207 255 307
#     4  10  21  37  56  79 106 134 166 206 253 305
#     4  10  19  31  49  74 105 139 175 215 257 304
#     4   9  19  33  49  73 105 140 175 211 255 306
#     4  11  21  33  52  76 104 138 173 210 254 306
#
# _framework density 18.097595999999999
#
# number of rings (size 3 to 8) (size 9 to 14) (size 15 to 20)
#    0.000    2.000    0.000    3.750    0.000    6.500 
#    0.000    0.000    0.000    0.750    0.000    1.750 
#    0.000    0.000    0.000    0.000    0.000    0.000 
#
# Total GULP energy -793899.185035 kJ/mol
# GULP energy per Si atom -12404.674766 kJ/mol
# Density = 1.805641 g / cm^3
# Si number density = 18.097596 Si / 1000 Ang^3
#
#
#
# Elastic Constant Matrix: (Units=GPa)
#
#
# Indices 1 2 3 4 5 6 
#
# 1 88.4436 43.3750 36.7308 0.0000 0.0000 0.0000
# 2 43.3750 75.2106 32.3281 0.0000 0.0000 0.0000
# 3 36.7308 32.3281 69.2778 0.0000 0.0000 0.0000
# 4 0.0000 0.0000 0.0000 32.1474 0.0000 0.0000
# 5 0.0000 0.0000 0.0000 0.0000 32.9227 0.0000
# 6 0.0000 0.0000 0.0000 0.0000 0.0000 23.3386
#
#
#
# Elastic Compliance Matrix: (Units=1/GPa)
#
#
# Indices 1 2 3 4 5 6 
#
# 1 0.017385 -0.007586 -0.005678 0.000000 0.000000 0.000000
# 2 -0.007586 0.019942 -0.005284 0.000000 0.000000 0.000000
# 3 -0.005678 -0.005284 0.019911 0.000000 0.000000 0.000000
# 4 0.000000 0.000000 0.000000 0.031107 0.000000 0.000000
# 5 0.000000 0.000000 0.000000 0.000000 0.030374 0.000000
# 6 0.000000 0.000000 0.000000 0.000000 0.000000 0.042847
#
#
# Mechanical properties :
#
#
# Convention : Reuss Voigt Hill
#
# Bulk Modulus (GPa) = 49.64485 50.86664 50.25575
# Shear Modulus (GPa) = 24.34582 25.71494 25.03038
#
# Velocity S-wave (km/s) = 3.67175 3.77358 3.72301
# Velocity P-wave (km/s) = 6.74292 6.86690 6.80519
#
# Compressibility (1/GPa) = 0.02014308
#
# Stress axis : x y z
#
# Youngs Moduli (GPa) = 57.52183 50.14559 50.22470
#
# Poissons Ratio (x) = 0.38039 0.28515
# Poissons Ratio (y) = 0.43634 0.26538
# Poissons Ratio (z) = 0.32658 0.26497
#
# Static dielectric constant tensor:
#      x y z
#    x 3.276960 0.000000 0.000000 
#    y 0.000000 3.205240 0.000000 
#    z 0.000000 0.000000 3.430570 
# 
# 
# High freq. dielectric constant tensor:
#      x y z
#    x 1.696590 0.000000 0.000000 
#    y 0.000000 1.680020 0.000000 
#    z 0.000000 0.000000 1.715160 
# 
# From -- ./inp_files/5702.got.cif
#   From: 2010.03.12/outbox.cif.g09.slc.cpg/sg57_3_cif.got.tgz:5702.got - 2010.04.16 15:48:40.
