data_PCOD8230860
_publ_section_title
;
Structure prediction by ZEFSAII (Michael W. Deem and Ramdas Pophale) SiO2 
 PCOD8230860
Probable space group: P B C M
;
_chemical_formula_sum "Si O2"
_cell_formula_units_Z 64
_cell_length_a 14.946470
_cell_length_b 29.322392
_cell_length_c 9.019986
_cell_angle_alpha 90.000000
_cell_angle_beta 90.000000
_cell_angle_gamma 90.000000
_cell_volume 3953.155461
_symmetry_space_group_name_H-M "P B C M"
_symmetry_group_IT_number 57
_symmetry_cell_setting 'orthorhombic'
loop_
_space_group_symop_operation_xyz
x,y,z
-x,-y,1/2+z
x,1/2-y,-z
-x,1/2+y,1/2-z
-x,-y,-z
x,y,1/2-z
-x,1/2+y,z
x,1/2-y,1/2+z
loop_
_atom_site_type_symbol
_atom_site_label
_atom_site_fract_x
_atom_site_fract_y
_atom_site_fract_z
Si Si1 0.023325 0.295790 0.425184
Si Si2 0.868812 0.557304 0.076077
Si Si3 0.698495 0.887278 0.919543
Si Si4 0.211243 0.206387 0.420898
Si Si5 0.450708 0.063684 0.923194
Si Si6 0.032678 0.894359 0.078284
Si Si7 0.192729 0.958056 0.077683
Si Si8 0.378488 0.964847 0.576363
O O1 0.981613 0.250000 0.500000
O O2 0.030052 0.287882 0.250000
O O3 0.120730 0.305645 0.492216
O O4 0.964444 0.340592 0.463615
O O5 0.877124 0.565110 0.250000
O O6 0.781804 0.583961 0.015832
O O7 0.859136 0.504312 0.032626
O O8 0.957543 0.577696 0.006668
O O9 0.679691 0.901755 0.750000
O O10 0.718374 0.834030 0.933652
O O11 0.610665 0.895658 0.016771
O O12 0.256334 0.250000 0.500000
O O13 0.187304 0.216766 0.250000
O O14 0.465894 0.069088 0.750000
O O15 0.400006 0.016988 0.965298
O O16 0.547075 0.067037 0.000771
O O17 0.009968 0.900721 0.250000
O O18 0.129175 0.915392 0.039627
O O19 0.219378 0.959876 0.250000
O O20 0.281775 0.951349 0.983478
O O21 0.381293 0.956119 0.750000
#
# Coordination Sequence:
#
# PCOD8230860 Si02
#       8
#     8   8   8   8   8   8   8   8
#     4  10  19  31  47  67  92 122 159 202 244 285
#     4  10  19  31  47  67  97 134 166 196 232 280
#     4  10  19  31  48  71  98 129 162 197 238 284
#     4  10  19  31  47  68  95 126 160 198 241 285
#     4  10  20  32  50  72  95 125 159 196 238 284
#     4  10  21  33  47  69  96 128 165 203 240 283
#     4  10  20  34  49  67  96 132 166 201 241 282
#     4  10  20  33  49  71  96 124 160 200 238 280
#
# _framework density 16.189598
#
# number of rings (size 3 to 8) (size 9 to 14) (size 15 to 20)
#    0.000    2.000    2.500    2.625    0.000    4.000 
#    0.000    0.000    0.000    0.000    0.000    0.875 
#    0.000    4.000    0.000    0.000    0.000    0.000 
#
# Total GULP energy -793664.498935 kJ/mol
# GULP energy per Si atom -12401.007796 kJ/mol
# Density = 1.615275 g / cm^3
# Si number density = 16.189598 Si / 1000 Ang^3
#
#
#
# Elastic Constant Matrix: (Units=GPa)
#
#
# Indices 1 2 3 4 5 6 
#
# 1 100.1177 53.5804 51.7444 0.0000 0.0000 0.0000
# 2 53.5804 102.5823 45.3941 0.0000 0.0000 0.0000
# 3 51.7444 45.3941 79.1288 0.0000 0.0000 0.0000
# 4 0.0000 0.0000 0.0000 23.2063 0.0000 0.0000
# 5 0.0000 0.0000 0.0000 0.0000 29.1240 0.0000
# 6 0.0000 0.0000 0.0000 0.0000 0.0000 20.7508
#
#
#
# Elastic Compliance Matrix: (Units=1/GPa)
#
#
# Indices 1 2 3 4 5 6 
#
# 1 0.017001 -0.005308 -0.008072 0.000000 0.000000 0.000000
# 2 -0.005308 0.014722 -0.004975 0.000000 0.000000 0.000000
# 3 -0.008072 -0.004975 0.020770 0.000000 0.000000 0.000000
# 4 0.000000 0.000000 0.000000 0.043092 0.000000 0.000000
# 5 0.000000 0.000000 0.000000 0.000000 0.034336 0.000000
# 6 0.000000 0.000000 0.000000 0.000000 0.000000 0.048191
#
#
# Mechanical properties :
#
#
# Convention : Reuss Voigt Hill
#
# Bulk Modulus (GPa) = 63.35786 64.80740 64.08263
# Shear Modulus (GPa) = 22.71871 23.35686 23.03778
#
# Velocity S-wave (km/s) = 3.75012 3.80242 3.77636
# Velocity P-wave (km/s) = 7.61387 7.70682 7.66049
#
# Compressibility (1/GPa) = 0.01578336
#
# Stress axis : x y z
#
# Youngs Moduli (GPa) = 58.82037 67.92576 48.14555
#
# Poissons Ratio (x) = 0.36053 0.38865
# Poissons Ratio (y) = 0.31220 0.23951
# Poissons Ratio (z) = 0.47483 0.33792
#
# Static dielectric constant tensor:
#      x y z
#    x 2.884870 0.000000 0.000000 
#    y 0.000000 3.190030 0.000000 
#    z 0.000000 0.000000 3.120430 
# 
# 
# High freq. dielectric constant tensor:
#      x y z
#    x 1.601000 0.000000 0.000000 
#    y 0.000000 1.612380 0.000000 
#    z 0.000000 0.000000 1.632020 
# 
# From -- ./inp_files/6071.got.cif
#   From: 2010.03.12/outbox.cif.g09.slc.cpg/sg57_4_cif.got.tgz:6071.got - 2010.04.16 15:48:40.
