data_PCOD8230756
_publ_section_title
;
Structure prediction by ZEFSAII (Michael W. Deem and Ramdas Pophale) SiO2 
 PCOD8230756
Probable space group: P B C M
;
_chemical_formula_sum "Si O2"
_cell_formula_units_Z 64
_cell_length_a 28.742327
_cell_length_b 14.009044
_cell_length_c 8.702000
_cell_angle_alpha 90.000000
_cell_angle_beta 90.000000
_cell_angle_gamma 90.000000
_cell_volume 3503.882260
_symmetry_space_group_name_H-M "P B C M"
_symmetry_group_IT_number 57
_symmetry_cell_setting 'orthorhombic'
loop_
_space_group_symop_operation_xyz
x,y,z
-x,-y,1/2+z
x,1/2-y,-z
-x,1/2+y,1/2-z
-x,-y,-z
x,y,1/2-z
-x,1/2+y,z
x,1/2-y,1/2+z
loop_
_atom_site_type_symbol
_atom_site_label
_atom_site_fract_x
_atom_site_fract_y
_atom_site_fract_z
Si Si1 0.845310 0.651136 0.070294
Si Si2 0.579797 0.854779 0.569760
Si Si3 0.982114 0.351009 0.430421
Si Si4 0.661859 0.975858 0.068625
Si Si5 0.477465 0.646261 0.070739
Si Si6 0.615054 0.144959 0.931604
Si Si7 0.740665 0.648867 0.067884
Si Si8 0.065824 0.458155 0.569763
O O1 0.844379 0.667076 0.250000
O O2 0.793359 0.625733 0.012962
O O3 0.880895 0.566321 0.024705
O O4 0.863263 0.750000 0.000000
O O5 0.581554 0.750000 0.500000
O O6 0.592286 0.850640 0.750000
O O7 0.617058 0.916386 0.480613
O O8 0.528189 0.902071 0.545703
O O9 0.966463 0.250000 0.500000
O O10 0.983029 0.338622 0.250000
O O11 0.945350 0.433287 0.481914
O O12 0.033105 0.381823 0.485648
O O13 0.665860 0.978705 0.250000
O O14 0.708896 0.933838 0.999436
O O15 0.656762 0.082331 0.001337
O O16 0.464612 0.652815 0.250000
O O17 0.481972 0.750000 0.000000
O O18 0.434399 0.596063 0.982220
O O19 0.618883 0.146937 0.750000
O O20 0.619443 0.250000 0.000000
O O21 0.735517 0.652445 0.250000
O O22 0.724059 0.750000 0.000000
O O23 0.056695 0.445927 0.750000
#
# Coordination Sequence:
#
# PCOD8230756 Si02
#       8
#     8   8   8   8   8   8   8   8
#     4   9  18  32  52  76 102 133 168 209 255 303
#     4  10  20  34  52  76 106 138 169 202 244 296
#     4  10  19  30  46  70 104 142 178 217 259 304
#     4  12  24  37  54  76 102 133 169 207 250 301
#     4   9  17  31  51  74 101 132 165 201 242 290
#     4  11  22  38  58  78 101 129 164 206 250 296
#     4  10  20  36  56  79 106 134 165 205 257 310
#     4   9  18  32  49  72 101 136 179 220 259 304
#
# _framework density 18.265454999999999
#
# number of rings (size 3 to 8) (size 9 to 14) (size 15 to 20)
#    0.000    2.000    0.000    5.250    0.000    4.500 
#    0.000    0.000    0.000    0.750    0.000    1.750 
#    0.000    0.000    0.000    0.000    0.000    0.000 
#
# Total GULP energy -793434.174632 kJ/mol
# GULP energy per Si atom -12397.408979 kJ/mol
# Density = 1.822388 g / cm^3
# Si number density = 18.265455 Si / 1000 Ang^3
#
#
#
# Elastic Constant Matrix: (Units=GPa)
#
#
# Indices 1 2 3 4 5 6 
#
# 1 113.1308 65.2504 42.7485 0.0000 0.0000 0.0000
# 2 65.2504 104.3951 37.2508 0.0000 0.0000 0.0000
# 3 42.7485 37.2508 99.4478 0.0000 0.0000 0.0000
# 4 0.0000 0.0000 0.0000 29.8297 0.0000 0.0000
# 5 0.0000 0.0000 0.0000 0.0000 24.0315 0.0000
# 6 0.0000 0.0000 0.0000 0.0000 0.0000 26.1076
#
#
#
# Elastic Compliance Matrix: (Units=1/GPa)
#
#
# Indices 1 2 3 4 5 6 
#
# 1 0.014717 -0.008012 -0.003325 0.000000 0.000000 0.000000
# 2 -0.008012 0.015419 -0.002331 0.000000 0.000000 0.000000
# 3 -0.003325 -0.002331 0.012358 0.000000 0.000000 0.000000
# 4 0.000000 0.000000 0.000000 0.033524 0.000000 0.000000
# 5 0.000000 0.000000 0.000000 0.000000 0.041612 0.000000
# 6 0.000000 0.000000 0.000000 0.000000 0.000000 0.038303
#
#
# Mechanical properties :
#
#
# Convention : Reuss Voigt Hill
#
# Bulk Modulus (GPa) = 65.97777 67.49702 66.73740
# Shear Modulus (GPa) = 26.55032 27.44204 26.99618
#
# Velocity S-wave (km/s) = 3.81672 3.88029 3.84864
# Velocity P-wave (km/s) = 7.45810 7.55706 7.50774
#
# Compressibility (1/GPa) = 0.01515662
#
# Stress axis : x y z
#
# Youngs Moduli (GPa) = 67.94927 64.85629 80.91845
#
# Poissons Ratio (x) = 0.51963 0.26906
# Poissons Ratio (y) = 0.54441 0.18866
# Poissons Ratio (z) = 0.22593 0.15121
#
# Static dielectric constant tensor:
#      x y z
#    x 3.632500 0.000000 0.000000 
#    y 0.000000 3.414060 0.000000 
#    z 0.000000 0.000000 3.448590 
# 
# 
# High freq. dielectric constant tensor:
#      x y z
#    x 1.696590 0.000000 0.000000 
#    y 0.000000 1.698140 0.000000 
#    z 0.000000 0.000000 1.721160 
# 
# From -- ./inp_files/10347.got.cif
#   From: 2010.03.12/outbox.cif.g09.slc.cpg/sg57_6_cif.got.tgz:10347.got - 2010.04.16 15:48:40.
