data_PCOD8230453
_publ_section_title
;
Structure prediction by ZEFSAII (Michael W. Deem and Ramdas Pophale) SiO2 
 PCOD8230453
Probable space group: P B C M
;
_chemical_formula_sum "Si O2"
_cell_formula_units_Z 56
_cell_length_a 21.468542
_cell_length_b 15.042747
_cell_length_c 8.745316
_cell_angle_alpha 90.000000
_cell_angle_beta 90.000000
_cell_angle_gamma 90.000000
_cell_volume 2824.263472
_symmetry_space_group_name_H-M "P B C M"
_symmetry_group_IT_number 57
_symmetry_cell_setting 'orthorhombic'
loop_
_space_group_symop_operation_xyz
x,y,z
-x,-y,1/2+z
x,1/2-y,-z
-x,1/2+y,1/2-z
-x,-y,-z
x,y,1/2-z
-x,1/2+y,z
x,1/2-y,1/2+z
loop_
_atom_site_type_symbol
_atom_site_label
_atom_site_fract_x
_atom_site_fract_y
_atom_site_fract_z
Si Si1 0.367137 0.845709 0.071512
Si Si2 0.291356 0.017187 0.074073
Si Si3 0.492445 0.848026 0.568111
Si Si4 0.941547 0.657766 0.069560
Si Si5 0.148068 0.003030 0.428493
Si Si6 0.617630 0.652776 0.569863
Si Si7 0.081903 0.658176 0.429454
O O1 0.380097 0.830733 0.250000
O O2 0.311749 0.915456 0.041020
O O3 0.349325 0.750000 0.000000
O O4 0.428482 0.890874 0.994111
O O5 0.305504 0.041591 0.250000
O O6 0.218993 0.026758 0.035145
O O7 0.325578 0.087606 0.966425
O O8 0.492271 0.750000 0.500000
O O9 0.493797 0.849590 0.750000
O O10 0.555194 0.892964 0.501861
O O11 0.938071 0.665922 0.250000
O O12 0.895424 0.581957 0.008852
O O13 0.011725 0.635478 0.013454
O O14 0.918036 0.750000 0.000000
O O15 0.137008 0.985922 0.250000
O O16 0.130388 0.915282 0.518955
O O17 0.630707 0.750000 0.500000
O O18 0.609171 0.663236 0.750000
O O19 0.105274 0.750000 0.500000
O O20 0.083161 0.667828 0.250000
#
# Coordination Sequence:
#
# PCOD8230453 Si02
#       7
#     8   8   8   8   8   8   8
#     4  10  20  36  57  80 109 143 181 228 278 329
#     4  10  23  40  56  79 112 150 190 228 271 326
#     4  10  18  32  56  83 110 139 177 226 279 332
#     4   9  19  35  57  84 113 144 181 227 277 328
#     4  10  21  38  57  80 113 149 185 229 276 323
#     4  11  22  38  60  83 111 145 183 229 278 330
#     4  10  20  35  57  85 113 144 183 227 276 329
#
# _framework density 19.828178000000001
#
# number of rings (size 3 to 8) (size 9 to 14) (size 15 to 20)
#    0.000    2.000    0.000    5.571    0.000    4.571 
#    0.000    2.857    0.000    0.000    0.000    0.000 
#    0.000    0.000    0.000    0.000    0.000    0.000 
#
# Total GULP energy -694451.594908 kJ/mol
# GULP energy per Si atom -12400.921338 kJ/mol
# Density = 1.978305 g / cm^3
# Si number density = 19.828178 Si / 1000 Ang^3
#
#
#
# Elastic Constant Matrix: (Units=GPa)
#
#
# Indices 1 2 3 4 5 6 
#
# 1 53.6694 14.2270 26.0186 0.0000 0.0000 0.0000
# 2 14.2270 69.1148 29.4667 0.0000 0.0000 0.0000
# 3 26.0186 29.4667 104.7045 0.0000 0.0000 0.0000
# 4 0.0000 0.0000 0.0000 32.5598 0.0000 0.0000
# 5 0.0000 0.0000 0.0000 0.0000 21.8620 0.0000
# 6 0.0000 0.0000 0.0000 0.0000 0.0000 31.4964
#
#
#
# Elastic Compliance Matrix: (Units=1/GPa)
#
#
# Indices 1 2 3 4 5 6 
#
# 1 0.021542 -0.002446 -0.004665 0.000000 0.000000 0.000000
# 2 -0.002446 0.016719 -0.004097 0.000000 0.000000 0.000000
# 3 -0.004665 -0.004097 0.011863 0.000000 0.000000 0.000000
# 4 0.000000 0.000000 0.000000 0.030713 0.000000 0.000000
# 5 0.000000 0.000000 0.000000 0.000000 0.045742 0.000000
# 6 0.000000 0.000000 0.000000 0.000000 0.000000 0.031750
#
#
# Mechanical properties :
#
#
# Convention : Reuss Voigt Hill
#
# Bulk Modulus (GPa) = 36.08998 40.76815 38.42907
# Shear Modulus (GPa) = 26.31849 27.70206 27.01028
#
# Velocity S-wave (km/s) = 3.64720 3.74184 3.69483
# Velocity P-wave (km/s) = 5.99808 6.26689 6.13396
#
# Compressibility (1/GPa) = 0.02770852
#
# Stress axis : x y z
#
# Youngs Moduli (GPa) = 46.42008 59.81213 84.29543
#
# Poissons Ratio (x) = 0.14627 0.39323
# Poissons Ratio (y) = 0.11352 0.34540
# Poissons Ratio (z) = 0.21655 0.24508
#
# Static dielectric constant tensor:
#      x y z
#    x 3.929880 0.000000 0.000000 
#    y 0.000000 3.376320 0.000000 
#    z 0.000000 0.000000 3.581650 
# 
# 
# High freq. dielectric constant tensor:
#      x y z
#    x 1.774100 0.000000 0.000000 
#    y 0.000000 1.768720 0.000000 
#    z 0.000000 0.000000 1.776110 
# 
# From -- ./inp_files/8083.got.cif
#   From: 2010.03.12/outbox.cif.g09.slc.cpg/sg57_5_cif.got.tgz:8083.got - 2010.04.16 15:48:40.
