data_PCOD8230987
_publ_section_title
;
Structure prediction by ZEFSAII (Michael W. Deem and Ramdas Pophale) SiO2 
 PCOD8230987
Probable space group: P B C M
;
_chemical_formula_sum "Si O2"
_cell_formula_units_Z 40
_cell_length_a 12.820519
_cell_length_b 18.242215
_cell_length_c 9.259329
_cell_angle_alpha 90.000000
_cell_angle_beta 90.000000
_cell_angle_gamma 90.000000
_cell_volume 2165.522459
_symmetry_space_group_name_H-M "P B C M"
_symmetry_group_IT_number 57
_symmetry_cell_setting 'orthorhombic'
loop_
_space_group_symop_operation_xyz
x,y,z
-x,-y,1/2+z
x,1/2-y,-z
-x,1/2+y,1/2-z
-x,-y,-z
x,y,1/2-z
-x,1/2+y,z
x,1/2-y,1/2+z
loop_
_atom_site_type_symbol
_atom_site_label
_atom_site_fract_x
_atom_site_fract_y
_atom_site_fract_z
Si Si1 0.795782 0.913825 0.918409
Si Si2 0.401108 0.584430 0.090459
Si Si3 0.406913 0.090074 0.588559
Si Si4 0.826869 0.437458 0.579808
Si Si5 0.999110 0.675867 0.416239
O O1 0.774070 0.928995 0.750000
O O2 0.882001 0.851604 0.941942
O O3 0.690742 0.883581 0.992900
O O4 0.837344 0.987999 0.990537
O O5 0.425549 0.615398 0.250000
O O6 0.409510 0.497042 0.092175
O O7 0.282698 0.603621 0.043931
O O8 0.484890 0.619459 0.980794
O O9 0.396790 0.122497 0.750000
O O10 0.832276 0.457001 0.750000
O O11 0.920030 0.385384 0.528272
O O12 0.019484 0.750000 0.500000
O O13 0.021268 0.692191 0.250000
#
# Coordination Sequence:
#
# PCOD8230987 Si02
#       5
#     8   8   8   8   8
#     4  10  19  31  50  76 102 129 164 203 243 289
#     4   8  14  25  43  68  98 127 156 195 240 286
#     4   9  16  26  43  69 100 130 160 196 239 287
#     4   9  18  33  52  75 101 129 163 202 244 290
#     4  10  22  37  52  72  99 131 166 204 247 294
#
# _framework density 18.471294
#
# number of rings (size 3 to 8) (size 9 to 14) (size 15 to 20)
#    0.000    2.800    0.000    3.000    0.000    7.200 
#    0.000    0.000    0.000    1.200    0.000    2.800 
#    0.000    0.000    0.000    0.000    0.000    0.000 
#
# Total GULP energy -495919.837651 kJ/mol
# GULP energy per Si atom -12397.995941 kJ/mol
# Density = 1.842925 g / cm^3
# Si number density = 18.471294 Si / 1000 Ang^3
#
#
#
# Elastic Constant Matrix: (Units=GPa)
#
#
# Indices 1 2 3 4 5 6 
#
# 1 89.8878 5.6386 40.2975 0.0000 0.0000 0.0000
# 2 5.6386 28.4430 21.4665 0.0000 0.0000 0.0000
# 3 40.2975 21.4665 95.3364 0.0000 0.0000 0.0000
# 4 0.0000 0.0000 0.0000 22.2291 0.0000 0.0000
# 5 0.0000 0.0000 0.0000 0.0000 31.8738 0.0000
# 6 0.0000 0.0000 0.0000 0.0000 0.0000 5.0445
#
#
#
# Elastic Compliance Matrix: (Units=1/GPa)
#
#
# Indices 1 2 3 4 5 6 
#
# 1 0.013821 0.002011 -0.006295 0.000000 0.000000 0.000000
# 2 0.002011 0.042648 -0.010453 0.000000 0.000000 0.000000
# 3 -0.006295 -0.010453 0.015503 0.000000 0.000000 0.000000
# 4 0.000000 0.000000 0.000000 0.044986 0.000000 0.000000
# 5 0.000000 0.000000 0.000000 0.000000 0.031374 0.000000
# 6 0.000000 0.000000 0.000000 0.000000 0.000000 0.198237
#
#
# Mechanical properties :
#
#
# Convention : Reuss Voigt Hill
#
# Bulk Modulus (GPa) = 23.52983 38.71914 31.12448
# Shear Modulus (GPa) = 12.81363 21.58046 17.19704
#
# Velocity S-wave (km/s) = 2.63669 3.42178 3.05456
# Velocity P-wave (km/s) = 4.69422 6.05134 5.41546
#
# Compressibility (1/GPa) = 0.04249925
#
# Stress axis : x y z
#
# Youngs Moduli (GPa) = 72.35474 23.44755 64.50172
#
# Poissons Ratio (x) = -0.04715 0.40602
# Poissons Ratio (y) = -0.14549 0.67423
# Poissons Ratio (z) = 0.45545 0.24509
#
# Static dielectric constant tensor:
#      x y z
#    x 3.756690 0.000000 0.000000 
#    y 0.000000 2.794320 0.000000 
#    z 0.000000 0.000000 3.554000 
# 
# 
# High freq. dielectric constant tensor:
#      x y z
#    x 1.737110 0.000000 0.000000 
#    y 0.000000 1.654350 0.000000 
#    z 0.000000 0.000000 1.722010 
# 
# From -- ./inp_files/4391.got.cif
#   From: 2010.03.12/outbox.cif.g09.slc.cpg/sg57_3_cif.got.tgz:4391.got - 2010.04.16 15:48:40.
