data_PCOD8230546
_publ_section_title
;
Structure prediction by ZEFSAII (Michael W. Deem and Ramdas Pophale) SiO2 
 PCOD8230546
Probable space group: P B C M
;
_chemical_formula_sum "Si O2"
_cell_formula_units_Z 36
_cell_length_a 9.214405
_cell_length_b 13.813699
_cell_length_c 15.075470
_cell_angle_alpha 90.000000
_cell_angle_beta 90.000000
_cell_angle_gamma 90.000000
_cell_volume 1918.881457
_symmetry_space_group_name_H-M "P B C M"
_symmetry_group_IT_number 57
_symmetry_cell_setting 'orthorhombic'
loop_
_space_group_symop_operation_xyz
x,y,z
-x,-y,1/2+z
x,1/2-y,-z
-x,1/2+y,1/2-z
-x,-y,-z
x,y,1/2-z
-x,1/2+y,z
x,1/2-y,1/2+z
loop_
_atom_site_type_symbol
_atom_site_label
_atom_site_fract_x
_atom_site_fract_y
_atom_site_fract_z
Si Si1 0.417559 0.970498 0.090283
Si Si2 0.271197 0.250000 0.000000
Si Si3 0.839110 0.960558 0.495190
Si Si4 0.669684 0.072090 0.154195
Si Si5 0.512774 0.259693 0.355292
O O1 0.417110 0.857280 0.108474
O O2 0.509327 0.023667 0.166415
O O3 0.500000 0.000000 0.000000
O O4 0.251173 0.006329 0.082591
O O5 0.168504 0.344015 0.012966
O O6 0.368243 0.235832 0.088363
O O7 0.771092 0.011290 0.409533
O O8 0.000000 0.000000 0.500000
O O9 0.746400 0.071664 0.250000
O O10 0.638624 0.181676 0.122830
O O11 0.475484 0.262980 0.250000
#
# Coordination Sequence:
#
# PCOD8230546 Si02
#       5
#     8   4   8   8   8
#     4  10  18  34  59  86 116 151 204 251 296 348
#     4  12  20  40  60  86 122 160 208 250 304 374
#     4  11  24  38  59  88 124 168 196 244 309 378
#     4  10  20  37  61  89 118 153 206 261 301 351
#     4  11  21  35  65  96 119 155 210 267 309 354
#
# _framework density 18.760928
#
# number of rings (size 3 to 8) (size 9 to 14) (size 15 to 20)
#    0.000    1.333    6.667    2.000    0.000    1.778 
#    0.000    3.333    0.000    0.000    0.000    0.000 
#    0.000    0.000    0.000    0.000    0.000    0.000 
#
# Total GULP energy -446058.024438 kJ/mol
# GULP energy per Si atom -12390.500679 kJ/mol
# Density = 1.871823 g / cm^3
# Si number density = 18.760928 Si / 1000 Ang^3
#
#
#
# Elastic Constant Matrix: (Units=GPa)
#
#
# Indices 1 2 3 4 5 6 
#
# 1 120.8462 53.9103 38.0132 0.0000 0.0000 0.0000
# 2 53.9103 181.7545 53.2331 0.0000 0.0000 0.0000
# 3 38.0132 53.2331 88.6257 0.0000 0.0000 0.0000
# 4 0.0000 0.0000 0.0000 23.1407 0.0000 0.0000
# 5 0.0000 0.0000 0.0000 0.0000 10.1594 0.0000
# 6 0.0000 0.0000 0.0000 0.0000 0.0000 25.4358
#
#
#
# Elastic Compliance Matrix: (Units=1/GPa)
#
#
# Indices 1 2 3 4 5 6 
#
# 1 0.010194 -0.002115 -0.003102 0.000000 0.000000 0.000000
# 2 -0.002115 0.007115 -0.003367 0.000000 0.000000 0.000000
# 3 -0.003102 -0.003367 0.014636 0.000000 0.000000 0.000000
# 4 0.000000 0.000000 0.000000 0.043214 0.000000 0.000000
# 5 0.000000 0.000000 0.000000 0.000000 0.098431 0.000000
# 6 0.000000 0.000000 0.000000 0.000000 0.000000 0.039315
#
#
# Mechanical properties :
#
#
# Convention : Reuss Voigt Hill
#
# Bulk Modulus (GPa) = 67.66770 75.72661 71.69715
# Shear Modulus (GPa) = 21.27663 28.15182 24.71423
#
# Velocity S-wave (km/s) = 3.37128 3.87790 3.63343
# Velocity P-wave (km/s) = 7.16246 7.77833 7.47674
#
# Compressibility (1/GPa) = 0.01477810
#
# Stress axis : x y z
#
# Youngs Moduli (GPa) = 98.09339 140.54138 68.32430
#
# Poissons Ratio (x) = 0.29727 0.21195
# Poissons Ratio (y) = 0.20749 0.23002
# Poissons Ratio (z) = 0.30429 0.47314
#
# Static dielectric constant tensor:
#      x y z
#    x 3.579240 0.000000 0.000000 
#    y 0.000000 3.782030 0.000000 
#    z 0.000000 0.000000 4.071200 
# 
# 
# High freq. dielectric constant tensor:
#      x y z
#    x 1.684600 0.000000 0.000000 
#    y 0.000000 1.757110 0.000000 
#    z 0.000000 0.000000 1.730240 
# 
# From -- ./inp_files/20656.got.cif
#   From: 2010.03.12/outbox.cif.g09.slc.cpg/sg57_11_cif.got.tgz:20656.got - 2010.04.16 15:48:40.
