data_PCOD8230645
_publ_section_title
;
Structure prediction by ZEFSAII (Michael W. Deem and Ramdas Pophale) SiO2 
 PCOD8230645
Probable space group: P B C M
;
_chemical_formula_sum "Si O2"
_cell_formula_units_Z 64
_cell_length_a 18.254651
_cell_length_b 24.647451
_cell_length_c 9.505549
_cell_angle_alpha 90.000000
_cell_angle_beta 90.000000
_cell_angle_gamma 90.000000
_cell_volume 4276.837517
_symmetry_space_group_name_H-M "P B C M"
_symmetry_group_IT_number 57
_symmetry_cell_setting 'orthorhombic'
loop_
_space_group_symop_operation_xyz
x,y,z
-x,-y,1/2+z
x,1/2-y,-z
-x,1/2+y,1/2-z
-x,-y,-z
x,y,1/2-z
-x,1/2+y,z
x,1/2-y,1/2+z
loop_
_atom_site_type_symbol
_atom_site_label
_atom_site_fract_x
_atom_site_fract_y
_atom_site_fract_z
Si Si1 0.610147 0.516660 0.085458
Si Si2 0.245271 0.490655 0.410452
Si Si3 0.494147 0.918887 0.086569
Si Si4 0.909522 0.546930 0.906425
Si Si5 0.188150 0.888356 0.909826
Si Si6 0.439271 0.801060 0.411393
Si Si7 0.967225 0.425121 0.905805
Si Si8 0.732163 0.198787 0.586728
O O1 0.615829 0.530276 0.250000
O O2 0.577241 0.456505 0.060508
O O3 0.689729 0.521397 0.017431
O O4 0.559579 0.561568 0.012102
O O5 0.268386 0.476349 0.250000
O O6 0.175044 0.454467 0.457898
O O7 0.223368 0.552885 0.418758
O O8 0.517578 0.922783 0.250000
O O9 0.477149 0.857158 0.041933
O O10 0.912134 0.570787 0.750000
O O11 0.942239 0.487037 0.909815
O O12 0.961090 0.585829 0.999575
O O13 0.197776 0.865934 0.750000
O O14 0.102297 0.889056 0.952564
O O15 0.228358 0.853485 0.026336
O O16 0.470016 0.750000 0.500000
O O17 0.456326 0.787973 0.250000
O O18 0.353645 0.808903 0.437894
O O19 0.991327 0.408583 0.750000
O O20 0.761775 0.250000 0.500000
O O21 0.751759 0.206043 0.750000
#
# Coordination Sequence:
#
# PCOD8230645 Si02
#       8
#     8   8   8   8   8   8   8   8
#     4  10  19  29  43  63  84 110 146 180 209 250
#     4   9  17  28  41  58  83 113 140 169 208 249
#     4   9  18  32  45  59  84 113 139 172 215 257
#     4   8  14  24  37  54  77 105 135 163 193 233
#     4   9  17  28  41  58  81 110 142 172 205 246
#     4   9  18  31  46  63  83 108 139 175 213 253
#     4   8  14  24  37  54  77 104 133 165 198 229
#     4  10  19  30  43  60  82 107 137 173 210 245
#
# _framework density 14.964328999999999
#
# number of rings (size 3 to 8) (size 9 to 14) (size 15 to 20)
#    0.000    3.000    0.000    3.000    0.000    4.000 
#    0.000    2.500    0.000    0.000    0.000    0.000 
#    0.000    1.000    0.000    5.500    0.000    4.375 
#
# Total GULP energy -793263.458888 kJ/mol
# GULP energy per Si atom -12394.741545 kJ/mol
# Density = 1.493027 g / cm^3
# Si number density = 14.964329 Si / 1000 Ang^3
#
#
#
# Elastic Constant Matrix: (Units=GPa)
#
#
# Indices 1 2 3 4 5 6 
#
# 1 95.0976 31.2686 63.6236 0.0000 0.0000 0.0000
# 2 31.2686 65.3041 43.2425 0.0000 0.0000 0.0000
# 3 63.6236 43.2425 96.2751 0.0000 0.0000 0.0000
# 4 0.0000 0.0000 0.0000 23.4168 0.0000 0.0000
# 5 0.0000 0.0000 0.0000 0.0000 30.2964 0.0000
# 6 0.0000 0.0000 0.0000 0.0000 0.0000 13.7274
#
#
#
# Elastic Compliance Matrix: (Units=1/GPa)
#
#
# Indices 1 2 3 4 5 6 
#
# 1 0.018906 -0.001109 -0.011996 0.000000 0.000000 0.000000
# 2 -0.001109 0.021860 -0.009086 0.000000 0.000000 0.000000
# 3 -0.011996 -0.009086 0.022395 0.000000 0.000000 0.000000
# 4 0.000000 0.000000 0.000000 0.042704 0.000000 0.000000
# 5 0.000000 0.000000 0.000000 0.000000 0.033007 0.000000
# 6 0.000000 0.000000 0.000000 0.000000 0.000000 0.072847
#
#
# Mechanical properties :
#
#
# Convention : Reuss Voigt Hill
#
# Bulk Modulus (GPa) = 53.24778 59.21625 56.23202
# Shear Modulus (GPa) = 19.05769 21.39094 20.22431
#
# Velocity S-wave (km/s) = 3.57254 3.78492 3.68027
# Velocity P-wave (km/s) = 7.25795 7.66540 7.46446
#
# Compressibility (1/GPa) = 0.01878013
#
# Stress axis : x y z
#
# Youngs Moduli (GPa) = 52.89393 45.74493 44.65237
#
# Poissons Ratio (x) = 0.05074 0.53564
# Poissons Ratio (y) = 0.05867 0.40570
# Poissons Ratio (z) = 0.63450 0.41563
#
# Static dielectric constant tensor:
#      x y z
#    x 2.944730 0.000000 0.000000 
#    y 0.000000 2.679680 0.000000 
#    z 0.000000 0.000000 3.063970 
# 
# 
# High freq. dielectric constant tensor:
#      x y z
#    x 1.564620 0.000000 0.000000 
#    y 0.000000 1.532580 0.000000 
#    z 0.000000 0.000000 1.581270 
# 
# From -- ./inp_files/7359.got.cif
#   From: 2010.03.12/outbox.cif.g09.slc.cpg/sg57_4_cif.got.tgz:7359.got - 2010.04.16 15:48:40.
