data_PCOD8230278
_publ_section_title
;
Structure prediction by ZEFSAII (Michael W. Deem and Ramdas Pophale) SiO2 
 PCOD8230278
Probable space group: P B C M
;
_chemical_formula_sum "Si O2"
_cell_formula_units_Z 64
_cell_length_a 21.417421
_cell_length_b 19.326021
_cell_length_c 8.799544
_cell_angle_alpha 90.000000
_cell_angle_beta 90.000000
_cell_angle_gamma 90.000000
_cell_volume 3642.250302
_symmetry_space_group_name_H-M "P B C M"
_symmetry_group_IT_number 57
_symmetry_cell_setting 'orthorhombic'
loop_
_space_group_symop_operation_xyz
x,y,z
-x,-y,1/2+z
x,1/2-y,-z
-x,1/2+y,1/2-z
-x,-y,-z
x,y,1/2-z
-x,1/2+y,z
x,1/2-y,1/2+z
loop_
_atom_site_type_symbol
_atom_site_label
_atom_site_fract_x
_atom_site_fract_y
_atom_site_fract_z
Si Si1 0.032555 0.176802 0.928538
Si Si2 0.725343 0.620100 0.921988
Si Si3 0.193419 0.940781 0.930808
Si Si4 0.399856 0.181247 0.578079
Si Si5 0.314473 0.514239 0.927146
Si Si6 0.142586 0.086525 0.924466
Si Si7 0.436973 0.471378 0.069165
Si Si8 0.108917 0.823997 0.070994
O O1 0.042757 0.184625 0.750000
O O2 0.080923 0.120457 0.000026
O O3 0.962164 0.153580 0.966947
O O4 0.048713 0.250000 0.000000
O O5 0.717024 0.588300 0.750000
O O6 0.676172 0.682657 0.940008
O O7 0.798287 0.639731 0.944446
O O8 0.709067 0.563541 0.047722
O O9 0.196863 0.939189 0.750000
O O10 0.160615 0.011487 0.992714
O O11 0.263635 0.934403 0.997241
O O12 0.154206 0.877374 0.991700
O O13 0.427494 0.250000 0.500000
O O14 0.421235 0.187642 0.750000
O O15 0.426659 0.108462 0.513403
O O16 0.320948 0.531310 0.750000
O O17 0.381948 0.521112 0.007213
O O18 0.126444 0.074451 0.750000
O O19 0.438251 0.475354 0.250000
O O20 0.500000 0.500000 0.000000
O O21 0.121146 0.821604 0.250000
O O22 0.123732 0.750000 0.000000
#
# Coordination Sequence:
#
# PCOD8230278 Si02
#       8
#     8   8   8   8   8   8   8   8
#     4   9  18  32  47  65  93 129 167 208 254 306
#     4   8  15  29  45  64  95 132 165 200 242 288
#     4  10  19  33  53  74  98 129 163 205 256 303
#     4   9  18  30  46  70 101 134 170 209 246 287
#     4  10  18  30  50  76 102 127 158 198 242 291
#     4   8  15  29  48  68  95 131 165 200 249 299
#     4  10  20  35  54  78 106 139 175 209 248 295
#     4  10  20  34  51  71  95 125 165 211 259 313
#
# _framework density 17.571553999999999
#
# number of rings (size 3 to 8) (size 9 to 14) (size 15 to 20)
#    0.000    2.750    0.000    3.750    0.000    4.000 
#    0.000    3.125    0.000    0.750    0.000    3.500 
#    0.000    0.000    0.000    0.000    0.000    0.000 
#
# Total GULP energy -792973.361739 kJ/mol
# GULP energy per Si atom -12390.208777 kJ/mol
# Density = 1.753156 g / cm^3
# Si number density = 17.571554 Si / 1000 Ang^3
#
#
#
# Elastic Constant Matrix: (Units=GPa)
#
#
# Indices 1 2 3 4 5 6 
#
# 1 143.1159 71.1473 47.9545 0.0000 0.0000 0.0000
# 2 71.1473 84.6284 37.1608 0.0000 0.0000 0.0000
# 3 47.9545 37.1608 72.3151 0.0000 0.0000 0.0000
# 4 0.0000 0.0000 0.0000 25.9281 0.0000 0.0000
# 5 0.0000 0.0000 0.0000 0.0000 24.5979 0.0000
# 6 0.0000 0.0000 0.0000 0.0000 0.0000 21.3319
#
#
#
# Elastic Compliance Matrix: (Units=1/GPa)
#
#
# Indices 1 2 3 4 5 6 
#
# 1 0.012769 -0.009062 -0.003811 0.000000 0.000000 0.000000
# 2 -0.009062 0.021690 -0.005137 0.000000 0.000000 0.000000
# 3 -0.003811 -0.005137 0.018995 0.000000 0.000000 0.000000
# 4 0.000000 0.000000 0.000000 0.038568 0.000000 0.000000
# 5 0.000000 0.000000 0.000000 0.000000 0.040654 0.000000
# 6 0.000000 0.000000 0.000000 0.000000 0.000000 0.046878
#
#
# Mechanical properties :
#
#
# Convention : Reuss Voigt Hill
#
# Bulk Modulus (GPa) = 57.35477 68.06496 62.70986
# Shear Modulus (GPa) = 22.58502 23.95806 23.27154
#
# Velocity S-wave (km/s) = 3.58902 3.69651 3.64316
# Velocity P-wave (km/s) = 7.06302 7.55241 7.31181
#
# Compressibility (1/GPa) = 0.01743534
#
# Stress axis : x y z
#
# Youngs Moduli (GPa) = 78.31387 46.10401 52.64437
#
# Poissons Ratio (x) = 0.41777 0.20063
# Poissons Ratio (y) = 0.70965 0.27043
# Poissons Ratio (z) = 0.29846 0.23683
#
# Static dielectric constant tensor:
#      x y z
#    x 3.493340 0.000000 0.000000 
#    y 0.000000 3.118360 0.000000 
#    z 0.000000 0.000000 3.154590 
# 
# 
# High freq. dielectric constant tensor:
#      x y z
#    x 1.681140 0.000000 0.000000 
#    y 0.000000 1.648900 0.000000 
#    z 0.000000 0.000000 1.672680 
# 
# From -- ./inp_files/8560.got.cif
#   From: 2010.03.12/outbox.cif.g09.slc.cpg/sg57_5_cif.got.tgz:8560.got - 2010.04.16 15:48:40.
