data_PCOD8230046
_publ_section_title
;
Structure prediction by ZEFSAII (Michael W. Deem and Ramdas Pophale) SiO2 
 PCOD8230046
Probable space group: P B C M
;
_chemical_formula_sum "Si O2"
_cell_formula_units_Z 64
_cell_length_a 23.079125
_cell_length_b 9.178139
_cell_length_c 14.146696
_cell_angle_alpha 90.000000
_cell_angle_beta 90.000000
_cell_angle_gamma 90.000000
_cell_volume 2996.601489
_symmetry_space_group_name_H-M "P B C M"
_symmetry_group_IT_number 57
_symmetry_cell_setting 'orthorhombic'
loop_
_space_group_symop_operation_xyz
x,y,z
-x,-y,1/2+z
x,1/2-y,-z
-x,1/2+y,1/2-z
-x,-y,-z
x,y,1/2-z
-x,1/2+y,z
x,1/2-y,1/2+z
loop_
_atom_site_type_symbol
_atom_site_label
_atom_site_fract_x
_atom_site_fract_y
_atom_site_fract_z
Si Si1 0.405716 0.155394 0.141380
Si Si2 0.929426 0.684479 0.097767
Si Si3 0.968843 0.504262 0.856360
Si Si4 0.474197 0.621019 0.433785
Si Si5 0.369189 0.454648 0.053296
Si Si6 0.750723 0.084874 0.480045
Si Si7 0.172468 0.517909 0.644388
Si Si8 0.857115 0.159239 0.360285
O O1 0.386841 0.116296 0.250000
O O2 0.476286 0.167587 0.141605
O O3 0.375963 0.302774 0.106424
O O4 0.384664 0.042054 0.060213
O O5 0.872013 0.617817 0.145619
O O6 0.975383 0.551950 0.084354
O O7 0.959810 0.821000 0.150463
O O8 0.908088 0.750000 0.000000
O O9 0.980737 0.448880 0.750000
O O10 0.913329 0.422920 0.901322
O O11 0.455137 0.750000 0.500000
O O12 0.500000 0.500000 0.500000
O O13 0.413695 0.561814 0.390284
O O14 0.303210 0.502246 0.065724
O O15 0.731486 0.250000 0.500000
O O16 0.773004 0.999371 0.574100
O O17 0.801916 0.080693 0.404477
O O18 0.197796 0.533420 0.750000
O O19 0.140149 0.668880 0.614049
O O20 0.853467 0.131417 0.250000
#
# Coordination Sequence:
#
# PCOD8230046 Si02
#       8
#     8   8   8   8   8   8   8   8
#     4  10  21  38  59  88 124 164 203 246 306 371
#     4  12  24  38  59  90 123 159 205 260 314 377
#     4  11  22  38  59  86 120 158 202 252 315 376
#     4  10  17  36  60  85 120 159 193 246 303 359
#     4  10  21  39  60  89 127 162 205 258 309 362
#     4  10  21  39  64  89 117 161 211 259 313 367
#     4  10  21  40  63  87 121 163 207 256 315 374
#     4   9  20  39  62  88 121 161 205 259 316 374
#
# _framework density 21.357527000000001
#
# number of rings (size 3 to 8) (size 9 to 14) (size 15 to 20)
#    0.000    1.750    2.500    3.375    0.000    4.000 
#    6.750    0.000    0.000    3.000    0.000    0.000 
#    0.000    0.000    0.000    0.000    0.000    0.000 
#
# Total GULP energy -793046.639206 kJ/mol
# GULP energy per Si atom -12391.353738 kJ/mol
# Density = 2.130892 g / cm^3
# Si number density = 21.357527 Si / 1000 Ang^3
#
#
#
# Elastic Constant Matrix: (Units=GPa)
#
#
# Indices 1 2 3 4 5 6 
#
# 1 127.2411 40.3611 17.4853 0.0000 0.0000 0.0000
# 2 40.3611 87.2800 5.3974 0.0000 0.0000 0.0000
# 3 17.4853 5.3974 61.7215 0.0000 0.0000 0.0000
# 4 0.0000 0.0000 0.0000 20.7073 0.0000 0.0000
# 5 0.0000 0.0000 0.0000 0.0000 -8.9608 0.0000
# 6 0.0000 0.0000 0.0000 0.0000 0.0000 28.4435
#
#
#
# Elastic Compliance Matrix: (Units=1/GPa)
#
#
# Indices 1 2 3 4 5 6 
#
# 1 0.009531 -0.004264 -0.002327 0.000000 0.000000 0.000000
# 2 -0.004264 0.013427 0.000034 0.000000 0.000000 0.000000
# 3 -0.002327 0.000034 0.016858 0.000000 0.000000 0.000000
# 4 0.000000 0.000000 0.000000 0.048292 0.000000 0.000000
# 5 0.000000 0.000000 0.000000 0.000000 -0.111598 0.000000
# 6 0.000000 0.000000 0.000000 0.000000 0.000000 0.035157
#
#
# Mechanical properties :
#
#
# Convention : Reuss Voigt Hill
#
# Bulk Modulus (GPa) = 37.45050 44.74780 41.09915
# Shear Modulus (GPa) = 148.44032 22.23794 85.33913
#
# Velocity S-wave (km/s) = 8.34586 3.23030 6.32804
# Velocity P-wave (km/s) = 10.50925 5.90850 8.52510
#
# Compressibility (1/GPa) = 0.02670192
#
# Stress axis : x y z
#
# Youngs Moduli (GPa) = 104.91682 74.47702 59.31843
#
# Poissons Ratio (x) = 0.31755 0.13805
# Poissons Ratio (y) = 0.44733 -0.00200
# Poissons Ratio (z) = 0.24417 -0.00251
#
# Static dielectric constant tensor:
#      x y z
#    x 1.504720 0.000000 0.000000 
#    y 0.000000 3.905460 0.000000 
#    z 0.000000 0.000000 3.777550 
# 
# 
# High freq. dielectric constant tensor:
#      x y z
#    x 1.828330 0.000000 0.000000 
#    y 0.000000 1.836170 0.000000 
#    z 0.000000 0.000000 1.826050 
# 
# From -- ./inp_files/19516.got.cif
#   From: 2010.03.12/outbox.cif.g09.slc.cpg/sg57_10_cif.got.tgz:19516.got - 2010.04.16 15:48:40.
