data_PCOD8230875
_publ_section_title
;
Structure prediction by ZEFSAII (Michael W. Deem and Ramdas Pophale) SiO2 
 PCOD8230875
Probable space group: P B C M
;
_chemical_formula_sum "Si O2"
_cell_formula_units_Z 48
_cell_length_a 12.701518
_cell_length_b 23.526626
_cell_length_c 9.072395
_cell_angle_alpha 90.000000
_cell_angle_beta 90.000000
_cell_angle_gamma 90.000000
_cell_volume 2711.048126
_symmetry_space_group_name_H-M "P B C M"
_symmetry_group_IT_number 57
_symmetry_cell_setting 'orthorhombic'
loop_
_space_group_symop_operation_xyz
x,y,z
-x,-y,1/2+z
x,1/2-y,-z
-x,1/2+y,1/2-z
-x,-y,-z
x,y,1/2-z
-x,1/2+y,z
x,1/2-y,1/2+z
loop_
_atom_site_type_symbol
_atom_site_label
_atom_site_fract_x
_atom_site_fract_y
_atom_site_fract_z
Si Si1 0.000453 0.308914 0.077957
Si Si2 0.113565 0.999795 0.574542
Si Si3 0.388248 0.307974 0.076709
Si Si4 0.373892 0.692149 0.577590
Si Si5 0.804458 0.880055 0.424295
Si Si6 0.191995 0.608769 0.578373
O O1 0.010136 0.296655 0.250000
O O2 0.106151 0.337689 0.013084
O O3 0.905219 0.350815 0.042285
O O4 0.977718 0.250000 0.000000
O O5 0.099043 0.997944 0.750000
O O6 0.183405 0.947264 0.520287
O O7 0.175824 0.055978 0.520545
O O8 0.000000 0.000000 0.500000
O O9 0.378718 0.298041 0.250000
O O10 0.507144 0.324518 0.031115
O O11 0.310350 0.358282 0.023410
O O12 0.352329 0.250000 0.000000
O O13 0.337175 0.750000 0.500000
O O14 0.363966 0.703802 0.750000
O O15 0.299101 0.640397 0.530184
O O16 0.813628 0.879447 0.250000
O O17 0.193464 0.591586 0.750000
#
# Coordination Sequence:
#
# PCOD8230875 Si02
#       6
#     8   8   8   8   8   8
#     4  10  19  31  47  70 100 129 159 203 252 299
#     4  11  21  36  55  74  99 136 175 211 254 305
#     4   9  17  32  53  76 102 134 168 203 252 303
#     4   9  18  32  53  77 104 136 168 208 252 300
#     4   9  18  33  51  71 100 133 165 206 255 301
#     4  10  20  35  51  72 104 135 168 208 252 298
#
# _framework density 17.70533
#
# number of rings (size 3 to 8) (size 9 to 14) (size 15 to 20)
#    0.000    2.333    1.667    1.500    0.000    1.333 
#    0.000    2.500    0.000    0.000    0.000    0.000 
#    0.000    0.000    0.000    0.000    0.000    0.000 
#
# Total GULP energy -595204.113853 kJ/mol
# GULP energy per Si atom -12400.085705 kJ/mol
# Density = 1.766503 g / cm^3
# Si number density = 17.705330 Si / 1000 Ang^3
#
#
#
# Elastic Constant Matrix: (Units=GPa)
#
#
# Indices 1 2 3 4 5 6 
#
# 1 118.3067 69.1897 31.7968 0.0000 0.0000 0.0000
# 2 69.1897 134.7576 44.2465 0.0000 0.0000 0.0000
# 3 31.7968 44.2465 38.8326 0.0000 0.0000 0.0000
# 4 0.0000 0.0000 0.0000 31.0414 0.0000 0.0000
# 5 0.0000 0.0000 0.0000 0.0000 15.2287 0.0000
# 6 0.0000 0.0000 0.0000 0.0000 0.0000 29.4041
#
#
#
# Elastic Compliance Matrix: (Units=1/GPa)
#
#
# Indices 1 2 3 4 5 6 
#
# 1 0.012596 -0.004922 -0.004705 0.000000 0.000000 0.000000
# 2 -0.004922 0.013780 -0.011671 0.000000 0.000000 0.000000
# 3 -0.004705 -0.011671 0.042902 0.000000 0.000000 0.000000
# 4 0.000000 0.000000 0.000000 0.032215 0.000000 0.000000
# 5 0.000000 0.000000 0.000000 0.000000 0.065665 0.000000
# 6 0.000000 0.000000 0.000000 0.000000 0.000000 0.034009
#
#
# Mechanical properties :
#
#
# Convention : Reuss Voigt Hill
#
# Bulk Modulus (GPa) = 37.47909 64.70698 51.09304
# Shear Modulus (GPa) = 19.78965 24.91245 22.35105
#
# Velocity S-wave (km/s) = 3.34686 3.75515 3.55687
# Velocity P-wave (km/s) = 6.01245 7.44496 6.76672
#
# Compressibility (1/GPa) = 0.02668155
#
# Stress axis : x y z
#
# Youngs Moduli (GPa) = 79.39070 72.56893 23.30897
#
# Poissons Ratio (x) = 0.35721 0.10967
# Poissons Ratio (y) = 0.39079 0.27203
# Poissons Ratio (z) = 0.37355 0.84693
#
# Static dielectric constant tensor:
#      x y z
#    x 3.526850 0.000000 0.000000 
#    y 0.000000 3.528160 0.000000 
#    z 0.000000 0.000000 3.139390 
# 
# 
# High freq. dielectric constant tensor:
#      x y z
#    x 1.690960 0.000000 0.000000 
#    y 0.000000 1.685030 0.000000 
#    z 0.000000 0.000000 1.666320 
# 
# From -- ./inp_files/3137.got.cif
#   From: 2010.03.12/outbox.cif.g09.slc.cpg/sg57_2_cif.got.tgz:3137.got - 2010.04.16 15:48:40.
