data_PCOD8230084
_publ_section_title
;
Structure prediction by ZEFSAII (Michael W. Deem and Ramdas Pophale) SiO2 
 PCOD8230084
Probable space group: P B C M
;
_chemical_formula_sum "Si O2"
_cell_formula_units_Z 56
_cell_length_a 20.364256
_cell_length_b 18.383104
_cell_length_c 9.042002
_cell_angle_alpha 90.000000
_cell_angle_beta 90.000000
_cell_angle_gamma 90.000000
_cell_volume 3384.947918
_symmetry_space_group_name_H-M "P B C M"
_symmetry_group_IT_number 57
_symmetry_cell_setting 'orthorhombic'
loop_
_space_group_symop_operation_xyz
x,y,z
-x,-y,1/2+z
x,1/2-y,-z
-x,1/2+y,1/2-z
-x,-y,-z
x,y,1/2-z
-x,1/2+y,z
x,1/2-y,1/2+z
loop_
_atom_site_type_symbol
_atom_site_label
_atom_site_fract_x
_atom_site_fract_y
_atom_site_fract_z
Si Si1 0.556129 0.955273 0.578633
Si Si2 0.503026 0.827295 0.423157
Si Si3 0.937938 0.970360 0.419432
Si Si4 0.257200 0.825468 0.924355
Si Si5 0.882646 0.384363 0.576707
Si Si6 0.988100 0.823313 0.423857
Si Si7 0.633127 0.091736 0.582417
O O1 0.538166 0.943117 0.750000
O O2 0.560517 0.877402 0.496145
O O3 0.500000 0.000000 0.500000
O O4 0.621732 0.004614 0.563681
O O5 0.505500 0.750000 0.500000
O O6 0.517212 0.819541 0.250000
O O7 0.432607 0.863374 0.455453
O O8 0.956809 0.974236 0.250000
O O9 0.931537 0.884565 0.460922
O O10 0.878839 0.027271 0.453722
O O11 0.000000 0.000000 0.500000
O O12 0.259850 0.815638 0.750000
O O13 0.185509 0.850709 0.978666
O O14 0.276416 0.750000 0.000000
O O15 0.309616 0.886071 0.971033
O O16 0.894161 0.368918 0.750000
O O17 0.940938 0.346527 0.486558
O O18 0.962996 0.750000 0.500000
O O19 0.995891 0.810021 0.250000
O O20 0.654826 0.109315 0.750000
#
# Coordination Sequence:
#
# PCOD8230084 Si02
#       7
#     8   8   8   8   8   8   8
#     4   9  17  30  47  66  88 116 148 184 225 268
#     4  10  19  30  46  69  94 120 148 182 224 266
#     4   8  15  28  44  61  83 110 142 178 217 259
#     4  11  22  32  45  64  88 119 152 183 216 254
#     4   9  18  32  46  62  86 116 149 184 218 257
#     4  10  18  27  43  66  89 115 142 175 219 263
#     4   9  19  33  47  64  89 120 152 184 218 257
#
# _framework density 16.543828999999999
#
# number of rings (size 3 to 8) (size 9 to 14) (size 15 to 20)
#    0.000    2.571    0.000    3.429    0.000    7.429 
#    0.000    0.000    0.000    0.000    0.000    1.000 
#    0.000    4.571    0.000    0.000    0.000    0.000 
#
# Total GULP energy -693814.034286 kJ/mol
# GULP energy per Si atom -12389.536327 kJ/mol
# Density = 1.650617 g / cm^3
# Si number density = 16.543829 Si / 1000 Ang^3
#
#
#
# Elastic Constant Matrix: (Units=GPa)
#
#
# Indices 1 2 3 4 5 6 
#
# 1 28.5202 17.2293 18.0766 0.0000 0.0000 0.0000
# 2 17.2293 112.2040 43.7560 0.0000 0.0000 0.0000
# 3 18.0766 43.7560 75.5890 0.0000 0.0000 0.0000
# 4 0.0000 0.0000 0.0000 30.8675 0.0000 0.0000
# 5 0.0000 0.0000 0.0000 0.0000 17.7918 0.0000
# 6 0.0000 0.0000 0.0000 0.0000 0.0000 23.7071
#
#
#
# Elastic Compliance Matrix: (Units=1/GPa)
#
#
# Indices 1 2 3 4 5 6 
#
# 1 0.042247 -0.003290 -0.008199 0.000000 0.000000 0.000000
# 2 -0.003290 0.011767 -0.006025 0.000000 0.000000 0.000000
# 3 -0.008199 -0.006025 0.018678 0.000000 0.000000 0.000000
# 4 0.000000 0.000000 0.000000 0.032397 0.000000 0.000000
# 5 0.000000 0.000000 0.000000 0.000000 0.056206 0.000000
# 6 0.000000 0.000000 0.000000 0.000000 0.000000 0.042181
#
#
# Mechanical properties :
#
#
# Convention : Reuss Voigt Hill
#
# Bulk Modulus (GPa) = 26.54997 41.60411 34.07704
# Shear Modulus (GPa) = 19.91582 23.62336 21.76959
#
# Velocity S-wave (km/s) = 3.47338 3.78289 3.63143
# Velocity P-wave (km/s) = 5.67176 6.65453 6.18270
#
# Compressibility (1/GPa) = 0.03766482
#
# Stress axis : x y z
#
# Youngs Moduli (GPa) = 23.67040 84.98353 53.54001
#
# Poissons Ratio (x) = 0.27959 0.43895
# Poissons Ratio (y) = 0.07787 0.32257
# Poissons Ratio (z) = 0.19406 0.51200
#
# Static dielectric constant tensor:
#      x y z
#    x 2.846430 0.000000 0.000000 
#    y 0.000000 3.797350 0.000000 
#    z 0.000000 0.000000 3.274620 
# 
# 
# High freq. dielectric constant tensor:
#      x y z
#    x 1.582820 0.000000 0.000000 
#    y 0.000000 1.651520 0.000000 
#    z 0.000000 0.000000 1.651380 
# 
# From -- ./inp_files/8295.got.cif
#   From: 2010.03.12/outbox.cif.g09.slc.cpg/sg57_5_cif.got.tgz:8295.got - 2010.04.16 15:48:40.
