data_PCOD8230807
_publ_section_title
;
Structure prediction by ZEFSAII (Michael W. Deem and Ramdas Pophale) SiO2 
 PCOD8230807
Probable space group: P B C M
;
_chemical_formula_sum "Si O2"
_cell_formula_units_Z 64
_cell_length_a 23.142465
_cell_length_b 17.151156
_cell_length_c 8.918318
_cell_angle_alpha 90.000000
_cell_angle_beta 90.000000
_cell_angle_gamma 90.000000
_cell_volume 3539.859025
_symmetry_space_group_name_H-M "P B C M"
_symmetry_group_IT_number 57
_symmetry_cell_setting 'orthorhombic'
loop_
_space_group_symop_operation_xyz
x,y,z
-x,-y,1/2+z
x,1/2-y,-z
-x,1/2+y,1/2-z
-x,-y,-z
x,y,1/2-z
-x,1/2+y,z
x,1/2-y,1/2+z
loop_
_atom_site_type_symbol
_atom_site_label
_atom_site_fract_x
_atom_site_fract_y
_atom_site_fract_z
Si Si1 0.817449 0.828341 0.425743
Si Si2 0.956024 0.168888 0.425038
Si Si3 0.077569 0.101656 0.078063
Si Si4 0.470432 0.073442 0.925860
Si Si5 0.868008 0.061799 0.575234
Si Si6 0.634878 0.022132 0.075256
Si Si7 0.560504 0.169001 0.428704
Si Si8 0.761769 0.989440 0.428206
O O1 0.792118 0.750000 0.500000
O O2 0.816194 0.816914 0.250000
O O3 0.883524 0.841701 0.476653
O O4 0.778138 0.901436 0.476995
O O5 0.971451 0.250000 0.500000
O O6 0.944945 0.180065 0.250000
O O7 0.898148 0.135306 0.498568
O O8 0.010299 0.112796 0.458403
O O9 0.091803 0.122226 0.250000
O O10 0.092151 0.012586 0.040915
O O11 0.484751 0.078353 0.750000
O O12 0.402120 0.057425 0.953405
O O13 0.495657 0.150041 0.008726
O O14 0.500000 0.000000 0.000000
O O15 0.860629 0.078343 0.750000
O O16 0.805075 0.050884 0.503069
O O17 0.641885 0.036108 0.250000
O O18 0.603726 0.100563 0.012935
O O19 0.698309 0.009205 0.005877
O O20 0.582019 0.250000 0.500000
O O21 0.558231 0.175252 0.250000
O O22 0.765623 0.998241 0.250000
#
# Coordination Sequence:
#
# PCOD8230807 Si02
#       8
#     8   8   8   8   8   8   8   8
#     4  10  19  30  49  73  99 129 162 202 252 302
#     4  11  22  35  51  73  99 130 164 204 253 304
#     4   9  19  34  53  75  99 125 160 203 249 303
#     4   9  16  29  50  75 102 132 163 199 243 294
#     4  10  20  35  53  75 101 130 164 206 251 300
#     4   8  16  32  54  75  98 132 174 211 247 293
#     4  10  19  32  51  77 106 136 169 211 258 301
#     4   9  18  35  55  73  96 134 176 210 246 295
#
# _framework density 18.079816999999998
#
# number of rings (size 3 to 8) (size 9 to 14) (size 15 to 20)
#    0.000    2.500    0.000    3.375    0.000    3.000 
#    0.000    5.000    0.000    3.000    0.000    0.000 
#    0.000    0.000    0.000    0.000    0.000    0.000 
#
# Total GULP energy -793418.427318 kJ/mol
# GULP energy per Si atom -12397.162927 kJ/mol
# Density = 1.803867 g / cm^3
# Si number density = 18.079817 Si / 1000 Ang^3
#
#
#
# Elastic Constant Matrix: (Units=GPa)
#
#
# Indices 1 2 3 4 5 6 
#
# 1 122.2746 38.3412 37.9300 0.0000 0.0000 0.0000
# 2 38.3412 65.0772 28.1777 0.0000 0.0000 0.0000
# 3 37.9300 28.1777 69.4251 0.0000 0.0000 0.0000
# 4 0.0000 0.0000 0.0000 32.2164 0.0000 0.0000
# 5 0.0000 0.0000 0.0000 0.0000 22.6063 0.0000
# 6 0.0000 0.0000 0.0000 0.0000 0.0000 19.4084
#
#
#
# Elastic Compliance Matrix: (Units=1/GPa)
#
#
# Indices 1 2 3 4 5 6 
#
# 1 0.010901 -0.004663 -0.004063 0.000000 0.000000 0.000000
# 2 -0.004663 0.020637 -0.005828 0.000000 0.000000 0.000000
# 3 -0.004063 -0.005828 0.018989 0.000000 0.000000 0.000000
# 4 0.000000 0.000000 0.000000 0.031040 0.000000 0.000000
# 5 0.000000 0.000000 0.000000 0.000000 0.044235 0.000000
# 6 0.000000 0.000000 0.000000 0.000000 0.000000 0.051524
#
#
# Mechanical properties :
#
#
# Convention : Reuss Voigt Hill
#
# Bulk Modulus (GPa) = 46.68868 51.74165 49.21516
# Shear Modulus (GPa) = 23.41086 25.00141 24.20613
#
# Velocity S-wave (km/s) = 3.60232 3.72268 3.66300
# Velocity P-wave (km/s) = 6.57130 6.86720 6.72088
#
# Compressibility (1/GPa) = 0.02141847
#
# Stress axis : x y z
#
# Youngs Moduli (GPa) = 91.73567 48.45565 52.66098
#
# Poissons Ratio (x) = 0.22596 0.21396
# Poissons Ratio (y) = 0.42778 0.30693
# Poissons Ratio (z) = 0.37272 0.28242
#
# Static dielectric constant tensor:
#      x y z
#    x 3.546090 0.000000 0.000000 
#    y 0.000000 3.318180 0.000000 
#    z 0.000000 0.000000 3.332990 
# 
# 
# High freq. dielectric constant tensor:
#      x y z
#    x 1.689120 0.000000 0.000000 
#    y 0.000000 1.690660 0.000000 
#    z 0.000000 0.000000 1.699490 
# 
# From -- ./inp_files/8576.got.cif
#   From: 2010.03.12/outbox.cif.g09.slc.cpg/sg57_5_cif.got.tgz:8576.got - 2010.04.16 15:48:40.
