data_PCOD8230570
_publ_section_title
;
Structure prediction by ZEFSAII (Michael W. Deem and Ramdas Pophale) SiO2 
 PCOD8230570
Probable space group: P B C M
;
_chemical_formula_sum "Si O2"
_cell_formula_units_Z 56
_cell_length_a 12.303018
_cell_length_b 13.733943
_cell_length_c 15.359932
_cell_angle_alpha 90.000000
_cell_angle_beta 90.000000
_cell_angle_gamma 90.000000
_cell_volume 2595.351550
_symmetry_space_group_name_H-M "P B C M"
_symmetry_group_IT_number 57
_symmetry_cell_setting 'orthorhombic'
loop_
_space_group_symop_operation_xyz
x,y,z
-x,-y,1/2+z
x,1/2-y,-z
-x,1/2+y,1/2-z
-x,-y,-z
x,y,1/2-z
-x,1/2+y,z
x,1/2-y,1/2+z
loop_
_atom_site_type_symbol
_atom_site_label
_atom_site_fract_x
_atom_site_fract_y
_atom_site_fract_z
Si Si1 0.496831 0.838631 0.345245
Si Si2 0.401143 0.177519 0.075771
Si Si3 0.913844 0.595517 0.595352
Si Si4 0.826825 0.712035 0.154244
Si Si5 0.688774 0.514554 0.652769
Si Si6 0.119791 0.481339 0.905211
Si Si7 0.351686 0.536869 0.535850
O O1 0.447324 0.863445 0.250000
O O2 0.520970 0.721258 0.348062
O O3 0.614495 0.889791 0.357126
O O4 0.415518 0.874158 0.420788
O O5 0.275093 0.195000 0.092221
O O6 0.420320 0.063358 0.055193
O O7 0.437833 0.250000 0.000000
O O8 0.909042 0.711227 0.610577
O O9 0.814078 0.545908 0.646243
O O10 0.910485 0.572225 0.494341
O O11 0.030448 0.557748 0.629303
O O12 0.792282 0.749248 0.250000
O O13 0.881339 0.605903 0.164769
O O14 0.670881 0.466821 0.750000
O O15 0.660567 0.445501 0.569025
O O16 0.235534 0.534498 0.916225
#
# Coordination Sequence:
#
# PCOD8230570 Si02
#       7
#     8   8   8   8   8   8   8
#     4  11  22  36  58  87 117 150 194 241 291 348
#     4  11  20  35  59  83 110 146 193 241 284 338
#     4  10  18  35  59  83 113 148 188 240 282 331
#     4  11  20  32  54  85 114 142 183 235 284 337
#     4  10  19  33  57  88 116 151 197 242 290 345
#     4   9  21  36  57  85 111 148 194 230 285 344
#     4  10  21  38  61  84 120 158 192 243 297 346
#
# _framework density 21.577038999999999
#
# number of rings (size 3 to 8) (size 9 to 14) (size 15 to 20)
#    0.000    1.714    2.857    3.429    0.000    4.000 
#    0.000    0.000    3.143    0.857    0.000    0.000 
#    0.000    0.000    0.000    0.000    0.000    0.000 
#
# Total GULP energy -693845.112626 kJ/mol
# GULP energy per Si atom -12390.091297 kJ/mol
# Density = 2.152793 g / cm^3
# Si number density = 21.577039 Si / 1000 Ang^3
#
#
#
# Elastic Constant Matrix: (Units=GPa)
#
#
# Indices 1 2 3 4 5 6 
#
# 1 92.6806 43.4077 32.0392 0.0000 0.0000 0.0000
# 2 43.4077 84.4115 28.3160 0.0000 0.0000 0.0000
# 3 32.0392 28.3160 106.0808 0.0000 0.0000 0.0000
# 4 0.0000 0.0000 0.0000 22.3381 0.0000 0.0000
# 5 0.0000 0.0000 0.0000 0.0000 17.6553 0.0000
# 6 0.0000 0.0000 0.0000 0.0000 0.0000 32.8873
#
#
#
# Elastic Compliance Matrix: (Units=1/GPa)
#
#
# Indices 1 2 3 4 5 6 
#
# 1 0.014882 -0.006749 -0.002693 0.000000 0.000000 0.000000
# 2 -0.006749 0.016073 -0.002252 0.000000 0.000000 0.000000
# 3 -0.002693 -0.002252 0.010841 0.000000 0.000000 0.000000
# 4 0.000000 0.000000 0.000000 0.044767 0.000000 0.000000
# 5 0.000000 0.000000 0.000000 0.000000 0.056640 0.000000
# 6 0.000000 0.000000 0.000000 0.000000 0.000000 0.030407
#
#
# Mechanical properties :
#
#
# Convention : Reuss Voigt Hill
#
# Bulk Modulus (GPa) = 54.32616 54.52207 54.42412
# Shear Modulus (GPa) = 24.61428 26.53682 25.57555
#
# Velocity S-wave (km/s) = 3.38118 3.51075 3.44657
# Velocity P-wave (km/s) = 6.36204 6.46198 6.41221
#
# Compressibility (1/GPa) = 0.01840734
#
# Stress axis : x y z
#
# Youngs Moduli (GPa) = 67.19581 62.21640 92.24044
#
# Poissons Ratio (x) = 0.41993 0.24841
# Poissons Ratio (y) = 0.45353 0.20771
# Poissons Ratio (z) = 0.18096 0.14010
#
# Static dielectric constant tensor:
#      x y z
#    x 3.898040 0.000000 0.000000 
#    y 0.000000 3.737940 0.000000 
#    z 0.000000 0.000000 4.116940 
# 
# 
# High freq. dielectric constant tensor:
#      x y z
#    x 1.832230 0.000000 0.000000 
#    y 0.000000 1.815120 0.000000 
#    z 0.000000 0.000000 1.858910 
# 
# From -- ./inp_files/17746.got.cif
#   From: 2010.03.12/outbox.cif.g09.slc.cpg/sg57_9_cif.got.tgz:17746.got - 2010.04.16 15:48:40.
