data_PCOD8230185
_publ_section_title
;
Structure prediction by ZEFSAII (Michael W. Deem and Ramdas Pophale) SiO2 
 PCOD8230185
Probable space group: P B C M
;
_chemical_formula_sum "Si O2"
_cell_formula_units_Z 48
_cell_length_a 14.789263
_cell_length_b 20.618773
_cell_length_c 9.207685
_cell_angle_alpha 90.000000
_cell_angle_beta 90.000000
_cell_angle_gamma 90.000000
_cell_volume 2807.758838
_symmetry_space_group_name_H-M "P B C M"
_symmetry_group_IT_number 57
_symmetry_cell_setting 'orthorhombic'
loop_
_space_group_symop_operation_xyz
x,y,z
-x,-y,1/2+z
x,1/2-y,-z
-x,1/2+y,1/2-z
-x,-y,-z
x,y,1/2-z
-x,1/2+y,z
x,1/2-y,1/2+z
loop_
_atom_site_type_symbol
_atom_site_label
_atom_site_fract_x
_atom_site_fract_y
_atom_site_fract_z
Si Si1 0.503727 0.310971 0.414806
Si Si2 0.928651 0.043417 0.417278
Si Si3 0.725597 0.027500 0.415248
Si Si4 0.294605 0.847772 0.416220
Si Si5 0.441879 0.447507 0.082902
Si Si6 0.118179 0.812418 0.577639
O O1 0.463033 0.250000 0.500000
O O2 0.471601 0.304120 0.250000
O O3 0.612011 0.309425 0.427620
O O4 0.461245 0.376501 0.482983
O O5 0.953809 0.038177 0.250000
O O6 0.931144 0.119722 0.464241
O O7 0.830238 0.012918 0.450822
O O8 0.000000 0.000000 0.500000
O O9 0.719058 0.054995 0.250000
O O10 0.665175 0.962910 0.432298
O O11 0.686358 0.079679 0.527427
O O12 0.259518 0.849755 0.250000
O O13 0.220800 0.814345 0.519357
O O14 0.473618 0.448887 0.250000
O O15 0.500000 0.500000 0.000000
O O16 0.070353 0.750000 0.500000
O O17 0.119648 0.801991 0.750000
#
# Coordination Sequence:
#
# PCOD8230185 Si02
#       6
#     8   8   8   8   8   8
#     4  10  21  32  44  67  98 132 170 206 245 290
#     4   9  19  34  52  76 101 129 165 205 254 305
#     4   9  18  32  51  73  99 130 164 206 254 297
#     4  10  18  29  46  71 101 131 166 201 241 297
#     4  10  19  33  51  72  98 130 169 209 245 293
#     4  10  20  33  49  73 103 133 166 201 249 306
#
# _framework density 17.095483999999999
#
# number of rings (size 3 to 8) (size 9 to 14) (size 15 to 20)
#    0.000    2.333    1.667    2.500    0.000    6.667 
#    0.000    0.000    0.000    1.000    0.000    4.667 
#    0.000    0.000    0.000    0.000    0.000    0.000 
#
# Total GULP energy -595009.092454 kJ/mol
# GULP energy per Si atom -12396.022759 kJ/mol
# Density = 1.705657 g / cm^3
# Si number density = 17.095484 Si / 1000 Ang^3
#
#
#
# Elastic Constant Matrix: (Units=GPa)
#
#
# Indices 1 2 3 4 5 6 
#
# 1 64.0156 55.2460 31.7791 0.0000 0.0000 0.0000
# 2 55.2460 152.8792 58.5781 0.0000 0.0000 0.0000
# 3 31.7791 58.5781 70.9232 0.0000 0.0000 0.0000
# 4 0.0000 0.0000 0.0000 32.8377 0.0000 0.0000
# 5 0.0000 0.0000 0.0000 0.0000 21.8158 0.0000
# 6 0.0000 0.0000 0.0000 0.0000 0.0000 23.1521
#
#
#
# Elastic Compliance Matrix: (Units=1/GPa)
#
#
# Indices 1 2 3 4 5 6 
#
# 1 0.023964 -0.006650 -0.005245 0.000000 0.000000 0.000000
# 2 -0.006650 0.011415 -0.006448 0.000000 0.000000 0.000000
# 3 -0.005245 -0.006448 0.021776 0.000000 0.000000 0.000000
# 4 0.000000 0.000000 0.000000 0.030453 0.000000 0.000000
# 5 0.000000 0.000000 0.000000 0.000000 0.045838 0.000000
# 6 0.000000 0.000000 0.000000 0.000000 0.000000 0.043193
#
#
# Mechanical properties :
#
#
# Convention : Reuss Voigt Hill
#
# Bulk Modulus (GPa) = 48.85725 64.33603 56.59664
# Shear Modulus (GPa) = 22.71189 25.04211 23.87700
#
# Velocity S-wave (km/s) = 3.64886 3.83147 3.74128
# Velocity P-wave (km/s) = 6.81126 7.56892 7.20007
#
# Compressibility (1/GPa) = 0.02046779
#
# Stress axis : x y z
#
# Youngs Moduli (GPa) = 41.72895 87.60356 45.92229
#
# Poissons Ratio (x) = 0.58258 0.24087
# Poissons Ratio (y) = 0.27750 0.29612
# Poissons Ratio (z) = 0.21888 0.56490
#
# Static dielectric constant tensor:
#      x y z
#    x 2.985130 0.000000 0.000000 
#    y 0.000000 3.427100 0.000000 
#    z 0.000000 0.000000 3.244710 
# 
# 
# High freq. dielectric constant tensor:
#      x y z
#    x 1.624210 0.000000 0.000000 
#    y 0.000000 1.659940 0.000000 
#    z 0.000000 0.000000 1.664180 
# 
# From -- ./inp_files/4840.got.cif
#   From: 2010.03.12/outbox.cif.g09.slc.cpg/sg57_3_cif.got.tgz:4840.got - 2010.04.16 15:48:40.
