data_PCOD8230224
_publ_section_title
;
Structure prediction by ZEFSAII (Michael W. Deem and Ramdas Pophale) SiO2 
 PCOD8230224
Probable space group: P B C M
;
_chemical_formula_sum "Si O2"
_cell_formula_units_Z 64
_cell_length_a 20.844786
_cell_length_b 9.318524
_cell_length_c 16.768977
_cell_angle_alpha 90.000000
_cell_angle_beta 90.000000
_cell_angle_gamma 90.000000
_cell_volume 3257.250339
_symmetry_space_group_name_H-M "P B C M"
_symmetry_group_IT_number 57
_symmetry_cell_setting 'orthorhombic'
loop_
_space_group_symop_operation_xyz
x,y,z
-x,-y,1/2+z
x,1/2-y,-z
-x,1/2+y,1/2-z
-x,-y,-z
x,y,1/2-z
-x,1/2+y,z
x,1/2-y,1/2+z
loop_
_atom_site_type_symbol
_atom_site_label
_atom_site_fract_x
_atom_site_fract_y
_atom_site_fract_z
Si Si1 0.029870 0.178569 0.659575
Si Si2 0.774250 0.680048 0.917020
Si Si3 0.105189 0.687496 0.913288
Si Si4 0.473943 0.272124 0.155785
Si Si5 0.629585 0.614666 0.551922
Si Si6 0.138039 0.533637 0.161180
Si Si7 0.141804 0.100521 0.158815
Si Si8 0.551832 0.017952 0.932374
O O1 0.004200 0.195866 0.750000
O O2 0.079414 0.304797 0.638148
O O3 0.970988 0.175154 0.599085
O O4 0.066120 0.026871 0.649360
O O5 0.700886 0.630168 0.914266
O O6 0.814273 0.536326 0.902546
O O7 0.793771 0.803530 0.853064
O O8 0.794029 0.750000 0.000000
O O9 0.136002 0.796570 0.849997
O O10 0.140484 0.535880 0.899891
O O11 0.119504 0.750000 0.000000
O O12 0.481960 0.279969 0.250000
O O13 0.418210 0.385396 0.128078
O O14 0.540380 0.330959 0.114248
O O15 0.455444 0.110638 0.131768
O O16 0.608063 0.750000 0.500000
O O17 0.618546 0.486346 0.485622
O O18 0.162878 0.496200 0.250000
O O19 0.139742 0.047837 0.250000
O O20 0.500000 0.000000 0.000000
#
# Coordination Sequence:
#
# PCOD8230224 Si02
#       8
#     8   8   8   8   8   8   8   8
#     4   9  19  35  53  74 101 135 174 217 276 346
#     4  10  19  35  57  78 101 133 183 231 264 312
#     4  12  23  33  50  77 107 136 173 224 279 335
#     4  10  18  29  52  84 114 144 184 228 264 308
#     4   8  17  32  52  76 106 144 177 212 262 317
#     4  10  21  36  54  75 102 139 177 219 277 338
#     4  10  21  36  54  75 102 139 178 223 280 333
#     4   9  17  32  51  77 112 148 180 212 270 329
#
# _framework density 19.648475000000001
#
# number of rings (size 3 to 8) (size 9 to 14) (size 15 to 20)
#    0.000    2.250    0.000    5.250    0.000    7.000 
#    0.000    0.000    0.000   21.000    0.000    0.000 
#    0.000    0.000    0.000    0.000    0.000    0.000 
#
# Total GULP energy -793019.650254 kJ/mol
# GULP energy per Si atom -12390.932035 kJ/mol
# Density = 1.960375 g / cm^3
# Si number density = 19.648475 Si / 1000 Ang^3
#
#
#
# Elastic Constant Matrix: (Units=GPa)
#
#
# Indices 1 2 3 4 5 6 
#
# 1 91.1769 25.5193 29.4062 0.0000 0.0000 0.0000
# 2 25.5193 77.0271 7.7198 0.0000 0.0000 0.0000
# 3 29.4062 7.7198 72.5009 0.0000 0.0000 0.0000
# 4 0.0000 0.0000 0.0000 32.9867 0.0000 0.0000
# 5 0.0000 0.0000 0.0000 0.0000 24.3335 0.0000
# 6 0.0000 0.0000 0.0000 0.0000 0.0000 14.3905
#
#
#
# Elastic Compliance Matrix: (Units=1/GPa)
#
#
# Indices 1 2 3 4 5 6 
#
# 1 0.013760 -0.004043 -0.005151 0.000000 0.000000 0.000000
# 2 -0.004043 0.014310 0.000116 0.000000 0.000000 0.000000
# 3 -0.005151 0.000116 0.015870 0.000000 0.000000 0.000000
# 4 0.000000 0.000000 0.000000 0.030315 0.000000 0.000000
# 5 0.000000 0.000000 0.000000 0.000000 0.041096 0.000000
# 6 0.000000 0.000000 0.000000 0.000000 0.000000 0.069490
#
#
# Mechanical properties :
#
#
# Convention : Reuss Voigt Hill
#
# Bulk Modulus (GPa) = 38.78158 40.66617 39.72387
# Shear Modulus (GPa) = 23.63045 26.21278 24.92161
#
# Velocity S-wave (km/s) = 3.47170 3.65648 3.56529
# Velocity P-wave (km/s) = 5.98756 6.21033 6.09996
#
# Compressibility (1/GPa) = 0.02578544
#
# Stress axis : x y z
#
# Youngs Moduli (GPa) = 72.67235 69.88045 63.01310
#
# Poissons Ratio (x) = 0.28250 0.32456
# Poissons Ratio (y) = 0.29379 -0.00731
# Poissons Ratio (z) = 0.37432 -0.00810
#
# Static dielectric constant tensor:
#      x y z
#    x 3.415900 0.000000 0.000000 
#    y 0.000000 3.911510 0.000000 
#    z 0.000000 0.000000 3.671820 
# 
# 
# High freq. dielectric constant tensor:
#      x y z
#    x 1.730390 0.000000 0.000000 
#    y 0.000000 1.760740 0.000000 
#    z 0.000000 0.000000 1.771140 
# 
# From -- ./inp_files/23012.got.cif
#   From: 2010.03.12/outbox.cif.g09.slc.cpg/sg57_12_cif.got.tgz:23012.got - 2010.04.16 15:48:40.
