data_PCOD8230201
_publ_section_title
;
Structure prediction by ZEFSAII (Michael W. Deem and Ramdas Pophale) SiO2 
 PCOD8230201
Probable space group: P B C M
;
_chemical_formula_sum "Si O2"
_cell_formula_units_Z 48
_cell_length_a 18.676122
_cell_length_b 9.510762
_cell_length_c 15.511219
_cell_angle_alpha 90.000000
_cell_angle_beta 90.000000
_cell_angle_gamma 90.000000
_cell_volume 2755.167112
_symmetry_space_group_name_H-M "P B C M"
_symmetry_group_IT_number 57
_symmetry_cell_setting 'orthorhombic'
loop_
_space_group_symop_operation_xyz
x,y,z
-x,-y,1/2+z
x,1/2-y,-z
-x,1/2+y,1/2-z
-x,-y,-z
x,y,1/2-z
-x,1/2+y,z
x,1/2-y,1/2+z
loop_
_atom_site_type_symbol
_atom_site_label
_atom_site_fract_x
_atom_site_fract_y
_atom_site_fract_z
Si Si1 0.437818 0.389273 0.847679
Si Si2 0.059131 0.156023 0.153784
Si Si3 0.421106 0.063846 0.847892
Si Si4 0.171742 0.412317 0.519242
Si Si5 0.044640 0.459811 0.416515
Si Si6 0.329373 0.416009 0.992775
O O1 0.412148 0.420481 0.750000
O O2 0.447480 0.223138 0.863163
O O3 0.513523 0.460356 0.866372
O O4 0.380158 0.456858 0.912722
O O5 0.084435 0.191979 0.250000
O O6 0.125257 0.075758 0.107153
O O7 0.035337 0.296026 0.104505
O O8 0.987931 0.057027 0.158779
O O9 0.391900 0.044697 0.750000
O O10 0.359277 0.023858 0.916407
O O11 0.183133 0.250000 0.500000
O O12 0.128459 0.485962 0.439789
O O13 0.250522 0.482113 0.525874
O O14 0.000000 0.500000 0.500000
O O15 0.324071 0.250000 0.000000
#
# Coordination Sequence:
#
# PCOD8230201 Si02
#       6
#     8   8   8   8   8   8
#     4   9  17  28  45  66  88 115 148 185 224 264
#     4  10  18  29  48  72  92 116 153 194 229 269
#     4   9  17  29  45  66  88 114 148 186 224 264
#     4   8  16  29  44  64  91 118 145 182 227 270
#     4   9  17  31  48  66  91 122 151 183 228 275
#     4   9  16  28  45  66  91 117 148 184 224 270
#
# _framework density 17.421811000000002
#
# number of rings (size 3 to 8) (size 9 to 14) (size 15 to 20)
#    0.000    3.000    0.000    2.500    0.000    0.667 
#    0.000    9.167    0.000    8.000    0.000    7.000 
#    0.000    0.000    0.000    0.000    0.000    0.000 
#
# Total GULP energy -594720.580264 kJ/mol
# GULP energy per Si atom -12390.012089 kJ/mol
# Density = 1.738216 g / cm^3
# Si number density = 17.421811 Si / 1000 Ang^3
#
#
#
# Elastic Constant Matrix: (Units=GPa)
#
#
# Indices 1 2 3 4 5 6 
#
# 1 127.7807 35.7784 68.9196 0.0000 0.0000 0.0000
# 2 35.7784 39.1734 24.3274 0.0000 0.0000 0.0000
# 3 68.9196 24.3274 114.4611 0.0000 0.0000 0.0000
# 4 0.0000 0.0000 0.0000 17.6332 0.0000 0.0000
# 5 0.0000 0.0000 0.0000 0.0000 19.3093 0.0000
# 6 0.0000 0.0000 0.0000 0.0000 0.0000 16.9206
#
#
#
# Elastic Compliance Matrix: (Units=1/GPa)
#
#
# Indices 1 2 3 4 5 6 
#
# 1 0.013670 -0.008495 -0.006426 0.000000 0.000000 0.000000
# 2 -0.008495 0.034688 -0.002258 0.000000 0.000000 0.000000
# 3 -0.006426 -0.002258 0.013085 0.000000 0.000000 0.000000
# 4 0.000000 0.000000 0.000000 0.056711 0.000000 0.000000
# 5 0.000000 0.000000 0.000000 0.000000 0.051788 0.000000
# 6 0.000000 0.000000 0.000000 0.000000 0.000000 0.059100
#
#
# Mechanical properties :
#
#
# Convention : Reuss Voigt Hill
#
# Bulk Modulus (GPa) = 36.91737 59.94069 48.42903
# Shear Modulus (GPa) = 18.35341 20.93194 19.64268
#
# Velocity S-wave (km/s) = 3.24925 3.47000 3.36143
# Velocity P-wave (km/s) = 5.94248 7.10878 6.55164
#
# Compressibility (1/GPa) = 0.02708752
#
# Stress axis : x y z
#
# Youngs Moduli (GPa) = 73.15163 28.82813 76.42089
#
# Poissons Ratio (x) = 0.24490 0.49105
# Poissons Ratio (y) = 0.62143 0.17252
# Poissons Ratio (z) = 0.47005 0.06508
#
# Static dielectric constant tensor:
#      x y z
#    x 3.588890 0.000000 0.000000 
#    y 0.000000 3.127000 0.000000 
#    z 0.000000 0.000000 3.471500 
# 
# 
# High freq. dielectric constant tensor:
#      x y z
#    x 1.664830 0.000000 0.000000 
#    y 0.000000 1.637470 0.000000 
#    z 0.000000 0.000000 1.679600 
# 
# From -- ./inp_files/18380.got.cif
#   From: 2010.03.12/outbox.cif.g09.slc.cpg/sg57_10_cif.got.tgz:18380.got - 2010.04.16 15:48:40.
