data_PCOD8230525
_publ_section_title
;
Structure prediction by ZEFSAII (Michael W. Deem and Ramdas Pophale) SiO2 
 PCOD8230525
Probable space group: P B C M
;
_chemical_formula_sum "Si O2"
_cell_formula_units_Z 56
_cell_length_a 11.164125
_cell_length_b 13.482560
_cell_length_c 20.863755
_cell_angle_alpha 90.000000
_cell_angle_beta 90.000000
_cell_angle_gamma 90.000000
_cell_volume 3140.432957
_symmetry_space_group_name_H-M "P B C M"
_symmetry_group_IT_number 57
_symmetry_cell_setting 'orthorhombic'
loop_
_space_group_symop_operation_xyz
x,y,z
-x,-y,1/2+z
x,1/2-y,-z
-x,1/2+y,1/2-z
-x,-y,-z
x,y,1/2-z
-x,1/2+y,z
x,1/2-y,1/2+z
loop_
_atom_site_type_symbol
_atom_site_label
_atom_site_fract_x
_atom_site_fract_y
_atom_site_fract_z
Si Si1 0.839796 0.976470 0.943853
Si Si2 0.427576 0.523912 0.935099
Si Si3 0.268568 0.004263 0.679229
Si Si4 0.491701 0.884109 0.677677
Si Si5 0.576457 0.817632 0.129302
Si Si6 0.076702 0.067576 0.586725
Si Si7 0.190689 0.239334 0.073188
O O1 0.713363 0.032265 0.949348
O O2 0.935635 0.044986 0.906434
O O3 0.831719 0.873212 0.903806
O O4 0.881802 0.952887 0.014997
O O5 0.440211 0.442435 0.878829
O O6 0.472374 0.630967 0.912004
O O7 0.500000 0.500000 0.000000
O O8 0.213639 0.008355 0.750000
O O9 0.350132 0.906381 0.669348
O O10 0.354178 0.100235 0.670784
O O11 0.156860 0.996581 0.631340
O O12 0.532058 0.917924 0.750000
O O13 0.515398 0.766522 0.672891
O O14 0.670519 0.766376 0.081648
O O15 0.103557 0.181356 0.608829
O O16 0.156636 0.250000 0.000000
#
# Coordination Sequence:
#
# PCOD8230525 Si02
#       7
#     8   8   8   8   8   8   8
#     4  10  18  34  54  76 108 136 175 223 270 319
#     4  11  21  34  56  86 113 138 178 232 281 327
#     4   9  18  34  53  74 103 141 184 223 262 323
#     4  10  20  34  53  79 110 146 181 220 278 336
#     4  10  19  31  54  80 106 139 176 223 277 331
#     4   9  19  33  53  75 101 144 179 217 263 322
#     4   9  16  31  52  73 101 138 172 214 266 318
#
# _framework density 17.831935000000001
#
# number of rings (size 3 to 8) (size 9 to 14) (size 15 to 20)
#    0.000    2.286    1.429    3.857    0.000    0.571 
#    2.571    0.714    3.143    0.000    0.000    0.000 
#    0.000    0.000    0.000    0.000    0.000    0.000 
#
# Total GULP energy -693946.060643 kJ/mol
# GULP energy per Si atom -12391.893940 kJ/mol
# Density = 1.779135 g / cm^3
# Si number density = 17.831935 Si / 1000 Ang^3
#
#
#
# Elastic Constant Matrix: (Units=GPa)
#
#
# Indices 1 2 3 4 5 6 
#
# 1 143.7789 58.4924 29.1324 0.0000 0.0000 0.0000
# 2 58.4924 88.6962 24.6128 0.0000 0.0000 0.0000
# 3 29.1324 24.6128 60.0569 0.0000 0.0000 0.0000
# 4 0.0000 0.0000 0.0000 21.9654 0.0000 0.0000
# 5 0.0000 0.0000 0.0000 0.0000 19.9324 0.0000
# 6 0.0000 0.0000 0.0000 0.0000 0.0000 26.6423
#
#
#
# Elastic Compliance Matrix: (Units=1/GPa)
#
#
# Indices 1 2 3 4 5 6 
#
# 1 0.009796 -0.005802 -0.002374 0.000000 0.000000 0.000000
# 2 -0.005802 0.016157 -0.003807 0.000000 0.000000 0.000000
# 3 -0.002374 -0.003807 0.019363 0.000000 0.000000 0.000000
# 4 0.000000 0.000000 0.000000 0.045526 0.000000 0.000000
# 5 0.000000 0.000000 0.000000 0.000000 0.050170 0.000000
# 6 0.000000 0.000000 0.000000 0.000000 0.000000 0.037534
#
#
# Mechanical properties :
#
#
# Convention : Reuss Voigt Hill
#
# Bulk Modulus (GPa) = 46.83891 57.44524 52.14207
# Shear Modulus (GPa) = 23.85162 25.72765 24.78964
#
# Velocity S-wave (km/s) = 3.66126 3.80252 3.73256
# Velocity P-wave (km/s) = 6.64808 7.18078 6.91956
#
# Compressibility (1/GPa) = 0.02134977
#
# Stress axis : x y z
#
# Youngs Moduli (GPa) = 102.07807 61.89312 51.64495
#
# Poissons Ratio (x) = 0.35908 0.12263
# Poissons Ratio (y) = 0.59221 0.19663
# Poissons Ratio (z) = 0.24238 0.23564
#
# Static dielectric constant tensor:
#      x y z
#    x 3.304950 0.000000 0.000000 
#    y 0.000000 3.615980 0.000000 
#    z 0.000000 0.000000 3.203730 
# 
# 
# High freq. dielectric constant tensor:
#      x y z
#    x 1.677870 0.000000 0.000000 
#    y 0.000000 1.686010 0.000000 
#    z 0.000000 0.000000 1.675990 
# 
# From -- ./inp_files/25046.got.cif
#   From: 2010.03.12/outbox.cif.g09.slc.cpg/sg57_13_cif.got.tgz:25046.got - 2010.04.16 15:48:40.
