data_PCOD8230319
_publ_section_title
;
Structure prediction by ZEFSAII (Michael W. Deem and Ramdas Pophale) SiO2 
 PCOD8230319
Probable space group: P B C M
;
_chemical_formula_sum "Si O2"
_cell_formula_units_Z 64
_cell_length_a 17.629323
_cell_length_b 22.574643
_cell_length_c 8.945078
_cell_angle_alpha 90.000000
_cell_angle_beta 90.000000
_cell_angle_gamma 90.000000
_cell_volume 3559.923438
_symmetry_space_group_name_H-M "P B C M"
_symmetry_group_IT_number 57
_symmetry_cell_setting 'orthorhombic'
loop_
_space_group_symop_operation_xyz
x,y,z
-x,-y,1/2+z
x,1/2-y,-z
-x,1/2+y,1/2-z
-x,-y,-z
x,y,1/2-z
-x,1/2+y,z
x,1/2-y,1/2+z
loop_
_atom_site_type_symbol
_atom_site_label
_atom_site_fract_x
_atom_site_fract_y
_atom_site_fract_z
Si Si1 0.090781 0.649930 0.926872
Si Si2 0.927115 0.689597 0.572938
Si Si3 0.492318 0.438821 0.578534
Si Si4 0.653865 0.414777 0.573373
Si Si5 0.747435 0.190015 0.927664
Si Si6 0.075421 0.980266 0.077643
Si Si7 0.670286 0.542294 0.424622
Si Si8 0.173161 0.407937 0.577787
O O1 0.086504 0.650067 0.750000
O O2 0.164416 0.686235 0.979751
O O3 0.101171 0.583063 0.987583
O O4 0.011993 0.676629 0.990353
O O5 0.897541 0.750000 0.500000
O O6 0.926692 0.695511 0.750000
O O7 0.869133 0.638205 0.527663
O O8 0.500000 0.500000 0.500000
O O9 0.501500 0.453551 0.750000
O O10 0.564887 0.398163 0.534138
O O11 0.405966 0.417662 0.543692
O O12 0.670440 0.410465 0.750000
O O13 0.703803 0.367284 0.486512
O O14 0.672709 0.481427 0.518799
O O15 0.738817 0.192561 0.750000
O O16 0.713650 0.250000 0.000000
O O17 0.055190 0.973834 0.250000
O O18 0.141742 0.026516 0.048103
O O19 0.000000 0.000000 0.000000
O O20 0.676440 0.524292 0.250000
O O21 0.738578 0.586715 0.467538
O O22 0.161821 0.388554 0.750000
#
# Coordination Sequence:
#
# PCOD8230319 Si02
#       8
#     8   8   8   8   8   8   8   8
#     4   9  19  35  54  74 100 132 168 210 255 303
#     4  11  22  37  55  72  96 130 172 216 257 300
#     4   8  15  28  49  76 105 134 163 197 241 296
#     4  10  19  32  51  79 110 137 169 208 253 309
#     4  11  22  37  54  73 101 138 178 219 260 307
#     4  10  18  31  49  73 102 131 163 202 248 299
#     4   9  17  32  54  79 107 139 170 207 257 308
#     4  10  20  33  52  77 105 135 170 208 252 303
#
# _framework density 17.977913999999998
#
# number of rings (size 3 to 8) (size 9 to 14) (size 15 to 20)
#    0.000    2.250    1.250    2.250    0.000    3.000 
#    0.000    4.375    0.000    0.750    0.000    0.000 
#    0.000    0.000    0.000    0.000    0.000    0.000 
#
# Total GULP energy -793040.245497 kJ/mol
# GULP energy per Si atom -12391.253836 kJ/mol
# Density = 1.793700 g / cm^3
# Si number density = 17.977914 Si / 1000 Ang^3
#
#
#
# Elastic Constant Matrix: (Units=GPa)
#
#
# Indices 1 2 3 4 5 6 
#
# 1 131.1910 33.1201 38.8060 0.0000 0.0000 0.0000
# 2 33.1201 82.5848 33.2878 0.0000 0.0000 0.0000
# 3 38.8060 33.2878 59.4787 0.0000 0.0000 0.0000
# 4 0.0000 0.0000 0.0000 27.1855 0.0000 0.0000
# 5 0.0000 0.0000 0.0000 0.0000 23.1428 0.0000
# 6 0.0000 0.0000 0.0000 0.0000 0.0000 14.6513
#
#
#
# Elastic Compliance Matrix: (Units=1/GPa)
#
#
# Indices 1 2 3 4 5 6 
#
# 1 0.009630 -0.001717 -0.005322 0.000000 0.000000 0.000000
# 2 -0.001717 0.015942 -0.007802 0.000000 0.000000 0.000000
# 3 -0.005322 -0.007802 0.024652 0.000000 0.000000 0.000000
# 4 0.000000 0.000000 0.000000 0.036784 0.000000 0.000000
# 5 0.000000 0.000000 0.000000 0.000000 0.043210 0.000000
# 6 0.000000 0.000000 0.000000 0.000000 0.000000 0.068254
#
#
# Mechanical properties :
#
#
# Convention : Reuss Voigt Hill
#
# Bulk Modulus (GPa) = 48.68137 53.74246 51.21191
# Shear Modulus (GPa) = 21.27648 24.19861 22.73755
#
# Velocity S-wave (km/s) = 3.44391 3.67279 3.56019
# Velocity P-wave (km/s) = 6.55372 6.92419 6.74150
#
# Compressibility (1/GPa) = 0.02054174
#
# Stress axis : x y z
#
# Youngs Moduli (GPa) = 103.83979 62.72702 40.56530
#
# Poissons Ratio (x) = 0.10770 0.21590
# Poissons Ratio (y) = 0.17828 0.31649
# Poissons Ratio (z) = 0.55266 0.48939
#
# Static dielectric constant tensor:
#      x y z
#    x 4.911970 0.000000 0.000000 
#    y 0.000000 3.128880 0.000000 
#    z 0.000000 0.000000 3.246280 
# 
# 
# High freq. dielectric constant tensor:
#      x y z
#    x 1.708200 0.000000 0.000000 
#    y 0.000000 1.671050 0.000000 
#    z 0.000000 0.000000 1.689350 
# 
# From -- ./inp_files/7117.got.cif
#   From: 2010.03.12/outbox.cif.g09.slc.cpg/sg57_4_cif.got.tgz:7117.got - 2010.04.16 15:48:40.
