data_PCOD8230762
_publ_section_title
;
Structure prediction by ZEFSAII (Michael W. Deem and Ramdas Pophale) SiO2 
 PCOD8230762
Probable space group: P B C M
;
_chemical_formula_sum "Si O2"
_cell_formula_units_Z 64
_cell_length_a 11.065464
_cell_length_b 33.740425
_cell_length_c 9.520468
_cell_angle_alpha 90.000000
_cell_angle_beta 90.000000
_cell_angle_gamma 90.000000
_cell_volume 3554.499651
_symmetry_space_group_name_H-M "P B C M"
_symmetry_group_IT_number 57
_symmetry_cell_setting 'orthorhombic'
loop_
_space_group_symop_operation_xyz
x,y,z
-x,-y,1/2+z
x,1/2-y,-z
-x,1/2+y,1/2-z
-x,-y,-z
x,y,1/2-z
-x,1/2+y,z
x,1/2-y,1/2+z
loop_
_atom_site_type_symbol
_atom_site_label
_atom_site_fract_x
_atom_site_fract_y
_atom_site_fract_z
Si Si1 0.139883 0.870992 0.416549
Si Si2 0.362197 0.131780 0.910568
Si Si3 0.217165 0.471871 0.908439
Si Si4 0.248512 0.788696 0.084907
Si Si5 0.526107 0.786030 0.409264
Si Si6 0.701229 0.055710 0.586785
Si Si7 0.527546 0.933851 0.913397
Si Si8 0.890255 0.594053 0.913215
O O1 0.140173 0.870269 0.250000
O O2 0.175837 0.827270 0.471453
O O3 0.235440 0.904088 0.467241
O O4 0.007415 0.883094 0.472917
O O5 0.395658 0.120301 0.750000
O O6 0.384252 0.177816 0.938229
O O7 0.222600 0.122752 0.942851
O O8 0.449539 0.108636 0.015568
O O9 0.182403 0.459959 0.750000
O O10 0.204925 0.519102 0.932569
O O11 0.356731 0.461371 0.938577
O O12 0.127400 0.448081 0.010087
O O13 0.226038 0.781422 0.250000
O O14 0.388731 0.797379 0.051417
O O15 0.203278 0.750000 0.000000
O O16 0.576015 0.750000 0.500000
O O17 0.531926 0.771827 0.250000
O O18 0.661633 0.058682 0.750000
O O19 0.585587 0.046403 0.491159
O O20 0.497839 0.928001 0.750000
O O21 0.906062 0.584040 0.750000
#
# Coordination Sequence:
#
# PCOD8230762 Si02
#       8
#     8   8   8   8   8   8   8   8
#     4   9  18  33  52  72  94 125 165 202 233 274
#     4   9  17  31  50  69  92 126 162 192 233 289
#     4   9  19  33  48  69  98 129 158 196 246 290
#     4   9  17  31  50  70  94 121 151 189 234 282
#     4   9  17  29  47  71  96 122 152 189 236 289
#     4  10  19  32  50  70  96 130 163 195 239 293
#     4  10  19  30  46  71  99 123 155 201 246 285
#     4   9  18  33  52  70  91 125 167 203 232 273
#
# _framework density 18.005348000000001
#
# number of rings (size 3 to 8) (size 9 to 14) (size 15 to 20)
#    0.000    2.750    0.000    1.500    0.000    4.000 
#    0.000    5.000    0.000    0.000    0.000    0.000 
#    0.000    0.000    0.000    0.000    0.000    0.000 
#
# Total GULP energy -793560.955123 kJ/mol
# GULP energy per Si atom -12399.389924 kJ/mol
# Density = 1.796437 g / cm^3
# Si number density = 18.005348 Si / 1000 Ang^3
#
#
#
# Elastic Constant Matrix: (Units=GPa)
#
#
# Indices 1 2 3 4 5 6 
#
# 1 49.5349 32.0639 22.9664 0.0000 0.0000 0.0000
# 2 32.0639 123.9110 41.5532 0.0000 0.0000 0.0000
# 3 22.9664 41.5532 57.5763 0.0000 0.0000 0.0000
# 4 0.0000 0.0000 0.0000 31.3123 0.0000 0.0000
# 5 0.0000 0.0000 0.0000 0.0000 17.6100 0.0000
# 6 0.0000 0.0000 0.0000 0.0000 0.0000 22.6335
#
#
#
# Elastic Compliance Matrix: (Units=1/GPa)
#
#
# Indices 1 2 3 4 5 6 
#
# 1 0.026441 -0.004361 -0.007400 0.000000 0.000000 0.000000
# 2 -0.004361 0.011366 -0.006464 0.000000 0.000000 0.000000
# 3 -0.007400 -0.006464 0.024985 0.000000 0.000000 0.000000
# 4 0.000000 0.000000 0.000000 0.031936 0.000000 0.000000
# 5 0.000000 0.000000 0.000000 0.000000 0.056786 0.000000
# 6 0.000000 0.000000 0.000000 0.000000 0.000000 0.044182
#
#
# Mechanical properties :
#
#
# Convention : Reuss Voigt Hill
#
# Bulk Modulus (GPa) = 37.95948 47.13214 42.54581
# Shear Modulus (GPa) = 20.75319 23.27376 22.01348
#
# Velocity S-wave (km/s) = 3.39870 3.59918 3.50037
# Velocity P-wave (km/s) = 6.04398 6.59588 6.32595
#
# Compressibility (1/GPa) = 0.02634388
#
# Stress axis : x y z
#
# Youngs Moduli (GPa) = 37.81965 87.97970 40.02411
#
# Poissons Ratio (x) = 0.38364 0.29618
# Poissons Ratio (y) = 0.16491 0.25871
# Poissons Ratio (z) = 0.27987 0.56868
#
# Static dielectric constant tensor:
#      x y z
#    x 3.242360 0.000000 0.000000 
#    y 0.000000 3.404000 0.000000 
#    z 0.000000 0.000000 3.224590 
# 
# 
# High freq. dielectric constant tensor:
#      x y z
#    x 1.682420 0.000000 0.000000 
#    y 0.000000 1.700080 0.000000 
#    z 0.000000 0.000000 1.680540 
# 
# From -- ./inp_files/3906.got.cif
#   From: 2010.03.12/outbox.cif.g09.slc.cpg/sg57_2_cif.got.tgz:3906.got - 2010.04.16 15:48:40.
