data_PCOD8230523
_publ_section_title
;
Structure prediction by ZEFSAII (Michael W. Deem and Ramdas Pophale) SiO2 
 PCOD8230523
Probable space group: P B C M
;
_chemical_formula_sum "Si O2"
_cell_formula_units_Z 64
_cell_length_a 11.461464
_cell_length_b 19.747931
_cell_length_c 14.549556
_cell_angle_alpha 90.000000
_cell_angle_beta 90.000000
_cell_angle_gamma 90.000000
_cell_volume 3293.149418
_symmetry_space_group_name_H-M "P B C M"
_symmetry_group_IT_number 57
_symmetry_cell_setting 'orthorhombic'
loop_
_space_group_symop_operation_xyz
x,y,z
-x,-y,1/2+z
x,1/2-y,-z
-x,1/2+y,1/2-z
-x,-y,-z
x,y,1/2-z
-x,1/2+y,z
x,1/2-y,1/2+z
loop_
_atom_site_type_symbol
_atom_site_label
_atom_site_fract_x
_atom_site_fract_y
_atom_site_fract_z
Si Si1 0.854071 0.355482 0.001072
Si Si2 0.112728 0.170110 0.502558
Si Si3 0.768632 0.246715 0.856459
Si Si4 0.711265 0.654263 0.147488
Si Si5 0.646540 0.436554 0.005391
Si Si6 0.537345 0.197187 0.927623
Si Si7 0.698479 0.687679 0.648081
Si Si8 0.462979 0.037131 0.358820
O O1 0.815806 0.311442 0.912335
O O2 0.786830 0.428171 0.993921
O O3 0.826723 0.319169 0.098056
O O4 0.991969 0.370415 0.005102
O O5 0.084562 0.250000 0.500000
O O6 0.177301 0.139214 0.414590
O O7 0.199006 0.155704 0.587582
O O8 0.806150 0.253611 0.750000
O O9 0.627735 0.238051 0.862054
O O10 0.751182 0.636632 0.250000
O O11 0.679006 0.732364 0.135043
O O12 0.598271 0.609482 0.121805
O O13 0.586619 0.466041 0.912750
O O14 0.606778 0.359557 0.017704
O O15 0.619983 0.480208 0.096411
O O16 0.430404 0.159434 0.875659
O O17 0.483006 0.250000 0.000000
O O18 0.733777 0.667042 0.750000
O O19 0.481944 0.023529 0.250000
#
# Coordination Sequence:
#
# PCOD8230523 Si02
#       8
#     8   8   8   8   8   8   8   8
#     4  10  20  36  49  79 111 147 182 214 272 337
#     4  10  18  34  53  74 112 146 178 225 270 326
#     4  10  19  31  50  77 113 146 172 211 262 329
#     4   9  19  34  53  76 100 139 189 231 271 315
#     4  10  21  36  56  80 109 145 180 224 280 335
#     4  11  18  34  54  81 116 140 170 220 280 344
#     4  10  20  30  50  82 109 141 179 221 274 327
#     4  10  21  38  57  78 105 140 189 237 277 322
#
# _framework density 19.434284000000002
#
# number of rings (size 3 to 8) (size 9 to 14) (size 15 to 20)
#    0.000    2.000    3.750    3.000    0.000    4.000 
#    0.000    0.625    0.000    0.000    0.000    0.000 
#    0.000    0.000    0.000    0.000    0.000    0.000 
#
# Total GULP energy -793214.245341 kJ/mol
# GULP energy per Si atom -12393.972583 kJ/mol
# Density = 1.939005 g / cm^3
# Si number density = 19.434284 Si / 1000 Ang^3
#
#
#
# Elastic Constant Matrix: (Units=GPa)
#
#
# Indices 1 2 3 4 5 6 
#
# 1 123.8159 -6.0283 47.2808 0.0000 0.0000 0.0000
# 2 -6.0283 19.4079 17.1450 0.0000 0.0000 0.0000
# 3 47.2808 17.1450 135.5203 0.0000 0.0000 0.0000
# 4 0.0000 0.0000 0.0000 16.7465 0.0000 0.0000
# 5 0.0000 0.0000 0.0000 0.0000 16.7123 0.0000
# 6 0.0000 0.0000 0.0000 0.0000 0.0000 15.0875
#
#
#
# Elastic Compliance Matrix: (Units=1/GPa)
#
#
# Indices 1 2 3 4 5 6 
#
# 1 0.010106 0.007040 -0.004416 0.000000 0.000000 0.000000
# 2 0.007040 0.062913 -0.010416 0.000000 0.000000 0.000000
# 3 -0.004416 -0.010416 0.010237 0.000000 0.000000 0.000000
# 4 0.000000 0.000000 0.000000 0.059714 0.000000 0.000000
# 5 0.000000 0.000000 0.000000 0.000000 0.059836 0.000000
# 6 0.000000 0.000000 0.000000 0.000000 0.000000 0.066280
#
#
# Mechanical properties :
#
#
# Convention : Reuss Voigt Hill
#
# Bulk Modulus (GPa) = 14.77688 43.94879 29.36283
# Shear Modulus (GPa) = 16.27458 24.39904 20.33681
#
# Velocity S-wave (km/s) = 2.89695 3.54710 3.23838
# Velocity P-wave (km/s) = 4.33703 6.28005 5.39670
#
# Compressibility (1/GPa) = 0.06767329
#
# Stress axis : x y z
#
# Youngs Moduli (GPa) = 98.95344 15.89490 97.68012
#
# Poissons Ratio (x) = -0.11191 0.43140
# Poissons Ratio (y) = -0.69667 1.01740
# Poissons Ratio (z) = 0.43702 0.16556
#
# Static dielectric constant tensor:
#      x y z
#    x 3.643440 0.000000 0.000000 
#    y 0.000000 3.234920 0.000000 
#    z 0.000000 0.000000 3.573120 
# 
# 
# High freq. dielectric constant tensor:
#      x y z
#    x 1.754330 0.000000 0.000000 
#    y 0.000000 1.716640 0.000000 
#    z 0.000000 0.000000 1.758300 
# 
# From -- ./inp_files/17954.got.cif
#   From: 2010.03.12/outbox.cif.g09.slc.cpg/sg57_9_cif.got.tgz:17954.got - 2010.04.16 15:48:40.
