data_PCOD8230738
_publ_section_title
;
Structure prediction by ZEFSAII (Michael W. Deem and Ramdas Pophale) SiO2 
 PCOD8230738
Probable space group: P B C M
;
_chemical_formula_sum "Si O2"
_cell_formula_units_Z 64
_cell_length_a 15.620527
_cell_length_b 28.524567
_cell_length_c 8.927126
_cell_angle_alpha 90.000000
_cell_angle_beta 90.000000
_cell_angle_gamma 90.000000
_cell_volume 3977.648542
_symmetry_space_group_name_H-M "P B C M"
_symmetry_group_IT_number 57
_symmetry_cell_setting 'orthorhombic'
loop_
_space_group_symop_operation_xyz
x,y,z
-x,-y,1/2+z
x,1/2-y,-z
-x,1/2+y,1/2-z
-x,-y,-z
x,y,1/2-z
-x,1/2+y,z
x,1/2-y,1/2+z
loop_
_atom_site_type_symbol
_atom_site_label
_atom_site_fract_x
_atom_site_fract_y
_atom_site_fract_z
Si Si1 0.005142 0.048725 0.078263
Si Si2 0.503826 0.449740 0.426328
Si Si3 0.410160 0.796386 0.576062
Si Si4 0.190160 0.051526 0.426414
Si Si5 0.605955 0.798058 0.572569
Si Si6 0.345368 0.895398 0.924390
Si Si7 0.820168 0.048652 0.423815
Si Si8 0.660671 0.890752 0.072814
O O1 0.013679 0.036462 0.250000
O O2 0.095225 0.073462 0.033368
O O3 0.913418 0.073734 0.044731
O O4 0.000000 0.000000 0.000000
O O5 0.500000 0.500000 0.500000
O O6 0.503644 0.456411 0.250000
O O7 0.590255 0.424898 0.475947
O O8 0.422685 0.419487 0.479752
O O9 0.371604 0.750000 0.500000
O O10 0.408404 0.786374 0.750000
O O11 0.507416 0.805967 0.523228
O O12 0.352113 0.840763 0.531256
O O13 0.211429 0.055151 0.250000
O O14 0.256089 0.081368 0.521749
O O15 0.195053 0.997091 0.474862
O O16 0.640523 0.750000 0.500000
O O17 0.617461 0.795956 0.750000
O O18 0.661535 0.840443 0.506937
O O19 0.369064 0.902675 0.750000
O O20 0.249834 0.912124 0.962577
O O21 0.813000 0.033156 0.250000
O O22 0.662277 0.883592 0.250000
#
# Coordination Sequence:
#
# PCOD8230738 Si02
#       8
#     8   8   8   8   8   8   8   8
#     4   8  15  28  45  66  90 119 153 192 235 278
#     4  11  23  34  45  62  91 128 161 191 224 268
#     4   9  18  31  48  68  90 117 150 189 230 270
#     4  10  19  30  46  68  95 124 158 196 236 279
#     4  10  19  33  52  71  93 120 153 195 237 278
#     4  10  19  32  48  68  92 121 155 190 228 273
#     4   9  17  30  48  68  94 124 156 192 232 280
#     4  11  22  34  47  67  93 125 162 195 233 277
#
# _framework density 16.089908000000001
#
# number of rings (size 3 to 8) (size 9 to 14) (size 15 to 20)
#    0.000    2.250    1.250    2.250    0.000    6.500 
#    0.000    0.000    0.000    0.000    0.000    0.875 
#    0.000    2.000    0.000    0.000    0.000    0.000 
#
# Total GULP energy -793220.363861 kJ/mol
# GULP energy per Si atom -12394.068185 kJ/mol
# Density = 1.605329 g / cm^3
# Si number density = 16.089908 Si / 1000 Ang^3
#
#
#
# Elastic Constant Matrix: (Units=GPa)
#
#
# Indices 1 2 3 4 5 6 
#
# 1 102.5246 38.5431 22.4849 0.0000 0.0000 0.0000
# 2 38.5431 93.5668 26.7688 0.0000 0.0000 0.0000
# 3 22.4849 26.7688 43.3111 0.0000 0.0000 0.0000
# 4 0.0000 0.0000 0.0000 28.0352 0.0000 0.0000
# 5 0.0000 0.0000 0.0000 0.0000 17.5949 0.0000
# 6 0.0000 0.0000 0.0000 0.0000 0.0000 4.8150
#
#
#
# Elastic Compliance Matrix: (Units=1/GPa)
#
#
# Indices 1 2 3 4 5 6 
#
# 1 0.012053 -0.003857 -0.003874 0.000000 0.000000 0.000000
# 2 -0.003857 0.014217 -0.006785 0.000000 0.000000 0.000000
# 3 -0.003874 -0.006785 0.029293 0.000000 0.000000 0.000000
# 4 0.000000 0.000000 0.000000 0.035669 0.000000 0.000000
# 5 0.000000 0.000000 0.000000 0.000000 0.056835 0.000000
# 6 0.000000 0.000000 0.000000 0.000000 0.000000 0.207686
#
#
# Mechanical properties :
#
#
# Convention : Reuss Voigt Hill
#
# Bulk Modulus (GPa) = 37.68884 46.11067 41.89976
# Shear Modulus (GPa) = 12.70231 20.19607 16.44919
#
# Velocity S-wave (km/s) = 2.81278 3.54672 3.20086
# Velocity P-wave (km/s) = 5.83298 6.74483 6.30541
#
# Compressibility (1/GPa) = 0.02653305
#
# Stress axis : x y z
#
# Youngs Moduli (GPa) = 82.96518 70.33619 34.13758
#
# Poissons Ratio (x) = 0.27128 0.13224
# Poissons Ratio (y) = 0.31999 0.23162
# Poissons Ratio (z) = 0.32138 0.47722
#
# Static dielectric constant tensor:
#      x y z
#    x 3.494990 0.000000 0.000000 
#    y 0.000000 2.909990 0.000000 
#    z 0.000000 0.000000 3.091720 
# 
# 
# High freq. dielectric constant tensor:
#      x y z
#    x 1.613840 0.000000 0.000000 
#    y 0.000000 1.595220 0.000000 
#    z 0.000000 0.000000 1.628090 
# 
# From -- ./inp_files/6008.got.cif
#   From: 2010.03.12/outbox.cif.g09.slc.cpg/sg57_4_cif.got.tgz:6008.got - 2010.04.16 15:48:40.
