data_PCOD8230662
_publ_section_title
;
Structure prediction by ZEFSAII (Michael W. Deem and Ramdas Pophale) SiO2 
 PCOD8230662
Probable space group: P B C M
;
_chemical_formula_sum "Si O2"
_cell_formula_units_Z 48
_cell_length_a 11.526521
_cell_length_b 26.283882
_cell_length_c 8.676075
_cell_angle_alpha 90.000000
_cell_angle_beta 90.000000
_cell_angle_gamma 90.000000
_cell_volume 2628.518586
_symmetry_space_group_name_H-M "P B C M"
_symmetry_group_IT_number 57
_symmetry_cell_setting 'orthorhombic'
loop_
_space_group_symop_operation_xyz
x,y,z
-x,-y,1/2+z
x,1/2-y,-z
-x,1/2+y,1/2-z
-x,-y,-z
x,y,1/2-z
-x,1/2+y,z
x,1/2-y,1/2+z
loop_
_atom_site_type_symbol
_atom_site_label
_atom_site_fract_x
_atom_site_fract_y
_atom_site_fract_z
Si Si1 0.709992 0.120474 0.080054
Si Si2 0.661386 0.860880 0.428852
Si Si3 0.138319 0.196465 0.067475
Si Si4 0.478014 0.554952 0.932612
Si Si5 0.886156 0.303955 0.432824
Si Si6 0.482209 0.796946 0.917705
O O1 0.755909 0.103119 0.250000
O O2 0.610352 0.160387 0.106589
O O3 0.648433 0.073626 0.991967
O O4 0.811180 0.146966 0.982338
O O5 0.692009 0.864755 0.250000
O O6 0.780208 0.851733 0.523123
O O7 0.587447 0.910018 0.485671
O O8 0.583384 0.811834 0.464065
O O9 0.126203 0.200836 0.250000
O O10 0.186905 0.250000 0.000000
O O11 0.014175 0.185071 0.993774
O O12 0.471919 0.553701 0.750000
O O13 0.500000 0.500000 0.000000
O O14 0.839481 0.250000 0.500000
O O15 0.884897 0.299558 0.250000
O O16 0.535443 0.783167 0.750000
O O17 0.418064 0.750000 0.000000
#
# Coordination Sequence:
#
# PCOD8230662 Si02
#       6
#     8   8   8   8   8   8
#     4  10  20  34  52  75 103 135 173 214 258 309
#     4  10  20  34  51  73 101 133 170 211 256 306
#     4  11  21  34  52  75 106 143 180 215 253 301
#     4  10  21  37  58  81 105 134 170 216 268 319
#     4  11  21  34  52  76 108 144 181 216 254 303
#     4  10  19  29  44  68  99 133 166 204 249 300
#
# _framework density 18.261236
#
# number of rings (size 3 to 8) (size 9 to 14) (size 15 to 20)
#    0.000    1.667    0.000    7.000    0.000    5.333 
#    0.000    0.000    0.000    1.000    0.000    0.000 
#    0.000    0.000    0.000    0.000    0.000    0.000 
#
# Total GULP energy -594876.789847 kJ/mol
# GULP energy per Si atom -12393.266455 kJ/mol
# Density = 1.821967 g / cm^3
# Si number density = 18.261236 Si / 1000 Ang^3
#
#
#
# Elastic Constant Matrix: (Units=GPa)
#
#
# Indices 1 2 3 4 5 6 
#
# 1 88.3466 41.7514 43.7982 0.0000 0.0000 0.0000
# 2 41.7514 88.2464 50.2509 0.0000 0.0000 0.0000
# 3 43.7982 50.2509 133.4401 0.0000 0.0000 0.0000
# 4 0.0000 0.0000 0.0000 28.0749 0.0000 0.0000
# 5 0.0000 0.0000 0.0000 0.0000 32.1218 0.0000
# 6 0.0000 0.0000 0.0000 0.0000 0.0000 26.9434
#
#
#
# Elastic Compliance Matrix: (Units=1/GPa)
#
#
# Indices 1 2 3 4 5 6 
#
# 1 0.015440 -0.005625 -0.002949 0.000000 0.000000 0.000000
# 2 -0.005625 0.016475 -0.004358 0.000000 0.000000 0.000000
# 3 -0.002949 -0.004358 0.010103 0.000000 0.000000 0.000000
# 4 0.000000 0.000000 0.000000 0.035619 0.000000 0.000000
# 5 0.000000 0.000000 0.000000 0.000000 0.031131 0.000000
# 6 0.000000 0.000000 0.000000 0.000000 0.000000 0.037115
#
#
# Mechanical properties :
#
#
# Convention : Reuss Voigt Hill
#
# Bulk Modulus (GPa) = 61.90877 64.62599 63.26738
# Shear Modulus (GPa) = 28.22755 29.04354 28.63554
#
# Velocity S-wave (km/s) = 3.93589 3.99237 3.96423
# Velocity P-wave (km/s) = 7.39123 7.53117 7.46153
#
# Compressibility (1/GPa) = 0.01615280
#
# Stress axis : x y z
#
# Youngs Moduli (GPa) = 64.76832 60.69844 98.98021
#
# Poissons Ratio (x) = 0.34146 0.29191
# Poissons Ratio (y) = 0.36435 0.43133
# Poissons Ratio (z) = 0.19102 0.26451
#
# Static dielectric constant tensor:
#      x y z
#    x 3.462680 0.000000 0.000000 
#    y 0.000000 3.910720 0.000000 
#    z 0.000000 0.000000 3.701040 
# 
# 
# High freq. dielectric constant tensor:
#      x y z
#    x 1.699980 0.000000 0.000000 
#    y 0.000000 1.677970 0.000000 
#    z 0.000000 0.000000 1.730710 
# 
# From -- ./inp_files/3302.got.cif
#   From: 2010.03.12/outbox.cif.g09.slc.cpg/sg57_2_cif.got.tgz:3302.got - 2010.04.16 15:48:40.
