data_PCOD8230078
_publ_section_title
;
Structure prediction by ZEFSAII (Michael W. Deem and Ramdas Pophale) SiO2 
 PCOD8230078
Probable space group: P B C M
;
_chemical_formula_sum "Si O2"
_cell_formula_units_Z 48
_cell_length_a 11.666762
_cell_length_b 25.346934
_cell_length_c 9.530984
_cell_angle_alpha 90.000000
_cell_angle_beta 90.000000
_cell_angle_gamma 90.000000
_cell_volume 2818.470625
_symmetry_space_group_name_H-M "P B C M"
_symmetry_group_IT_number 57
_symmetry_cell_setting 'orthorhombic'
loop_
_space_group_symop_operation_xyz
x,y,z
-x,-y,1/2+z
x,1/2-y,-z
-x,1/2+y,1/2-z
-x,-y,-z
x,y,1/2-z
-x,1/2+y,z
x,1/2-y,1/2+z
loop_
_atom_site_type_symbol
_atom_site_label
_atom_site_fract_x
_atom_site_fract_y
_atom_site_fract_z
Si Si1 0.085640 0.935716 0.408055
Si Si2 0.130057 0.054830 0.086345
Si Si3 0.655507 0.875771 0.594896
Si Si4 0.684186 0.111565 0.906643
Si Si5 0.504222 0.803077 0.414745
Si Si6 0.453281 0.544032 0.097963
O O1 0.037619 0.939701 0.250000
O O2 0.177275 0.887234 0.418272
O O3 0.981122 0.921798 0.509234
O O4 0.144000 0.992430 0.448174
O O5 0.112685 0.064097 0.250000
O O6 0.239647 0.088926 0.034904
O O7 0.685268 0.851093 0.750000
O O8 0.616047 0.832235 0.480568
O O9 0.548606 0.912666 0.619081
O O10 0.650084 0.091511 0.750000
O O11 0.616448 0.165830 0.935147
O O12 0.655636 0.068619 0.022948
O O13 0.485071 0.750000 0.500000
O O14 0.528343 0.792689 0.250000
O O15 0.416298 0.521317 0.250000
O O16 0.500000 0.500000 0.000000
#
# Coordination Sequence:
#
# PCOD8230078 Si02
#       6
#     8   8   8   8   8   8
#     4   9  17  30  47  68  98 132 163 195 230 271
#     4   9  17  29  46  69  98 131 163 194 228 269
#     4   9  18  32  48  67  94 126 159 196 237 279
#     4   9  18  32  48  67  92 123 158 194 234 282
#     4  10  20  34  53  74  94 118 152 196 246 296
#     4  10  18  27  42  65  94 125 154 189 233 281
#
# _framework density 17.030511000000001
#
# number of rings (size 3 to 8) (size 9 to 14) (size 15 to 20)
#    0.000    2.667    0.000    2.000    0.000    5.333 
#    0.000    3.333    0.000    1.000    0.000    4.667 
#    0.000    0.000    0.000    0.000    0.000    0.000 
#
# Total GULP energy -594641.172273 kJ/mol
# GULP energy per Si atom -12388.357756 kJ/mol
# Density = 1.699175 g / cm^3
# Si number density = 17.030511 Si / 1000 Ang^3
#
#
#
# Elastic Constant Matrix: (Units=GPa)
#
#
# Indices 1 2 3 4 5 6 
#
# 1 90.2327 24.5181 28.3595 0.0000 0.0000 0.0000
# 2 24.5181 50.3988 35.6390 0.0000 0.0000 0.0000
# 3 28.3595 35.6390 96.0052 0.0000 0.0000 0.0000
# 4 0.0000 0.0000 0.0000 24.8578 0.0000 0.0000
# 5 0.0000 0.0000 0.0000 0.0000 15.7628 0.0000
# 6 0.0000 0.0000 0.0000 0.0000 0.0000 21.9321
#
#
#
# Elastic Compliance Matrix: (Units=1/GPa)
#
#
# Indices 1 2 3 4 5 6 
#
# 1 0.013057 -0.004915 -0.002032 0.000000 0.000000 0.000000
# 2 -0.004915 0.028754 -0.009222 0.000000 0.000000 0.000000
# 3 -0.002032 -0.009222 0.014440 0.000000 0.000000 0.000000
# 4 0.000000 0.000000 0.000000 0.040229 0.000000 0.000000
# 5 0.000000 0.000000 0.000000 0.000000 0.063440 0.000000
# 6 0.000000 0.000000 0.000000 0.000000 0.000000 0.045595
#
#
# Mechanical properties :
#
#
# Convention : Reuss Voigt Hill
#
# Bulk Modulus (GPa) = 41.82011 45.96331 43.89171
# Shear Modulus (GPa) = 20.33971 22.38522 21.36247
#
# Velocity S-wave (km/s) = 3.45963 3.62942 3.54554
# Velocity P-wave (km/s) = 6.36930 6.67915 6.52606
#
# Compressibility (1/GPa) = 0.02391194
#
# Stress axis : x y z
#
# Youngs Moduli (GPa) = 76.58944 34.77775 69.25216
#
# Poissons Ratio (x) = 0.17092 0.14075
# Poissons Ratio (y) = 0.37640 0.63866
# Poissons Ratio (z) = 0.15567 0.32073
#
# Static dielectric constant tensor:
#      x y z
#    x 3.152900 0.000000 0.000000 
#    y 0.000000 3.160770 0.000000 
#    z 0.000000 0.000000 3.658220 
# 
# 
# High freq. dielectric constant tensor:
#      x y z
#    x 1.646220 0.000000 0.000000 
#    y 0.000000 1.619460 0.000000 
#    z 0.000000 0.000000 1.672790 
# 
# From -- ./inp_files/3120.got.cif
#   From: 2010.03.12/outbox.cif.g09.slc.cpg/sg57_2_cif.got.tgz:3120.got - 2010.04.16 15:48:40.
