data_PCOD8230594
_publ_section_title
;
Structure prediction by ZEFSAII (Michael W. Deem and Ramdas Pophale) SiO2 
 PCOD8230594
Probable space group: P B C M
;
_chemical_formula_sum "Si O2"
_cell_formula_units_Z 40
_cell_length_a 23.212339
_cell_length_b 8.603441
_cell_length_c 9.905205
_cell_angle_alpha 90.000000
_cell_angle_beta 90.000000
_cell_angle_gamma 90.000000
_cell_volume 1978.128761
_symmetry_space_group_name_H-M "P B C M"
_symmetry_group_IT_number 57
_symmetry_cell_setting 'orthorhombic'
loop_
_space_group_symop_operation_xyz
x,y,z
-x,-y,1/2+z
x,1/2-y,-z
-x,1/2+y,1/2-z
-x,-y,-z
x,y,1/2-z
-x,1/2+y,z
x,1/2-y,1/2+z
loop_
_atom_site_type_symbol
_atom_site_label
_atom_site_fract_x
_atom_site_fract_y
_atom_site_fract_z
Si Si1 0.328632 0.066269 0.011732
Si Si2 0.547557 0.908302 0.583818
Si Si3 0.936236 0.565570 0.996903
Si Si4 0.873165 0.065585 0.750000
Si Si5 0.134429 0.566942 0.250000
Si Si6 0.749812 0.916456 0.750000
Si Si7 0.263733 0.452197 0.250000
O O1 0.304411 0.995118 0.873499
O O2 0.332634 0.250000 0.000000
O O3 0.391454 0.003887 0.058597
O O4 0.282267 0.015732 0.121073
O O5 0.550332 0.750000 0.500000
O O6 0.536566 0.891645 0.750000
O O7 0.500000 0.000000 0.500000
O O8 0.906495 0.496168 0.124408
O O9 0.938392 0.750000 0.000000
O O10 0.897182 0.509845 0.874908
O O11 0.000000 0.500000 0.000000
O O12 0.873132 0.249932 0.750000
O O13 0.811605 0.988959 0.750000
O O14 0.202850 0.538518 0.250000
O O15 0.751103 0.730000 0.750000
#
# Coordination Sequence:
#
# PCOD8230594 Si02
#       7
#     8   8   8   4   4   4   4
#     4   9  19  34  60  87 117 156 215 265 320 378
#     4  11  23  40  64  94 131 173 223 278 336 402
#     4  12  25  44  67  94 127 170 219 271 326 394
#     4  12  25  41  66  93 132 172 206 270 329 396
#     4  12  25  43  62  97 134 168 218 262 339 396
#     4  10  18  37  58  87 115 156 210 260 319 386
#     4  10  20  35  60  87 117 160 208 270 315 396
#
# _framework density 20.221132000000001
#
# number of rings (size 3 to 8) (size 9 to 14) (size 15 to 20)
#    0.000    1.200    1.000    6.000    5.600    1.600 
#    0.000    2.000    0.000    0.000    0.000    0.000 
#    0.000    0.000    0.000    0.000    0.000    0.000 
#
# Total GULP energy -495598.322065 kJ/mol
# GULP energy per Si atom -12389.958052 kJ/mol
# Density = 2.017511 g / cm^3
# Si number density = 20.221132 Si / 1000 Ang^3
#
#
#
# Elastic Constant Matrix: (Units=GPa)
#
#
# Indices 1 2 3 4 5 6 
#
# 1 192.5862 49.6281 96.2889 0.0000 0.0000 0.0000
# 2 49.6281 94.3638 50.5500 0.0000 0.0000 0.0000
# 3 96.2889 50.5500 212.6803 0.0000 0.0000 0.0000
# 4 0.0000 0.0000 0.0000 25.4710 0.0000 0.0000
# 5 0.0000 0.0000 0.0000 0.0000 44.6514 0.0000
# 6 0.0000 0.0000 0.0000 0.0000 0.0000 39.2380
#
#
#
# Elastic Compliance Matrix: (Units=1/GPa)
#
#
# Indices 1 2 3 4 5 6 
#
# 1 0.007127 -0.002314 -0.002677 0.000000 0.000000 0.000000
# 2 -0.002314 0.012895 -0.002017 0.000000 0.000000 0.000000
# 3 -0.002677 -0.002017 0.006393 0.000000 0.000000 0.000000
# 4 0.000000 0.000000 0.000000 0.039260 0.000000 0.000000
# 5 0.000000 0.000000 0.000000 0.000000 0.022396 0.000000
# 6 0.000000 0.000000 0.000000 0.000000 0.000000 0.025486
#
#
# Mechanical properties :
#
#
# Convention : Reuss Voigt Hill
#
# Bulk Modulus (GPa) = 80.65171 99.17381 89.91276
# Shear Modulus (GPa) = 37.96326 42.08296 40.02311
#
# Velocity S-wave (km/s) = 4.33760 4.56690 4.45373
# Velocity P-wave (km/s) = 8.06585 8.77268 8.42668
#
# Compressibility (1/GPa) = 0.01239899
#
# Stress axis : x y z
#
# Youngs Moduli (GPa) = 140.30815 77.54918 156.41792
#
# Poissons Ratio (x) = 0.17949 0.41868
# Poissons Ratio (y) = 0.32474 0.31550
# Poissons Ratio (z) = 0.37556 0.15642
#
# Static dielectric constant tensor:
#      x y z
#    x 4.125910 0.000000 0.000000 
#    y 0.000000 3.576660 0.000000 
#    z 0.000000 0.000000 4.314790 
# 
# 
# High freq. dielectric constant tensor:
#      x y z
#    x 1.817260 0.000000 0.000000 
#    y 0.000000 1.767230 0.000000 
#    z 0.000000 0.000000 1.816560 
# 
# From -- ./inp_files/9050.got.cif
#   From: 2010.03.12/outbox.cif.g09.slc.cpg/sg57_5_cif.got.tgz:9050.got - 2010.04.16 15:48:40.
