data_PCOD8230358
_publ_section_title
;
Structure prediction by ZEFSAII (Michael W. Deem and Ramdas Pophale) SiO2 
 PCOD8230358
Probable space group: P B C M
;
_chemical_formula_sum "Si O2"
_cell_formula_units_Z 64
_cell_length_a 15.445115
_cell_length_b 23.725540
_cell_length_c 8.985349
_cell_angle_alpha 90.000000
_cell_angle_beta 90.000000
_cell_angle_gamma 90.000000
_cell_volume 3292.624477
_symmetry_space_group_name_H-M "P B C M"
_symmetry_group_IT_number 57
_symmetry_cell_setting 'orthorhombic'
loop_
_space_group_symop_operation_xyz
x,y,z
-x,-y,1/2+z
x,1/2-y,-z
-x,1/2+y,1/2-z
-x,-y,-z
x,y,1/2-z
-x,1/2+y,z
x,1/2-y,1/2+z
loop_
_atom_site_type_symbol
_atom_site_label
_atom_site_fract_x
_atom_site_fract_y
_atom_site_fract_z
Si Si1 0.133250 0.893768 0.579980
Si Si2 0.625526 0.880745 0.076879
Si Si3 0.944045 0.624627 0.423839
Si Si4 0.692858 0.110497 0.924659
Si Si5 0.132643 0.477440 0.075479
Si Si6 0.460101 0.810254 0.426081
Si Si7 0.205867 0.308528 0.424408
Si Si8 0.689549 0.517716 0.425598
O O1 0.163025 0.890461 0.750000
O O2 0.213484 0.870325 0.485594
O O3 0.045231 0.858270 0.551966
O O4 0.111798 0.958189 0.537092
O O5 0.615308 0.895654 0.250000
O O6 0.549172 0.839521 0.024280
O O7 0.716502 0.851119 0.040788
O O8 0.616007 0.938888 0.982706
O O9 0.920266 0.624557 0.250000
O O10 0.934824 0.561719 0.488688
O O11 0.884047 0.668653 0.509522
O O12 0.699020 0.115397 0.750000
O O13 0.619206 0.151822 0.986705
O O14 0.667671 0.046577 0.971162
O O15 0.128862 0.463513 0.250000
O O16 0.226703 0.461461 0.014576
O O17 0.453086 0.750000 0.500000
O O18 0.455979 0.802890 0.250000
O O19 0.230221 0.250000 0.500000
O O20 0.193271 0.299033 0.250000
O O21 0.704093 0.523428 0.250000
#
# Coordination Sequence:
#
# PCOD8230358 Si02
#       8
#     8   8   8   8   8   8   8   8
#     4   9  20  35  54  81 113 147 187 231 279 332
#     4  10  21  37  58  84 116 148 182 230 285 340
#     4  11  21  34  53  80 112 148 189 233 277 331
#     4   9  20  38  58  83 116 150 188 236 286 335
#     4  10  18  31  51  79 114 150 186 226 275 331
#     4  10  22  41  62  85 112 145 189 238 285 336
#     4  11  23  38  56  79 110 150 191 234 284 339
#     4  10  19  32  54  84 117 152 188 226 278 342
#
# _framework density 19.437383000000001
#
# number of rings (size 3 to 8) (size 9 to 14) (size 15 to 20)
#    0.000    2.000    1.250    2.250    0.000    4.000 
#    0.000    0.625    0.000    1.500    0.000    0.000 
#    0.000    0.000    0.000    0.000    0.000    0.000 
#
# Total GULP energy -793607.667981 kJ/mol
# GULP energy per Si atom -12400.119812 kJ/mol
# Density = 1.939314 g / cm^3
# Si number density = 19.437383 Si / 1000 Ang^3
#
#
#
# Elastic Constant Matrix: (Units=GPa)
#
#
# Indices 1 2 3 4 5 6 
#
# 1 111.0609 65.5755 45.7410 0.0000 0.0000 0.0000
# 2 65.5755 77.8933 31.0049 0.0000 0.0000 0.0000
# 3 45.7410 31.0049 59.9015 0.0000 0.0000 0.0000
# 4 0.0000 0.0000 0.0000 31.7779 0.0000 0.0000
# 5 0.0000 0.0000 0.0000 0.0000 28.3394 0.0000
# 6 0.0000 0.0000 0.0000 0.0000 0.0000 25.0834
#
#
#
# Elastic Compliance Matrix: (Units=1/GPa)
#
#
# Indices 1 2 3 4 5 6 
#
# 1 0.020944 -0.014190 -0.008649 0.000000 0.000000 0.000000
# 2 -0.014190 0.025783 -0.002510 0.000000 0.000000 0.000000
# 3 -0.008649 -0.002510 0.024597 0.000000 0.000000 0.000000
# 4 0.000000 0.000000 0.000000 0.031468 0.000000 0.000000
# 5 0.000000 0.000000 0.000000 0.000000 0.035287 0.000000
# 6 0.000000 0.000000 0.000000 0.000000 0.000000 0.039867
#
#
# Mechanical properties :
#
#
# Convention : Reuss Voigt Hill
#
# Bulk Modulus (GPa) = 48.47745 59.27761 53.87753
# Shear Modulus (GPa) = 21.22972 24.14241 22.68606
#
# Velocity S-wave (km/s) = 3.30845 3.52811 3.42004
# Velocity P-wave (km/s) = 6.29197 6.86729 6.58592
#
# Compressibility (1/GPa) = 0.02062815
#
# Stress axis : x y z
#
# Youngs Moduli (GPa) = 47.74574 38.78535 40.65496
#
# Poissons Ratio (x) = 0.55035 0.35161
# Poissons Ratio (y) = 0.67750 0.10204
# Poissons Ratio (z) = 0.41293 0.09735
#
# Static dielectric constant tensor:
#      x y z
#    x 3.626550 0.000000 0.000000 
#    y 0.000000 3.544440 0.000000 
#    z 0.000000 0.000000 3.485430 
# 
# 
# High freq. dielectric constant tensor:
#      x y z
#    x 1.756960 0.000000 0.000000 
#    y 0.000000 1.746020 0.000000 
#    z 0.000000 0.000000 1.756590 
# 
# From -- ./inp_files/5580.got.cif
#   From: 2010.03.12/outbox.cif.g09.slc.cpg/sg57_3_cif.got.tgz:5580.got - 2010.04.16 15:48:40.
