data_PCOD8230274
_publ_section_title
;
Structure prediction by ZEFSAII (Michael W. Deem and Ramdas Pophale) SiO2 
 PCOD8230274
Probable space group: P B C M
;
_chemical_formula_sum "Si O2"
_cell_formula_units_Z 56
_cell_length_a 14.221233
_cell_length_b 26.245399
_cell_length_c 9.117275
_cell_angle_alpha 90.000000
_cell_angle_beta 90.000000
_cell_angle_gamma 90.000000
_cell_volume 3402.949357
_symmetry_space_group_name_H-M "P B C M"
_symmetry_group_IT_number 57
_symmetry_cell_setting 'orthorhombic'
loop_
_space_group_symop_operation_xyz
x,y,z
-x,-y,1/2+z
x,1/2-y,-z
-x,1/2+y,1/2-z
-x,-y,-z
x,y,1/2-z
-x,1/2+y,z
x,1/2-y,1/2+z
loop_
_atom_site_type_symbol
_atom_site_label
_atom_site_fract_x
_atom_site_fract_y
_atom_site_fract_z
Si Si1 0.125648 0.303251 0.077227
Si Si2 0.563291 0.565571 0.418542
Si Si3 0.029628 0.614436 0.916123
Si Si4 0.192200 0.570263 0.418910
Si Si5 0.746504 0.622298 0.080659
Si Si6 0.619675 0.452745 0.078180
Si Si7 0.864353 0.543133 0.915500
O O1 0.138186 0.295837 0.250000
O O2 0.036530 0.338434 0.037832
O O3 0.108212 0.250000 0.000000
O O4 0.220475 0.329429 0.014896
O O5 0.530402 0.561865 0.250000
O O6 0.635436 0.612258 0.442356
O O7 0.473154 0.575979 0.519470
O O8 0.613415 0.512423 0.463831
O O9 0.064518 0.621050 0.750000
O O10 0.971274 0.562008 0.934786
O O11 0.121654 0.613125 0.018258
O O12 0.211638 0.582037 0.250000
O O13 0.290621 0.572482 0.502321
O O14 0.140728 0.516598 0.444423
O O15 0.769919 0.633026 0.250000
O O16 0.798990 0.570979 0.032701
O O17 0.628332 0.443692 0.250000
O O18 0.829826 0.556903 0.750000
#
# Coordination Sequence:
#
# PCOD8230274 Si02
#       7
#     8   8   8   8   8   8   8
#     4  10  21  37  55  76  99 124 157 200 248 297
#     4   9  18  31  45  67  95 128 167 203 240 281
#     4   9  19  33  47  66  94 125 160 199 241 289
#     4  11  20  29  44  67  96 131 168 204 239 281
#     4  10  18  30  50  73  98 128 162 201 245 293
#     4  10  19  30  45  65  94 133 170 204 239 277
#     4   9  18  30  43  64  95 130 165 201 236 279
#
# _framework density 16.456313000000002
#
# number of rings (size 3 to 8) (size 9 to 14) (size 15 to 20)
#    0.000    2.286    1.429    3.000    0.000    5.143 
#    0.000    0.000    0.000    0.000    0.000    1.000 
#    0.000    2.286    0.000    0.000    0.000    0.000 
#
# Total GULP energy -694409.516907 kJ/mol
# GULP energy per Si atom -12400.169945 kJ/mol
# Density = 1.641886 g / cm^3
# Si number density = 16.456313 Si / 1000 Ang^3
#
#
#
# Elastic Constant Matrix: (Units=GPa)
#
#
# Indices 1 2 3 4 5 6 
#
# 1 112.0694 41.6218 67.5071 0.0000 0.0000 0.0000
# 2 41.6218 60.8471 41.9342 0.0000 0.0000 0.0000
# 3 67.5071 41.9342 105.1520 0.0000 0.0000 0.0000
# 4 0.0000 0.0000 0.0000 23.3723 0.0000 0.0000
# 5 0.0000 0.0000 0.0000 0.0000 33.6030 0.0000
# 6 0.0000 0.0000 0.0000 0.0000 0.0000 13.6719
#
#
#
# Elastic Compliance Matrix: (Units=1/GPa)
#
#
# Indices 1 2 3 4 5 6 
#
# 1 0.015666 -0.005219 -0.007976 0.000000 0.000000 0.000000
# 2 -0.005219 0.024402 -0.006381 0.000000 0.000000 0.000000
# 3 -0.007976 -0.006381 0.017175 0.000000 0.000000 0.000000
# 4 0.000000 0.000000 0.000000 0.042786 0.000000 0.000000
# 5 0.000000 0.000000 0.000000 0.000000 0.029759 0.000000
# 6 0.000000 0.000000 0.000000 0.000000 0.000000 0.073143
#
#
# Mechanical properties :
#
#
# Convention : Reuss Voigt Hill
#
# Bulk Modulus (GPa) = 55.27516 64.46607 59.87061
# Shear Modulus (GPa) = 20.15202 22.59646 21.37424
#
# Velocity S-wave (km/s) = 3.50319 3.70958 3.60786
# Velocity P-wave (km/s) = 7.07284 7.58993 7.33595
#
# Compressibility (1/GPa) = 0.01809131
#
# Stress axis : x y z
#
# Youngs Moduli (GPa) = 63.83258 40.97975 58.22320
#
# Poissons Ratio (x) = 0.21388 0.46439
# Poissons Ratio (y) = 0.33316 0.37151
# Poissons Ratio (z) = 0.50913 0.26148
#
# Static dielectric constant tensor:
#      x y z
#    x 3.026960 0.000000 0.000000 
#    y 0.000000 2.764680 0.000000 
#    z 0.000000 0.000000 3.177380 
# 
# 
# High freq. dielectric constant tensor:
#      x y z
#    x 1.629100 0.000000 0.000000 
#    y 0.000000 1.586460 0.000000 
#    z 0.000000 0.000000 1.648020 
# 
# From -- ./inp_files/5899.got.cif
#   From: 2010.03.12/outbox.cif.g09.slc.cpg/sg57_3_cif.got.tgz:5899.got - 2010.04.16 15:48:40.
