data_PCOD8230624
_publ_section_title
;
Structure prediction by ZEFSAII (Michael W. Deem and Ramdas Pophale) SiO2 
 PCOD8230624
Probable space group: P B C M
;
_chemical_formula_sum "Si O2"
_cell_formula_units_Z 64
_cell_length_a 18.623440
_cell_length_b 24.617637
_cell_length_c 9.405426
_cell_angle_alpha 90.000000
_cell_angle_beta 90.000000
_cell_angle_gamma 90.000000
_cell_volume 4312.059436
_symmetry_space_group_name_H-M "P B C M"
_symmetry_group_IT_number 57
_symmetry_cell_setting 'orthorhombic'
loop_
_space_group_symop_operation_xyz
x,y,z
-x,-y,1/2+z
x,1/2-y,-z
-x,1/2+y,1/2-z
-x,-y,-z
x,y,1/2-z
-x,1/2+y,z
x,1/2-y,1/2+z
loop_
_atom_site_type_symbol
_atom_site_label
_atom_site_fract_x
_atom_site_fract_y
_atom_site_fract_z
Si Si1 0.453077 0.062862 0.588971
Si Si2 0.976572 0.919677 0.584484
Si Si3 0.688678 0.610907 0.908140
Si Si4 0.892007 0.006051 0.415955
Si Si5 0.768157 0.802245 0.584796
Si Si6 0.268195 0.986071 0.588473
Si Si7 0.064612 0.198256 0.413663
Si Si8 0.396756 0.535587 0.912912
O O1 0.443283 0.038335 0.750000
O O2 0.398441 0.113895 0.574214
O O3 0.537535 0.079423 0.569070
O O4 0.430573 0.020172 0.469318
O O5 0.956569 0.925029 0.750000
O O6 0.976692 0.856480 0.538355
O O7 0.054996 0.943870 0.550663
O O8 0.916164 0.952142 0.498412
O O9 0.711243 0.631178 0.750000
O O10 0.713075 0.549062 0.929397
O O11 0.725682 0.645824 0.029221
O O12 0.891391 0.990833 0.250000
O O13 0.812834 0.023627 0.467456
O O14 0.739922 0.750000 0.500000
O O15 0.751469 0.794064 0.750000
O O16 0.851825 0.811704 0.555023
O O17 0.274803 0.966535 0.750000
O O18 0.324369 0.949255 0.498834
O O19 0.034877 0.250000 0.500000
O O20 0.050422 0.211480 0.250000
O O21 0.373874 0.528744 0.750000
#
# Coordination Sequence:
#
# PCOD8230624 Si02
#       8
#     8   8   8   8   8   8   8   8
#     4   8  15  26  37  52  76 103 128 155 190 226
#     4   9  17  29  43  60  82 105 134 172 206 238
#     4   9  16  26  39  54  75 102 130 159 189 226
#     4   9  17  28  42  59  81 111 139 163 201 249
#     4  10  19  29  40  55  75  99 128 161 196 230
#     4   9  17  27  38  55  80 108 134 159 193 236
#     4   9  18  30  43  59  79 103 132 168 204 237
#     4   9  15  23  37  55  75 101 131 160 187 217
#
# _framework density 14.842095
#
# number of rings (size 3 to 8) (size 9 to 14) (size 15 to 20)
#    0.000    3.000    0.000    2.250    0.000    4.000 
#    0.000    0.000    0.000    0.000    0.000    0.000 
#    0.000    1.000    0.000   10.250    0.000    1.875 
#
# Total GULP energy -793116.156904 kJ/mol
# GULP energy per Si atom -12392.439952 kJ/mol
# Density = 1.480831 g / cm^3
# Si number density = 14.842095 Si / 1000 Ang^3
#
#
#
# Elastic Constant Matrix: (Units=GPa)
#
#
# Indices 1 2 3 4 5 6 
#
# 1 102.8690 29.2842 40.4939 0.0000 0.0000 0.0000
# 2 29.2842 63.2973 29.9541 0.0000 0.0000 0.0000
# 3 40.4939 29.9541 64.1865 0.0000 0.0000 0.0000
# 4 0.0000 0.0000 0.0000 19.7661 0.0000 0.0000
# 5 0.0000 0.0000 0.0000 0.0000 22.8694 0.0000
# 6 0.0000 0.0000 0.0000 0.0000 0.0000 14.9175
#
#
#
# Elastic Compliance Matrix: (Units=1/GPa)
#
#
# Indices 1 2 3 4 5 6 
#
# 1 0.013309 -0.002803 -0.007089 0.000000 0.000000 0.000000
# 2 -0.002803 0.020867 -0.007970 0.000000 0.000000 0.000000
# 3 -0.007089 -0.007970 0.023771 0.000000 0.000000 0.000000
# 4 0.000000 0.000000 0.000000 0.050592 0.000000 0.000000
# 5 0.000000 0.000000 0.000000 0.000000 0.043727 0.000000
# 6 0.000000 0.000000 0.000000 0.000000 0.000000 0.067036
#
#
# Mechanical properties :
#
#
# Convention : Reuss Voigt Hill
#
# Bulk Modulus (GPa) = 44.99507 47.75748 46.37627
# Shear Modulus (GPa) = 19.05261 20.21862 19.63561
#
# Velocity S-wave (km/s) = 3.58675 3.69487 3.64121
# Velocity P-wave (km/s) = 6.89454 7.10279 6.99944
#
# Compressibility (1/GPa) = 0.02222466
#
# Stress axis : x y z
#
# Youngs Moduli (GPa) = 75.13475 47.92325 42.06845
#
# Poissons Ratio (x) = 0.13433 0.29820
# Poissons Ratio (y) = 0.21061 0.33527
# Poissons Ratio (z) = 0.53260 0.38193
#
# Static dielectric constant tensor:
#      x y z
#    x 3.180520 0.000000 0.000000 
#    y 0.000000 2.609990 0.000000 
#    z 0.000000 0.000000 2.952460 
# 
# 
# High freq. dielectric constant tensor:
#      x y z
#    x 1.569080 0.000000 0.000000 
#    y 0.000000 1.516590 0.000000 
#    z 0.000000 0.000000 1.577040 
# 
# From -- ./inp_files/7455.got.cif
#   From: 2010.03.12/outbox.cif.g09.slc.cpg/sg57_4_cif.got.tgz:7455.got - 2010.04.16 15:48:40.
