data_PCOD8230455
_publ_section_title
;
Structure prediction by ZEFSAII (Michael W. Deem and Ramdas Pophale) SiO2 
 PCOD8230455
Probable space group: P B C M
;
_chemical_formula_sum "Si O2"
_cell_formula_units_Z 56
_cell_length_a 21.274739
_cell_length_b 14.792208
_cell_length_c 8.683568
_cell_angle_alpha 90.000000
_cell_angle_beta 90.000000
_cell_angle_gamma 90.000000
_cell_volume 2732.722014
_symmetry_space_group_name_H-M "P B C M"
_symmetry_group_IT_number 57
_symmetry_cell_setting 'orthorhombic'
loop_
_space_group_symop_operation_xyz
x,y,z
-x,-y,1/2+z
x,1/2-y,-z
-x,1/2+y,1/2-z
-x,-y,-z
x,y,1/2-z
-x,1/2+y,z
x,1/2-y,1/2+z
loop_
_atom_site_type_symbol
_atom_site_label
_atom_site_fract_x
_atom_site_fract_y
_atom_site_fract_z
Si Si1 0.900676 0.841561 0.069773
Si Si2 0.389900 0.650838 0.930916
Si Si3 0.287599 0.525590 0.072590
Si Si4 0.483728 0.350009 0.567412
Si Si5 0.643122 0.653140 0.928588
Si Si6 0.155177 0.521976 0.930968
Si Si7 0.028327 0.586722 0.926090
O O1 0.883999 0.850989 0.250000
O O2 0.977244 0.834515 0.044404
O O3 0.871832 0.750000 0.000000
O O4 0.869774 0.923241 0.977189
O O5 0.398438 0.660625 0.750000
O O6 0.378154 0.750000 0.000000
O O7 0.331531 0.587299 0.967911
O O8 0.453102 0.603532 0.000877
O O9 0.298814 0.551444 0.250000
O O10 0.301078 0.418858 0.045043
O O11 0.216465 0.547082 0.027027
O O12 0.483544 0.250000 0.500000
O O13 0.485697 0.351925 0.750000
O O14 0.418570 0.392787 0.507105
O O15 0.628684 0.669448 0.750000
O O16 0.662430 0.750000 0.000000
O O17 0.171295 0.523330 0.750000
O O18 0.101496 0.597477 0.979320
O O19 0.033428 0.561845 0.750000
O O20 0.000000 0.500000 0.000000
#
# Coordination Sequence:
#
# PCOD8230455 Si02
#       7
#     8   8   8   8   8   8   8
#     4  10  19  33  54  82 112 141 177 222 270 323
#     4  11  22  39  62  85 111 144 186 238 292 345
#     4  11  24  40  57  82 115 154 197 237 282 339
#     4  10  18  32  56  83 112 144 182 231 288 344
#     4  10  21  37  57  81 113 149 189 236 284 338
#     4  10  20  36  56  78 107 145 184 224 274 330
#     4   8  16  31  52  75 100 131 169 212 258 308
#
# _framework density 20.49239
#
# number of rings (size 3 to 8) (size 9 to 14) (size 15 to 20)
#    0.000    2.000    0.000    6.000    0.000    4.571 
#    0.000    2.143    0.000    1.714    0.000    0.000 
#    0.000    0.000    0.000    0.000    0.000    0.000 
#
# Total GULP energy -693875.969685 kJ/mol
# GULP energy per Si atom -12390.642316 kJ/mol
# Density = 2.044575 g / cm^3
# Si number density = 20.492390 Si / 1000 Ang^3
#
#
#
# Elastic Constant Matrix: (Units=GPa)
#
#
# Indices 1 2 3 4 5 6 
#
# 1 96.1524 -5.0217 28.0203 0.0000 0.0000 0.0000
# 2 -5.0217 26.7020 17.3639 0.0000 0.0000 0.0000
# 3 28.0203 17.3639 116.6107 0.0000 0.0000 0.0000
# 4 0.0000 0.0000 0.0000 25.3429 0.0000 0.0000
# 5 0.0000 0.0000 0.0000 0.0000 31.7401 0.0000
# 6 0.0000 0.0000 0.0000 0.0000 0.0000 20.7589
#
#
#
# Elastic Compliance Matrix: (Units=1/GPa)
#
#
# Indices 1 2 3 4 5 6 
#
# 1 0.011640 0.004437 -0.003458 0.000000 0.000000 0.000000
# 2 0.004437 0.043157 -0.007493 0.000000 0.000000 0.000000
# 3 -0.003458 -0.007493 0.010522 0.000000 0.000000 0.000000
# 4 0.000000 0.000000 0.000000 0.039459 0.000000 0.000000
# 5 0.000000 0.000000 0.000000 0.000000 0.031506 0.000000
# 6 0.000000 0.000000 0.000000 0.000000 0.000000 0.048172
#
#
# Mechanical properties :
#
#
# Convention : Reuss Voigt Hill
#
# Bulk Modulus (GPa) = 19.12295 35.57666 27.34981
# Shear Modulus (GPa) = 23.26534 28.84189 26.05362
#
# Velocity S-wave (km/s) = 3.37310 3.75566 3.56951
# Velocity P-wave (km/s) = 4.95201 6.01708 5.51034
#
# Compressibility (1/GPa) = 0.05229318
#
# Stress axis : x y z
#
# Youngs Moduli (GPa) = 85.91428 23.17114 95.03856
#
# Poissons Ratio (x) = -0.10282 0.32861
# Poissons Ratio (y) = -0.38124 0.71208
# Poissons Ratio (z) = 0.29706 0.17361
#
# Static dielectric constant tensor:
#      x y z
#    x 4.378030 0.000000 0.000000 
#    y 0.000000 3.524870 0.000000 
#    z 0.000000 0.000000 3.754660 
# 
# 
# High freq. dielectric constant tensor:
#      x y z
#    x 1.810220 0.000000 0.000000 
#    y 0.000000 1.771060 0.000000 
#    z 0.000000 0.000000 1.814690 
# 
# From -- ./inp_files/8156.got.cif
#   From: 2010.03.12/outbox.cif.g09.slc.cpg/sg57_5_cif.got.tgz:8156.got - 2010.04.16 15:48:40.
