data_PCOD8230660
_publ_section_title
;
Structure prediction by ZEFSAII (Michael W. Deem and Ramdas Pophale) SiO2 
 PCOD8230660
Probable space group: P B C M
;
_chemical_formula_sum "Si O2"
_cell_formula_units_Z 48
_cell_length_a 11.508831
_cell_length_b 26.042246
_cell_length_c 8.861483
_cell_angle_alpha 90.000000
_cell_angle_beta 90.000000
_cell_angle_gamma 90.000000
_cell_volume 2655.926538
_symmetry_space_group_name_H-M "P B C M"
_symmetry_group_IT_number 57
_symmetry_cell_setting 'orthorhombic'
loop_
_space_group_symop_operation_xyz
x,y,z
-x,-y,1/2+z
x,1/2-y,-z
-x,1/2+y,1/2-z
-x,-y,-z
x,y,1/2-z
-x,1/2+y,z
x,1/2-y,1/2+z
loop_
_atom_site_type_symbol
_atom_site_label
_atom_site_fract_x
_atom_site_fract_y
_atom_site_fract_z
Si Si1 0.001097 0.305511 0.571078
Si Si2 0.839135 0.881981 0.084363
Si Si3 0.644960 0.549215 0.073141
Si Si4 0.403402 0.933023 0.073560
Si Si5 0.206923 0.879436 0.574346
Si Si6 0.053053 0.953354 0.084559
O O1 0.993105 0.250000 0.500000
O O2 0.010670 0.302675 0.750000
O O3 0.119761 0.332488 0.512112
O O4 0.879826 0.333702 0.524288
O O5 0.789201 0.865628 0.250000
O O6 0.956293 0.911855 0.114081
O O7 0.749578 0.918444 0.998151
O O8 0.647311 0.558922 0.250000
O O9 0.655957 0.488409 0.034949
O O10 0.525821 0.571555 0.009017
O O11 0.425020 0.927463 0.250000
O O12 0.328252 0.883591 0.016903
O O13 0.235066 0.876844 0.750000
O O14 0.148578 0.933232 0.530998
O O15 0.107576 0.968073 0.250000
O O16 0.000000 0.000000 0.000000
#
# Coordination Sequence:
#
# PCOD8230660 Si02
#       6
#     8   8   8   8   8   8
#     4  10  21  37  57  79 102 130 166 211 263 313
#     4  10  20  33  50  73 101 133 170 210 254 304
#     4  10  20  33  50  74 106 142 178 213 250 297
#     4  10  20  33  51  75 105 142 179 212 249 298
#     4  10  20  33  50  73 101 132 167 208 254 304
#     4  10  19  29  44  68  99 133 166 203 247 298
#
# _framework density 18.072790000000001
#
# number of rings (size 3 to 8) (size 9 to 14) (size 15 to 20)
#    0.000    2.000    0.000    4.000    0.000    8.667 
#    0.000    0.000    0.000    1.000    0.000    4.667 
#    0.000    0.000    0.000    0.000    0.000    0.000 
#
# Total GULP energy -594751.670219 kJ/mol
# GULP energy per Si atom -12390.659796 kJ/mol
# Density = 1.803166 g / cm^3
# Si number density = 18.072790 Si / 1000 Ang^3
#
#
#
# Elastic Constant Matrix: (Units=GPa)
#
#
# Indices 1 2 3 4 5 6 
#
# 1 79.1688 20.6882 41.2400 0.0000 0.0000 0.0000
# 2 20.6882 58.3434 37.1192 0.0000 0.0000 0.0000
# 3 41.2400 37.1192 105.0971 0.0000 0.0000 0.0000
# 4 0.0000 0.0000 0.0000 27.4703 0.0000 0.0000
# 5 0.0000 0.0000 0.0000 0.0000 31.7629 0.0000
# 6 0.0000 0.0000 0.0000 0.0000 0.0000 23.9311
#
#
#
# Elastic Compliance Matrix: (Units=1/GPa)
#
#
# Indices 1 2 3 4 5 6 
#
# 1 0.016088 -0.002178 -0.005544 0.000000 0.000000 0.000000
# 2 -0.002178 0.022402 -0.007058 0.000000 0.000000 0.000000
# 3 -0.005544 -0.007058 0.014183 0.000000 0.000000 0.000000
# 4 0.000000 0.000000 0.000000 0.036403 0.000000 0.000000
# 5 0.000000 0.000000 0.000000 0.000000 0.031483 0.000000
# 6 0.000000 0.000000 0.000000 0.000000 0.000000 0.041787
#
#
# Mechanical properties :
#
#
# Convention : Reuss Voigt Hill
#
# Bulk Modulus (GPa) = 43.26174 48.96711 46.11443
# Shear Modulus (GPa) = 25.04884 26.20366 25.62625
#
# Velocity S-wave (km/s) = 3.72694 3.81188 3.76965
# Velocity P-wave (km/s) = 6.51993 6.82108 6.67221
#
# Compressibility (1/GPa) = 0.02311511
#
# Stress axis : x y z
#
# Youngs Moduli (GPa) = 62.15747 44.63817 70.50629
#
# Poissons Ratio (x) = 0.09721 0.39088
# Poissons Ratio (y) = 0.13536 0.49762
# Poissons Ratio (z) = 0.34459 0.31505
#
# Static dielectric constant tensor:
#      x y z
#    x 15.145200 0.000000 0.000000 
#    y 0.000000 1.888400 0.000000 
#    z 0.000000 0.000000 3.683960 
# 
# 
# High freq. dielectric constant tensor:
#      x y z
#    x 1.697820 0.000000 0.000000 
#    y 0.000000 1.666110 0.000000 
#    z 0.000000 0.000000 1.721710 
# 
# From -- ./inp_files/3119.got.cif
#   From: 2010.03.12/outbox.cif.g09.slc.cpg/sg57_2_cif.got.tgz:3119.got - 2010.04.16 15:48:40.
