data_PCOD8230442
_publ_section_title
;
Structure prediction by ZEFSAII (Michael W. Deem and Ramdas Pophale) SiO2 
 PCOD8230442
Probable space group: P B C M
;
_chemical_formula_sum "Si O2"
_cell_formula_units_Z 48
_cell_length_a 30.975952
_cell_length_b 9.084755
_cell_length_c 8.400781
_cell_angle_alpha 90.000000
_cell_angle_beta 90.000000
_cell_angle_gamma 90.000000
_cell_volume 2364.054833
_symmetry_space_group_name_H-M "P B C M"
_symmetry_group_IT_number 57
_symmetry_cell_setting 'orthorhombic'
loop_
_space_group_symop_operation_xyz
x,y,z
-x,-y,1/2+z
x,1/2-y,-z
-x,1/2+y,1/2-z
-x,-y,-z
x,y,1/2-z
-x,1/2+y,z
x,1/2-y,1/2+z
loop_
_atom_site_type_symbol
_atom_site_label
_atom_site_fract_x
_atom_site_fract_y
_atom_site_fract_z
Si Si1 0.798895 0.914504 0.436894
Si Si2 0.370811 0.585499 0.061839
Si Si3 0.459031 0.914311 0.061636
Si Si4 0.121113 0.913994 0.063815
Si Si5 0.040564 0.413050 0.064540
Si Si6 0.281110 0.916354 0.062639
O O1 0.802974 0.750000 0.500000
O O2 0.808525 0.917927 0.250000
O O3 0.832567 0.016956 0.528347
O O4 0.751771 0.977650 0.472438
O O5 0.364430 0.579990 0.250000
O O6 0.375538 0.750000 0.000000
O O7 0.415497 0.507254 0.008592
O O8 0.328479 0.517317 0.977689
O O9 0.456578 0.917051 0.250000
O O10 0.463668 0.750000 0.000000
O O11 0.500000 0.000000 0.000000
O O12 0.111845 0.913990 0.250000
O O13 0.119866 0.750000 0.000000
O O14 0.084849 0.008260 0.977965
O O15 0.035496 0.404161 0.250000
O O16 0.041111 0.250000 0.000000
O O17 0.000000 0.500000 0.000000
O O18 0.272370 0.920064 0.250000
O O19 0.276461 0.750000 0.000000
#
# Coordination Sequence:
#
# PCOD8230442 Si02
#       6
#     8   8   8   8   8   8
#     4  12  25  43  63  89 122 160 199 244 298 358
#     4  10  18  32  54  82 112 148 190 238 288 344
#     4  11  21  36  56  82 113 150 191 238 290 348
#     4  12  25  44  67  95 126 163 206 254 303 357
#     4  12  25  44  67  96 130 169 210 256 307 363
#     4  11  21  37  60  88 117 152 194 242 291 346
#
# _framework density 20.304096000000001
#
# number of rings (size 3 to 8) (size 9 to 14) (size 15 to 20)
#    0.000    0.667    0.000   12.500    0.000    0.000 
#    0.000    0.833    0.000    0.000    0.000    0.000 
#    0.000    0.000    0.000    0.000    0.000    0.000 
#
# Total GULP energy -595338.748280 kJ/mol
# GULP energy per Si atom -12402.890589 kJ/mol
# Density = 2.025788 g / cm^3
# Si number density = 20.304096 Si / 1000 Ang^3
#
#
#
# Elastic Constant Matrix: (Units=GPa)
#
#
# Indices 1 2 3 4 5 6 
#
# 1 142.6155 56.7846 19.4691 0.0000 0.0000 0.0000
# 2 56.7846 119.6959 39.9881 0.0000 0.0000 0.0000
# 3 19.4691 39.9881 117.6725 0.0000 0.0000 0.0000
# 4 0.0000 0.0000 0.0000 34.6582 0.0000 0.0000
# 5 0.0000 0.0000 0.0000 0.0000 42.8186 0.0000
# 6 0.0000 0.0000 0.0000 0.0000 0.0000 37.1363
#
#
#
# Elastic Compliance Matrix: (Units=1/GPa)
#
#
# Indices 1 2 3 4 5 6 
#
# 1 0.008645 -0.004087 -0.000041 0.000000 0.000000 0.000000
# 2 -0.004087 0.011357 -0.003183 0.000000 0.000000 0.000000
# 3 -0.000041 -0.003183 0.009587 0.000000 0.000000 0.000000
# 4 0.000000 0.000000 0.000000 0.028853 0.000000 0.000000
# 5 0.000000 0.000000 0.000000 0.000000 0.023354 0.000000
# 6 0.000000 0.000000 0.000000 0.000000 0.000000 0.026928
#
#
# Mechanical properties :
#
#
# Convention : Reuss Voigt Hill
#
# Bulk Modulus (GPa) = 66.82278 68.05194 67.43736
# Shear Modulus (GPa) = 38.96015 40.50541 39.73278
#
# Velocity S-wave (km/s) = 4.38520 4.47132 4.42847
# Velocity P-wave (km/s) = 7.65653 7.76183 7.70936
#
# Compressibility (1/GPa) = 0.01496496
#
# Stress axis : x y z
#
# Youngs Moduli (GPa) = 115.67403 88.05111 104.31112
#
# Poissons Ratio (x) = 0.35990 0.00431
# Poissons Ratio (y) = 0.47281 0.33204
# Poissons Ratio (z) = 0.00478 0.28028
#
# Static dielectric constant tensor:
#      x y z
#    x 4.387300 0.000000 0.000000 
#    y 0.000000 3.579050 0.000000 
#    z 0.000000 0.000000 3.965070 
# 
# 
# High freq. dielectric constant tensor:
#      x y z
#    x 1.822450 0.000000 0.000000 
#    y 0.000000 1.774620 0.000000 
#    z 0.000000 0.000000 1.820280 
# 
# From -- ./inp_files/10075.got.cif
#   From: 2010.03.12/outbox.cif.g09.slc.cpg/sg57_6_cif.got.tgz:10075.got - 2010.04.16 15:48:40.
