data_PCOD8230390
_publ_section_title
;
Structure prediction by ZEFSAII (Michael W. Deem and Ramdas Pophale) SiO2 
 PCOD8230390
Probable space group: P B C M
;
_chemical_formula_sum "Si O2"
_cell_formula_units_Z 40
_cell_length_a 26.023379
_cell_length_b 9.165602
_cell_length_c 8.521479
_cell_angle_alpha 90.000000
_cell_angle_beta 90.000000
_cell_angle_gamma 90.000000
_cell_volume 2032.542614
_symmetry_space_group_name_H-M "P B C M"
_symmetry_group_IT_number 57
_symmetry_cell_setting 'orthorhombic'
loop_
_space_group_symop_operation_xyz
x,y,z
-x,-y,1/2+z
x,1/2-y,-z
-x,1/2+y,1/2-z
-x,-y,-z
x,y,1/2-z
-x,1/2+y,z
x,1/2-y,1/2+z
loop_
_atom_site_type_symbol
_atom_site_label
_atom_site_fract_x
_atom_site_fract_y
_atom_site_fract_z
Si Si1 0.251607 0.087678 0.564254
Si Si2 0.547780 0.411616 0.935486
Si Si3 0.047465 0.588784 0.565304
Si Si4 0.147118 0.411364 0.935548
Si Si5 0.642744 0.913321 0.935536
O O1 0.246994 0.250000 0.500000
O O2 0.258064 0.084381 0.750000
O O3 0.198293 0.012661 0.510225
O O4 0.302223 0.017037 0.485340
O O5 0.545283 0.408690 0.750000
O O6 0.544784 0.250000 0.000000
O O7 0.500000 0.500000 0.000000
O O8 0.600122 0.484876 0.990152
O O9 0.046580 0.750000 0.500000
O O10 0.042864 0.594049 0.750000
O O11 0.099885 0.511361 0.511514
O O12 0.000000 0.500000 0.500000
O O13 0.153865 0.402715 0.750000
O O14 0.136820 0.250000 0.000000
O O15 0.636873 0.910871 0.750000
O O16 0.636835 0.750000 0.000000
#
# Coordination Sequence:
#
# PCOD8230390 Si02
#       5
#     8   8   8   8   8
#     4  10  18  31  54  84 115 151 191 235 282 337
#     4  12  25  43  63  88 118 153 194 239 290 345
#     4  11  24  40  60  84 114 149 190 236 288 343
#     4  10  20  35  56  84 114 149 189 234 283 338
#     4  11  21  37  60  88 120 156 195 240 287 339
#
# _framework density 19.679784000000001
#
# number of rings (size 3 to 8) (size 9 to 14) (size 15 to 20)
#    0.000    1.200    0.000   10.200    0.000    4.800 
#    0.000    1.000    0.000    2.400    0.000    0.000 
#    0.000    0.000    0.000    0.000    0.000    0.000 
#
# Total GULP energy -496036.147709 kJ/mol
# GULP energy per Si atom -12400.903693 kJ/mol
# Density = 1.963499 g / cm^3
# Si number density = 19.679784 Si / 1000 Ang^3
#
#
#
# Elastic Constant Matrix: (Units=GPa)
#
#
# Indices 1 2 3 4 5 6 
#
# 1 205.7255 90.5629 69.3915 0.0000 0.0000 0.0000
# 2 90.5629 121.8373 49.6974 0.0000 0.0000 0.0000
# 3 69.3915 49.6974 153.5070 0.0000 0.0000 0.0000
# 4 0.0000 0.0000 0.0000 31.7104 0.0000 0.0000
# 5 0.0000 0.0000 0.0000 0.0000 38.4010 0.0000
# 6 0.0000 0.0000 0.0000 0.0000 0.0000 51.5929
#
#
#
# Elastic Compliance Matrix: (Units=1/GPa)
#
#
# Indices 1 2 3 4 5 6 
#
# 1 0.007663 -0.004934 -0.001866 0.000000 0.000000 0.000000
# 2 -0.004934 0.012634 -0.001860 0.000000 0.000000 0.000000
# 3 -0.001866 -0.001860 0.007960 0.000000 0.000000 0.000000
# 4 0.000000 0.000000 0.000000 0.031535 0.000000 0.000000
# 5 0.000000 0.000000 0.000000 0.000000 0.026041 0.000000
# 6 0.000000 0.000000 0.000000 0.000000 0.000000 0.019382
#
#
# Mechanical properties :
#
#
# Convention : Reuss Voigt Hill
#
# Bulk Modulus (GPa) = 91.44190 100.04150 95.74170
# Shear Modulus (GPa) = 39.62548 42.43540 41.03044
#
# Velocity S-wave (km/s) = 4.49209 4.64863 4.57103
# Velocity P-wave (km/s) = 8.57151 8.93073 8.75297
#
# Compressibility (1/GPa) = 0.01093591
#
# Stress axis : x y z
#
# Youngs Moduli (GPa) = 130.50540 79.15150 125.62716
#
# Poissons Ratio (x) = 0.39056 0.23446
# Poissons Ratio (y) = 0.64396 0.23363
# Poissons Ratio (z) = 0.24356 0.14720
#
# Static dielectric constant tensor:
#      x y z
#    x 4.724360 0.000000 0.000000 
#    y 0.000000 3.433340 0.000000 
#    z 0.000000 0.000000 3.819770 
# 
# 
# High freq. dielectric constant tensor:
#      x y z
#    x 1.798640 0.000000 0.000000 
#    y 0.000000 1.739440 0.000000 
#    z 0.000000 0.000000 1.791120 
# 
# From -- ./inp_files/9646.got.cif
#   From: 2010.03.12/outbox.cif.g09.slc.cpg/sg57_5_cif.got.tgz:9646.got - 2010.04.16 15:48:40.
