data_PCOD8230944
_publ_section_title
;
Structure prediction by ZEFSAII (Michael W. Deem and Ramdas Pophale) SiO2 
 PCOD8230944
Probable space group: P B C M
;
_chemical_formula_sum "Si O2"
_cell_formula_units_Z 64
_cell_length_a 22.828900
_cell_length_b 15.918850
_cell_length_c 9.159183
_cell_angle_alpha 90.000000
_cell_angle_beta 90.000000
_cell_angle_gamma 90.000000
_cell_volume 3328.537181
_symmetry_space_group_name_H-M "P B C M"
_symmetry_group_IT_number 57
_symmetry_cell_setting 'orthorhombic'
loop_
_space_group_symop_operation_xyz
x,y,z
-x,-y,1/2+z
x,1/2-y,-z
-x,1/2+y,1/2-z
-x,-y,-z
x,y,1/2-z
-x,1/2+y,z
x,1/2-y,1/2+z
loop_
_atom_site_type_symbol
_atom_site_label
_atom_site_fract_x
_atom_site_fract_y
_atom_site_fract_z
Si Si1 0.362405 0.918737 0.416834
Si Si2 0.064396 0.834716 0.079536
Si Si3 0.318409 0.330939 0.420088
Si Si4 0.875310 0.010402 0.420655
Si Si5 0.579280 0.595749 0.413725
Si Si6 0.459489 0.669818 0.081227
Si Si7 0.260834 0.995909 0.918153
Si Si8 0.926955 0.833401 0.081623
O O1 0.355248 0.889975 0.250000
O O2 0.397165 0.849461 0.507623
O O3 0.297927 0.931395 0.483966
O O4 0.401746 0.000692 0.434136
O O5 0.080455 0.828399 0.250000
O O6 0.995575 0.844702 0.054023
O O7 0.087296 0.750000 0.000000
O O8 0.093553 0.916991 0.011579
O O9 0.291303 0.250000 0.500000
O O10 0.319911 0.313107 0.250000
O O11 0.384711 0.346668 0.474177
O O12 0.276732 0.408801 0.461237
O O13 0.891065 0.020961 0.250000
O O14 0.806724 0.019811 0.450133
O O15 0.895858 0.918371 0.476404
O O16 0.593793 0.627666 0.250000
O O17 0.509519 0.599258 0.441946
O O18 0.447499 0.688146 0.250000
O O19 0.486135 0.750000 0.000000
O O20 0.277132 0.979611 0.750000
O O21 0.911584 0.819794 0.250000
O O22 0.903321 0.750000 0.000000
#
# Coordination Sequence:
#
# PCOD8230944 Si02
#       8
#     8   8   8   8   8   8   8   8
#     4  10  20  36  56  76 100 131 168 209 254 304
#     4  10  20  35  56  83 113 145 183 226 274 325
#     4  10  19  31  49  73 103 138 173 212 259 309
#     4  10  20  36  57  81 111 146 185 229 273 317
#     4   9  19  34  53  77 102 130 165 205 251 308
#     4  11  22  35  52  76 104 131 163 205 255 308
#     4   9  20  37  54  73 101 139 179 217 259 308
#     4   9  19  34  54  83 118 152 183 219 266 321
#
# _framework density 19.227667
#
# number of rings (size 3 to 8) (size 9 to 14) (size 15 to 20)
#    0.000    2.250    0.000    2.625    0.000    5.000 
#    0.000    0.625    0.000    3.000    0.000    0.000 
#    0.000    0.000    0.000    0.000    0.000    0.000 
#
# Total GULP energy -793626.570240 kJ/mol
# GULP energy per Si atom -12400.415160 kJ/mol
# Density = 1.918390 g / cm^3
# Si number density = 19.227667 Si / 1000 Ang^3
#
#
#
# Elastic Constant Matrix: (Units=GPa)
#
#
# Indices 1 2 3 4 5 6 
#
# 1 68.9890 34.5642 40.6242 0.0000 0.0000 0.0000
# 2 34.5642 89.7483 46.4041 0.0000 0.0000 0.0000
# 3 40.6242 46.4041 98.8501 0.0000 0.0000 0.0000
# 4 0.0000 0.0000 0.0000 37.6944 0.0000 0.0000
# 5 0.0000 0.0000 0.0000 0.0000 25.5581 0.0000
# 6 0.0000 0.0000 0.0000 0.0000 0.0000 16.2210
#
#
#
# Elastic Compliance Matrix: (Units=1/GPa)
#
#
# Indices 1 2 3 4 5 6 
#
# 1 0.020508 -0.004675 -0.006233 0.000000 0.000000 0.000000
# 2 -0.004675 0.015779 -0.005486 0.000000 0.000000 0.000000
# 3 -0.006233 -0.005486 0.015253 0.000000 0.000000 0.000000
# 4 0.000000 0.000000 0.000000 0.026529 0.000000 0.000000
# 5 0.000000 0.000000 0.000000 0.000000 0.039127 0.000000
# 6 0.000000 0.000000 0.000000 0.000000 0.000000 0.061648
#
#
# Mechanical properties :
#
#
# Convention : Reuss Voigt Hill
#
# Bulk Modulus (GPa) = 53.32930 55.64139 54.48534
# Shear Modulus (GPa) = 22.94795 24.96104 23.95450
#
# Velocity S-wave (km/s) = 3.45843 3.60694 3.53347
# Velocity P-wave (km/s) = 6.61390 6.80791 6.71161
#
# Compressibility (1/GPa) = 0.01875142
#
# Stress axis : x y z
#
# Youngs Moduli (GPa) = 48.76179 63.37391 65.55892
#
# Poissons Ratio (x) = 0.29628 0.40865
# Poissons Ratio (y) = 0.22797 0.35967
# Poissons Ratio (z) = 0.30395 0.34768
#
# Static dielectric constant tensor:
#      x y z
#    x 3.381300 0.000000 0.000000 
#    y 0.000000 3.576350 0.000000 
#    z 0.000000 0.000000 3.585340 
# 
# 
# High freq. dielectric constant tensor:
#      x y z
#    x 1.736120 0.000000 0.000000 
#    y 0.000000 1.745650 0.000000 
#    z 0.000000 0.000000 1.752590 
# 
# From -- ./inp_files/9437.got.cif
#   From: 2010.03.12/outbox.cif.g09.slc.cpg/sg57_5_cif.got.tgz:9437.got - 2010.04.16 15:48:40.
