data_PCOD8230619
_publ_section_title
;
Structure prediction by ZEFSAII (Michael W. Deem and Ramdas Pophale) SiO2 
 PCOD8230619
Probable space group: P B C M
;
_chemical_formula_sum "Si O2"
_cell_formula_units_Z 64
_cell_length_a 17.189810
_cell_length_b 23.055243
_cell_length_c 9.175256
_cell_angle_alpha 90.000000
_cell_angle_beta 90.000000
_cell_angle_gamma 90.000000
_cell_volume 3636.293845
_symmetry_space_group_name_H-M "P B C M"
_symmetry_group_IT_number 57
_symmetry_cell_setting 'orthorhombic'
loop_
_space_group_symop_operation_xyz
x,y,z
-x,-y,1/2+z
x,1/2-y,-z
-x,1/2+y,1/2-z
-x,-y,-z
x,y,1/2-z
-x,1/2+y,z
x,1/2-y,1/2+z
loop_
_atom_site_type_symbol
_atom_site_label
_atom_site_fract_x
_atom_site_fract_y
_atom_site_fract_z
Si Si1 0.559338 0.807320 0.580469
Si Si2 0.583952 0.379091 0.916485
Si Si3 0.215580 0.081775 0.584324
Si Si4 0.690036 0.476597 0.584803
Si Si5 0.079924 0.989854 0.919623
Si Si6 0.183494 0.588628 0.915251
Si Si7 0.286698 0.808347 0.083226
Si Si8 0.263600 0.191290 0.077944
O O1 0.527542 0.750000 0.500000
O O2 0.557149 0.792814 0.750000
O O3 0.504936 0.862895 0.540759
O O4 0.647202 0.821374 0.531993
O O5 0.598677 0.360260 0.750000
O O6 0.602823 0.448859 0.933831
O O7 0.640928 0.341876 0.015069
O O8 0.209580 0.104158 0.750000
O O9 0.142215 0.040667 0.545935
O O10 0.213245 0.137018 0.478568
O O11 0.297403 0.045755 0.562231
O O12 0.720696 0.462284 0.750000
O O13 0.740187 0.446109 0.461766
O O14 0.063521 0.983947 0.750000
O O15 0.112420 0.928577 0.979815
O O16 0.000000 0.000000 0.000000
O O17 0.161757 0.571840 0.750000
O O18 0.205743 0.656101 0.929072
O O19 0.308246 0.795660 0.250000
O O20 0.269693 0.750000 0.000000
O O21 0.252061 0.197866 0.250000
O O22 0.234341 0.250000 0.000000
#
# Coordination Sequence:
#
# PCOD8230619 Si02
#       8
#     8   8   8   8   8   8   8   8
#     4   9  18  30  44  64  90 123 165 212 258 299
#     4   9  16  28  45  64  91 126 164 207 251 293
#     4   9  18  33  52  75 101 128 159 194 235 287
#     4   8  15  28  46  67  93 127 161 195 240 290
#     4  10  20  34  55  81 105 127 151 183 227 279
#     4   9  17  29  45  67  96 126 158 196 231 268
#     4  10  19  28  41  64  93 127 166 203 238 279
#     4  10  20  34  52  72  95 126 165 208 251 293
#
# _framework density 17.600337
#
# number of rings (size 3 to 8) (size 9 to 14) (size 15 to 20)
#    0.000    2.750    0.000    2.625    0.000    6.000 
#    0.000    0.625    0.000    0.750    0.000    3.500 
#    0.000    0.000    0.000    0.000    0.000    0.000 
#
# Total GULP energy -792939.561094 kJ/mol
# GULP energy per Si atom -12389.680642 kJ/mol
# Density = 1.756028 g / cm^3
# Si number density = 17.600337 Si / 1000 Ang^3
#
#
#
# Elastic Constant Matrix: (Units=GPa)
#
#
# Indices 1 2 3 4 5 6 
#
# 1 51.6471 24.6520 29.0499 0.0000 0.0000 0.0000
# 2 24.6520 89.1258 47.1443 0.0000 0.0000 0.0000
# 3 29.0499 47.1443 92.0517 0.0000 0.0000 0.0000
# 4 0.0000 0.0000 0.0000 29.0906 0.0000 0.0000
# 5 0.0000 0.0000 0.0000 0.0000 22.7949 0.0000
# 6 0.0000 0.0000 0.0000 0.0000 0.0000 20.7923
#
#
#
# Elastic Compliance Matrix: (Units=1/GPa)
#
#
# Indices 1 2 3 4 5 6 
#
# 1 0.024385 -0.003668 -0.005817 0.000000 0.000000 0.000000
# 2 -0.003668 0.015941 -0.007007 0.000000 0.000000 0.000000
# 3 -0.005817 -0.007007 0.016288 0.000000 0.000000 0.000000
# 4 0.000000 0.000000 0.000000 0.034375 0.000000 0.000000
# 5 0.000000 0.000000 0.000000 0.000000 0.043869 0.000000
# 6 0.000000 0.000000 0.000000 0.000000 0.000000 0.048095
#
#
# Mechanical properties :
#
#
# Convention : Reuss Voigt Hill
#
# Bulk Modulus (GPa) = 42.31820 48.27965 45.29892
# Shear Modulus (GPa) = 22.34016 23.33413 22.83715
#
# Velocity S-wave (km/s) = 3.56659 3.64507 3.60605
# Velocity P-wave (km/s) = 6.40757 6.72354 6.56746
#
# Compressibility (1/GPa) = 0.02363049
#
# Stress axis : x y z
#
# Youngs Moduli (GPa) = 41.00932 62.73199 61.39643
#
# Poissons Ratio (x) = 0.23009 0.35714
# Poissons Ratio (y) = 0.15041 0.43018
# Poissons Ratio (z) = 0.23855 0.43954
#
# Static dielectric constant tensor:
#      x y z
#    x 3.107170 0.000000 0.000000 
#    y 0.000000 3.364340 0.000000 
#    z 0.000000 0.000000 3.342450 
# 
# 
# High freq. dielectric constant tensor:
#      x y z
#    x 1.646860 0.000000 0.000000 
#    y 0.000000 1.668790 0.000000 
#    z 0.000000 0.000000 1.692260 
# 
# From -- ./inp_files/7354.got.cif
#   From: 2010.03.12/outbox.cif.g09.slc.cpg/sg57_4_cif.got.tgz:7354.got - 2010.04.16 15:48:40.
