data_PCOD8230411
_publ_section_title
;
Structure prediction by ZEFSAII (Michael W. Deem and Ramdas Pophale) SiO2 
 PCOD8230411
Probable space group: P B C M
;
_chemical_formula_sum "Si O2"
_cell_formula_units_Z 64
_cell_length_a 19.827393
_cell_length_b 19.907859
_cell_length_c 8.979143
_cell_angle_alpha 90.000000
_cell_angle_beta 90.000000
_cell_angle_gamma 90.000000
_cell_volume 3544.255803
_symmetry_space_group_name_H-M "P B C M"
_symmetry_group_IT_number 57
_symmetry_cell_setting 'orthorhombic'
loop_
_space_group_symop_operation_xyz
x,y,z
-x,-y,1/2+z
x,1/2-y,-z
-x,1/2+y,1/2-z
-x,-y,-z
x,y,1/2-z
-x,1/2+y,z
x,1/2-y,1/2+z
loop_
_atom_site_type_symbol
_atom_site_label
_atom_site_fract_x
_atom_site_fract_y
_atom_site_fract_z
Si Si1 0.151052 0.423241 0.076696
Si Si2 0.472024 0.933246 0.074754
Si Si3 0.386896 0.104380 0.923700
Si Si4 0.343165 0.958505 0.927313
Si Si5 0.200129 0.945468 0.073745
Si Si6 0.040633 0.318342 0.425073
Si Si7 0.112830 0.682170 0.575659
Si Si8 0.264808 0.183559 0.922120
O O1 0.146568 0.443193 0.250000
O O2 0.085102 0.382101 0.023718
O O3 0.216218 0.378381 0.044663
O O4 0.157580 0.490386 0.980220
O O5 0.459741 0.944162 0.250000
O O6 0.533676 0.880120 0.046903
O O7 0.402579 0.910183 0.994506
O O8 0.500000 0.000000 0.000000
O O9 0.371569 0.098900 0.750000
O O10 0.338990 0.163369 0.987319
O O11 0.362414 0.032535 0.987779
O O12 0.341646 0.951549 0.750000
O O13 0.271508 0.937974 0.992694
O O14 0.210774 0.949955 0.250000
O O15 0.158252 0.880056 0.025625
O O16 0.067660 0.250000 0.500000
O O17 0.048730 0.307996 0.250000
O O18 0.963976 0.332802 0.474547
O O19 0.140285 0.750000 0.500000
O O20 0.116504 0.693946 0.750000
O O21 0.267108 0.201109 0.750000
O O22 0.237522 0.250000 0.000000
#
# Coordination Sequence:
#
# PCOD8230411 Si02
#       8
#     8   8   8   8   8   8   8   8
#     4  10  20  34  52  74 106 142 176 214 262 316
#     4   9  16  27  46  72  98 131 170 213 260 304
#     4   8  15  29  47  66  97 132 166 209 253 299
#     4  10  18  32  51  73 102 135 168 211 265 318
#     4  11  22  34  52  79 109 136 170 221 268 313
#     4   9  18  34  55  77 104 141 180 218 260 309
#     4   9  20  38  57  79 105 133 171 217 265 321
#     4  10  19  32  47  69 101 140 179 215 255 304
#
# _framework density 18.057388
#
# number of rings (size 3 to 8) (size 9 to 14) (size 15 to 20)
#    0.000    2.500    1.250    2.250    0.000    2.500 
#    0.000    1.250    0.000    0.750    0.000    1.750 
#    0.000    0.000    0.000    0.000    0.000    0.000 
#
# Total GULP energy -793231.797726 kJ/mol
# GULP energy per Si atom -12394.246839 kJ/mol
# Density = 1.801629 g / cm^3
# Si number density = 18.057388 Si / 1000 Ang^3
#
#
#
# Elastic Constant Matrix: (Units=GPa)
#
#
# Indices 1 2 3 4 5 6 
#
# 1 127.1424 60.1369 47.6635 0.0000 0.0000 0.0000
# 2 60.1369 98.0187 45.3571 0.0000 0.0000 0.0000
# 3 47.6635 45.3571 65.2271 0.0000 0.0000 0.0000
# 4 0.0000 0.0000 0.0000 25.3473 0.0000 0.0000
# 5 0.0000 0.0000 0.0000 0.0000 27.9018 0.0000
# 6 0.0000 0.0000 0.0000 0.0000 0.0000 -18.5995
#
#
#
# Elastic Compliance Matrix: (Units=1/GPa)
#
#
# Indices 1 2 3 4 5 6 
#
# 1 0.012292 -0.004991 -0.005512 0.000000 0.000000 0.000000
# 2 -0.004991 0.017069 -0.008222 0.000000 0.000000 0.000000
# 3 -0.005512 -0.008222 0.025076 0.000000 0.000000 0.000000
# 4 0.000000 0.000000 0.000000 0.039452 0.000000 0.000000
# 5 0.000000 0.000000 0.000000 0.000000 0.035840 0.000000
# 6 0.000000 0.000000 0.000000 0.000000 0.000000 -0.053765
#
#
# Mechanical properties :
#
#
# Convention : Reuss Voigt Hill
#
# Bulk Modulus (GPa) = 58.86694 66.30036 62.58365
# Shear Modulus (GPa) = 41.98991 16.07864 29.03428
#
# Velocity S-wave (km/s) = 4.82743 2.98723 4.01420
# Velocity P-wave (km/s) = 7.98391 6.97812 7.49790
#
# Compressibility (1/GPa) = 0.01698746
#
# Stress axis : x y z
#
# Youngs Moduli (GPa) = 81.35294 58.58561 39.87879
#
# Poissons Ratio (x) = 0.29241 0.21979
# Poissons Ratio (y) = 0.40604 0.32789
# Poissons Ratio (z) = 0.44838 0.48170
#
# Static dielectric constant tensor:
#      x y z
#    x 3.811150 0.000000 0.000000 
#    y 0.000000 3.174140 0.000000 
#    z 0.000000 0.000000 3.255030 
# 
# 
# High freq. dielectric constant tensor:
#      x y z
#    x 1.714910 0.000000 0.000000 
#    y 0.000000 1.666390 0.000000 
#    z 0.000000 0.000000 1.690850 
# 
# From -- ./inp_files/7195.got.cif
#   From: 2010.03.12/outbox.cif.g09.slc.cpg/sg57_4_cif.got.tgz:7195.got - 2010.04.16 15:48:40.
