data_PCOD8230867
_publ_section_title
;
Structure prediction by ZEFSAII (Michael W. Deem and Ramdas Pophale) SiO2 
 PCOD8230867
Probable space group: P B C M
;
_chemical_formula_sum "Si O2"
_cell_formula_units_Z 56
_cell_length_a 15.925637
_cell_length_b 24.418187
_cell_length_c 8.689697
_cell_angle_alpha 90.000000
_cell_angle_beta 90.000000
_cell_angle_gamma 90.000000
_cell_volume 3379.207506
_symmetry_space_group_name_H-M "P B C M"
_symmetry_group_IT_number 57
_symmetry_cell_setting 'orthorhombic'
loop_
_space_group_symop_operation_xyz
x,y,z
-x,-y,1/2+z
x,1/2-y,-z
-x,1/2+y,1/2-z
-x,-y,-z
x,y,1/2-z
-x,1/2+y,z
x,1/2-y,1/2+z
loop_
_atom_site_type_symbol
_atom_site_label
_atom_site_fract_x
_atom_site_fract_y
_atom_site_fract_z
Si Si1 0.487198 0.587702 0.070527
Si Si2 0.967405 0.555540 0.070600
Si Si3 0.589038 0.308372 0.068405
Si Si4 0.767461 0.307208 0.569455
Si Si5 0.885387 0.393418 0.073510
Si Si6 0.203156 0.490494 0.576091
Si Si7 0.621832 0.984993 0.428313
O O1 0.484925 0.601075 0.250000
O O2 0.414526 0.544400 0.023428
O O3 0.475645 0.644276 0.979233
O O4 0.577186 0.562557 0.025924
O O5 0.989891 0.557301 0.250000
O O6 0.866279 0.557363 0.046171
O O7 0.000000 0.500000 0.000000
O O8 0.017273 0.604038 0.982994
O O9 0.592380 0.302802 0.250000
O O10 0.560101 0.250000 0.000000
O O11 0.680256 0.325838 0.006704
O O12 0.797953 0.250000 0.500000
O O13 0.752823 0.301480 0.750000
O O14 0.838985 0.350690 0.534737
O O15 0.882807 0.374136 0.250000
O O16 0.840593 0.451359 0.049610
O O17 0.237829 0.486633 0.750000
O O18 0.279187 0.482962 0.458830
O O19 0.603751 0.973944 0.250000
#
# Coordination Sequence:
#
# PCOD8230867 Si02
#       7
#     8   8   8   8   8   8   8
#     4  10  20  34  49  68  96 127 160 197 239 285
#     4   9  17  29  44  65  92 122 155 189 227 271
#     4  11  21  34  51  71  96 125 160 198 237 281
#     4  11  21  33  48  68  94 124 158 193 231 275
#     4  10  19  31  47  68  94 125 158 193 234 276
#     4   9  18  30  45  66  94 125 155 189 230 276
#     4  10  20  31  47  70  95 126 161 197 238 285
#
# _framework density 16.571932
#
# number of rings (size 3 to 8) (size 9 to 14) (size 15 to 20)
#    0.000    2.000    0.000    6.857    0.000    7.429 
#    0.000    0.000    0.000    0.000    0.000    1.000 
#    0.000    6.857    0.000    0.000    0.000    0.000 
#
# Total GULP energy -694383.733108 kJ/mol
# GULP energy per Si atom -12399.709520 kJ/mol
# Density = 1.653421 g / cm^3
# Si number density = 16.571932 Si / 1000 Ang^3
#
#
#
# Elastic Constant Matrix: (Units=GPa)
#
#
# Indices 1 2 3 4 5 6 
#
# 1 79.8249 32.5280 31.7500 0.0000 0.0000 0.0000
# 2 32.5280 74.2407 36.5190 0.0000 0.0000 0.0000
# 3 31.7500 36.5190 106.7248 0.0000 0.0000 0.0000
# 4 0.0000 0.0000 0.0000 26.8202 0.0000 0.0000
# 5 0.0000 0.0000 0.0000 0.0000 30.2454 0.0000
# 6 0.0000 0.0000 0.0000 0.0000 0.0000 24.9815
#
#
#
# Elastic Compliance Matrix: (Units=1/GPa)
#
#
# Indices 1 2 3 4 5 6 
#
# 1 0.015929 -0.005589 -0.002826 0.000000 0.000000 0.000000
# 2 -0.005589 0.018157 -0.004550 0.000000 0.000000 0.000000
# 3 -0.002826 -0.004550 0.011768 0.000000 0.000000 0.000000
# 4 0.000000 0.000000 0.000000 0.037285 0.000000 0.000000
# 5 0.000000 0.000000 0.000000 0.000000 0.033063 0.000000
# 6 0.000000 0.000000 0.000000 0.000000 0.000000 0.040030
#
#
# Mechanical properties :
#
#
# Convention : Reuss Voigt Hill
#
# Bulk Modulus (GPa) = 50.19447 51.37601 50.78524
# Shear Modulus (GPa) = 26.48263 27.07564 26.77914
#
# Velocity S-wave (km/s) = 4.00189 4.04645 4.02423
# Velocity P-wave (km/s) = 7.19083 7.27329 7.23218
#
# Compressibility (1/GPa) = 0.01992251
#
# Stress axis : x y z
#
# Youngs Moduli (GPa) = 62.77847 55.07624 84.97838
#
# Poissons Ratio (x) = 0.30781 0.24018
# Poissons Ratio (y) = 0.35086 0.38667
# Poissons Ratio (z) = 0.17744 0.25061
#
# Static dielectric constant tensor:
#      x y z
#    x 3.174660 0.000000 0.000000 
#    y 0.000000 2.999420 0.000000 
#    z 0.000000 0.000000 3.269790 
# 
# 
# High freq. dielectric constant tensor:
#      x y z
#    x 1.626290 0.000000 0.000000 
#    y 0.000000 1.610520 0.000000 
#    z 0.000000 0.000000 1.657380 
# 
# From -- ./inp_files/5132.got.cif
#   From: 2010.03.12/outbox.cif.g09.slc.cpg/sg57_3_cif.got.tgz:5132.got - 2010.04.16 15:48:40.
