data_PCOD8230457
_publ_section_title
;
Structure prediction by ZEFSAII (Michael W. Deem and Ramdas Pophale) SiO2 
 PCOD8230457
Probable space group: P B C M
;
_chemical_formula_sum "Si O2"
_cell_formula_units_Z 64
_cell_length_a 20.361983
_cell_length_b 9.421808
_cell_length_c 19.213458
_cell_angle_alpha 90.000000
_cell_angle_beta 90.000000
_cell_angle_gamma 90.000000
_cell_volume 3686.038404
_symmetry_space_group_name_H-M "P B C M"
_symmetry_group_IT_number 57
_symmetry_cell_setting 'orthorhombic'
loop_
_space_group_symop_operation_xyz
x,y,z
-x,-y,1/2+z
x,1/2-y,-z
-x,1/2+y,1/2-z
-x,-y,-z
x,y,1/2-z
-x,1/2+y,z
x,1/2-y,1/2+z
loop_
_atom_site_type_symbol
_atom_site_label
_atom_site_fract_x
_atom_site_fract_y
_atom_site_fract_z
Si Si1 0.066133 0.914463 0.978501
Si Si2 0.684060 0.868320 0.557862
Si Si3 0.957377 0.003000 0.328656
Si Si4 0.582529 0.807464 0.670925
Si Si5 0.410261 0.902235 0.501304
Si Si6 0.488103 0.040893 0.611579
Si Si7 0.080375 0.311779 0.673760
Si Si8 0.167701 0.384225 0.950462
O O1 0.079955 0.924955 0.894660
O O2 0.058270 0.750000 0.000000
O O3 0.128817 0.982143 0.017431
O O4 0.000000 0.000000 0.000000
O O5 0.682925 0.750000 0.500000
O O6 0.650218 0.806880 0.627311
O O7 0.757729 0.925969 0.567858
O O8 0.641918 0.997383 0.532413
O O9 0.928839 0.040199 0.250000
O O10 0.031830 0.055573 0.332981
O O11 0.958844 0.834156 0.340868
O O12 0.605312 0.813693 0.750000
O O13 0.537174 0.943510 0.655600
O O14 0.541032 0.664627 0.659106
O O15 0.375729 0.750000 0.500000
O O16 0.428485 0.947689 0.579962
O O17 0.476060 0.888830 0.454682
O O18 0.112276 0.306535 0.750000
O O19 0.139368 0.332295 0.622012
O O20 0.162970 0.250000 0.000000
#
# Coordination Sequence:
#
# PCOD8230457 Si02
#       8
#     8   8   8   8   8   8   8   8
#     4  12  22  35  59  87 114 147 187 241 297 335
#     4  10  22  37  56  78 107 149 192 226 270 329
#     4  10  20  34  52  82 113 138 173 225 288 342
#     4  11  21  35  55  84 116 144 182 232 286 340
#     4  10  18  32  57  79 108 141 179 231 272 328
#     4  10  19  31  53  87 109 137 181 226 281 327
#     4  10  20  34  55  80 108 142 176 219 283 339
#     4  11  22  38  55  79 111 144 191 239 269 332
#
# _framework density 17.362815000000001
#
# number of rings (size 3 to 8) (size 9 to 14) (size 15 to 20)
#    0.000    1.500    5.000    1.500    0.000    1.000 
#    0.000    0.000    0.000    0.000    0.000    0.000 
#    0.000    0.000    0.000    0.000    0.000    0.000 
#
# Total GULP energy -793310.847678 kJ/mol
# GULP energy per Si atom -12395.481995 kJ/mol
# Density = 1.732330 g / cm^3
# Si number density = 17.362815 Si / 1000 Ang^3
#
#
#
# Elastic Constant Matrix: (Units=GPa)
#
#
# Indices 1 2 3 4 5 6 
#
# 1 103.9463 40.3785 51.3420 0.0000 0.0000 0.0000
# 2 40.3785 81.1901 25.3523 0.0000 0.0000 0.0000
# 3 51.3420 25.3523 123.8410 0.0000 0.0000 0.0000
# 4 0.0000 0.0000 0.0000 23.3843 0.0000 0.0000
# 5 0.0000 0.0000 0.0000 0.0000 -6.2449 0.0000
# 6 0.0000 0.0000 0.0000 0.0000 0.0000 17.7862
#
#
#
# Elastic Compliance Matrix: (Units=1/GPa)
#
#
# Indices 1 2 3 4 5 6 
#
# 1 0.014100 -0.005541 -0.004711 0.000000 0.000000 0.000000
# 2 -0.005541 0.015336 -0.000842 0.000000 0.000000 0.000000
# 3 -0.004711 -0.000842 0.010200 0.000000 0.000000 0.000000
# 4 0.000000 0.000000 0.000000 0.042764 0.000000 0.000000
# 5 0.000000 0.000000 0.000000 0.000000 -0.160131 0.000000
# 6 0.000000 0.000000 0.000000 0.000000 0.000000 0.056223
#
#
# Mechanical properties :
#
#
# Convention : Reuss Voigt Hill
#
# Bulk Modulus (GPa) = 57.31714 60.34702 58.83208
# Shear Modulus (GPa) = 769.64757 19.77875 394.71316
#
# Velocity S-wave (km/s) = 21.07690 3.37878 15.09391
# Velocity P-wave (km/s) = 25.00795 7.07485 18.37731
#
# Compressibility (1/GPa) = 0.01744679
#
# Stress axis : x y z
#
# Youngs Moduli (GPa) = 70.92286 65.20784 98.03521
#
# Poissons Ratio (x) = 0.36133 0.46186
# Poissons Ratio (y) = 0.39300 0.08256
# Poissons Ratio (z) = 0.33413 0.05492
#
# Static dielectric constant tensor:
#      x y z
#    x 3.182640 0.000000 0.000000 
#    y 0.000000 3.287670 0.000000 
#    z 0.000000 0.000000 3.766090 
# 
# 
# High freq. dielectric constant tensor:
#      x y z
#    x 1.641570 0.000000 0.000000 
#    y 0.000000 1.678710 0.000000 
#    z 0.000000 0.000000 1.681110 
# 
# From -- ./inp_files/25580.got.cif
#   From: 2010.03.12/outbox.cif.g09.slc.cpg/sg57_13_cif.got.tgz:25580.got - 2010.04.16 15:48:40.
