data_PCOD8230074
_publ_section_title
;
Structure prediction by ZEFSAII (Michael W. Deem and Ramdas Pophale) SiO2 
 PCOD8230074
Probable space group: P B C M
;
_chemical_formula_sum "Si O2"
_cell_formula_units_Z 56
_cell_length_a 14.439088
_cell_length_b 26.304247
_cell_length_c 9.244689
_cell_angle_alpha 90.000000
_cell_angle_beta 90.000000
_cell_angle_gamma 90.000000
_cell_volume 3511.219202
_symmetry_space_group_name_H-M "P B C M"
_symmetry_group_IT_number 57
_symmetry_cell_setting 'orthorhombic'
loop_
_space_group_symop_operation_xyz
x,y,z
-x,-y,1/2+z
x,1/2-y,-z
-x,1/2+y,1/2-z
-x,-y,-z
x,y,1/2-z
-x,1/2+y,z
x,1/2-y,1/2+z
loop_
_atom_site_type_symbol
_atom_site_label
_atom_site_fract_x
_atom_site_fract_y
_atom_site_fract_z
Si Si1 0.919248 0.560207 0.415917
Si Si2 0.373307 0.197072 0.921963
Si Si3 0.473747 0.615812 0.586994
Si Si4 0.878386 0.459567 0.580656
Si Si5 0.749581 0.622622 0.082118
Si Si6 0.682235 0.428748 0.583802
Si Si7 0.634669 0.956655 0.085877
O O1 0.912798 0.542213 0.250000
O O2 0.878015 0.515034 0.510886
O O3 0.859588 0.611630 0.439674
O O4 0.026991 0.570794 0.457084
O O5 0.361737 0.203582 0.750000
O O6 0.460937 0.162168 0.963922
O O7 0.389610 0.250000 0.000000
O O8 0.280441 0.170931 0.986053
O O9 0.442553 0.625138 0.750000
O O10 0.379076 0.613552 0.496478
O O11 0.529598 0.563024 0.569001
O O12 0.866211 0.469359 0.750000
O O13 0.788663 0.427998 0.525961
O O14 0.726001 0.633107 0.250000
O O15 0.697943 0.571804 0.030501
O O16 0.678663 0.413532 0.750000
O O17 0.637877 0.483826 0.554512
O O18 0.669283 0.944320 0.250000
#
# Coordination Sequence:
#
# PCOD8230074 Si02
#       7
#     8   8   8   8   8   8   8
#     4   9  17  28  42  64  91 123 160 192 226 264
#     4  10  21  37  54  72  92 115 145 186 236 285
#     4   9  19  31  44  63  90 118 148 187 229 273
#     4   9  17  28  42  61  91 127 161 195 224 257
#     4  10  18  28  46  70  94 122 155 191 230 275
#     4  10  18  27  42  63  90 126 162 192 224 263
#     4   9  17  29  41  60  90 125 159 191 225 263
#
# _framework density 15.948877
#
# number of rings (size 3 to 8) (size 9 to 14) (size 15 to 20)
#    0.000    2.571    1.429    2.143    0.000    4.571 
#    0.000    0.000    0.000    0.000    0.000    1.000 
#    0.000    2.286    0.000    0.000    0.000    0.000 
#
# Total GULP energy -694101.285011 kJ/mol
# GULP energy per Si atom -12394.665804 kJ/mol
# Density = 1.591258 g / cm^3
# Si number density = 15.948877 Si / 1000 Ang^3
#
#
#
# Elastic Constant Matrix: (Units=GPa)
#
#
# Indices 1 2 3 4 5 6 
#
# 1 121.5808 49.6518 47.8683 0.0000 0.0000 0.0000
# 2 49.6518 61.6533 36.3117 0.0000 0.0000 0.0000
# 3 47.8683 36.3117 65.2387 0.0000 0.0000 0.0000
# 4 0.0000 0.0000 0.0000 23.5718 0.0000 0.0000
# 5 0.0000 0.0000 0.0000 0.0000 23.5699 0.0000
# 6 0.0000 0.0000 0.0000 0.0000 0.0000 15.1434
#
#
#
# Elastic Compliance Matrix: (Units=1/GPa)
#
#
# Indices 1 2 3 4 5 6 
#
# 1 0.013572 -0.007535 -0.005764 0.000000 0.000000 0.000000
# 2 -0.007535 0.028313 -0.010230 0.000000 0.000000 0.000000
# 3 -0.005764 -0.010230 0.025252 0.000000 0.000000 0.000000
# 4 0.000000 0.000000 0.000000 0.042424 0.000000 0.000000
# 5 0.000000 0.000000 0.000000 0.000000 0.042427 0.000000
# 6 0.000000 0.000000 0.000000 0.000000 0.000000 0.066035
#
#
# Mechanical properties :
#
#
# Convention : Reuss Voigt Hill
#
# Bulk Modulus (GPa) = 49.80603 57.34849 53.57726
# Shear Modulus (GPa) = 18.39764 20.09975 19.24869
#
# Velocity S-wave (km/s) = 3.40006 3.55387 3.47782
# Velocity P-wave (km/s) = 6.83449 7.27157 7.05641
#
# Compressibility (1/GPa) = 0.02007789
#
# Stress axis : x y z
#
# Youngs Moduli (GPa) = 73.68375 35.31927 39.60086
#
# Poissons Ratio (x) = 0.26612 0.22827
# Poissons Ratio (y) = 0.55519 0.40513
# Poissons Ratio (z) = 0.42472 0.36133
#
# Static dielectric constant tensor:
#      x y z
#    x 3.226160 0.000000 0.000000 
#    y 0.000000 2.680750 0.000000 
#    z 0.000000 0.000000 3.075630 
# 
# 
# High freq. dielectric constant tensor:
#      x y z
#    x 1.615130 0.000000 0.000000 
#    y 0.000000 1.564410 0.000000 
#    z 0.000000 0.000000 1.619940 
# 
# From -- ./inp_files/5891.got.cif
#   From: 2010.03.12/outbox.cif.g09.slc.cpg/sg57_3_cif.got.tgz:5891.got - 2010.04.16 15:48:40.
