data_PCOD8230560
_publ_section_title
;
Structure prediction by ZEFSAII (Michael W. Deem and Ramdas Pophale) SiO2 
 PCOD8230560
Probable space group: P B C M
;
_chemical_formula_sum "Si O2"
_cell_formula_units_Z 40
_cell_length_a 12.243235
_cell_length_b 17.125953
_cell_length_c 9.943501
_cell_angle_alpha 90.000000
_cell_angle_beta 90.000000
_cell_angle_gamma 90.000000
_cell_volume 2084.924127
_symmetry_space_group_name_H-M "P B C M"
_symmetry_group_IT_number 57
_symmetry_cell_setting 'orthorhombic'
loop_
_space_group_symop_operation_xyz
x,y,z
-x,-y,1/2+z
x,1/2-y,-z
-x,1/2+y,1/2-z
-x,-y,-z
x,y,1/2-z
-x,1/2+y,z
x,1/2-y,1/2+z
loop_
_atom_site_type_symbol
_atom_site_label
_atom_site_fract_x
_atom_site_fract_y
_atom_site_fract_z
Si Si1 0.109832 0.969568 0.750000
Si Si2 0.372105 0.614548 0.004617
Si Si3 0.597818 0.825590 0.092075
Si Si4 0.229131 0.649181 0.750000
Si Si5 0.256257 0.679348 0.250000
Si Si6 0.750034 0.961410 0.472938
Si Si7 0.859474 0.511052 0.250000
O O1 0.161824 0.884132 0.750000
O O2 0.145949 0.016258 0.617698
O O3 0.980947 0.956242 0.750000
O O4 0.498143 0.624509 0.968396
O O5 0.301263 0.636153 0.878532
O O6 0.346593 0.525283 0.047222
O O7 0.337348 0.673379 0.123108
O O8 0.580375 0.804118 0.250000
O O9 0.614049 0.750000 0.000000
O O10 0.705310 0.878338 0.075943
O O11 0.189630 0.738777 0.750000
O O12 0.132931 0.584308 0.750000
O O13 0.791621 0.956029 0.624759
#
# Coordination Sequence:
#
# PCOD8230560 Si02
#       7
#     4   8   8   4   4   8   4
#     4  10  20  41  61  87 113 161 202 249 299 352
#     4  10  21  36  60  84 118 158 193 236 292 353
#     4  12  25  40  59  88 126 162 196 235 291 355
#     4  10  18  35  53  89 115 149 190 255 297 332
#     4  10  20  33  59  87 119 145 198 249 299 342
#     4  10  22  41  61  86 119 157 199 249 294 354
#     4  10  22  37  65  85 117 153 208 247 299 356
#
# _framework density 19.185351000000001
#
# number of rings (size 3 to 8) (size 9 to 14) (size 15 to 20)
#    0.000    1.600    2.000    3.000    2.800    0.000 
#    0.000    2.000    0.000    0.000    0.000    0.000 
#    0.000    0.000    0.000    0.000    0.000    0.000 
#
# Total GULP energy -496004.765292 kJ/mol
# GULP energy per Si atom -12400.119132 kJ/mol
# Density = 1.914168 g / cm^3
# Si number density = 19.185351 Si / 1000 Ang^3
#
#
#
# Elastic Constant Matrix: (Units=GPa)
#
#
# Indices 1 2 3 4 5 6 
#
# 1 70.3090 32.8040 10.9134 0.0000 0.0000 0.0000
# 2 32.8040 84.9518 27.8643 0.0000 0.0000 0.0000
# 3 10.9134 27.8643 122.9005 0.0000 0.0000 0.0000
# 4 0.0000 0.0000 0.0000 15.8447 0.0000 0.0000
# 5 0.0000 0.0000 0.0000 0.0000 11.2570 0.0000
# 6 0.0000 0.0000 0.0000 0.0000 0.0000 15.4524
#
#
#
# Elastic Compliance Matrix: (Units=1/GPa)
#
#
# Indices 1 2 3 4 5 6 
#
# 1 0.017349 -0.006691 -0.000023 0.000000 0.000000 0.000000
# 2 -0.006691 0.015298 -0.002874 0.000000 0.000000 0.000000
# 3 -0.000023 -0.002874 0.008790 0.000000 0.000000 0.000000
# 4 0.000000 0.000000 0.000000 0.063113 0.000000 0.000000
# 5 0.000000 0.000000 0.000000 0.000000 0.088834 0.000000
# 6 0.000000 0.000000 0.000000 0.000000 0.000000 0.064715
#
#
# Mechanical properties :
#
#
# Convention : Reuss Voigt Hill
#
# Bulk Modulus (GPa) = 44.92601 46.81385 45.86993
# Shear Modulus (GPa) = 17.56260 22.28279 19.92270
#
# Velocity S-wave (km/s) = 3.02887 3.41170 3.22597
# Velocity P-wave (km/s) = 5.97492 6.32245 6.15114
#
# Compressibility (1/GPa) = 0.02225882
#
# Stress axis : x y z
#
# Youngs Moduli (GPa) = 57.64161 65.36799 113.76053
#
# Poissons Ratio (x) = 0.43741 0.00267
# Poissons Ratio (y) = 0.38570 0.32697
# Poissons Ratio (z) = 0.00135 0.18788
#
# Static dielectric constant tensor:
#      x y z
#    x 3.202540 0.000000 0.000000 
#    y 0.000000 3.683090 0.000000 
#    z 0.000000 0.000000 3.763870 
# 
# 
# High freq. dielectric constant tensor:
#      x y z
#    x 1.719360 0.000000 0.000000 
#    y 0.000000 1.743960 0.000000 
#    z 0.000000 0.000000 1.771990 
# 
# From -- ./inp_files/2745.got.cif
#   From: 2010.03.12/outbox.cif.g09.slc.cpg/sg57_2_cif.got.tgz:2745.got - 2010.04.16 15:48:40.
