data_PCOD8230331
_publ_section_title
;
Structure prediction by ZEFSAII (Michael W. Deem and Ramdas Pophale) SiO2 
 PCOD8230331
Probable space group: P B C M
;
_chemical_formula_sum "Si O2"
_cell_formula_units_Z 40
_cell_length_a 14.577027
_cell_length_b 9.035949
_cell_length_c 16.253501
_cell_angle_alpha 90.000000
_cell_angle_beta 90.000000
_cell_angle_gamma 90.000000
_cell_volume 2140.866821
_symmetry_space_group_name_H-M "P B C M"
_symmetry_group_IT_number 57
_symmetry_cell_setting 'orthorhombic'
loop_
_space_group_symop_operation_xyz
x,y,z
-x,-y,1/2+z
x,1/2-y,-z
-x,1/2+y,1/2-z
-x,-y,-z
x,y,1/2-z
-x,1/2+y,z
x,1/2-y,1/2+z
loop_
_atom_site_type_symbol
_atom_site_label
_atom_site_fract_x
_atom_site_fract_y
_atom_site_fract_z
Si Si1 0.905580 0.080937 0.989311
Si Si2 0.398354 0.103072 0.152820
Si Si3 0.266156 0.644806 0.078057
Si Si4 0.580948 0.560037 0.847918
Si Si5 0.221085 0.931283 0.343375
O O1 0.825221 0.047714 0.056530
O O2 0.931543 0.250000 0.000000
O O3 0.868359 0.040073 0.898610
O O4 0.000000 0.000000 0.000000
O O5 0.396190 0.101275 0.250000
O O6 0.482396 0.000667 0.123506
O O7 0.411303 0.270797 0.121778
O O8 0.303725 0.032641 0.120260
O O9 0.344995 0.532398 0.101722
O O10 0.249194 0.757750 0.153531
O O11 0.290427 0.750000 0.000000
O O12 0.596703 0.543780 0.750000
O O13 0.197307 0.974591 0.250000
#
# Coordination Sequence:
#
# PCOD8230331 Si02
#       5
#     8   8   8   8   8
#     4   9  20  37  54  73 100 131 163 206 261 307
#     4   9  18  30  50  77 103 132 169 207 247 291
#     4   9  19  34  51  73 100 131 169 207 253 302
#     4  10  18  31  50  74 103 136 169 206 248 297
#     4   9  17  34  55  75  99 132 170 208 246 297
#
# _framework density 18.68402
#
# number of rings (size 3 to 8) (size 9 to 14) (size 15 to 20)
#    0.000    3.200    0.000    1.800    0.000    4.800 
#    0.000   17.000    0.000    0.000    0.000    0.000 
#    0.000    0.000    0.000    0.000    0.000    0.000 
#
# Total GULP energy -495683.385347 kJ/mol
# GULP energy per Si atom -12392.084634 kJ/mol
# Density = 1.864149 g / cm^3
# Si number density = 18.684020 Si / 1000 Ang^3
#
#
#
# Elastic Constant Matrix: (Units=GPa)
#
#
# Indices 1 2 3 4 5 6 
#
# 1 171.1314 86.5709 61.5446 0.0000 0.0000 0.0000
# 2 86.5709 100.8792 38.2378 0.0000 0.0000 0.0000
# 3 61.5446 38.2378 59.8121 0.0000 0.0000 0.0000
# 4 0.0000 0.0000 0.0000 19.8855 0.0000 0.0000
# 5 0.0000 0.0000 0.0000 0.0000 23.1469 0.0000
# 6 0.0000 0.0000 0.0000 0.0000 0.0000 43.8084
#
#
#
# Elastic Compliance Matrix: (Units=1/GPa)
#
#
# Indices 1 2 3 4 5 6 
#
# 1 0.012719 -0.007858 -0.008063 0.000000 0.000000 0.000000
# 2 -0.007858 0.017939 -0.003382 0.000000 0.000000 0.000000
# 3 -0.008063 -0.003382 0.027178 0.000000 0.000000 0.000000
# 4 0.000000 0.000000 0.000000 0.050288 0.000000 0.000000
# 5 0.000000 0.000000 0.000000 0.000000 0.043202 0.000000
# 6 0.000000 0.000000 0.000000 0.000000 0.000000 0.022827
#
#
# Mechanical properties :
#
#
# Convention : Reuss Voigt Hill
#
# Bulk Modulus (GPa) = 52.00806 78.28104 65.14455
# Shear Modulus (GPa) = 22.81350 27.06612 24.93981
#
# Velocity S-wave (km/s) = 3.49810 3.81021 3.65748
# Velocity P-wave (km/s) = 6.64918 7.83232 7.26487
#
# Compressibility (1/GPa) = 0.01922779
#
# Stress axis : x y z
#
# Youngs Moduli (GPa) = 78.62529 55.74587 36.79454
#
# Poissons Ratio (x) = 0.43807 0.29668
# Poissons Ratio (y) = 0.61786 0.12445
# Poissons Ratio (z) = 0.63397 0.18854
#
# Static dielectric constant tensor:
#      x y z
#    x 3.541810 0.000000 0.000000 
#    y 0.000000 3.557340 0.000000 
#    z 0.000000 0.000000 3.276200 
# 
# 
# High freq. dielectric constant tensor:
#      x y z
#    x 1.721840 0.000000 0.000000 
#    y 0.000000 1.723240 0.000000 
#    z 0.000000 0.000000 1.711800 
# 
# From -- ./inp_files/22296.got.cif
#   From: 2010.03.12/outbox.cif.g09.slc.cpg/sg57_12_cif.got.tgz:22296.got - 2010.04.16 15:48:40.
