data_PCOD8230848
_publ_section_title
;
Structure prediction by ZEFSAII (Michael W. Deem and Ramdas Pophale) SiO2 
 PCOD8230848
Probable space group: P B C M
;
_chemical_formula_sum "Si O2"
_cell_formula_units_Z 64
_cell_length_a 20.806649
_cell_length_b 19.952760
_cell_length_c 9.217853
_cell_angle_alpha 90.000000
_cell_angle_beta 90.000000
_cell_angle_gamma 90.000000
_cell_volume 3826.792354
_symmetry_space_group_name_H-M "P B C M"
_symmetry_group_IT_number 57
_symmetry_cell_setting 'orthorhombic'
loop_
_space_group_symop_operation_xyz
x,y,z
-x,-y,1/2+z
x,1/2-y,-z
-x,1/2+y,1/2-z
-x,-y,-z
x,y,1/2-z
-x,1/2+y,z
x,1/2-y,1/2+z
loop_
_atom_site_type_symbol
_atom_site_label
_atom_site_fract_x
_atom_site_fract_y
_atom_site_fract_z
Si Si1 0.684833 0.192531 0.905892
Si Si2 0.827370 0.447096 0.916070
Si Si3 0.943481 0.538816 0.920569
Si Si4 0.872668 0.317589 0.421252
Si Si5 0.021608 0.315536 0.418021
Si Si6 0.536550 0.188569 0.911793
Si Si7 0.454614 0.948959 0.919786
Si Si8 0.687555 0.436031 0.587776
O O1 0.719212 0.192632 0.750000
O O2 0.610062 0.208313 0.887756
O O3 0.718792 0.250000 0.000000
O O4 0.696932 0.121913 0.974684
O O5 0.842059 0.426192 0.750000
O O6 0.875617 0.505779 0.965594
O O7 0.754151 0.477913 0.927591
O O8 0.834382 0.381243 0.015216
O O9 0.957440 0.533780 0.750000
O O10 0.940967 0.617061 0.967474
O O11 0.000000 0.500000 0.000000
O O12 0.848334 0.250000 0.500000
O O13 0.860124 0.312292 0.250000
O O14 0.947453 0.328418 0.456625
O O15 0.048775 0.250000 0.500000
O O16 0.031880 0.300709 0.250000
O O17 0.505328 0.178923 0.750000
O O18 0.502911 0.250000 0.000000
O O19 0.531143 0.122591 0.009211
O O20 0.471703 0.945879 0.750000
O O21 0.380198 0.973436 0.944784
O O22 0.500000 0.000000 0.000000
O O23 0.681845 0.405696 0.750000
#
# Coordination Sequence:
#
# PCOD8230848 Si02
#       8
#     8   8   8   8   8   8   8   8
#     4   9  16  26  42  62  86 120 157 192 226 266
#     4  10  20  33  49  68  93 126 161 198 242 286
#     4  10  19  32  50  72  96 122 156 196 237 281
#     4  10  19  31  46  66  95 129 166 200 234 275
#     4   9  18  31  47  69  94 121 155 195 235 277
#     4   9  16  27  44  68  96 124 156 191 232 278
#     4  10  19  32  50  71  96 125 160 201 243 290
#     4   9  19  33  46  64  91 122 157 195 236 286
#
# _framework density 16.72419
#
# number of rings (size 3 to 8) (size 9 to 14) (size 15 to 20)
#    0.000    2.500    1.250    1.500    0.000    5.500 
#    0.000    0.000    0.000    0.000    0.000    0.875 
#    0.000    2.000    0.000    0.000    0.000    0.000 
#
# Total GULP energy -793002.143403 kJ/mol
# GULP energy per Si atom -12390.658491 kJ/mol
# Density = 1.668612 g / cm^3
# Si number density = 16.724190 Si / 1000 Ang^3
#
#
#
# Elastic Constant Matrix: (Units=GPa)
#
#
# Indices 1 2 3 4 5 6 
#
# 1 87.8460 56.6686 46.7813 0.0000 0.0000 0.0000
# 2 56.6686 107.2769 51.5668 0.0000 0.0000 0.0000
# 3 46.7813 51.5668 99.5799 0.0000 0.0000 0.0000
# 4 0.0000 0.0000 0.0000 28.3949 0.0000 0.0000
# 5 0.0000 0.0000 0.0000 0.0000 11.8843 0.0000
# 6 0.0000 0.0000 0.0000 0.0000 0.0000 10.4109
#
#
#
# Elastic Compliance Matrix: (Units=1/GPa)
#
#
# Indices 1 2 3 4 5 6 
#
# 1 0.018937 -0.007625 -0.004948 0.000000 0.000000 0.000000
# 2 -0.007625 0.015481 -0.004435 0.000000 0.000000 0.000000
# 3 -0.004948 -0.004435 0.014663 0.000000 0.000000 0.000000
# 4 0.000000 0.000000 0.000000 0.035218 0.000000 0.000000
# 5 0.000000 0.000000 0.000000 0.000000 0.084144 0.000000
# 6 0.000000 0.000000 0.000000 0.000000 0.000000 0.096053
#
#
# Mechanical properties :
#
#
# Convention : Reuss Voigt Hill
#
# Bulk Modulus (GPa) = 66.37321 67.19289 66.78305
# Shear Modulus (GPa) = 16.47259 19.45044 17.96152
#
# Velocity S-wave (km/s) = 3.14181 3.41400 3.28073
# Velocity P-wave (km/s) = 7.27560 7.47026 7.37357
#
# Compressibility (1/GPa) = 0.01506632
#
# Stress axis : x y z
#
# Youngs Moduli (GPa) = 52.80534 64.59365 68.19835
#
# Poissons Ratio (x) = 0.49254 0.33744
# Poissons Ratio (y) = 0.40265 0.30244
# Poissons Ratio (z) = 0.26127 0.28645
#
# Static dielectric constant tensor:
#      x y z
#    x 3.126000 0.000000 0.000000 
#    y 0.000000 3.070000 0.000000 
#    z 0.000000 0.000000 3.397280 
# 
# 
# High freq. dielectric constant tensor:
#      x y z
#    x 1.617600 0.000000 0.000000 
#    y 0.000000 1.621350 0.000000 
#    z 0.000000 0.000000 1.660520 
# 
# From -- ./inp_files/9553.got.cif
#   From: 2010.03.12/outbox.cif.g09.slc.cpg/sg57_5_cif.got.tgz:9553.got - 2010.04.16 15:48:40.
