data_PCOD8230707
_publ_section_title
;
Structure prediction by ZEFSAII (Michael W. Deem and Ramdas Pophale) SiO2 
 PCOD8230707
Probable space group: P B C M
;
_chemical_formula_sum "Si O2"
_cell_formula_units_Z 64
_cell_length_a 12.725025
_cell_length_b 33.723886
_cell_length_c 9.267038
_cell_angle_alpha 90.000000
_cell_angle_beta 90.000000
_cell_angle_gamma 90.000000
_cell_volume 3976.831596
_symmetry_space_group_name_H-M "P B C M"
_symmetry_group_IT_number 57
_symmetry_cell_setting 'orthorhombic'
loop_
_space_group_symop_operation_xyz
x,y,z
-x,-y,1/2+z
x,1/2-y,-z
-x,1/2+y,1/2-z
-x,-y,-z
x,y,1/2-z
-x,1/2+y,z
x,1/2-y,1/2+z
loop_
_atom_site_type_symbol
_atom_site_label
_atom_site_fract_x
_atom_site_fract_y
_atom_site_fract_z
Si Si1 0.108391 0.995704 0.417869
Si Si2 0.801282 0.154090 0.917561
Si Si3 0.002352 0.791224 0.418738
Si Si4 0.615834 0.211004 0.917023
Si Si5 0.191252 0.344404 0.080820
Si Si6 0.377934 0.210692 0.918299
Si Si7 0.116543 0.416768 0.913678
Si Si8 0.128047 0.921005 0.920277
O O1 0.089793 0.984908 0.250000
O O2 0.171923 0.960512 0.498211
O O3 0.164322 0.038744 0.430931
O O4 0.000000 0.000000 0.500000
O O5 0.808577 0.141394 0.750000
O O6 0.893215 0.184590 0.956968
O O7 0.690323 0.174290 0.955371
O O8 0.807101 0.115896 0.018956
O O9 0.005894 0.750000 0.500000
O O10 0.993374 0.782197 0.250000
O O11 0.902768 0.816338 0.474648
O O12 0.624266 0.221867 0.750000
O O13 0.497028 0.199094 0.960742
O O14 0.654028 0.250000 0.000000
O O15 0.181435 0.350778 0.250000
O O16 0.302441 0.325309 0.035827
O O17 0.185053 0.387605 0.010627
O O18 0.366476 0.219845 0.750000
O O19 0.340809 0.250000 0.000000
O O20 0.126272 0.402210 0.750000
O O21 0.994319 0.415328 0.960168
O O22 0.146312 0.925625 0.750000
#
# Coordination Sequence:
#
# PCOD8230707 Si02
#       8
#     8   8   8   8   8   8   8   8
#     4   9  17  29  45  66  93 124 156 187 223 269
#     4  10  19  31  46  65  91 122 153 187 229 273
#     4  10  20  30  41  61  87 119 152 181 221 270
#     4   9  18  32  49  67  89 118 155 196 235 273
#     4  10  19  30  45  65  91 121 152 187 226 270
#     4   9  18  32  48  67  89 117 155 195 234 271
#     4   9  18  30  44  66  93 121 152 183 220 267
#     4  10  19  30  45  68  94 123 155 187 226 273
#
# _framework density 16.093212999999999
#
# number of rings (size 3 to 8) (size 9 to 14) (size 15 to 20)
#    0.000    2.500    1.250    2.250    0.000    4.500 
#    0.000    0.000    0.000    0.000    0.000    0.875 
#    0.000    0.000    0.000    0.000    0.000    0.000 
#
# Total GULP energy -793522.158447 kJ/mol
# GULP energy per Si atom -12398.783726 kJ/mol
# Density = 1.605658 g / cm^3
# Si number density = 16.093213 Si / 1000 Ang^3
#
#
#
# Elastic Constant Matrix: (Units=GPa)
#
#
# Indices 1 2 3 4 5 6 
#
# 1 67.0718 48.5219 32.2661 0.0000 0.0000 0.0000
# 2 48.5219 135.0767 64.6365 0.0000 0.0000 0.0000
# 3 32.2661 64.6365 69.6265 0.0000 0.0000 0.0000
# 4 0.0000 0.0000 0.0000 36.7264 0.0000 0.0000
# 5 0.0000 0.0000 0.0000 0.0000 13.9551 0.0000
# 6 0.0000 0.0000 0.0000 0.0000 0.0000 18.7166
#
#
#
# Elastic Compliance Matrix: (Units=1/GPa)
#
#
# Indices 1 2 3 4 5 6 
#
# 1 0.021041 -0.005204 -0.004920 0.000000 0.000000 0.000000
# 2 -0.005204 0.014608 -0.011149 0.000000 0.000000 0.000000
# 3 -0.004920 -0.011149 0.026992 0.000000 0.000000 0.000000
# 4 0.000000 0.000000 0.000000 0.027228 0.000000 0.000000
# 5 0.000000 0.000000 0.000000 0.000000 0.071659 0.000000
# 6 0.000000 0.000000 0.000000 0.000000 0.000000 0.053428
#
#
# Mechanical properties :
#
#
# Convention : Reuss Voigt Hill
#
# Bulk Modulus (GPa) = 49.76308 62.51379 56.13843
# Shear Modulus (GPa) = 18.92507 22.30299 20.61403
#
# Velocity S-wave (km/s) = 3.43296 3.72676 3.58287
# Velocity P-wave (km/s) = 6.83392 7.57941 7.21630
#
# Compressibility (1/GPa) = 0.02009522
#
# Stress axis : x y z
#
# Youngs Moduli (GPa) = 47.52653 68.45739 37.04786
#
# Poissons Ratio (x) = 0.35626 0.18226
# Poissons Ratio (y) = 0.24734 0.41305
# Poissons Ratio (z) = 0.23381 0.76323
#
# Static dielectric constant tensor:
#      x y z
#    x 2.926130 0.000000 0.000000 
#    y 0.000000 3.303130 0.000000 
#    z 0.000000 0.000000 3.077440 
# 
# 
# High freq. dielectric constant tensor:
#      x y z
#    x 1.583360 0.000000 0.000000 
#    y 0.000000 1.622320 0.000000 
#    z 0.000000 0.000000 1.623880 
# 
# From -- ./inp_files/5962.got.cif
#   From: 2010.03.12/outbox.cif.g09.slc.cpg/sg57_3_cif.got.tgz:5962.got - 2010.04.16 15:48:40.
