data_PCOD8230123
_publ_section_title
;
Structure prediction by ZEFSAII (Michael W. Deem and Ramdas Pophale) SiO2 
 PCOD8230123
Probable space group: P B C M
;
_chemical_formula_sum "Si O2"
_cell_formula_units_Z 64
_cell_length_a 13.795888
_cell_length_b 28.670945
_cell_length_c 9.476018
_cell_angle_alpha 90.000000
_cell_angle_beta 90.000000
_cell_angle_gamma 90.000000
_cell_volume 3748.155020
_symmetry_space_group_name_H-M "P B C M"
_symmetry_group_IT_number 57
_symmetry_cell_setting 'orthorhombic'
loop_
_space_group_symop_operation_xyz
x,y,z
-x,-y,1/2+z
x,1/2-y,-z
-x,1/2+y,1/2-z
-x,-y,-z
x,y,1/2-z
-x,1/2+y,z
x,1/2-y,1/2+z
loop_
_atom_site_type_symbol
_atom_site_label
_atom_site_fract_x
_atom_site_fract_y
_atom_site_fract_z
Si Si1 0.861417 0.118130 0.586798
Si Si2 0.715534 0.430820 0.913361
Si Si3 0.687853 0.598568 0.094507
Si Si4 0.500563 0.952808 0.913034
Si Si5 0.006197 0.796255 0.083797
Si Si6 0.832715 0.857228 0.092529
Si Si7 0.815813 0.507942 0.407881
Si Si8 0.966382 0.948317 0.092406
O O1 0.831853 0.122281 0.750000
O O2 0.766182 0.113345 0.489427
O O3 0.917502 0.164119 0.537848
O O4 0.924195 0.070318 0.561003
O O5 0.746402 0.433340 0.750000
O O6 0.600203 0.425348 0.929372
O O7 0.747788 0.477718 0.991682
O O8 0.669251 0.619313 0.250000
O O9 0.586025 0.580741 0.029327
O O10 0.765041 0.557379 0.102450
O O11 0.735535 0.639242 0.000781
O O12 0.521691 0.965882 0.750000
O O13 0.500000 0.000000 0.000000
O O14 0.012811 0.786811 0.250000
O O15 0.898687 0.813798 0.041307
O O16 0.033043 0.750000 0.000000
O O17 0.795887 0.848088 0.250000
O O18 0.898379 0.903109 0.088076
O O19 0.826245 0.486304 0.250000
O O20 0.924835 0.514906 0.474642
O O21 0.960041 0.970181 0.250000
#
# Coordination Sequence:
#
# PCOD8230123 Si02
#       8
#     8   8   8   8   8   8   8   8
#     4   9  19  35  50  66  94 127 157 193 236 283
#     4  11  22  32  45  65  91 125 165 206 242 279
#     4   9  17  29  45  66  92 122 159 200 241 281
#     4  10  20  33  47  66  92 124 166 211 249 283
#     4   9  18  33  54  79 103 126 151 184 230 287
#     4   8  15  28  46  70  97 122 150 185 229 281
#     4  10  18  28  44  64  88 122 161 201 241 279
#     4   8  15  29  46  62  86 121 158 194 231 274
#
# _framework density 17.075067000000001
#
# number of rings (size 3 to 8) (size 9 to 14) (size 15 to 20)
#    0.000    2.750    1.250    2.250    0.000    3.500 
#    0.000    2.500    0.000    0.000    0.000    0.875 
#    0.000    0.000    0.000    0.000    0.000    0.000 
#
# Total GULP energy -793438.790843 kJ/mol
# GULP energy per Si atom -12397.481107 kJ/mol
# Density = 1.703620 g / cm^3
# Si number density = 17.075067 Si / 1000 Ang^3
#
#
#
# Elastic Constant Matrix: (Units=GPa)
#
#
# Indices 1 2 3 4 5 6 
#
# 1 102.6075 23.3052 47.8485 0.0000 0.0000 0.0000
# 2 23.3052 60.3150 34.8219 0.0000 0.0000 0.0000
# 3 47.8485 34.8219 89.5848 0.0000 0.0000 0.0000
# 4 0.0000 0.0000 0.0000 25.7230 0.0000 0.0000
# 5 0.0000 0.0000 0.0000 0.0000 26.7195 0.0000
# 6 0.0000 0.0000 0.0000 0.0000 0.0000 18.1002
#
#
#
# Elastic Compliance Matrix: (Units=1/GPa)
#
#
# Indices 1 2 3 4 5 6 
#
# 1 0.013059 -0.001314 -0.006464 0.000000 0.000000 0.000000
# 2 -0.001314 0.021509 -0.007659 0.000000 0.000000 0.000000
# 3 -0.006464 -0.007659 0.017592 0.000000 0.000000 0.000000
# 4 0.000000 0.000000 0.000000 0.038876 0.000000 0.000000
# 5 0.000000 0.000000 0.000000 0.000000 0.037426 0.000000
# 6 0.000000 0.000000 0.000000 0.000000 0.000000 0.055248
#
#
# Mechanical properties :
#
#
# Convention : Reuss Voigt Hill
#
# Bulk Modulus (GPa) = 46.97871 51.60649 49.29260
# Shear Modulus (GPa) = 22.55520 23.87734 23.21627
#
# Velocity S-wave (km/s) = 3.63842 3.74354 3.69136
# Velocity P-wave (km/s) = 6.72485 6.99817 6.86287
#
# Compressibility (1/GPa) = 0.02128624
#
# Stress axis : x y z
#
# Youngs Moduli (GPa) = 76.57750 46.49223 56.84329
#
# Poissons Ratio (x) = 0.06108 0.36744
# Poissons Ratio (y) = 0.10061 0.43536
# Poissons Ratio (z) = 0.49501 0.35608
#
# Static dielectric constant tensor:
#      x y z
#    x 3.336750 0.000000 0.000000 
#    y 0.000000 2.871080 0.000000 
#    z 0.000000 0.000000 3.400100 
# 
# 
# High freq. dielectric constant tensor:
#      x y z
#    x 1.658970 0.000000 0.000000 
#    y 0.000000 1.617260 0.000000 
#    z 0.000000 0.000000 1.664450 
# 
# From -- ./inp_files/6079.got.cif
#   From: 2010.03.12/outbox.cif.g09.slc.cpg/sg57_4_cif.got.tgz:6079.got - 2010.04.16 15:48:40.
