data_PCOD8230868
_publ_section_title
;
Structure prediction by ZEFSAII (Michael W. Deem and Ramdas Pophale) SiO2 
 PCOD8230868
Probable space group: P B C M
;
_chemical_formula_sum "Si O2"
_cell_formula_units_Z 64
_cell_length_a 18.752515
_cell_length_b 19.288098
_cell_length_c 9.112930
_cell_angle_alpha 90.000000
_cell_angle_beta 90.000000
_cell_angle_gamma 90.000000
_cell_volume 3296.149944
_symmetry_space_group_name_H-M "P B C M"
_symmetry_group_IT_number 57
_symmetry_cell_setting 'orthorhombic'
loop_
_space_group_symop_operation_xyz
x,y,z
-x,-y,1/2+z
x,1/2-y,-z
-x,1/2+y,1/2-z
-x,-y,-z
x,y,1/2-z
-x,1/2+y,z
x,1/2-y,1/2+z
loop_
_atom_site_type_symbol
_atom_site_label
_atom_site_fract_x
_atom_site_fract_y
_atom_site_fract_z
Si Si1 0.222521 0.541804 0.409974
Si Si2 0.268357 0.108096 0.911299
Si Si3 0.354381 0.569923 0.581739
Si Si4 0.522176 0.325632 0.423119
Si Si5 0.847753 0.681194 0.076320
Si Si6 0.935425 0.037890 0.081335
Si Si7 0.596787 0.916857 0.575707
Si Si8 0.008276 0.814537 0.915894
O O1 0.209293 0.577590 0.250000
O O2 0.267397 0.473017 0.384003
O O3 0.277374 0.586516 0.507166
O O4 0.144444 0.524859 0.481973
O O5 0.271008 0.145341 0.750000
O O6 0.197296 0.120718 0.004293
O O7 0.336216 0.126757 0.011529
O O8 0.335649 0.559062 0.750000
O O9 0.400854 0.638792 0.553873
O O10 0.395850 0.498758 0.532750
O O11 0.519597 0.250000 0.500000
O O12 0.504421 0.317238 0.250000
O O13 0.470073 0.381498 0.497202
O O14 0.837403 0.683392 0.250000
O O15 0.928928 0.668136 0.026374
O O16 0.817460 0.750000 0.000000
O O17 0.941134 0.014214 0.250000
O O18 0.942486 0.119867 0.061584
O O19 0.000000 0.000000 0.000000
O O20 0.591372 0.905922 0.750000
O O21 0.001946 0.790379 0.750000
O O22 0.043041 0.750000 0.000000
#
# Coordination Sequence:
#
# PCOD8230868 Si02
#       8
#     8   8   8   8   8   8   8   8
#     4   9  19  34  54  79 108 139 175 218 266 317
#     4  10  19  32  50  75 105 137 171 212 259 313
#     4   9  20  38  60  83 109 141 181 222 264 316
#     4  11  23  39  58  84 114 144 179 222 268 318
#     4  10  19  31  47  68  95 133 175 216 261 315
#     4  10  20  34  53  81 111 141 177 222 272 322
#     4  10  20  36  58  83 109 141 177 218 266 318
#     4   9  19  34  51  71 100 136 177 220 265 317
#
# _framework density 19.416592000000001
#
# number of rings (size 3 to 8) (size 9 to 14) (size 15 to 20)
#    0.000    2.250    0.000    2.625    0.000    4.000 
#    0.000    3.125    0.000    3.000    0.000    0.000 
#    0.000    0.000    0.000    0.000    0.000    0.000 
#
# Total GULP energy -792951.537123 kJ/mol
# GULP energy per Si atom -12389.867768 kJ/mol
# Density = 1.937240 g / cm^3
# Si number density = 19.416592 Si / 1000 Ang^3
#
#
#
# Elastic Constant Matrix: (Units=GPa)
#
#
# Indices 1 2 3 4 5 6 
#
# 1 117.7784 30.7929 51.3752 0.0000 0.0000 0.0000
# 2 30.7929 59.8579 36.6463 0.0000 0.0000 0.0000
# 3 51.3752 36.6463 99.5966 0.0000 0.0000 0.0000
# 4 0.0000 0.0000 0.0000 26.6425 0.0000 0.0000
# 5 0.0000 0.0000 0.0000 0.0000 33.2109 0.0000
# 6 0.0000 0.0000 0.0000 0.0000 0.0000 16.9264
#
#
#
# Elastic Compliance Matrix: (Units=1/GPa)
#
#
# Indices 1 2 3 4 5 6 
#
# 1 0.011334 -0.002906 -0.004777 0.000000 0.000000 0.000000
# 2 -0.002906 0.022309 -0.006710 0.000000 0.000000 0.000000
# 3 -0.004777 -0.006710 0.014974 0.000000 0.000000 0.000000
# 4 0.000000 0.000000 0.000000 0.037534 0.000000 0.000000
# 5 0.000000 0.000000 0.000000 0.000000 0.030111 0.000000
# 6 0.000000 0.000000 0.000000 0.000000 0.000000 0.059079
#
#
# Mechanical properties :
#
#
# Convention : Reuss Voigt Hill
#
# Bulk Modulus (GPa) = 50.42591 57.20685 53.81638
# Shear Modulus (GPa) = 23.72636 25.91720 24.82178
#
# Velocity S-wave (km/s) = 3.49945 3.65745 3.57932
# Velocity P-wave (km/s) = 6.50808 6.88206 6.69768
#
# Compressibility (1/GPa) = 0.01983107
#
# Stress axis : x y z
#
# Youngs Moduli (GPa) = 88.22910 44.82532 66.78447
#
# Poissons Ratio (x) = 0.13026 0.31905
# Poissons Ratio (y) = 0.25638 0.44809
# Poissons Ratio (z) = 0.42150 0.30076
#
# Static dielectric constant tensor:
#      x y z
#    x 3.520580 0.000000 0.000000 
#    y 0.000000 3.406460 0.000000 
#    z 0.000000 0.000000 3.773940 
# 
# 
# High freq. dielectric constant tensor:
#      x y z
#    x 1.756660 0.000000 0.000000 
#    y 0.000000 1.733780 0.000000 
#    z 0.000000 0.000000 1.760540 
# 
# From -- ./inp_files/7246.got.cif
#   From: 2010.03.12/outbox.cif.g09.slc.cpg/sg57_4_cif.got.tgz:7246.got - 2010.04.16 15:48:40.
