data_PCOD8230939
_publ_section_title
;
Structure prediction by ZEFSAII (Michael W. Deem and Ramdas Pophale) SiO2 
 PCOD8230939
Probable space group: P B C M
;
_chemical_formula_sum "Si O2"
_cell_formula_units_Z 64
_cell_length_a 27.076636
_cell_length_b 13.666890
_cell_length_c 9.151770
_cell_angle_alpha 90.000000
_cell_angle_beta 90.000000
_cell_angle_gamma 90.000000
_cell_volume 3386.643657
_symmetry_space_group_name_H-M "P B C M"
_symmetry_group_IT_number 57
_symmetry_cell_setting 'orthorhombic'
loop_
_space_group_symop_operation_xyz
x,y,z
-x,-y,1/2+z
x,1/2-y,-z
-x,1/2+y,1/2-z
-x,-y,-z
x,y,1/2-z
-x,1/2+y,z
x,1/2-y,1/2+z
loop_
_atom_site_type_symbol
_atom_site_label
_atom_site_fract_x
_atom_site_fract_y
_atom_site_fract_z
Si Si1 0.390451 0.051034 0.418447
Si Si2 0.473225 0.347062 0.077808
Si Si3 0.117821 0.158541 0.912472
Si Si4 0.049562 0.973938 0.916385
Si Si5 0.290627 0.149711 0.419959
Si Si6 0.414817 0.658747 0.584950
Si Si7 0.194121 0.460662 0.582355
Si Si8 0.868257 0.352925 0.075940
O O1 0.402168 0.076974 0.250000
O O2 0.438502 0.067837 0.516760
O O3 0.343331 0.110665 0.477517
O O4 0.379560 0.935046 0.433668
O O5 0.466413 0.338708 0.250000
O O6 0.529670 0.366786 0.030293
O O7 0.453055 0.250000 0.000000
O O8 0.131558 0.192863 0.750000
O O9 0.077525 0.075319 0.910448
O O10 0.095518 0.250000 0.000000
O O11 0.167293 0.120982 0.987545
O O12 0.039788 0.936020 0.750000
O O13 0.080810 0.893262 0.006073
O O14 0.000000 0.000000 0.000000
O O15 0.275780 0.250000 0.500000
O O16 0.293455 0.174773 0.250000
O O17 0.251910 0.060608 0.447006
O O18 0.391320 0.750000 0.500000
O O19 0.418342 0.694071 0.750000
O O20 0.179768 0.442338 0.750000
O O21 0.176664 0.571045 0.540364
O O22 0.875244 0.338815 0.250000
O O23 0.854612 0.250000 0.000000
#
# Coordination Sequence:
#
# PCOD8230939 Si02
#       8
#     8   8   8   8   8   8   8   8
#     4  10  20  34  51  73 103 135 168 209 258 310
#     4  10  19  31  49  73 100 131 169 210 254 306
#     4  10  20  33  52  77 103 133 169 210 253 299
#     4  10  21  36  53  77 110 145 181 219 260 307
#     4  10  21  36  54  77 105 135 166 205 257 315
#     4   9  19  34  51  71  97 132 171 212 255 301
#     4   9  19  36  56  77 102 134 171 211 256 306
#     4  10  20  36  58  81 107 141 181 224 269 314
#
# _framework density 18.897767000000002
#
# number of rings (size 3 to 8) (size 9 to 14) (size 15 to 20)
#    0.000    2.250    0.000    2.625    0.000    6.500 
#    0.000    1.875    0.000    0.000    0.000    0.000 
#    0.000    0.000    0.000    0.000    0.000    0.000 
#
# Total GULP energy -793412.745458 kJ/mol
# GULP energy per Si atom -12397.074148 kJ/mol
# Density = 1.885476 g / cm^3
# Si number density = 18.897767 Si / 1000 Ang^3
#
#
#
# Elastic Constant Matrix: (Units=GPa)
#
#
# Indices 1 2 3 4 5 6 
#
# 1 65.0170 34.3905 30.1860 0.0000 0.0000 0.0000
# 2 34.3905 108.2715 48.5577 0.0000 0.0000 0.0000
# 3 30.1860 48.5577 93.5142 0.0000 0.0000 0.0000
# 4 0.0000 0.0000 0.0000 35.7304 0.0000 0.0000
# 5 0.0000 0.0000 0.0000 0.0000 20.7061 0.0000
# 6 0.0000 0.0000 0.0000 0.0000 0.0000 20.3530
#
#
#
# Elastic Compliance Matrix: (Units=1/GPa)
#
#
# Indices 1 2 3 4 5 6 
#
# 1 0.019587 -0.004414 -0.004031 0.000000 0.000000 0.000000
# 2 -0.004414 0.013034 -0.005343 0.000000 0.000000 0.000000
# 3 -0.004031 -0.005343 0.014769 0.000000 0.000000 0.000000
# 4 0.000000 0.000000 0.000000 0.027987 0.000000 0.000000
# 5 0.000000 0.000000 0.000000 0.000000 0.048295 0.000000
# 6 0.000000 0.000000 0.000000 0.000000 0.000000 0.049133
#
#
# Mechanical properties :
#
#
# Convention : Reuss Voigt Hill
#
# Bulk Modulus (GPa) = 50.46766 54.78567 52.62667
# Shear Modulus (GPa) = 24.15628 25.60248 24.87938
#
# Velocity S-wave (km/s) = 3.57916 3.68474 3.63233
# Velocity P-wave (km/s) = 6.62149 6.86706 6.74539
#
# Compressibility (1/GPa) = 0.01981467
#
# Stress axis : x y z
#
# Youngs Moduli (GPa) = 51.05557 76.72007 67.70819
#
# Poissons Ratio (x) = 0.33862 0.27291
# Poissons Ratio (y) = 0.22534 0.36180
# Poissons Ratio (z) = 0.20579 0.40995
#
# Static dielectric constant tensor:
#      x y z
#    x 3.382650 0.000000 0.000000 
#    y 0.000000 3.553950 0.000000 
#    z 0.000000 0.000000 3.615850 
# 
# 
# High freq. dielectric constant tensor:
#      x y z
#    x 1.714690 0.000000 0.000000 
#    y 0.000000 1.736930 0.000000 
#    z 0.000000 0.000000 1.740400 
# 
# From -- ./inp_files/10314.got.cif
#   From: 2010.03.12/outbox.cif.g09.slc.cpg/sg57_6_cif.got.tgz:10314.got - 2010.04.16 15:48:40.
