data_PCOD8230142
_publ_section_title
;
Structure prediction by ZEFSAII (Michael W. Deem and Ramdas Pophale) SiO2 
 PCOD8230142
Probable space group: P B C M
;
_chemical_formula_sum "Si O2"
_cell_formula_units_Z 48
_cell_length_a 11.847580
_cell_length_b 25.812965
_cell_length_c 8.938407
_cell_angle_alpha 90.000000
_cell_angle_beta 90.000000
_cell_angle_gamma 90.000000
_cell_volume 2733.554068
_symmetry_space_group_name_H-M "P B C M"
_symmetry_group_IT_number 57
_symmetry_cell_setting 'orthorhombic'
loop_
_space_group_symop_operation_xyz
x,y,z
-x,-y,1/2+z
x,1/2-y,-z
-x,1/2+y,1/2-z
-x,-y,-z
x,y,1/2-z
-x,1/2+y,z
x,1/2-y,1/2+z
loop_
_atom_site_type_symbol
_atom_site_label
_atom_site_fract_x
_atom_site_fract_y
_atom_site_fract_z
Si Si1 0.657705 0.607849 0.574534
Si Si2 0.994137 0.388610 0.075506
Si Si3 0.235109 0.928888 0.417020
Si Si4 0.838393 0.542489 0.081044
Si Si5 0.829418 0.695063 0.924060
Si Si6 0.536723 0.054132 0.426165
O O1 0.633639 0.603756 0.750000
O O2 0.737760 0.560777 0.526511
O O3 0.718171 0.661934 0.531804
O O4 0.540594 0.601300 0.485661
O O5 0.019910 0.399486 0.250000
O O6 0.858745 0.384439 0.046338
O O7 0.057273 0.335685 0.025891
O O8 0.043202 0.436122 0.979310
O O9 0.285993 0.921073 0.250000
O O10 0.335544 0.929638 0.535719
O O11 0.160601 0.980763 0.422796
O O12 0.817524 0.562729 0.250000
O O13 0.831857 0.705426 0.750000
O O14 0.823819 0.750000 0.000000
O O15 0.522817 0.048019 0.250000
O O16 0.500000 0.000000 0.500000
#
# Coordination Sequence:
#
# PCOD8230142 Si02
#       6
#     8   8   8   8   8   8
#     4  10  20  35  53  75 105 139 176 218 262 309
#     4   9  19  34  50  72 104 138 172 212 260 311
#     4  10  20  33  49  71 104 143 179 211 252 306
#     4  10  18  28  47  74 103 137 174 211 252 301
#     4   9  19  35  57  81 103 131 167 215 271 315
#     4  12  23  34  51  75 106 144 182 217 256 308
#
# _framework density 17.559557999999999
#
# number of rings (size 3 to 8) (size 9 to 14) (size 15 to 20)
#    0.000    2.000    1.667    4.000    0.000    4.667 
#    0.000    0.000    0.000    1.000    0.000    2.333 
#    0.000    0.000    0.000    0.000    0.000    0.000 
#
# Total GULP energy -595055.101987 kJ/mol
# GULP energy per Si atom -12396.981291 kJ/mol
# Density = 1.751959 g / cm^3
# Si number density = 17.559558 Si / 1000 Ang^3
#
#
#
# Elastic Constant Matrix: (Units=GPa)
#
#
# Indices 1 2 3 4 5 6 
#
# 1 120.1641 50.3660 55.3216 0.0000 0.0000 0.0000
# 2 50.3660 83.6883 43.2540 0.0000 0.0000 0.0000
# 3 55.3216 43.2540 94.2952 0.0000 0.0000 0.0000
# 4 0.0000 0.0000 0.0000 25.8365 0.0000 0.0000
# 5 0.0000 0.0000 0.0000 0.0000 29.5594 0.0000
# 6 0.0000 0.0000 0.0000 0.0000 0.0000 15.8176
#
#
#
# Elastic Compliance Matrix: (Units=1/GPa)
#
#
# Indices 1 2 3 4 5 6 
#
# 1 0.012833 -0.005023 -0.005225 0.000000 0.000000 0.000000
# 2 -0.005023 0.017628 -0.005140 0.000000 0.000000 0.000000
# 3 -0.005225 -0.005140 0.016028 0.000000 0.000000 0.000000
# 4 0.000000 0.000000 0.000000 0.038705 0.000000 0.000000
# 5 0.000000 0.000000 0.000000 0.000000 0.033830 0.000000
# 6 0.000000 0.000000 0.000000 0.000000 0.000000 0.063221
#
#
# Mechanical properties :
#
#
# Convention : Reuss Voigt Hill
#
# Bulk Modulus (GPa) = 63.63423 66.22565 64.92994
# Shear Modulus (GPa) = 22.90884 24.18977 23.54931
#
# Velocity S-wave (km/s) = 3.61589 3.71561 3.66609
# Velocity P-wave (km/s) = 7.33149 7.49696 7.41468
#
# Compressibility (1/GPa) = 0.01571481
#
# Stress axis : x y z
#
# Youngs Moduli (GPa) = 77.92696 56.72742 62.39153
#
# Poissons Ratio (x) = 0.28492 0.32598
# Poissons Ratio (y) = 0.39139 0.32066
# Poissons Ratio (z) = 0.40715 0.29155
#
# Static dielectric constant tensor:
#      x y z
#    x 3.382320 0.000000 0.000000 
#    y 0.000000 3.072930 0.000000 
#    z 0.000000 0.000000 3.344380 
# 
# 
# High freq. dielectric constant tensor:
#      x y z
#    x 1.681690 0.000000 0.000000 
#    y 0.000000 1.639250 0.000000 
#    z 0.000000 0.000000 1.685520 
# 
# From -- ./inp_files/3162.got.cif
#   From: 2010.03.12/outbox.cif.g09.slc.cpg/sg57_2_cif.got.tgz:3162.got - 2010.04.16 15:48:40.
