data_PCOD8230999
_publ_section_title
;
Structure prediction by ZEFSAII (Michael W. Deem and Ramdas Pophale) SiO2 
 PCOD8230999
Probable space group: P B C M
;
_chemical_formula_sum "Si O2"
_cell_formula_units_Z 56
_cell_length_a 17.830462
_cell_length_b 19.049676
_cell_length_c 9.169668
_cell_angle_alpha 90.000000
_cell_angle_beta 90.000000
_cell_angle_gamma 90.000000
_cell_volume 3114.610917
_symmetry_space_group_name_H-M "P B C M"
_symmetry_group_IT_number 57
_symmetry_cell_setting 'orthorhombic'
loop_
_space_group_symop_operation_xyz
x,y,z
-x,-y,1/2+z
x,1/2-y,-z
-x,1/2+y,1/2-z
-x,-y,-z
x,y,1/2-z
-x,1/2+y,z
x,1/2-y,1/2+z
loop_
_atom_site_type_symbol
_atom_site_label
_atom_site_fract_x
_atom_site_fract_y
_atom_site_fract_z
Si Si1 0.037392 0.434783 0.579179
Si Si2 0.359937 0.675010 0.578507
Si Si3 0.477251 0.321051 0.083477
Si Si4 0.808537 0.565177 0.579256
Si Si5 0.912934 0.177450 0.418510
Si Si6 0.766956 0.093194 0.420198
Si Si7 0.314823 0.176003 0.579307
O O1 0.042977 0.452041 0.750000
O O2 0.118244 0.418264 0.513943
O O3 0.000000 0.500000 0.500000
O O4 0.987372 0.366597 0.549610
O O5 0.350090 0.750000 0.500000
O O6 0.344432 0.685819 0.750000
O O7 0.443322 0.640495 0.550085
O O8 0.302831 0.619235 0.513626
O O9 0.475785 0.299134 0.250000
O O10 0.397760 0.358529 0.044600
O O11 0.479484 0.250000 0.000000
O O12 0.827850 0.572572 0.750000
O O13 0.778066 0.488185 0.544338
O O14 0.746162 0.620234 0.525590
O O15 0.919280 0.250000 0.500000
O O16 0.904016 0.194691 0.250000
O O17 0.840873 0.134159 0.473072
O O18 0.750757 0.105568 0.250000
O O19 0.302657 0.250000 0.500000
O O20 0.305365 0.190276 0.750000
#
# Coordination Sequence:
#
# PCOD8230999 Si02
#       7
#     8   8   8   8   8   8   8
#     4  11  22  39  60  81 107 141 180 220 265 319
#     4  10  19  31  50  77 107 139 181 225 268 316
#     4   8  15  29  49  74 103 138 178 220 266 318
#     4  10  21  38  58  80 108 143 180 218 267 324
#     4  10  22  38  56  80 108 138 177 220 262 313
#     4  10  20  36  53  74 108 143 180 219 263 319
#     4   9  18  34  57  80 107 142 179 224 274 319
#
# _framework density 17.979773999999999
#
# number of rings (size 3 to 8) (size 9 to 14) (size 15 to 20)
#    0.000    2.286    1.429    1.286    0.000    5.143 
#    0.000    3.571    0.000    0.000    0.000    0.000 
#    0.000    0.000    0.000    0.000    0.000    0.000 
#
# Total GULP energy -694042.102435 kJ/mol
# GULP energy per Si atom -12393.608972 kJ/mol
# Density = 1.793885 g / cm^3
# Si number density = 17.979774 Si / 1000 Ang^3
#
#
#
# Elastic Constant Matrix: (Units=GPa)
#
#
# Indices 1 2 3 4 5 6 
#
# 1 189.5516 81.0164 72.8084 0.0000 0.0000 0.0000
# 2 81.0164 112.9115 52.0991 0.0000 0.0000 0.0000
# 3 72.8084 52.0991 67.3627 0.0000 0.0000 0.0000
# 4 0.0000 0.0000 0.0000 27.4496 0.0000 0.0000
# 5 0.0000 0.0000 0.0000 0.0000 32.5792 0.0000
# 6 0.0000 0.0000 0.0000 0.0000 0.0000 19.6491
#
#
#
# Elastic Compliance Matrix: (Units=1/GPa)
#
#
# Indices 1 2 3 4 5 6 
#
# 1 0.009761 -0.003321 -0.007981 0.000000 0.000000 0.000000
# 2 -0.003321 0.014901 -0.007935 0.000000 0.000000 0.000000
# 3 -0.007981 -0.007935 0.029609 0.000000 0.000000 0.000000
# 4 0.000000 0.000000 0.000000 0.036430 0.000000 0.000000
# 5 0.000000 0.000000 0.000000 0.000000 0.030694 0.000000
# 6 0.000000 0.000000 0.000000 0.000000 0.000000 0.050893
#
#
# Mechanical properties :
#
#
# Convention : Reuss Voigt Hill
#
# Bulk Modulus (GPa) = 63.30927 86.85263 75.08095
# Shear Modulus (GPa) = 23.14520 26.86236 25.00378
#
# Velocity S-wave (km/s) = 3.59178 3.86946 3.73320
# Velocity P-wave (km/s) = 7.24493 8.26887 7.77378
#
# Compressibility (1/GPa) = 0.01579548
#
# Stress axis : x y z
#
# Youngs Moduli (GPa) = 102.45206 67.11155 33.77376
#
# Poissons Ratio (x) = 0.22286 0.26956
# Poissons Ratio (y) = 0.34021 0.26800
# Poissons Ratio (z) = 0.81772 0.53254
#
# Static dielectric constant tensor:
#      x y z
#    x 4.130490 0.000000 0.000000 
#    y 0.000000 3.069170 0.000000 
#    z 0.000000 0.000000 3.414770 
# 
# 
# High freq. dielectric constant tensor:
#      x y z
#    x 1.719570 0.000000 0.000000 
#    y 0.000000 1.673180 0.000000 
#    z 0.000000 0.000000 1.698340 
# 
# From -- ./inp_files/5176.got.cif
#   From: 2010.03.12/outbox.cif.g09.slc.cpg/sg57_3_cif.got.tgz:5176.got - 2010.04.16 15:48:40.
