data_PCOD8230955
_publ_section_title
;
Structure prediction by ZEFSAII (Michael W. Deem and Ramdas Pophale) SiO2 
 PCOD8230955
Probable space group: P B C M
;
_chemical_formula_sum "Si O2"
_cell_formula_units_Z 64
_cell_length_a 11.678827
_cell_length_b 33.662320
_cell_length_c 8.836241
_cell_angle_alpha 90.000000
_cell_angle_beta 90.000000
_cell_angle_gamma 90.000000
_cell_volume 3473.848080
_symmetry_space_group_name_H-M "P B C M"
_symmetry_group_IT_number 57
_symmetry_cell_setting 'orthorhombic'
loop_
_space_group_symop_operation_xyz
x,y,z
-x,-y,1/2+z
x,1/2-y,-z
-x,1/2+y,1/2-z
-x,-y,-z
x,y,1/2-z
-x,1/2+y,z
x,1/2-y,1/2+z
loop_
_atom_site_type_symbol
_atom_site_label
_atom_site_fract_x
_atom_site_fract_y
_atom_site_fract_z
Si Si1 0.454696 0.086075 0.916963
Si Si2 0.113232 0.517906 0.071893
Si Si3 0.121100 0.124132 0.425837
Si Si4 0.684366 0.667065 0.580408
Si Si5 0.891246 0.397835 0.074375
Si Si6 0.518833 0.208807 0.428972
Si Si7 0.264120 0.455338 0.923394
Si Si8 0.652103 0.139176 0.574631
O O1 0.458061 0.066534 0.750000
O O2 0.382157 0.126046 0.912583
O O3 0.582116 0.098828 0.970883
O O4 0.394861 0.055210 0.031116
O O5 0.097963 0.517053 0.250000
O O6 0.131802 0.562623 0.019588
O O7 0.222802 0.492084 0.023991
O O8 0.000000 0.500000 0.000000
O O9 0.098323 0.131676 0.250000
O O10 0.197621 0.160126 0.490113
O O11 0.180801 0.081722 0.453135
O O12 0.002573 0.124982 0.515721
O O13 0.710804 0.682553 0.750000
O O14 0.607356 0.699052 0.492867
O O15 0.905844 0.408980 0.250000
O O16 0.785650 0.368113 0.047862
O O17 0.561408 0.250000 0.500000
O O18 0.511527 0.212182 0.250000
O O19 0.612635 0.175817 0.472442
O O20 0.262926 0.468549 0.750000
O O21 0.624052 0.149067 0.750000
#
# Coordination Sequence:
#
# PCOD8230955 Si02
#       8
#     8   8   8   8   8   8   8   8
#     4   8  15  30  51  73 100 134 173 219 267 316
#     4  12  23  35  51  73 103 138 183 235 283 332
#     4  10  19  31  50  77 108 140 178 221 266 322
#     4   9  17  31  52  79 110 139 173 216 262 313
#     4  11  22  36  55  77 107 146 185 228 277 328
#     4  11  21  35  59  88 116 144 176 217 264 315
#     4  10  19  31  49  74 102 133 175 226 278 328
#     4   9  20  38  57  80 110 144 184 224 267 325
#
# _framework density 18.423373999999999
#
# number of rings (size 3 to 8) (size 9 to 14) (size 15 to 20)
#    0.000    2.000    1.250    4.500    0.000    5.000 
#    0.000    0.625    0.000    0.750    0.000    1.750 
#    0.000    0.000    0.000    0.000    0.000    0.000 
#
# Total GULP energy -793665.286109 kJ/mol
# GULP energy per Si atom -12401.020095 kJ/mol
# Density = 1.838144 g / cm^3
# Si number density = 18.423374 Si / 1000 Ang^3
#
#
#
# Elastic Constant Matrix: (Units=GPa)
#
#
# Indices 1 2 3 4 5 6 
#
# 1 91.4424 24.3505 41.7962 0.0000 0.0000 0.0000
# 2 24.3505 58.6500 41.2178 0.0000 0.0000 0.0000
# 3 41.7962 41.2178 138.7364 0.0000 0.0000 0.0000
# 4 0.0000 0.0000 0.0000 27.5858 0.0000 0.0000
# 5 0.0000 0.0000 0.0000 0.0000 27.2604 0.0000
# 6 0.0000 0.0000 0.0000 0.0000 0.0000 16.9472
#
#
#
# Elastic Compliance Matrix: (Units=1/GPa)
#
#
# Indices 1 2 3 4 5 6 
#
# 1 0.013196 -0.003393 -0.002967 0.000000 0.000000 0.000000
# 2 -0.003393 0.022422 -0.005639 0.000000 0.000000 0.000000
# 3 -0.002967 -0.005639 0.009777 0.000000 0.000000 0.000000
# 4 0.000000 0.000000 0.000000 0.036250 0.000000 0.000000
# 5 0.000000 0.000000 0.000000 0.000000 0.036683 0.000000
# 6 0.000000 0.000000 0.000000 0.000000 0.000000 0.059007
#
#
# Mechanical properties :
#
#
# Convention : Reuss Voigt Hill
#
# Bulk Modulus (GPa) = 46.73862 55.95086 51.34474
# Shear Modulus (GPa) = 23.98460 26.45632 25.22046
#
# Velocity S-wave (km/s) = 3.61204 3.79360 3.70393
# Velocity P-wave (km/s) = 6.54370 7.04442 6.79868
#
# Compressibility (1/GPa) = 0.02139558
#
# Stress axis : x y z
#
# Youngs Moduli (GPa) = 75.78204 44.59853 102.27855
#
# Poissons Ratio (x) = 0.15134 0.30349
# Poissons Ratio (y) = 0.25715 0.57677
# Poissons Ratio (z) = 0.22486 0.25150
#
# Static dielectric constant tensor:
#      x y z
#    x 3.501720 0.000000 0.000000 
#    y 0.000000 3.148340 0.000000 
#    z 0.000000 0.000000 3.526530 
# 
# 
# High freq. dielectric constant tensor:
#      x y z
#    x 1.710160 0.000000 0.000000 
#    y 0.000000 1.680600 0.000000 
#    z 0.000000 0.000000 1.727140 
# 
# From -- ./inp_files/3860.got.cif
#   From: 2010.03.12/outbox.cif.g09.slc.cpg/sg57_2_cif.got.tgz:3860.got - 2010.04.16 15:48:40.
