data_PCOD8230577
_publ_section_title
;
Structure prediction by ZEFSAII (Michael W. Deem and Ramdas Pophale) SiO2 
 PCOD8230577
Probable space group: P B C M
;
_chemical_formula_sum "Si O2"
_cell_formula_units_Z 64
_cell_length_a 21.281927
_cell_length_b 8.537244
_cell_length_c 17.016494
_cell_angle_alpha 90.000000
_cell_angle_beta 90.000000
_cell_angle_gamma 90.000000
_cell_volume 3091.709839
_symmetry_space_group_name_H-M "P B C M"
_symmetry_group_IT_number 57
_symmetry_cell_setting 'orthorhombic'
loop_
_space_group_symop_operation_xyz
x,y,z
-x,-y,1/2+z
x,1/2-y,-z
-x,1/2+y,1/2-z
-x,-y,-z
x,y,1/2-z
-x,1/2+y,z
x,1/2-y,1/2+z
loop_
_atom_site_type_symbol
_atom_site_label
_atom_site_fract_x
_atom_site_fract_y
_atom_site_fract_z
Si Si1 0.086793 0.058549 0.891472
Si Si2 0.984198 0.245474 0.160595
Si Si3 0.229575 0.403341 0.105542
Si Si4 0.894356 0.093296 0.952926
Si Si5 0.568627 0.933215 0.013691
Si Si6 0.229130 0.053350 0.079669
Si Si7 0.642458 0.046233 0.160413
Si Si8 0.659959 0.348972 0.076088
O O1 0.160047 0.042184 0.865557
O O2 0.057504 0.228087 0.866257
O O3 0.043719 0.926658 0.850323
O O4 0.082653 0.039316 0.985685
O O5 0.976690 0.296094 0.250000
O O6 0.949110 0.373592 0.107770
O O7 0.235099 0.218870 0.123196
O O8 0.284577 0.495026 0.150551
O O9 0.238650 0.432165 0.013614
O O10 0.837165 0.026628 0.901991
O O11 0.873789 0.250000 0.000000
O O12 0.595328 0.956363 0.101779
O O13 0.569989 0.750000 0.000000
O O14 0.500000 0.000000 0.000000
O O15 0.609326 0.021690 0.948355
O O16 0.281601 0.938798 0.114293
O O17 0.621614 0.013766 0.250000
O O18 0.634453 0.231101 0.142402
O O19 0.681393 0.250000 0.000000
#
# Coordination Sequence:
#
# PCOD8230577 Si02
#       8
#     8   8   8   8   8   8   8   8
#     4  10  23  40  59  82 115 158 207 266 325 393
#     4  11  23  39  57  78 110 153 200 256 328 396
#     4  10  21  38  62  91 124 163 214 274 331 394
#     4   9  20  36  59  85 113 147 202 263 317 380
#     4  11  22  43  74 104 134 185 233 267 313 383
#     4  10  18  35  64  92 115 159 218 265 312 384
#     4  11  24  41  64 101 144 178 215 280 339 384
#     4  10  19  35  65  94 133 170 216 260 310 387
#
# _framework density 20.700519
#
# number of rings (size 3 to 8) (size 9 to 14) (size 15 to 20)
#    0.000    1.750    2.500    3.000    5.250    1.000 
#    4.500    5.625    0.000    0.000    0.000    0.000 
#    0.000    0.000    0.000    0.000    0.000    0.000 
#
# Total GULP energy -793402.256885 kJ/mol
# GULP energy per Si atom -12396.910264 kJ/mol
# Density = 2.065340 g / cm^3
# Si number density = 20.700519 Si / 1000 Ang^3
#
#
#
# Elastic Constant Matrix: (Units=GPa)
#
#
# Indices 1 2 3 4 5 6 
#
# 1 131.8490 57.0463 45.7917 0.0000 0.0000 0.0000
# 2 57.0463 127.3367 33.3387 0.0000 0.0000 0.0000
# 3 45.7917 33.3387 90.5516 0.0000 0.0000 0.0000
# 4 0.0000 0.0000 0.0000 16.1734 0.0000 0.0000
# 5 0.0000 0.0000 0.0000 0.0000 12.4842 0.0000
# 6 0.0000 0.0000 0.0000 0.0000 0.0000 44.6366
#
#
#
# Elastic Compliance Matrix: (Units=1/GPa)
#
#
# Indices 1 2 3 4 5 6 
#
# 1 0.010565 -0.003690 -0.003984 0.000000 0.000000 0.000000
# 2 -0.003690 0.009980 -0.001808 0.000000 0.000000 0.000000
# 3 -0.003984 -0.001808 0.013724 0.000000 0.000000 0.000000
# 4 0.000000 0.000000 0.000000 0.061830 0.000000 0.000000
# 5 0.000000 0.000000 0.000000 0.000000 0.080101 0.000000
# 6 0.000000 0.000000 0.000000 0.000000 0.000000 0.022403
#
#
# Mechanical properties :
#
#
# Convention : Reuss Voigt Hill
#
# Bulk Modulus (GPa) = 65.34289 69.12120 67.23205
# Shear Modulus (GPa) = 22.45499 28.89622 25.67561
#
# Velocity S-wave (km/s) = 3.29713 3.74025 3.52566
# Velocity P-wave (km/s) = 6.79184 7.21915 7.00876
#
# Compressibility (1/GPa) = 0.01530388
#
# Stress axis : x y z
#
# Youngs Moduli (GPa) = 94.65647 100.20380 72.86571
#
# Poissons Ratio (x) = 0.36973 0.29029
# Poissons Ratio (y) = 0.34926 0.13177
# Poissons Ratio (z) = 0.37711 0.18120
#
# Static dielectric constant tensor:
#      x y z
#    x 3.885080 0.000000 0.000000 
#    y 0.000000 3.958750 0.000000 
#    z 0.000000 0.000000 3.490670 
# 
# 
# High freq. dielectric constant tensor:
#      x y z
#    x 1.810980 0.000000 0.000000 
#    y 0.000000 1.823700 0.000000 
#    z 0.000000 0.000000 1.770510 
# 
# From -- ./inp_files/23020.got.cif
#   From: 2010.03.12/outbox.cif.g09.slc.cpg/sg57_12_cif.got.tgz:23020.got - 2010.04.16 15:48:40.
