data_PCOD8230139
_publ_section_title
;
Structure prediction by ZEFSAII (Michael W. Deem and Ramdas Pophale) SiO2 
 PCOD8230139
Probable space group: P B C M
;
_chemical_formula_sum "Si O2"
_cell_formula_units_Z 56
_cell_length_a 14.047924
_cell_length_b 20.814558
_cell_length_c 9.403151
_cell_angle_alpha 90.000000
_cell_angle_beta 90.000000
_cell_angle_gamma 90.000000
_cell_volume 2749.493848
_symmetry_space_group_name_H-M "P B C M"
_symmetry_group_IT_number 57
_symmetry_cell_setting 'orthorhombic'
loop_
_space_group_symop_operation_xyz
x,y,z
-x,-y,1/2+z
x,1/2-y,-z
-x,1/2+y,1/2-z
-x,-y,-z
x,y,1/2-z
-x,1/2+y,z
x,1/2-y,1/2+z
loop_
_atom_site_type_symbol
_atom_site_label
_atom_site_fract_x
_atom_site_fract_y
_atom_site_fract_z
Si Si1 0.276293 0.128580 0.413426
Si Si2 0.449585 0.185213 0.584025
Si Si3 0.354145 0.627254 0.588113
Si Si4 0.216534 0.802350 0.595370
Si Si5 0.927487 0.084188 0.093548
Si Si6 0.074633 0.186689 0.413811
Si Si7 0.782408 0.012583 0.584283
O O1 0.312679 0.127258 0.250000
O O2 0.355384 0.154961 0.518319
O O3 0.186534 0.175498 0.428293
O O4 0.248228 0.057724 0.466043
O O5 0.476798 0.250000 0.500000
O O6 0.432016 0.201850 0.750000
O O7 0.531860 0.130782 0.568067
O O8 0.325923 0.642694 0.750000
O O9 0.313789 0.682922 0.487914
O O10 0.306986 0.558813 0.545385
O O11 0.159933 0.750000 0.500000
O O12 0.241569 0.773855 0.750000
O O13 0.156266 0.865414 0.611061
O O14 0.951356 0.054863 0.250000
O O15 0.018911 0.122599 0.030529
O O16 0.884150 0.029689 0.990240
O O17 0.044946 0.250000 0.500000
O O18 0.043705 0.197710 0.250000
O O19 0.805945 0.013728 0.750000
#
# Coordination Sequence:
#
# PCOD8230139 Si02
#       7
#     8   8   8   8   8   8   8
#     4  10  22  39  58  80 110 147 185 228 272 318
#     4  11  23  38  57  81 108 141 182 227 275 325
#     4   9  19  35  54  77 107 141 177 219 268 325
#     4  10  18  28  46  73 104 138 174 215 265 318
#     4   9  19  34  52  77 109 141 176 221 268 319
#     4  10  21  37  56  80 110 144 183 226 273 322
#     4   9  19  37  58  82 112 145 181 220 269 327
#
# _framework density 20.367386
#
# number of rings (size 3 to 8) (size 9 to 14) (size 15 to 20)
#    0.000    2.286    0.000    2.143    0.000    6.857 
#    0.000    0.000    0.000    0.000    0.000    0.000 
#    0.000    0.000    0.000    0.000    0.000    0.000 
#
# Total GULP energy -694088.683339 kJ/mol
# GULP energy per Si atom -12394.440774 kJ/mol
# Density = 2.032103 g / cm^3
# Si number density = 20.367386 Si / 1000 Ang^3
#
#
#
# Elastic Constant Matrix: (Units=GPa)
#
#
# Indices 1 2 3 4 5 6 
#
# 1 71.0593 -2.3697 21.5271 0.0000 0.0000 0.0000
# 2 -2.3697 63.7751 23.0090 0.0000 0.0000 0.0000
# 3 21.5271 23.0090 90.6093 0.0000 0.0000 0.0000
# 4 0.0000 0.0000 0.0000 28.3626 0.0000 0.0000
# 5 0.0000 0.0000 0.0000 0.0000 30.6995 0.0000
# 6 0.0000 0.0000 0.0000 0.0000 0.0000 20.1685
#
#
#
# Elastic Compliance Matrix: (Units=1/GPa)
#
#
# Indices 1 2 3 4 5 6 
#
# 1 0.015412 0.002085 -0.004191 0.000000 0.000000 0.000000
# 2 0.002085 0.017544 -0.004950 0.000000 0.000000 0.000000
# 3 -0.004191 -0.004950 0.013289 0.000000 0.000000 0.000000
# 4 0.000000 0.000000 0.000000 0.035258 0.000000 0.000000
# 5 0.000000 0.000000 0.000000 0.000000 0.032574 0.000000
# 6 0.000000 0.000000 0.000000 0.000000 0.000000 0.049582
#
#
# Mechanical properties :
#
#
# Convention : Reuss Voigt Hill
#
# Bulk Modulus (GPa) = 31.12205 34.41963 32.77084
# Shear Modulus (GPa) = 26.52774 28.06460 27.29617
#
# Velocity S-wave (km/s) = 3.61288 3.71606 3.66483
# Velocity P-wave (km/s) = 5.71991 5.94544 5.83376
#
# Compressibility (1/GPa) = 0.03213156
#
# Stress axis : x y z
#
# Youngs Moduli (GPa) = 64.88488 57.00107 75.24946
#
# Poissons Ratio (x) = -0.11883 0.31537
# Poissons Ratio (y) = -0.13526 0.37250
# Poissons Ratio (z) = 0.27193 0.28217
#
# Static dielectric constant tensor:
#      x y z
#    x 3.646440 0.000000 0.000000 
#    y 0.000000 3.713700 0.000000 
#    z 0.000000 0.000000 3.955460 
# 
# 
# High freq. dielectric constant tensor:
#      x y z
#    x 1.795370 0.000000 0.000000 
#    y 0.000000 1.790730 0.000000 
#    z 0.000000 0.000000 1.793270 
# 
# From -- ./inp_files/5147.got.cif
#   From: 2010.03.12/outbox.cif.g09.slc.cpg/sg57_3_cif.got.tgz:5147.got - 2010.04.16 15:48:40.
