data_PCOD8230551
_publ_section_title
;
Structure prediction by ZEFSAII (Michael W. Deem and Ramdas Pophale) SiO2 
 PCOD8230551
Probable space group: P B C M
;
_chemical_formula_sum "Si O2"
_cell_formula_units_Z 64
_cell_length_a 15.278203
_cell_length_b 23.551128
_cell_length_c 8.700500
_cell_angle_alpha 90.000000
_cell_angle_beta 90.000000
_cell_angle_gamma 90.000000
_cell_volume 3130.604465
_symmetry_space_group_name_H-M "P B C M"
_symmetry_group_IT_number 57
_symmetry_cell_setting 'orthorhombic'
loop_
_space_group_symop_operation_xyz
x,y,z
-x,-y,1/2+z
x,1/2-y,-z
-x,1/2+y,1/2-z
-x,-y,-z
x,y,1/2-z
-x,1/2+y,z
x,1/2-y,1/2+z
loop_
_atom_site_type_symbol
_atom_site_label
_atom_site_fract_x
_atom_site_fract_y
_atom_site_fract_z
Si Si1 0.595976 0.872725 0.429133
Si Si2 0.848495 0.006672 0.431690
Si Si3 0.095635 0.384611 0.431988
Si Si4 0.248199 0.310880 0.931408
Si Si5 0.402154 0.891721 0.428469
Si Si6 0.914898 0.126871 0.432440
Si Si7 0.346451 0.003929 0.568300
Si Si8 0.247351 0.810698 0.067411
O O1 0.620669 0.866266 0.250000
O O2 0.652684 0.827940 0.525613
O O3 0.493772 0.859402 0.459250
O O4 0.615262 0.936318 0.488916
O O5 0.841653 0.009750 0.250000
O O6 0.902614 0.950972 0.481238
O O7 0.894806 0.063373 0.494784
O O8 0.750945 0.003444 0.501087
O O9 0.091928 0.376757 0.250000
O O10 0.183233 0.356387 0.494779
O O11 0.011006 0.355734 0.508842
O O12 0.236085 0.309342 0.750000
O O13 0.224929 0.250000 0.000000
O O14 0.389534 0.903781 0.250000
O O15 0.406236 0.952595 0.509995
O O16 0.322311 0.853794 0.492115
O O17 0.910529 0.131308 0.250000
O O18 0.846413 0.170579 0.503686
O O19 0.345319 0.002346 0.750000
O O20 0.244354 0.807632 0.250000
O O21 0.272167 0.750000 0.000000
#
# Coordination Sequence:
#
# PCOD8230551 Si02
#       8
#     8   8   8   8   8   8   8   8
#     4  10  21  40  63  90 127 164 200 249 303 358
#     4   9  18  34  60  91 124 162 197 240 298 355
#     4  11  22  41  65  92 126 161 198 244 301 358
#     4  12  26  44  65  90 119 158 206 254 303 359
#     4  10  22  38  60  92 126 159 201 252 304 358
#     4  11  22  39  62  92 125 159 201 245 297 359
#     4  10  18  34  61  90 124 165 201 241 300 360
#     4  11  24  42  61  85 116 157 205 254 305 355
#
# _framework density 20.443337
#
# number of rings (size 3 to 8) (size 9 to 14) (size 15 to 20)
#    0.000    1.500    2.500    3.000    0.000    2.500 
#    0.000    5.625    0.000    0.000    0.000    0.000 
#    0.000    0.000    0.000    0.000    0.000    0.000 
#
# Total GULP energy -793850.343030 kJ/mol
# GULP energy per Si atom -12403.911610 kJ/mol
# Density = 2.039681 g / cm^3
# Si number density = 20.443337 Si / 1000 Ang^3
#
#
#
# Elastic Constant Matrix: (Units=GPa)
#
#
# Indices 1 2 3 4 5 6 
#
# 1 97.4261 8.9954 19.2448 0.0000 0.0000 0.0000
# 2 8.9954 80.5299 28.1620 0.0000 0.0000 0.0000
# 3 19.2448 28.1620 65.9505 0.0000 0.0000 0.0000
# 4 0.0000 0.0000 0.0000 30.8843 0.0000 0.0000
# 5 0.0000 0.0000 0.0000 0.0000 28.0224 0.0000
# 6 0.0000 0.0000 0.0000 0.0000 0.0000 20.9888
#
#
#
# Elastic Compliance Matrix: (Units=1/GPa)
#
#
# Indices 1 2 3 4 5 6 
#
# 1 0.010893 -0.000124 -0.003126 0.000000 0.000000 0.000000
# 2 -0.000124 0.014599 -0.006198 0.000000 0.000000 0.000000
# 3 -0.003126 -0.006198 0.018722 0.000000 0.000000 0.000000
# 4 0.000000 0.000000 0.000000 0.032379 0.000000 0.000000
# 5 0.000000 0.000000 0.000000 0.000000 0.035686 0.000000
# 6 0.000000 0.000000 0.000000 0.000000 0.000000 0.047645
#
#
# Mechanical properties :
#
#
# Convention : Reuss Voigt Hill
#
# Bulk Modulus (GPa) = 39.49630 39.63454 39.56542
# Shear Modulus (GPa) = 26.70121 28.47939 27.59030
#
# Velocity S-wave (km/s) = 3.61793 3.73646 3.67767
# Velocity P-wave (km/s) = 6.06749 6.16802 6.11796
#
# Compressibility (1/GPa) = 0.02531883
#
# Stress axis : x y z
#
# Youngs Moduli (GPa) = 91.80155 68.49765 53.41403
#
# Poissons Ratio (x) = 0.00847 0.16697
# Poissons Ratio (y) = 0.01135 0.33106
# Poissons Ratio (z) = 0.28696 0.42455
#
# Static dielectric constant tensor:
#      x y z
#    x 3.824350 0.000000 0.000000 
#    y 0.000000 3.756760 0.000000 
#    z 0.000000 0.000000 3.490890 
# 
# 
# High freq. dielectric constant tensor:
#      x y z
#    x 1.812250 0.000000 0.000000 
#    y 0.000000 1.796410 0.000000 
#    z 0.000000 0.000000 1.785260 
# 
# From -- ./inp_files/5719.got.cif
#   From: 2010.03.12/outbox.cif.g09.slc.cpg/sg57_3_cif.got.tgz:5719.got - 2010.04.16 15:48:40.
