data_PCOD8230069
_publ_section_title
;
Structure prediction by ZEFSAII (Michael W. Deem and Ramdas Pophale) SiO2 
 PCOD8230069
Probable space group: P B C M
;
_chemical_formula_sum "Si O2"
_cell_formula_units_Z 56
_cell_length_a 20.870226
_cell_length_b 18.203733
_cell_length_c 9.286348
_cell_angle_alpha 90.000000
_cell_angle_beta 90.000000
_cell_angle_gamma 90.000000
_cell_volume 3528.032389
_symmetry_space_group_name_H-M "P B C M"
_symmetry_group_IT_number 57
_symmetry_cell_setting 'orthorhombic'
loop_
_space_group_symop_operation_xyz
x,y,z
-x,-y,1/2+z
x,1/2-y,-z
-x,1/2+y,1/2-z
-x,-y,-z
x,y,1/2-z
-x,1/2+y,z
x,1/2-y,1/2+z
loop_
_atom_site_type_symbol
_atom_site_label
_atom_site_fract_x
_atom_site_fract_y
_atom_site_fract_z
Si Si1 0.558034 0.029872 0.087124
Si Si2 0.248379 0.176122 0.581791
Si Si3 0.507196 0.322154 0.919284
Si Si4 0.384475 0.385020 0.081794
Si Si5 0.127255 0.080974 0.581800
Si Si6 0.994041 0.676476 0.585430
Si Si7 0.059858 0.967479 0.417132
O O1 0.535764 0.022385 0.250000
O O2 0.564013 0.117068 0.052901
O O3 0.617775 0.974665 0.058000
O O4 0.500000 0.000000 0.000000
O O5 0.230365 0.250000 0.500000
O O6 0.248651 0.193797 0.750000
O O7 0.316844 0.146135 0.528702
O O8 0.195837 0.114990 0.544170
O O9 0.497033 0.306697 0.750000
O O10 0.531902 0.250000 0.000000
O O11 0.439493 0.347520 0.986542
O O12 0.396703 0.366640 0.250000
O O13 0.119727 0.062514 0.750000
O O14 0.071642 0.137641 0.532317
O O15 0.122073 0.004258 0.492384
O O16 0.008925 0.750000 0.500000
O O17 0.985409 0.699622 0.750000
O O18 0.054824 0.621038 0.566395
O O19 0.057610 0.989993 0.250000
O O20 0.000000 0.000000 0.500000
#
# Coordination Sequence:
#
# PCOD8230069 Si02
#       7
#     8   8   8   8   8   8   8
#     4   8  15  27  42  59  80 107 139 173 212 254
#     4  10  20  31  44  63  88 116 147 178 208 246
#     4  10  18  27  41  62  86 111 139 175 217 260
#     4   9  17  30  45  61  84 114 145 178 212 251
#     4   9  18  31  43  60  86 115 146 176 205 245
#     4   9  17  27  41  62  86 108 134 168 206 246
#     4   9  17  29  44  63  85 111 142 176 212 252
#
# _framework density 15.872870000000001
#
# number of rings (size 3 to 8) (size 9 to 14) (size 15 to 20)
#    0.000    2.857    0.000    2.571    0.000    5.714 
#    0.000    0.000    0.000    0.000    0.000    1.000 
#    0.000    4.571    0.000    0.000    0.000    0.571 
#
# Total GULP energy -693736.160449 kJ/mol
# GULP energy per Si atom -12388.145722 kJ/mol
# Density = 1.583674 g / cm^3
# Si number density = 15.872870 Si / 1000 Ang^3
#
#
#
# Elastic Constant Matrix: (Units=GPa)
#
#
# Indices 1 2 3 4 5 6 
#
# 1 29.5573 18.1110 14.5104 0.0000 0.0000 0.0000
# 2 18.1110 95.7866 42.2805 0.0000 0.0000 0.0000
# 3 14.5104 42.2805 60.0057 0.0000 0.0000 0.0000
# 4 0.0000 0.0000 0.0000 30.4952 0.0000 0.0000
# 5 0.0000 0.0000 0.0000 0.0000 16.5367 0.0000
# 6 0.0000 0.0000 0.0000 0.0000 0.0000 22.5404
#
#
#
# Elastic Compliance Matrix: (Units=1/GPa)
#
#
# Indices 1 2 3 4 5 6 
#
# 1 0.039831 -0.004760 -0.006278 0.000000 0.000000 0.000000
# 2 -0.004760 0.015721 -0.009926 0.000000 0.000000 0.000000
# 3 -0.006278 -0.009926 0.025177 0.000000 0.000000 0.000000
# 4 0.000000 0.000000 0.000000 0.032792 0.000000 0.000000
# 5 0.000000 0.000000 0.000000 0.000000 0.060472 0.000000
# 6 0.000000 0.000000 0.000000 0.000000 0.000000 0.044365
#
#
# Mechanical properties :
#
#
# Convention : Reuss Voigt Hill
#
# Bulk Modulus (GPa) = 25.77227 37.23927 31.50577
# Shear Modulus (GPa) = 18.30021 21.27765 19.78893
#
# Velocity S-wave (km/s) = 3.39916 3.66526 3.53471
# Velocity P-wave (km/s) = 5.62829 6.43615 6.04573
#
# Compressibility (1/GPa) = 0.03880140
#
# Stress axis : x y z
#
# Youngs Moduli (GPa) = 25.10590 63.60746 39.71818
#
# Poissons Ratio (x) = 0.30278 0.24935
# Poissons Ratio (y) = 0.11951 0.39426
# Poissons Ratio (z) = 0.15761 0.63139
#
# Static dielectric constant tensor:
#      x y z
#    x 2.973200 0.000000 0.000000 
#    y 0.000000 3.576460 0.000000 
#    z 0.000000 0.000000 3.134750 
# 
# 
# High freq. dielectric constant tensor:
#      x y z
#    x 1.563760 0.000000 0.000000 
#    y 0.000000 1.616320 0.000000 
#    z 0.000000 0.000000 1.618220 
# 
# From -- ./inp_files/8283.got.cif
#   From: 2010.03.12/outbox.cif.g09.slc.cpg/sg57_5_cif.got.tgz:8283.got - 2010.04.16 15:48:40.
