data_PCOD8230520
_publ_section_title
;
Structure prediction by ZEFSAII (Michael W. Deem and Ramdas Pophale) SiO2 
 PCOD8230520
Probable space group: P B C M
;
_chemical_formula_sum "Si O2"
_cell_formula_units_Z 40
_cell_length_a 24.219086
_cell_length_b 8.928639
_cell_length_c 9.196648
_cell_angle_alpha 90.000000
_cell_angle_beta 90.000000
_cell_angle_gamma 90.000000
_cell_volume 1988.715129
_symmetry_space_group_name_H-M "P B C M"
_symmetry_group_IT_number 57
_symmetry_cell_setting 'orthorhombic'
loop_
_space_group_symop_operation_xyz
x,y,z
-x,-y,1/2+z
x,1/2-y,-z
-x,1/2+y,1/2-z
-x,-y,-z
x,y,1/2-z
-x,1/2+y,z
x,1/2-y,1/2+z
loop_
_atom_site_type_symbol
_atom_site_label
_atom_site_fract_x
_atom_site_fract_y
_atom_site_fract_z
Si Si1 0.248339 0.901950 0.412136
Si Si2 0.129231 0.923724 0.021751
Si Si3 0.929235 0.013878 0.250000
Si Si4 0.449902 0.911538 0.571373
Si Si5 0.956493 0.361687 0.250000
Si Si6 0.646849 0.590458 0.075583
O O1 0.255166 0.750000 0.500000
O O2 0.259585 0.848392 0.250000
O O3 0.187919 0.983253 0.420705
O O4 0.292255 0.027314 0.457542
O O5 0.074450 0.939613 0.117249
O O6 0.141444 0.750000 0.000000
O O7 0.112335 0.016703 0.881133
O O8 0.952226 0.182789 0.250000
O O9 0.979072 0.897676 0.250000
O O10 0.453585 0.750000 0.500000
O O11 0.452106 0.908790 0.750000
O O12 0.500000 0.000000 0.500000
O O13 0.394019 0.983366 0.511947
O O14 0.634083 0.598371 0.250000
O O15 0.641735 0.750000 0.000000
#
# Coordination Sequence:
#
# PCOD8230520 Si02
#       6
#     8   8   4   8   4   8
#     4  10  21  37  61  87 114 151 200 253 302 361
#     4   9  18  33  53  78 105 140 186 235 289 351
#     4  10  20  32  52  78 102 144 177 236 283 358
#     4  12  25  44  69 100 134 174 216 262 310 362
#     4  10  18  34  52  74 108 136 185 226 291 348
#     4  11  24  43  63  92 129 168 209 256 312 370
#
# _framework density 20.113486999999999
#
# number of rings (size 3 to 8) (size 9 to 14) (size 15 to 20)
#    0.000    1.600    1.000    4.200    4.200    3.200 
#    0.000    2.000    0.000    0.000    0.000    0.000 
#    0.000    0.000    0.000    0.000    0.000    0.000 
#
# Total GULP energy -495575.000358 kJ/mol
# GULP energy per Si atom -12389.375009 kJ/mol
# Density = 2.006771 g / cm^3
# Si number density = 20.113487 Si / 1000 Ang^3
#
#
#
# Elastic Constant Matrix: (Units=GPa)
#
#
# Indices 1 2 3 4 5 6 
#
# 1 123.1893 42.8089 34.1337 0.0000 0.0000 0.0000
# 2 42.8089 95.3173 41.4453 0.0000 0.0000 0.0000
# 3 34.1337 41.4453 130.0410 0.0000 0.0000 0.0000
# 4 0.0000 0.0000 0.0000 34.9988 0.0000 0.0000
# 5 0.0000 0.0000 0.0000 0.0000 35.0392 0.0000
# 6 0.0000 0.0000 0.0000 0.0000 0.0000 28.2431
#
#
#
# Elastic Compliance Matrix: (Units=1/GPa)
#
#
# Indices 1 2 3 4 5 6 
#
# 1 0.009822 -0.003820 -0.001361 0.000000 0.000000 0.000000
# 2 -0.003820 0.013664 -0.003352 0.000000 0.000000 0.000000
# 3 -0.001361 -0.003352 0.009116 0.000000 0.000000 0.000000
# 4 0.000000 0.000000 0.000000 0.028572 0.000000 0.000000
# 5 0.000000 0.000000 0.000000 0.000000 0.028539 0.000000
# 6 0.000000 0.000000 0.000000 0.000000 0.000000 0.035407
#
#
# Mechanical properties :
#
#
# Convention : Reuss Voigt Hill
#
# Bulk Modulus (GPa) = 64.36505 65.03595 64.70050
# Shear Modulus (GPa) = 33.92939 35.00019 34.46479
#
# Velocity S-wave (km/s) = 4.11164 4.17602 4.14396
# Velocity P-wave (km/s) = 7.38994 7.46035 7.42523
#
# Compressibility (1/GPa) = 0.01553638
#
# Stress axis : x y z
#
# Youngs Moduli (GPa) = 101.81274 73.18295 109.70318
#
# Poissons Ratio (x) = 0.27953 0.14928
# Poissons Ratio (y) = 0.38888 0.36777
# Poissons Ratio (z) = 0.13854 0.24534
#
# Static dielectric constant tensor:
#      x y z
#    x 3.927650 0.000000 0.000000 
#    y 0.000000 3.444680 0.000000 
#    z 0.000000 0.000000 4.040830 
# 
# 
# High freq. dielectric constant tensor:
#      x y z
#    x 1.806370 0.000000 0.000000 
#    y 0.000000 1.759690 0.000000 
#    z 0.000000 0.000000 1.803390 
# 
# From -- ./inp_files/8956.got.cif
#   From: 2010.03.12/outbox.cif.g09.slc.cpg/sg57_5_cif.got.tgz:8956.got - 2010.04.16 15:48:40.
