data_PCOD8230583
_publ_section_title
;
Structure prediction by ZEFSAII (Michael W. Deem and Ramdas Pophale) SiO2 
 PCOD8230583
Probable space group: P B C M
;
_chemical_formula_sum "Si O2"
_cell_formula_units_Z 36
_cell_length_a 19.815722
_cell_length_b 8.914905
_cell_length_c 9.806899
_cell_angle_alpha 90.000000
_cell_angle_beta 90.000000
_cell_angle_gamma 90.000000
_cell_volume 1732.440480
_symmetry_space_group_name_H-M "P B C M"
_symmetry_group_IT_number 57
_symmetry_cell_setting 'orthorhombic'
loop_
_space_group_symop_operation_xyz
x,y,z
-x,-y,1/2+z
x,1/2-y,-z
-x,1/2+y,1/2-z
-x,-y,-z
x,y,1/2-z
-x,1/2+y,z
x,1/2-y,1/2+z
loop_
_atom_site_type_symbol
_atom_site_label
_atom_site_fract_x
_atom_site_fract_y
_atom_site_fract_z
Si Si1 0.093151 0.997761 0.399064
Si Si2 0.554135 0.621544 0.750000
Si Si3 0.652175 0.574746 0.980075
Si Si4 0.998937 0.750000 0.000000
Si Si5 0.413375 0.028295 0.250000
Si Si6 0.797278 0.599338 0.589859
O O1 0.128884 0.996861 0.250000
O O2 0.045262 0.853556 0.405310
O O3 0.048572 0.148217 0.405588
O O4 0.147225 0.989538 0.522981
O O5 0.589953 0.545272 0.879228
O O6 0.560803 0.800861 0.750000
O O7 0.475633 0.584749 0.750000
O O8 0.724062 0.518046 0.922253
O O9 0.661311 0.750000 0.000000
O O10 0.633699 0.492846 0.120689
O O11 0.800002 0.750000 0.500000
O O12 0.812927 0.630547 0.750000
#
# Coordination Sequence:
#
# PCOD8230583 Si02
#       6
#     8   4   8   4   4   8
#     4  11  23  40  67  93 125 164 205 250 306 363
#     4  10  18  36  54  86 110 151 183 242 288 349
#     4   9  19  33  54  82 116 149 193 242 288 347
#     4  10  24  42  62  96 130 156 202 254 304 362
#     4  10  20  32  60  82 114 145 195 236 296 345
#     4  11  22  36  59  89 120 159 206 253 301 358
#
# _framework density 20.779935999999999
#
# number of rings (size 3 to 8) (size 9 to 14) (size 15 to 20)
#    0.000    1.778    2.222    2.000    6.222    4.444 
#    0.000    0.000    4.889    0.000    0.000    0.000 
#    0.000    0.000    0.000    0.000    0.000    0.000 
#
# Total GULP energy -446280.715480 kJ/mol
# GULP energy per Si atom -12396.686541 kJ/mol
# Density = 2.073264 g / cm^3
# Si number density = 20.779936 Si / 1000 Ang^3
#
#
#
# Elastic Constant Matrix: (Units=GPa)
#
#
# Indices 1 2 3 4 5 6 
#
# 1 117.6459 21.2054 49.5361 0.0000 0.0000 0.0000
# 2 21.2054 50.3939 18.1895 0.0000 0.0000 0.0000
# 3 49.5361 18.1895 176.8005 0.0000 0.0000 0.0000
# 4 0.0000 0.0000 0.0000 11.1735 0.0000 0.0000
# 5 0.0000 0.0000 0.0000 0.0000 34.6226 0.0000
# 6 0.0000 0.0000 0.0000 0.0000 0.0000 7.5435
#
#
#
# Elastic Compliance Matrix: (Units=1/GPa)
#
#
# Indices 1 2 3 4 5 6 
#
# 1 0.010161 -0.003373 -0.002500 0.000000 0.000000 0.000000
# 2 -0.003373 0.021729 -0.001290 0.000000 0.000000 0.000000
# 3 -0.002500 -0.001290 0.006489 0.000000 0.000000 0.000000
# 4 0.000000 0.000000 0.000000 0.089498 0.000000 0.000000
# 5 0.000000 0.000000 0.000000 0.000000 0.028883 0.000000
# 6 0.000000 0.000000 0.000000 0.000000 0.000000 0.132565
#
#
# Mechanical properties :
#
#
# Convention : Reuss Voigt Hill
#
# Bulk Modulus (GPa) = 41.57667 58.07804 49.82736
# Shear Modulus (GPa) = 16.04270 27.72854 21.88562
#
# Velocity S-wave (km/s) = 2.78155 3.65689 3.24884
# Velocity P-wave (km/s) = 5.51068 6.77054 6.17284
#
# Compressibility (1/GPa) = 0.02405195
#
# Stress axis : x y z
#
# Youngs Moduli (GPa) = 98.41876 46.02175 154.10134
#
# Poissons Ratio (x) = 0.15524 0.38522
# Poissons Ratio (y) = 0.33199 0.19885
# Poissons Ratio (z) = 0.24602 0.05939
#
# Static dielectric constant tensor:
#      x y z
#    x 4.050860 0.000000 0.000000 
#    y 0.000000 3.346090 0.000000 
#    z 0.000000 0.000000 3.928240 
# 
# 
# High freq. dielectric constant tensor:
#      x y z
#    x 1.823320 0.000000 0.000000 
#    y 0.000000 1.764050 0.000000 
#    z 0.000000 0.000000 1.825930 
# 
# From -- ./inp_files/7695.got.cif
#   From: 2010.03.12/outbox.cif.g09.slc.cpg/sg57_4_cif.got.tgz:7695.got - 2010.04.16 15:48:40.
