data_PCOD8230742
_publ_section_title
;
Structure prediction by ZEFSAII (Michael W. Deem and Ramdas Pophale) SiO2 
 PCOD8230742
Probable space group: P B C M
;
_chemical_formula_sum "Si O2"
_cell_formula_units_Z 56
_cell_length_a 18.877508
_cell_length_b 18.292168
_cell_length_c 8.913938
_cell_angle_alpha 90.000000
_cell_angle_beta 90.000000
_cell_angle_gamma 90.000000
_cell_volume 3078.076813
_symmetry_space_group_name_H-M "P B C M"
_symmetry_group_IT_number 57
_symmetry_cell_setting 'orthorhombic'
loop_
_space_group_symop_operation_xyz
x,y,z
-x,-y,1/2+z
x,1/2-y,-z
-x,1/2+y,1/2-z
-x,-y,-z
x,y,1/2-z
-x,1/2+y,z
x,1/2-y,1/2+z
loop_
_atom_site_type_symbol
_atom_site_label
_atom_site_fract_x
_atom_site_fract_y
_atom_site_fract_z
Si Si1 0.564785 0.328597 0.425382
Si Si2 0.701287 0.172671 0.076248
Si Si3 0.067494 0.464376 0.424664
Si Si4 0.591156 0.671828 0.575386
Si Si5 0.718249 0.596177 0.423703
Si Si6 0.213936 0.534150 0.420514
Si Si7 0.863108 0.672404 0.073019
O O1 0.563905 0.250000 0.500000
O O2 0.580372 0.322818 0.250000
O O3 0.631532 0.368051 0.505176
O O4 0.487078 0.363266 0.455673
O O5 0.686649 0.186896 0.250000
O O6 0.767880 0.119012 0.050306
O O7 0.719178 0.250000 0.000000
O O8 0.053172 0.450090 0.250000
O O9 0.131055 0.521834 0.450685
O O10 0.084408 0.387173 0.502280
O O11 0.000000 0.500000 0.500000
O O12 0.601043 0.750000 0.500000
O O13 0.603252 0.684575 0.750000
O O14 0.648319 0.615608 0.514920
O O15 0.699369 0.599064 0.250000
O O16 0.740042 0.514523 0.467123
O O17 0.781887 0.651638 0.464303
O O18 0.233195 0.511492 0.250000
O O19 0.876510 0.675550 0.250000
O O20 0.880644 0.750000 0.000000
#
# Coordination Sequence:
#
# PCOD8230742 Si02
#       7
#     8   8   8   8   8   8   8
#     4   9  17  29  46  69  96 130 169 211 256 302
#     4  10  19  33  54  77  99 128 166 211 258 303
#     4  10  20  37  59  81 108 141 173 209 254 306
#     4  10  19  30  46  69 100 135 173 213 255 302
#     4  10  20  32  50  75 103 135 172 213 257 304
#     4   9  20  37  55  75 102 134 167 205 253 306
#     4  10  20  34  53  80 109 139 176 214 254 303
#
# _framework density 18.193180000000002
#
# number of rings (size 3 to 8) (size 9 to 14) (size 15 to 20)
#    0.000    2.286    0.000    3.857    0.000    6.286 
#    0.000    1.429    0.000    1.714    0.000    0.000 
#    0.000    0.000    0.000    0.000    0.000    0.000 
#
# Total GULP energy -694239.528387 kJ/mol
# GULP energy per Si atom -12397.134435 kJ/mol
# Density = 1.815177 g / cm^3
# Si number density = 18.193180 Si / 1000 Ang^3
#
#
#
# Elastic Constant Matrix: (Units=GPa)
#
#
# Indices 1 2 3 4 5 6 
#
# 1 117.2134 66.2213 60.6756 0.0000 0.0000 0.0000
# 2 66.2213 97.6038 54.5652 0.0000 0.0000 0.0000
# 3 60.6756 54.5652 113.3294 0.0000 0.0000 0.0000
# 4 0.0000 0.0000 0.0000 29.4173 0.0000 0.0000
# 5 0.0000 0.0000 0.0000 0.0000 31.1756 0.0000
# 6 0.0000 0.0000 0.0000 0.0000 0.0000 23.8426
#
#
#
# Elastic Compliance Matrix: (Units=1/GPa)
#
#
# Indices 1 2 3 4 5 6 
#
# 1 0.015261 -0.007917 -0.004358 0.000000 0.000000 0.000000
# 2 -0.007917 0.018126 -0.004489 0.000000 0.000000 0.000000
# 3 -0.004358 -0.004489 0.013318 0.000000 0.000000 0.000000
# 4 0.000000 0.000000 0.000000 0.033994 0.000000 0.000000
# 5 0.000000 0.000000 0.000000 0.000000 0.032076 0.000000
# 6 0.000000 0.000000 0.000000 0.000000 0.000000 0.041942
#
#
# Mechanical properties :
#
#
# Convention : Reuss Voigt Hill
#
# Bulk Modulus (GPa) = 75.89029 76.78565 76.33797
# Shear Modulus (GPa) = 25.95541 26.66605 26.31073
#
# Velocity S-wave (km/s) = 3.78121 3.83262 3.80700
# Velocity P-wave (km/s) = 7.80176 7.86655 7.83423
#
# Compressibility (1/GPa) = 0.01317692
#
# Stress axis : x y z
#
# Youngs Moduli (GPa) = 65.52848 55.16792 75.08394
#
# Poissons Ratio (x) = 0.43678 0.32725
# Poissons Ratio (y) = 0.51881 0.33702
# Poissons Ratio (z) = 0.28560 0.24763
#
# Static dielectric constant tensor:
#      x y z
#    x 3.660440 0.000000 0.000000 
#    y 0.000000 3.097540 0.000000 
#    z 0.000000 0.000000 3.681660 
# 
# 
# High freq. dielectric constant tensor:
#      x y z
#    x 1.703860 0.000000 0.000000 
#    y 0.000000 1.680470 0.000000 
#    z 0.000000 0.000000 1.723470 
# 
# From -- ./inp_files/8336.got.cif
#   From: 2010.03.12/outbox.cif.g09.slc.cpg/sg57_5_cif.got.tgz:8336.got - 2010.04.16 15:48:40.
