data_PCOD8230829
_publ_section_title
;
Structure prediction by ZEFSAII (Michael W. Deem and Ramdas Pophale) SiO2 
 PCOD8230829
Probable space group: P B C M
;
_chemical_formula_sum "Si O2"
_cell_formula_units_Z 48
_cell_length_a 10.287237
_cell_length_b 27.753777
_cell_length_c 9.259966
_cell_angle_alpha 90.000000
_cell_angle_beta 90.000000
_cell_angle_gamma 90.000000
_cell_volume 2643.809945
_symmetry_space_group_name_H-M "P B C M"
_symmetry_group_IT_number 57
_symmetry_cell_setting 'orthorhombic'
loop_
_space_group_symop_operation_xyz
x,y,z
-x,-y,1/2+z
x,1/2-y,-z
-x,1/2+y,1/2-z
-x,-y,-z
x,y,1/2-z
-x,1/2+y,z
x,1/2-y,1/2+z
loop_
_atom_site_type_symbol
_atom_site_label
_atom_site_fract_x
_atom_site_fract_y
_atom_site_fract_z
Si Si1 0.383883 0.443071 0.416813
Si Si2 0.996888 0.700017 0.578329
Si Si3 0.767611 0.367979 0.083152
Si Si4 0.649839 0.050747 0.417288
Si Si5 0.269722 0.344701 0.079797
Si Si6 0.532833 0.202441 0.918159
O O1 0.427584 0.436369 0.250000
O O2 0.511115 0.438023 0.513091
O O3 0.314254 0.494489 0.440280
O O4 0.283015 0.401123 0.462796
O O5 0.025515 0.750000 0.500000
O O6 0.995205 0.708548 0.750000
O O7 0.108984 0.662893 0.533016
O O8 0.862237 0.677912 0.516657
O O9 0.780059 0.381988 0.250000
O O10 0.636766 0.338818 0.050405
O O11 0.761876 0.417418 0.992191
O O12 0.642148 0.064306 0.250000
O O13 0.265115 0.339709 0.250000
O O14 0.393743 0.315203 0.020535
O O15 0.526250 0.214705 0.750000
O O16 0.578010 0.250000 0.000000
#
# Coordination Sequence:
#
# PCOD8230829 Si02
#       6
#     8   8   8   8   8   8
#     4   9  17  33  54  76 107 139 168 208 261 317
#     4  10  21  36  55  76 101 139 177 210 255 309
#     4  10  20  35  52  72 103 140 171 205 257 312
#     4  10  19  30  52  82 105 132 172 217 259 299
#     4   9  17  33  54  74 100 136 172 204 254 314
#     4  10  19  31  49  71  97 129 165 210 256 297
#
# _framework density 18.155616999999999
#
# number of rings (size 3 to 8) (size 9 to 14) (size 15 to 20)
#    0.000    2.333    1.667    1.500    0.000    2.000 
#    0.000    1.667    0.000    0.000    0.000    0.000 
#    0.000    0.000    0.000    0.000    0.000    0.000 
#
# Total GULP energy -595194.043674 kJ/mol
# GULP energy per Si atom -12399.875910 kJ/mol
# Density = 1.811429 g / cm^3
# Si number density = 18.155617 Si / 1000 Ang^3
#
#
#
# Elastic Constant Matrix: (Units=GPa)
#
#
# Indices 1 2 3 4 5 6 
#
# 1 71.9853 11.5602 16.2699 0.0000 0.0000 0.0000
# 2 11.5602 93.1531 36.4868 0.0000 0.0000 0.0000
# 3 16.2699 36.4868 46.8154 0.0000 0.0000 0.0000
# 4 0.0000 0.0000 0.0000 32.1585 0.0000 0.0000
# 5 0.0000 0.0000 0.0000 0.0000 12.9874 0.0000
# 6 0.0000 0.0000 0.0000 0.0000 0.0000 15.7524
#
#
#
# Elastic Compliance Matrix: (Units=1/GPa)
#
#
# Indices 1 2 3 4 5 6 
#
# 1 0.015080 0.000261 -0.005444 0.000000 0.000000 0.000000
# 2 0.000261 0.015457 -0.012137 0.000000 0.000000 0.000000
# 3 -0.005444 -0.012137 0.032712 0.000000 0.000000 0.000000
# 4 0.000000 0.000000 0.000000 0.031096 0.000000 0.000000
# 5 0.000000 0.000000 0.000000 0.000000 0.076998 0.000000
# 6 0.000000 0.000000 0.000000 0.000000 0.000000 0.063482
#
#
# Mechanical properties :
#
#
# Convention : Reuss Voigt Hill
#
# Bulk Modulus (GPa) = 34.95539 37.84305 36.39922
# Shear Modulus (GPa) = 17.92102 22.02214 19.97158
#
# Velocity S-wave (km/s) = 3.14519 3.48654 3.32026
# Velocity P-wave (km/s) = 5.69953 6.09073 5.89837
#
# Compressibility (1/GPa) = 0.02860789
#
# Stress axis : x y z
#
# Youngs Moduli (GPa) = 66.31162 64.69730 30.56981
#
# Poissons Ratio (x) = -0.01689 0.16643
# Poissons Ratio (y) = -0.01731 0.37103
# Poissons Ratio (z) = 0.36102 0.78524
#
# Static dielectric constant tensor:
#      x y z
#    x 3.394190 0.000000 0.000000 
#    y 0.000000 3.616190 0.000000 
#    z 0.000000 0.000000 3.168710 
# 
# 
# High freq. dielectric constant tensor:
#      x y z
#    x 1.687670 0.000000 0.000000 
#    y 0.000000 1.717760 0.000000 
#    z 0.000000 0.000000 1.683110 
# 
# From -- ./inp_files/2027.got.cif
#   From: 2010.03.12/outbox.cif.g09.slc.cpg/sg57_2_cif.got.tgz:2027.got - 2010.04.16 15:48:40.
