data_PCOD8230903
_publ_section_title
;
Structure prediction by ZEFSAII (Michael W. Deem and Ramdas Pophale) SiO2 
 PCOD8230903
Probable space group: P B C M
;
_chemical_formula_sum "Si O2"
_cell_formula_units_Z 64
_cell_length_a 21.118644
_cell_length_b 19.095758
_cell_length_c 8.951380
_cell_angle_alpha 90.000000
_cell_angle_beta 90.000000
_cell_angle_gamma 90.000000
_cell_volume 3609.881332
_symmetry_space_group_name_H-M "P B C M"
_symmetry_group_IT_number 57
_symmetry_cell_setting 'orthorhombic'
loop_
_space_group_symop_operation_xyz
x,y,z
-x,-y,1/2+z
x,1/2-y,-z
-x,1/2+y,1/2-z
-x,-y,-z
x,y,1/2-z
-x,1/2+y,z
x,1/2-y,1/2+z
loop_
_atom_site_type_symbol
_atom_site_label
_atom_site_fract_x
_atom_site_fract_y
_atom_site_fract_z
Si Si1 0.815446 0.517010 0.416787
Si Si2 0.892614 0.318066 0.926073
Si Si3 0.062807 0.528908 0.073646
Si Si4 0.459304 0.677347 0.573525
Si Si5 0.304665 0.443697 0.424276
Si Si6 0.230966 0.640459 0.582135
Si Si7 0.648451 0.401688 0.925140
Si Si8 0.395891 0.178585 0.925138
O O1 0.830594 0.544471 0.250000
O O2 0.879295 0.517927 0.513857
O O3 0.762341 0.566044 0.491963
O O4 0.787788 0.439942 0.411586
O O5 0.890621 0.308822 0.750000
O O6 0.929074 0.389312 0.971210
O O7 0.926989 0.250000 0.000000
O O8 0.821318 0.318064 0.988608
O O9 0.059363 0.519812 0.250000
O O10 0.000000 0.500000 0.000000
O O11 0.437367 0.750000 0.500000
O O12 0.448528 0.681074 0.750000
O O13 0.418234 0.615158 0.502604
O O14 0.531907 0.661122 0.531074
O O15 0.290409 0.436196 0.250000
O O16 0.337452 0.517505 0.459403
O O17 0.351922 0.384111 0.483921
O O18 0.236063 0.671221 0.750000
O O19 0.297765 0.647972 0.497478
O O20 0.645253 0.386106 0.750000
O O21 0.389092 0.188338 0.750000
O O22 0.372467 0.250000 0.000000
#
# Coordination Sequence:
#
# PCOD8230903 Si02
#       8
#     8   8   8   8   8   8   8   8
#     4   9  17  30  50  76 102 127 159 198 239 285
#     4  10  20  33  50  74 103 135 171 209 247 289
#     4  10  20  34  54  79 107 140 174 206 245 294
#     4  10  20  34  49  66  92 126 165 207 251 302
#     4   9  18  33  52  74 101 130 160 201 253 301
#     4   9  17  30  47  68  96 128 161 198 239 285
#     4  10  19  31  48  71  99 130 164 202 247 299
#     4   9  19  35  53  72  95 126 164 207 256 308
#
# _framework density 17.729115
#
# number of rings (size 3 to 8) (size 9 to 14) (size 15 to 20)
#    0.000    2.500    0.000    2.250    0.000    7.000 
#    0.000    2.500    0.000    0.750    0.000    5.250 
#    0.000    0.000    0.000    0.000    0.000    0.000 
#
# Total GULP energy -793605.505710 kJ/mol
# GULP energy per Si atom -12400.086027 kJ/mol
# Density = 1.768876 g / cm^3
# Si number density = 17.729115 Si / 1000 Ang^3
#
#
#
# Elastic Constant Matrix: (Units=GPa)
#
#
# Indices 1 2 3 4 5 6 
#
# 1 124.6865 63.0405 59.6137 0.0000 0.0000 0.0000
# 2 63.0405 81.8618 48.5552 0.0000 0.0000 0.0000
# 3 59.6137 48.5552 97.8616 0.0000 0.0000 0.0000
# 4 0.0000 0.0000 0.0000 26.0295 0.0000 0.0000
# 5 0.0000 0.0000 0.0000 0.0000 33.0127 0.0000
# 6 0.0000 0.0000 0.0000 0.0000 0.0000 19.7154
#
#
#
# Elastic Compliance Matrix: (Units=1/GPa)
#
#
# Indices 1 2 3 4 5 6 
#
# 1 0.014495 -0.008396 -0.004664 0.000000 0.000000 0.000000
# 2 -0.008396 0.022173 -0.005887 0.000000 0.000000 0.000000
# 3 -0.004664 -0.005887 0.015981 0.000000 0.000000 0.000000
# 4 0.000000 0.000000 0.000000 0.038418 0.000000 0.000000
# 5 0.000000 0.000000 0.000000 0.000000 0.030291 0.000000
# 6 0.000000 0.000000 0.000000 0.000000 0.000000 0.050722
#
#
# Mechanical properties :
#
#
# Convention : Reuss Voigt Hill
#
# Bulk Modulus (GPa) = 67.77486 71.86984 69.82235
# Shear Modulus (GPa) = 23.26754 24.63156 23.94955
#
# Velocity S-wave (km/s) = 3.62662 3.73141 3.67939
# Velocity P-wave (km/s) = 7.47312 7.69353 7.58412
#
# Compressibility (1/GPa) = 0.01475473
#
# Stress axis : x y z
#
# Youngs Moduli (GPa) = 68.98951 45.09986 62.57609
#
# Poissons Ratio (x) = 0.37865 0.29186
# Poissons Ratio (y) = 0.57923 0.36838
# Poissons Ratio (z) = 0.32177 0.26550
#
# Static dielectric constant tensor:
#      x y z
#    x 3.293300 0.000000 0.000000 
#    y 0.000000 3.215600 0.000000 
#    z 0.000000 0.000000 3.424870 
# 
# 
# High freq. dielectric constant tensor:
#      x y z
#    x 1.676130 0.000000 0.000000 
#    y 0.000000 1.664230 0.000000 
#    z 0.000000 0.000000 1.699000 
# 
# From -- ./inp_files/8388.got.cif
#   From: 2010.03.12/outbox.cif.g09.slc.cpg/sg57_5_cif.got.tgz:8388.got - 2010.04.16 15:48:40.
