data_PCOD8230068
_publ_section_title
;
Structure prediction by ZEFSAII (Michael W. Deem and Ramdas Pophale) SiO2 
 PCOD8230068
Probable space group: P B C M
;
_chemical_formula_sum "Si O2"
_cell_formula_units_Z 64
_cell_length_a 18.190390
_cell_length_b 26.545495
_cell_length_c 8.974314
_cell_angle_alpha 90.000000
_cell_angle_beta 90.000000
_cell_angle_gamma 90.000000
_cell_volume 4333.453088
_symmetry_space_group_name_H-M "P B C M"
_symmetry_group_IT_number 57
_symmetry_cell_setting 'orthorhombic'
loop_
_space_group_symop_operation_xyz
x,y,z
-x,-y,1/2+z
x,1/2-y,-z
-x,1/2+y,1/2-z
-x,-y,-z
x,y,1/2-z
-x,1/2+y,z
x,1/2-y,1/2+z
loop_
_atom_site_type_symbol
_atom_site_label
_atom_site_fract_x
_atom_site_fract_y
_atom_site_fract_z
Si Si1 0.674741 0.010915 0.423867
Si Si2 0.595341 0.104539 0.574670
Si Si3 0.082380 0.605876 0.924827
Si Si4 0.966583 0.548107 0.077512
Si Si5 0.461949 0.454911 0.420482
Si Si6 0.836531 0.197654 0.075180
Si Si7 0.824601 0.006366 0.919293
Si Si8 0.333127 0.698094 0.423981
O O1 0.673674 0.025426 0.250000
O O2 0.625515 0.959888 0.454970
O O3 0.756916 0.997739 0.471271
O O4 0.644661 0.058398 0.515825
O O5 0.610519 0.110721 0.750000
O O6 0.507537 0.095807 0.538175
O O7 0.616088 0.155084 0.491070
O O8 0.074667 0.615320 0.750000
O O9 0.133931 0.558123 0.961127
O O10 0.115071 0.654545 0.002468
O O11 0.000699 0.596707 0.994005
O O12 0.989900 0.549312 0.250000
O O13 0.878308 0.542201 0.061720
O O14 0.000000 0.500000 0.000000
O O15 0.500000 0.500000 0.500000
O O16 0.476568 0.465605 0.250000
O O17 0.852528 0.200967 0.250000
O O18 0.751592 0.185184 0.041927
O O19 0.859454 0.250000 0.000000
O O20 0.796023 0.009665 0.750000
O O21 0.356513 0.750000 0.500000
O O22 0.348235 0.702883 0.250000
#
# Coordination Sequence:
#
# PCOD8230068 Si02
#       8
#     8   8   8   8   8   8   8   8
#     4  10  18  27  41  61  84 110 142 175 205 244
#     4  10  18  29  44  59  81 112 142 173 209 246
#     4  10  19  30  44  61  83 111 142 173 207 248
#     4   9  17  29  43  59  81 108 139 173 207 245
#     4   8  16  28  40  57  80 107 138 171 206 242
#     4  10  20  32  45  61  83 110 140 175 210 243
#     4   9  18  29  41  60  85 112 140 171 208 248
#     4  10  20  32  45  62  83 108 140 175 209 244
#
# _framework density 14.768822999999999
#
# number of rings (size 3 to 8) (size 9 to 14) (size 15 to 20)
#    0.000    2.500    0.000    3.750    0.000    7.500 
#    0.000    0.000    0.000    0.000    0.000    0.000 
#    0.000    1.000    0.000    7.750    0.000    4.750 
#
# Total GULP energy -793034.881104 kJ/mol
# GULP energy per Si atom -12391.170017 kJ/mol
# Density = 1.473521 g / cm^3
# Si number density = 14.768823 Si / 1000 Ang^3
#
#
#
# Elastic Constant Matrix: (Units=GPa)
#
#
# Indices 1 2 3 4 5 6 
#
# 1 80.1870 55.0323 42.7359 0.0000 0.0000 0.0000
# 2 55.0323 93.2785 50.2235 0.0000 0.0000 0.0000
# 3 42.7359 50.2235 79.4791 0.0000 0.0000 0.0000
# 4 0.0000 0.0000 0.0000 25.6410 0.0000 0.0000
# 5 0.0000 0.0000 0.0000 0.0000 23.3286 0.0000
# 6 0.0000 0.0000 0.0000 0.0000 0.0000 26.4955
#
#
#
# Elastic Compliance Matrix: (Units=1/GPa)
#
#
# Indices 1 2 3 4 5 6 
#
# 1 0.022500 -0.010247 -0.005623 0.000000 0.000000 0.000000
# 2 -0.010247 0.020916 -0.007707 0.000000 0.000000 0.000000
# 3 -0.005623 -0.007707 0.020476 0.000000 0.000000 0.000000
# 4 0.000000 0.000000 0.000000 0.039000 0.000000 0.000000
# 5 0.000000 0.000000 0.000000 0.000000 0.042866 0.000000
# 6 0.000000 0.000000 0.000000 0.000000 0.000000 0.037742
#
#
# Mechanical properties :
#
#
# Convention : Reuss Voigt Hill
#
# Bulk Modulus (GPa) = 59.74721 60.99200 60.36961
# Shear Modulus (GPa) = 21.16551 22.08988 21.62769
#
# Velocity S-wave (km/s) = 3.78977 3.87164 3.83092
# Velocity P-wave (km/s) = 7.72609 7.83413 7.78030
#
# Compressibility (1/GPa) = 0.01673718
#
# Stress axis : x y z
#
# Youngs Moduli (GPa) = 44.44390 47.81089 48.83847
#
# Poissons Ratio (x) = 0.48992 0.27463
# Poissons Ratio (y) = 0.45542 0.37640
# Poissons Ratio (z) = 0.24992 0.36848
#
# Static dielectric constant tensor:
#      x y z
#    x 3.241610 0.000000 0.000000 
#    y 0.000000 2.771830 0.000000 
#    z 0.000000 0.000000 3.094820 
# 
# 
# High freq. dielectric constant tensor:
#      x y z
#    x 1.553890 0.000000 0.000000 
#    y 0.000000 1.532740 0.000000 
#    z 0.000000 0.000000 1.586180 
# 
# From -- ./inp_files/7394.got.cif
#   From: 2010.03.12/outbox.cif.g09.slc.cpg/sg57_4_cif.got.tgz:7394.got - 2010.04.16 15:48:40.
