data_PCOD8230231
_publ_section_title
;
Structure prediction by ZEFSAII (Michael W. Deem and Ramdas Pophale) SiO2 
 PCOD8230231
Probable space group: P B C M
;
_chemical_formula_sum "Si O2"
_cell_formula_units_Z 48
_cell_length_a 11.415543
_cell_length_b 30.067815
_cell_length_c 8.892199
_cell_angle_alpha 90.000000
_cell_angle_beta 90.000000
_cell_angle_gamma 90.000000
_cell_volume 3052.162253
_symmetry_space_group_name_H-M "P B C M"
_symmetry_group_IT_number 57
_symmetry_cell_setting 'orthorhombic'
loop_
_space_group_symop_operation_xyz
x,y,z
-x,-y,1/2+z
x,1/2-y,-z
-x,1/2+y,1/2-z
-x,-y,-z
x,y,1/2-z
-x,1/2+y,z
x,1/2-y,1/2+z
loop_
_atom_site_type_symbol
_atom_site_label
_atom_site_fract_x
_atom_site_fract_y
_atom_site_fract_z
Si Si1 0.548335 0.122562 0.079799
Si Si2 0.354865 0.702446 0.571553
Si Si3 0.197144 0.638821 0.081128
Si Si4 0.431563 0.459727 0.425858
Si Si5 0.938636 0.066269 0.576186
Si Si6 0.830929 0.984238 0.422986
O O1 0.501274 0.128556 0.250000
O O2 0.685640 0.107574 0.083000
O O3 0.542118 0.169648 0.990132
O O4 0.471302 0.086676 0.994655
O O5 0.377577 0.750000 0.500000
O O6 0.358400 0.705447 0.750000
O O7 0.228327 0.683091 0.515976
O O8 0.163155 0.653439 0.250000
O O9 0.089623 0.611808 0.010571
O O10 0.500000 0.500000 0.500000
O O11 0.458740 0.460111 0.250000
O O12 0.294452 0.463831 0.460829
O O13 0.915573 0.075098 0.750000
O O14 0.072783 0.053569 0.540893
O O15 0.852175 0.027044 0.525309
O O16 0.841201 0.999528 0.250000
#
# Coordination Sequence:
#
# PCOD8230231 Si02
#       6
#     8   8   8   8   8   8
#     4   9  19  32  46  68  97 125 156 195 238 285
#     4  10  18  31  50  74 100 126 156 192 240 291
#     4   9  18  30  46  68  96 123 150 191 238 279
#     4  11  21  32  46  65  94 130 166 205 244 286
#     4  10  18  30  47  66  88 122 164 200 237 282
#     4   9  20  33  44  62  92 126 162 202 240 279
#
# _framework density 15.726556
#
# number of rings (size 3 to 8) (size 9 to 14) (size 15 to 20)
#    1.000    1.333    0.000    4.000    0.000    6.000 
#    0.000    0.000    0.000    0.000    0.000    1.167 
#    0.000    0.000    0.000    0.000    0.000    0.000 
#
# Total GULP energy -594931.244736 kJ/mol
# GULP energy per Si atom -12394.400932 kJ/mol
# Density = 1.569076 g / cm^3
# Si number density = 15.726556 Si / 1000 Ang^3
#
#
#
# Elastic Constant Matrix: (Units=GPa)
#
#
# Indices 1 2 3 4 5 6 
#
# 1 64.7805 45.2267 41.8212 0.0000 0.0000 0.0000
# 2 45.2267 118.2327 65.8517 0.0000 0.0000 0.0000
# 3 41.8212 65.8517 134.3895 0.0000 0.0000 0.0000
# 4 0.0000 0.0000 0.0000 32.4973 0.0000 0.0000
# 5 0.0000 0.0000 0.0000 0.0000 22.0115 0.0000
# 6 0.0000 0.0000 0.0000 0.0000 0.0000 22.1769
#
#
#
# Elastic Compliance Matrix: (Units=1/GPa)
#
#
# Indices 1 2 3 4 5 6 
#
# 1 0.022397 -0.006444 -0.003812 0.000000 0.000000 0.000000
# 2 -0.006444 0.013487 -0.004603 0.000000 0.000000 0.000000
# 3 -0.003812 -0.004603 0.010883 0.000000 0.000000 0.000000
# 4 0.000000 0.000000 0.000000 0.030772 0.000000 0.000000
# 5 0.000000 0.000000 0.000000 0.000000 0.045431 0.000000
# 6 0.000000 0.000000 0.000000 0.000000 0.000000 0.045092
#
#
# Mechanical properties :
#
#
# Convention : Reuss Voigt Hill
#
# Bulk Modulus (GPa) = 58.65906 69.24465 63.95186
# Shear Modulus (GPa) = 24.57458 26.30401 25.43930
#
# Velocity S-wave (km/s) = 3.95728 4.09416 4.02630
# Velocity P-wave (km/s) = 7.63285 8.15325 7.89734
#
# Compressibility (1/GPa) = 0.01704766
#
# Stress axis : x y z
#
# Youngs Moduli (GPa) = 44.64945 74.14695 91.88661
#
# Poissons Ratio (x) = 0.47780 0.35028
# Poissons Ratio (y) = 0.28772 0.42298
# Poissons Ratio (z) = 0.17021 0.34132
#
# Static dielectric constant tensor:
#      x y z
#    x 2.912330 0.000000 0.000000 
#    y 0.000000 2.825610 0.000000 
#    z 0.000000 0.000000 3.195860 
# 
# 
# High freq. dielectric constant tensor:
#      x y z
#    x 1.574300 0.000000 0.000000 
#    y 0.000000 1.586630 0.000000 
#    z 0.000000 0.000000 1.624810 
# 
# From -- ./inp_files/3516.got.cif
#   From: 2010.03.12/outbox.cif.g09.slc.cpg/sg57_2_cif.got.tgz:3516.got - 2010.04.16 15:48:40.
