data_PCOD8230106
_publ_section_title
;
Structure prediction by ZEFSAII (Michael W. Deem and Ramdas Pophale) SiO2 
 PCOD8230106
Probable space group: P B C M
;
_chemical_formula_sum "Si O2"
_cell_formula_units_Z 64
_cell_length_a 18.290031
_cell_length_b 24.724443
_cell_length_c 9.054522
_cell_angle_alpha 90.000000
_cell_angle_beta 90.000000
_cell_angle_gamma 90.000000
_cell_volume 4094.552899
_symmetry_space_group_name_H-M "P B C M"
_symmetry_group_IT_number 57
_symmetry_cell_setting 'orthorhombic'
loop_
_space_group_symop_operation_xyz
x,y,z
-x,-y,1/2+z
x,1/2-y,-z
-x,1/2+y,1/2-z
-x,-y,-z
x,y,1/2-z
-x,1/2+y,z
x,1/2-y,1/2+z
loop_
_atom_site_type_symbol
_atom_site_label
_atom_site_fract_x
_atom_site_fract_y
_atom_site_fract_z
Si Si1 0.552274 0.195058 0.580357
Si Si2 0.274963 0.696276 0.580710
Si Si3 0.192465 0.601333 0.424033
Si Si4 0.606219 0.505337 0.080403
Si Si5 0.037082 0.574123 0.085343
Si Si6 0.771354 0.509332 0.421688
Si Si7 0.096629 0.452833 0.083935
Si Si8 0.476961 0.584994 0.423266
O O1 0.525699 0.250000 0.500000
O O2 0.526168 0.197202 0.750000
O O3 0.638821 0.189376 0.569531
O O4 0.517488 0.143035 0.501315
O O5 0.248210 0.750000 0.500000
O O6 0.248465 0.696588 0.750000
O O7 0.238713 0.648937 0.490468
O O8 0.206407 0.595476 0.250000
O O9 0.106009 0.612149 0.456002
O O10 0.220170 0.547914 0.502142
O O11 0.596183 0.487421 0.250000
O O12 0.687810 0.527724 0.051497
O O13 0.552407 0.554332 0.039665
O O14 0.589645 0.451790 0.984040
O O15 0.009023 0.585582 0.250000
O O16 0.068079 0.513666 0.073101
O O17 0.967813 0.585286 0.980157
O O18 0.790383 0.503906 0.250000
O O19 0.827687 0.552652 0.492789
O O20 0.112702 0.434431 0.250000
O O21 0.464653 0.594045 0.250000
#
# Coordination Sequence:
#
# PCOD8230106 Si02
#       8
#     8   8   8   8   8   8   8   8
#     4  10  20  33  48  66  87 113 146 182 221 263
#     4  10  20  32  45  61  83 110 140 175 213 251
#     4  10  19  29  42  61  84 110 143 178 210 249
#     4   9  19  32  44  62  88 119 151 180 216 264
#     4   8  15  26  38  54  78 108 137 165 200 240
#     4  10  18  28  42  59  83 114 145 175 209 252
#     4   9  16  25  38  57  80 105 136 172 204 237
#     4  10  19  31  47  65  87 115 147 184 222 260
#
# _framework density 15.630521999999999
#
# number of rings (size 3 to 8) (size 9 to 14) (size 15 to 20)
#    0.000    2.500    0.000    3.750    0.000    9.500 
#    0.000    0.000    0.000    0.000    0.000    0.000 
#    0.000    1.000    0.000    4.750    0.000    4.375 
#
# Total GULP energy -793427.840856 kJ/mol
# GULP energy per Si atom -12397.310013 kJ/mol
# Density = 1.559495 g / cm^3
# Si number density = 15.630522 Si / 1000 Ang^3
#
#
#
# Elastic Constant Matrix: (Units=GPa)
#
#
# Indices 1 2 3 4 5 6 
#
# 1 65.2029 15.3400 44.0062 0.0000 0.0000 0.0000
# 2 15.3400 52.3146 32.3619 0.0000 0.0000 0.0000
# 3 44.0062 32.3619 112.1786 0.0000 0.0000 0.0000
# 4 0.0000 0.0000 0.0000 22.2294 0.0000 0.0000
# 5 0.0000 0.0000 0.0000 0.0000 33.1530 0.0000
# 6 0.0000 0.0000 0.0000 0.0000 0.0000 12.9515
#
#
#
# Elastic Compliance Matrix: (Units=1/GPa)
#
#
# Indices 1 2 3 4 5 6 
#
# 1 0.020931 -0.001288 -0.007839 0.000000 0.000000 0.000000
# 2 -0.001288 0.023347 -0.006230 0.000000 0.000000 0.000000
# 3 -0.007839 -0.006230 0.013787 0.000000 0.000000 0.000000
# 4 0.000000 0.000000 0.000000 0.044986 0.000000 0.000000
# 5 0.000000 0.000000 0.000000 0.000000 0.030163 0.000000
# 6 0.000000 0.000000 0.000000 0.000000 0.000000 0.077211
#
#
# Mechanical properties :
#
#
# Convention : Reuss Voigt Hill
#
# Bulk Modulus (GPa) = 36.56341 45.90134 41.23237
# Shear Modulus (GPa) = 19.97966 22.86599 21.42282
#
# Velocity S-wave (km/s) = 3.57914 3.82894 3.70615
# Velocity P-wave (km/s) = 6.36580 6.99843 6.68960
#
# Compressibility (1/GPa) = 0.02734975
#
# Stress axis : x y z
#
# Youngs Moduli (GPa) = 47.77714 42.83272 72.53315
#
# Poissons Ratio (x) = 0.05517 0.56860
# Poissons Ratio (y) = 0.06154 0.45187
# Poissons Ratio (z) = 0.37453 0.26684
#
# Static dielectric constant tensor:
#      x y z
#    x 3.149010 0.000000 0.000000 
#    y 0.000000 2.682620 0.000000 
#    z 0.000000 0.000000 3.210690 
# 
# 
# High freq. dielectric constant tensor:
#      x y z
#    x 1.594150 0.000000 0.000000 
#    y 0.000000 1.553800 0.000000 
#    z 0.000000 0.000000 1.619680 
# 
# From -- ./inp_files/7379.got.cif
#   From: 2010.03.12/outbox.cif.g09.slc.cpg/sg57_4_cif.got.tgz:7379.got - 2010.04.16 15:48:40.
