data_PCOD8230006
_publ_section_title
;
Structure prediction by ZEFSAII (Michael W. Deem and Ramdas Pophale) SiO2 
 PCOD8230006
Probable space group: P B C M
;
_chemical_formula_sum "Si O2"
_cell_formula_units_Z 56
_cell_length_a 9.505727
_cell_length_b 18.182693
_cell_length_c 17.411493
_cell_angle_alpha 90.000000
_cell_angle_beta 90.000000
_cell_angle_gamma 90.000000
_cell_volume 3009.397501
_symmetry_space_group_name_H-M "P B C M"
_symmetry_group_IT_number 57
_symmetry_cell_setting 'orthorhombic'
loop_
_space_group_symop_operation_xyz
x,y,z
-x,-y,1/2+z
x,1/2-y,-z
-x,1/2+y,1/2-z
-x,-y,-z
x,y,1/2-z
-x,1/2+y,z
x,1/2-y,1/2+z
loop_
_atom_site_type_symbol
_atom_site_label
_atom_site_fract_x
_atom_site_fract_y
_atom_site_fract_z
Si Si1 0.360785 0.827739 0.539903
Si Si2 0.172968 0.639837 0.832559
Si Si3 0.360982 0.497944 0.664631
Si Si4 0.552098 0.898640 0.077431
Si Si5 0.911758 0.105384 0.993320
Si Si6 0.203602 0.057017 0.027863
Si Si7 0.447073 0.765349 0.336460
O O1 0.385178 0.750000 0.500000
O O2 0.438159 0.891717 0.491804
O O3 0.195114 0.846396 0.544855
O O4 0.435832 0.815196 0.622767
O O5 0.093786 0.652784 0.750000
O O6 0.248619 0.562101 0.827697
O O7 0.071642 0.639280 0.906772
O O8 0.290710 0.701664 0.844102
O O9 0.390204 0.464538 0.750000
O O10 0.505059 0.531906 0.629607
O O11 0.293546 0.437391 0.606882
O O12 0.557609 0.822699 0.125876
O O13 0.705233 0.914144 0.043720
O O14 0.847062 0.024516 0.990433
O O15 0.064231 0.107917 0.033587
O O16 0.495950 0.751919 0.250000
#
# Coordination Sequence:
#
# PCOD8230006 Si02
#       7
#     8   8   8   8   8   8   8
#     4  10  17  31  53  75  98 131 179 220 256 318
#     4   8  13  26  48  71  93 128 170 209 249 298
#     4   9  16  29  49  72  99 136 172 206 257 314
#     4  10  17  31  54  77  96 133 178 217 256 314
#     4  10  18  32  49  78 107 137 176 217 264 322
#     4  10  20  31  50  78 109 137 172 221 267 322
#     4   9  17  31  54  77 100 131 175 227 263 301
#
# _framework density 18.608376
#
# number of rings (size 3 to 8) (size 9 to 14) (size 15 to 20)
#    0.000    2.571    5.714    1.714    0.000    0.000 
#    0.000    5.000    0.000    2.571    0.000    0.000 
#    0.000    0.000    0.000    0.000    0.000    0.000 
#
# Total GULP energy -693811.457913 kJ/mol
# GULP energy per Si atom -12389.490320 kJ/mol
# Density = 1.856602 g / cm^3
# Si number density = 18.608376 Si / 1000 Ang^3
#
#
#
# Elastic Constant Matrix: (Units=GPa)
#
#
# Indices 1 2 3 4 5 6 
#
# 1 78.2546 13.8595 40.7317 0.0000 0.0000 0.0000
# 2 13.8595 14.0745 26.5675 0.0000 0.0000 0.0000
# 3 40.7317 26.5675 135.5742 0.0000 0.0000 0.0000
# 4 0.0000 0.0000 0.0000 20.5686 0.0000 0.0000
# 5 0.0000 0.0000 0.0000 0.0000 19.3708 0.0000
# 6 0.0000 0.0000 0.0000 0.0000 0.0000 14.5137
#
#
#
# Elastic Compliance Matrix: (Units=1/GPa)
#
#
# Indices 1 2 3 4 5 6 
#
# 1 0.016097 -0.010669 -0.002746 0.000000 0.000000 0.000000
# 2 -0.010669 0.119832 -0.020277 0.000000 0.000000 0.000000
# 3 -0.002746 -0.020277 0.012175 0.000000 0.000000 0.000000
# 4 0.000000 0.000000 0.000000 0.048618 0.000000 0.000000
# 5 0.000000 0.000000 0.000000 0.000000 0.051624 0.000000
# 6 0.000000 0.000000 0.000000 0.000000 0.000000 0.068900
#
#
# Mechanical properties :
#
#
# Convention : Reuss Voigt Hill
#
# Bulk Modulus (GPa) = 12.38840 43.35784 27.87312
# Shear Modulus (GPa) = 12.14958 20.67361 16.41160
#
# Velocity S-wave (km/s) = 2.55798 3.33676 2.97298
# Velocity P-wave (km/s) = 3.92380 6.18029 5.17650
#
# Compressibility (1/GPa) = 0.08072070
#
# Stress axis : x y z
#
# Youngs Moduli (GPa) = 62.12174 8.34499 82.13881
#
# Poissons Ratio (x) = 0.08903 0.22552
# Poissons Ratio (y) = 0.66277 1.66556
# Poissons Ratio (z) = 0.17056 0.16921
#
# Static dielectric constant tensor:
#      x y z
#    x 3.157870 0.000000 0.000000 
#    y 0.000000 3.287920 0.000000 
#    z 0.000000 0.000000 4.187990 
# 
# 
# High freq. dielectric constant tensor:
#      x y z
#    x 1.681640 0.000000 0.000000 
#    y 0.000000 1.695680 0.000000 
#    z 0.000000 0.000000 1.727120 
# 
# From -- ./inp_files/21332.got.cif
#   From: 2010.03.12/outbox.cif.g09.slc.cpg/sg57_11_cif.got.tgz:21332.got - 2010.04.16 15:48:40.
