data_PCOD8230627
_publ_section_title
;
Structure prediction by ZEFSAII (Michael W. Deem and Ramdas Pophale) SiO2 
 PCOD8230627
Probable space group: P B C M
;
_chemical_formula_sum "Si O2"
_cell_formula_units_Z 64
_cell_length_a 15.101468
_cell_length_b 30.295552
_cell_length_c 9.227849
_cell_angle_alpha 90.000000
_cell_angle_beta 90.000000
_cell_angle_gamma 90.000000
_cell_volume 4221.808364
_symmetry_space_group_name_H-M "P B C M"
_symmetry_group_IT_number 57
_symmetry_cell_setting 'orthorhombic'
loop_
_space_group_symop_operation_xyz
x,y,z
-x,-y,1/2+z
x,1/2-y,-z
-x,1/2+y,1/2-z
-x,-y,-z
x,y,1/2-z
-x,1/2+y,z
x,1/2-y,1/2+z
loop_
_atom_site_type_symbol
_atom_site_label
_atom_site_fract_x
_atom_site_fract_y
_atom_site_fract_z
Si Si1 0.585063 0.551687 0.411598
Si Si2 0.892527 0.877309 0.083391
Si Si3 0.111865 0.292007 0.913378
Si Si4 0.099049 0.792074 0.913702
Si Si5 0.758680 0.954848 0.080210
Si Si6 0.904107 0.378054 0.418407
Si Si7 0.772773 0.044895 0.579767
Si Si8 0.578344 0.053188 0.590005
O O1 0.596376 0.571198 0.250000
O O2 0.669642 0.564418 0.508201
O O3 0.575157 0.499476 0.405839
O O4 0.495750 0.572344 0.481433
O O5 0.884019 0.862814 0.250000
O O6 0.836845 0.920681 0.048790
O O7 0.994011 0.888270 0.044131
O O8 0.855171 0.836939 0.988541
O O9 0.148579 0.290561 0.750000
O O10 0.006408 0.290466 0.915543
O O11 0.150433 0.250000 0.000000
O O12 0.135564 0.791024 0.750000
O O13 0.137560 0.750000 0.000000
O O14 0.132190 0.836558 0.991224
O O15 0.741035 0.961772 0.250000
O O16 0.789604 0.000743 0.010786
O O17 0.891114 0.366734 0.250000
O O18 0.848623 0.420876 0.464097
O O19 0.774619 0.032635 0.750000
O O20 0.677415 0.066598 0.539717
O O21 0.558099 0.072120 0.750000
#
# Coordination Sequence:
#
# PCOD8230627 Si02
#       8
#     8   8   8   8   8   8   8   8
#     4   9  16  26  41  59  77 100 131 168 210 251
#     4   9  18  30  42  58  82 112 144 174 204 239
#     4   9  16  26  42  61  80 103 132 169 211 250
#     4   9  16  26  41  61  81 103 133 169 210 250
#     4  10  19  29  41  58  82 112 143 175 207 239
#     4   9  17  30  44  58  81 112 143 174 205 239
#     4   9  18  30  43  59  81 111 143 173 206 243
#     4   8  14  25  40  58  78 100 129 166 208 250
#
# _framework density 15.159381
#
# number of rings (size 3 to 8) (size 9 to 14) (size 15 to 20)
#    0.000    3.000    0.000    2.250    0.000    8.000 
#    0.000    0.000    0.000    0.000    0.000    0.000 
#    0.000    1.000    0.000    4.750    0.000    4.625 
#
# Total GULP energy -793440.719688 kJ/mol
# GULP energy per Si atom -12397.511245 kJ/mol
# Density = 1.512488 g / cm^3
# Si number density = 15.159381 Si / 1000 Ang^3
#
#
#
# Elastic Constant Matrix: (Units=GPa)
#
#
# Indices 1 2 3 4 5 6 
#
# 1 72.0783 46.7462 46.8014 0.0000 0.0000 0.0000
# 2 46.7462 84.3165 62.5105 0.0000 0.0000 0.0000
# 3 46.8014 62.5105 109.6889 0.0000 0.0000 0.0000
# 4 0.0000 0.0000 0.0000 25.6300 0.0000 0.0000
# 5 0.0000 0.0000 0.0000 0.0000 19.3122 0.0000
# 6 0.0000 0.0000 0.0000 0.0000 0.0000 0.6953
#
#
#
# Elastic Compliance Matrix: (Units=1/GPa)
#
#
# Indices 1 2 3 4 5 6 
#
# 1 0.022814 -0.009406 -0.004374 0.000000 0.000000 0.000000
# 2 -0.009406 0.024415 -0.009901 0.000000 0.000000 0.000000
# 3 -0.004374 -0.009901 0.016625 0.000000 0.000000 0.000000
# 4 0.000000 0.000000 0.000000 0.039017 0.000000 0.000000
# 5 0.000000 0.000000 0.000000 0.000000 0.051781 0.000000
# 6 0.000000 0.000000 0.000000 0.000000 0.000000 1.438276
#
#
# Mechanical properties :
#
#
# Convention : Reuss Voigt Hill
#
# Bulk Modulus (GPa) = 60.62967 64.24443 62.43705
# Shear Modulus (GPa) = 3.03806 16.46252 9.75029
#
# Velocity S-wave (km/s) = 1.41719 3.29897 2.53886
# Velocity P-wave (km/s) = 6.53908 7.54866 7.06193
#
# Compressibility (1/GPa) = 0.01649358
#
# Stress axis : x y z
#
# Youngs Moduli (GPa) = 43.83308 40.95887 60.14976
#
# Poissons Ratio (x) = 0.38524 0.26309
# Poissons Ratio (y) = 0.41227 0.59552
# Poissons Ratio (z) = 0.19172 0.40552
#
# Static dielectric constant tensor:
#      x y z
#    x 2.841600 0.000000 0.000000 
#    y 0.000000 2.698490 0.000000 
#    z 0.000000 0.000000 3.121990 
# 
# 
# High freq. dielectric constant tensor:
#      x y z
#    x 1.552290 0.000000 0.000000 
#    y 0.000000 1.549220 0.000000 
#    z 0.000000 0.000000 1.594220 
# 
# From -- ./inp_files/6065.got.cif
#   From: 2010.03.12/outbox.cif.g09.slc.cpg/sg57_4_cif.got.tgz:6065.got - 2010.04.16 15:48:40.
