data_PCOD8230613
_publ_section_title
;
Structure prediction by ZEFSAII (Michael W. Deem and Ramdas Pophale) SiO2 
 PCOD8230613
Probable space group: P B C M
;
_chemical_formula_sum "Si O2"
_cell_formula_units_Z 40
_cell_length_a 10.221382
_cell_length_b 12.990648
_cell_length_c 13.802826
_cell_angle_alpha 90.000000
_cell_angle_beta 90.000000
_cell_angle_gamma 90.000000
_cell_volume 1832.772027
_symmetry_space_group_name_H-M "P B C M"
_symmetry_group_IT_number 57
_symmetry_cell_setting 'orthorhombic'
loop_
_space_group_symop_operation_xyz
x,y,z
-x,-y,1/2+z
x,1/2-y,-z
-x,1/2+y,1/2-z
-x,-y,-z
x,y,1/2-z
-x,1/2+y,z
x,1/2-y,1/2+z
loop_
_atom_site_type_symbol
_atom_site_label
_atom_site_fract_x
_atom_site_fract_y
_atom_site_fract_z
Si Si1 0.642168 0.857283 0.750000
Si Si2 0.045771 0.414049 0.250000
Si Si3 0.414658 0.148060 0.455498
Si Si4 0.752848 0.070108 0.750000
Si Si5 0.081982 0.549350 0.085758
Si Si6 0.945053 0.678340 0.250000
Si Si7 0.315670 0.578292 0.541095
O O1 0.560357 0.821923 0.843461
O O2 0.788988 0.813286 0.750000
O O3 0.646910 0.979996 0.750000
O O4 0.124121 0.453581 0.155408
O O5 0.007806 0.295968 0.250000
O O6 0.902259 0.472435 0.250000
O O7 0.345377 0.250000 0.500000
O O8 0.549317 0.129807 0.511430
O O9 0.322648 0.047161 0.459293
O O10 0.725306 0.126163 0.853551
O O11 0.001602 0.630493 0.150726
O O12 0.207461 0.606452 0.039703
O O13 0.000000 0.500000 0.000000
#
# Coordination Sequence:
#
# PCOD8230613 Si02
#       7
#     4   4   8   4   8   4   8
#     4  10  20  42  60  82 131 161 208 268 322 374
#     4  11  23  37  60  98 125 165 211 259 323 386
#     4  10  23  40  62  92 120 170 218 266 318 372
#     4  10  18  42  61  87 133 163 196 264 331 367
#     4  11  21  42  64  90 131 169 208 257 326 395
#     4  11  25  39  61  99 127 169 211 275 326 385
#     4  10  22  40  66  91 125 172 213 259 321 392
#
# _framework density 21.824864000000002
#
# number of rings (size 3 to 8) (size 9 to 14) (size 15 to 20)
#    0.000    1.600    4.000    1.200    2.800    4.800 
#    0.000    3.000    0.000    0.000    0.000    0.000 
#    0.000    0.000    0.000    0.000    0.000    0.000 
#
# Total GULP energy -495639.836961 kJ/mol
# GULP energy per Si atom -12390.995924 kJ/mol
# Density = 2.177519 g / cm^3
# Si number density = 21.824864 Si / 1000 Ang^3
#
#
#
# Elastic Constant Matrix: (Units=GPa)
#
#
# Indices 1 2 3 4 5 6 
#
# 1 64.1170 -10.2840 39.5096 0.0000 0.0000 0.0000
# 2 -10.2840 83.4705 34.7169 0.0000 0.0000 0.0000
# 3 39.5096 34.7169 198.5672 0.0000 0.0000 0.0000
# 4 0.0000 0.0000 0.0000 11.3832 0.0000 0.0000
# 5 0.0000 0.0000 0.0000 0.0000 42.1161 0.0000
# 6 0.0000 0.0000 0.0000 0.0000 0.0000 15.5092
#
#
#
# Elastic Compliance Matrix: (Units=1/GPa)
#
#
# Indices 1 2 3 4 5 6 
#
# 1 0.019070 0.004236 -0.004535 0.000000 0.000000 0.000000
# 2 0.004236 0.013861 -0.003266 0.000000 0.000000 0.000000
# 3 -0.004535 -0.003266 0.006509 0.000000 0.000000 0.000000
# 4 0.000000 0.000000 0.000000 0.087849 0.000000 0.000000
# 5 0.000000 0.000000 0.000000 0.000000 0.023744 0.000000
# 6 0.000000 0.000000 0.000000 0.000000 0.000000 0.064478
#
#
# Mechanical properties :
#
#
# Convention : Reuss Voigt Hill
#
# Bulk Modulus (GPa) = 30.95048 52.67107 41.81077
# Shear Modulus (GPa) = 21.42134 32.61584 27.01859
#
# Velocity S-wave (km/s) = 3.13631 3.86999 3.52230
# Velocity P-wave (km/s) = 5.22755 6.64492 5.97839
#
# Compressibility (1/GPa) = 0.03230968
#
# Stress axis : x y z
#
# Youngs Moduli (GPa) = 52.43712 72.14685 153.62191
#
# Poissons Ratio (x) = -0.30560 0.69669
# Poissons Ratio (y) = -0.22211 0.50175
# Poissons Ratio (z) = 0.23781 0.23564
#
# Static dielectric constant tensor:
#      x y z
#    x 3.704000 0.000000 0.000000 
#    y 0.000000 3.926050 0.000000 
#    z 0.000000 0.000000 4.460820 
# 
# 
# High freq. dielectric constant tensor:
#      x y z
#    x 1.834310 0.000000 0.000000 
#    y 0.000000 1.839400 0.000000 
#    z 0.000000 0.000000 1.885550 
# 
# From -- ./inp_files/12784.got.cif
#   From: 2010.03.12/outbox.cif.g09.slc.cpg/sg57_7_cif.got.tgz:12784.got - 2010.04.16 15:48:40.
