data_PCOD8230040
_publ_section_title
;
Structure prediction by ZEFSAII (Michael W. Deem and Ramdas Pophale) SiO2 
 PCOD8230040
Probable space group: P B C M
;
_chemical_formula_sum "Si O2"
_cell_formula_units_Z 40
_cell_length_a 12.692065
_cell_length_b 9.841816
_cell_length_c 17.240339
_cell_angle_alpha 90.000000
_cell_angle_beta 90.000000
_cell_angle_gamma 90.000000
_cell_volume 2153.541921
_symmetry_space_group_name_H-M "P B C M"
_symmetry_group_IT_number 57
_symmetry_cell_setting 'orthorhombic'
loop_
_space_group_symop_operation_xyz
x,y,z
-x,-y,1/2+z
x,1/2-y,-z
-x,1/2+y,1/2-z
-x,-y,-z
x,y,1/2-z
-x,1/2+y,z
x,1/2-y,1/2+z
loop_
_atom_site_type_symbol
_atom_site_label
_atom_site_fract_x
_atom_site_fract_y
_atom_site_fract_z
Si Si1 0.253224 0.104619 0.036371
Si Si2 0.476774 0.375944 0.554133
Si Si3 0.097272 0.786327 0.660162
Si Si4 0.042744 0.993217 0.086831
Si Si5 0.702215 0.143474 0.069911
O O1 0.159383 0.056736 0.091956
O O2 0.225214 0.250000 0.000000
O O3 0.359931 0.102902 0.091393
O O4 0.265793 0.003377 0.963076
O O5 0.456832 0.250000 0.500000
O O6 0.500000 0.500000 0.500000
O O7 0.582150 0.357016 0.606921
O O8 0.093753 0.749717 0.750000
O O9 0.045575 0.663341 0.612342
O O10 0.218570 0.810471 0.636702
O O11 0.032147 0.922939 0.643917
O O12 0.000000 0.000000 0.000000
O O13 0.706110 0.250000 0.000000
#
# Coordination Sequence:
#
# PCOD8230040 Si02
#       5
#     8   8   8   8   8
#     4  10  18  31  55  91 111 137 187 243 281 319
#     4   8  16  27  50  84 114 132 174 240 282 317
#     4  12  25  39  56  83 117 152 186 237 297 347
#     4  12  22  39  61  84 111 150 200 236 281 343
#     4  10  17  35  57  84 111 146 189 231 280 338
#
# _framework density 18.574051999999998
#
# number of rings (size 3 to 8) (size 9 to 14) (size 15 to 20)
#    0.000    1.600    4.000    2.400    0.000    0.000 
#    0.000    0.000    0.000    2.400    0.000    0.000 
#    0.000    0.000    0.000    0.000    0.000    0.000 
#
# Total GULP energy -495565.359501 kJ/mol
# GULP energy per Si atom -12389.133988 kJ/mol
# Density = 1.853178 g / cm^3
# Si number density = 18.574052 Si / 1000 Ang^3
#
#
#
# Elastic Constant Matrix: (Units=GPa)
#
#
# Indices 1 2 3 4 5 6 
#
# 1 156.1551 15.7740 30.9485 0.0000 0.0000 0.0000
# 2 15.7740 105.9192 14.9837 0.0000 0.0000 0.0000
# 3 30.9485 14.9837 69.0244 0.0000 0.0000 0.0000
# 4 0.0000 0.0000 0.0000 18.2661 0.0000 0.0000
# 5 0.0000 0.0000 0.0000 0.0000 11.7401 0.0000
# 6 0.0000 0.0000 0.0000 0.0000 0.0000 28.9524
#
#
#
# Elastic Compliance Matrix: (Units=1/GPa)
#
#
# Indices 1 2 3 4 5 6 
#
# 1 0.007068 -0.000623 -0.003034 0.000000 0.000000 0.000000
# 2 -0.000623 0.009795 -0.001847 0.000000 0.000000 0.000000
# 3 -0.003034 -0.001847 0.016249 0.000000 0.000000 0.000000
# 4 0.000000 0.000000 0.000000 0.054746 0.000000 0.000000
# 5 0.000000 0.000000 0.000000 0.000000 0.085178 0.000000
# 6 0.000000 0.000000 0.000000 0.000000 0.000000 0.034539
#
#
# Mechanical properties :
#
#
# Convention : Reuss Voigt Hill
#
# Bulk Modulus (GPa) = 45.24052 50.50124 47.87088
# Shear Modulus (GPa) = 22.12859 29.75122 25.93991
#
# Velocity S-wave (km/s) = 3.45537 4.00654 3.74112
# Velocity P-wave (km/s) = 6.35052 6.97505 6.67010
#
# Compressibility (1/GPa) = 0.02210408
#
# Stress axis : x y z
#
# Youngs Moduli (GPa) = 141.47989 102.09012 61.54299
#
# Poissons Ratio (x) = 0.06365 0.18671
# Poissons Ratio (y) = 0.08821 0.11366
# Poissons Ratio (z) = 0.42922 0.18854
#
# Static dielectric constant tensor:
#      x y z
#    x 4.977930 0.000000 0.000000 
#    y 0.000000 3.716330 0.000000 
#    z 0.000000 0.000000 2.784600 
# 
# 
# High freq. dielectric constant tensor:
#      x y z
#    x 1.758480 0.000000 0.000000 
#    y 0.000000 1.749670 0.000000 
#    z 0.000000 0.000000 1.636140 
# 
# From -- ./inp_files/17413.got.cif
#   From: 2010.03.12/outbox.cif.g09.slc.cpg/sg57_9_cif.got.tgz:17413.got - 2010.04.16 15:48:40.
