data_PCOD8230234
_publ_section_title
;
Structure prediction by ZEFSAII (Michael W. Deem and Ramdas Pophale) SiO2 
 PCOD8230234
Probable space group: P B C M
;
_chemical_formula_sum "Si O2"
_cell_formula_units_Z 64
_cell_length_a 20.347264
_cell_length_b 20.156658
_cell_length_c 9.049286
_cell_angle_alpha 90.000000
_cell_angle_beta 90.000000
_cell_angle_gamma 90.000000
_cell_volume 3711.409382
_symmetry_space_group_name_H-M "P B C M"
_symmetry_group_IT_number 57
_symmetry_cell_setting 'orthorhombic'
loop_
_space_group_symop_operation_xyz
x,y,z
-x,-y,1/2+z
x,1/2-y,-z
-x,1/2+y,1/2-z
-x,-y,-z
x,y,1/2-z
-x,1/2+y,z
x,1/2-y,1/2+z
loop_
_atom_site_type_symbol
_atom_site_label
_atom_site_fract_x
_atom_site_fract_y
_atom_site_fract_z
Si Si1 0.942586 0.182239 0.076977
Si Si2 0.299227 0.055681 0.082642
Si Si3 0.573088 0.571004 0.582925
Si Si4 0.810734 0.386239 0.921048
Si Si5 0.035649 0.061445 0.424904
Si Si6 0.168938 0.459548 0.422461
Si Si7 0.318043 0.898834 0.416020
Si Si8 0.445117 0.913823 0.583299
O O1 0.941078 0.194226 0.250000
O O2 0.870595 0.159035 0.022467
O O3 0.995902 0.127357 0.034296
O O4 0.963309 0.250000 0.000000
O O5 0.292149 0.082071 0.250000
O O6 0.310174 0.977433 0.081942
O O7 0.361260 0.091219 0.005622
O O8 0.234421 0.073555 0.989482
O O9 0.578448 0.597602 0.750000
O O10 0.510951 0.605673 0.504831
O O11 0.564341 0.492366 0.582324
O O12 0.794692 0.374972 0.750000
O O13 0.831411 0.461906 0.949098
O O14 0.746090 0.365524 0.011606
O O15 0.038597 0.049028 0.250000
O O16 0.107923 0.071545 0.490685
O O17 0.000000 0.000000 0.500000
O O18 0.164307 0.441920 0.250000
O O19 0.325344 0.871941 0.250000
O O20 0.382969 0.878337 0.506535
O O21 0.451079 0.887195 0.750000
#
# Coordination Sequence:
#
# PCOD8230234 Si02
#       8
#     8   8   8   8   8   8   8   8
#     4  10  22  38  53  73  99 128 161 200 245 297
#     4   9  16  25  36  55  81 111 147 187 231 280
#     4   9  15  22  32  47  71 106 145 186 227 272
#     4   9  17  31  46  63  90 119 150 192 237 282
#     4  11  21  35  53  75  99 125 160 202 246 295
#     4  10  18  30  47  68  92 119 154 197 242 286
#     4   9  16  24  36  56  78 105 146 189 227 272
#     4   9  15  22  32  47  70 105 144 184 228 272
#
# _framework density 17.244122999999998
#
# number of rings (size 3 to 8) (size 9 to 14) (size 15 to 20)
#    0.000    2.500    1.250    2.250    0.000    8.000 
#    0.000    0.000    0.000    0.000    0.000    0.000 
#    0.000    0.000    0.000    1.125    0.000   15.750 
#
# Total GULP energy -793605.899213 kJ/mol
# GULP energy per Si atom -12400.092175 kJ/mol
# Density = 1.720487 g / cm^3
# Si number density = 17.244123 Si / 1000 Ang^3
#
#
#
# Elastic Constant Matrix: (Units=GPa)
#
#
# Indices 1 2 3 4 5 6 
#
# 1 164.3936 39.3241 81.0623 0.0000 0.0000 0.0000
# 2 39.3241 40.0839 33.9773 0.0000 0.0000 0.0000
# 3 81.0623 33.9773 132.7599 0.0000 0.0000 0.0000
# 4 0.0000 0.0000 0.0000 14.0930 0.0000 0.0000
# 5 0.0000 0.0000 0.0000 0.0000 40.3369 0.0000
# 6 0.0000 0.0000 0.0000 0.0000 0.0000 10.2558
#
#
#
# Elastic Compliance Matrix: (Units=1/GPa)
#
#
# Indices 1 2 3 4 5 6 
#
# 1 0.009624 -0.005696 -0.004419 0.000000 0.000000 0.000000
# 2 -0.005696 0.035231 -0.005538 0.000000 0.000000 0.000000
# 3 -0.004419 -0.005538 0.011648 0.000000 0.000000 0.000000
# 4 0.000000 0.000000 0.000000 0.070957 0.000000 0.000000
# 5 0.000000 0.000000 0.000000 0.000000 0.024791 0.000000
# 6 0.000000 0.000000 0.000000 0.000000 0.000000 0.097506
#
#
# Mechanical properties :
#
#
# Convention : Reuss Voigt Hill
#
# Bulk Modulus (GPa) = 39.68891 71.77385 55.73138
# Shear Modulus (GPa) = 17.27337 25.12873 21.20105
#
# Velocity S-wave (km/s) = 3.16839 3.82152 3.51018
# Velocity P-wave (km/s) = 6.03745 7.82205 6.98696
#
# Compressibility (1/GPa) = 0.02519596
#
# Stress axis : x y z
#
# Youngs Moduli (GPa) = 103.90183 28.38422 85.85250
#
# Poissons Ratio (x) = 0.16169 0.37936
# Poissons Ratio (y) = 0.59187 0.47549
# Poissons Ratio (z) = 0.45911 0.15720
#
# Static dielectric constant tensor:
#      x y z
#    x 3.529780 0.000000 0.000000 
#    y 0.000000 -2.455370 0.000000 
#    z 0.000000 0.000000 3.385270 
# 
# 
# High freq. dielectric constant tensor:
#      x y z
#    x 1.685060 0.000000 0.000000 
#    y 0.000000 1.580300 0.000000 
#    z 0.000000 0.000000 1.682060 
# 
# From -- ./inp_files/8678.got.cif
#   From: 2010.03.12/outbox.cif.g09.slc.cpg/sg57_5_cif.got.tgz:8678.got - 2010.04.16 15:48:40.
