data_PCOD8230500
_publ_section_title
;
Structure prediction by ZEFSAII (Michael W. Deem and Ramdas Pophale) SiO2 
 PCOD8230500
Probable space group: P B C M
;
_chemical_formula_sum "Si O2"
_cell_formula_units_Z 56
_cell_length_a 13.685990
_cell_length_b 20.149128
_cell_length_c 9.669487
_cell_angle_alpha 90.000000
_cell_angle_beta 90.000000
_cell_angle_gamma 90.000000
_cell_volume 2666.465126
_symmetry_space_group_name_H-M "P B C M"
_symmetry_group_IT_number 57
_symmetry_cell_setting 'orthorhombic'
loop_
_space_group_symop_operation_xyz
x,y,z
-x,-y,1/2+z
x,1/2-y,-z
-x,1/2+y,1/2-z
-x,-y,-z
x,y,1/2-z
-x,1/2+y,z
x,1/2-y,1/2+z
loop_
_atom_site_type_symbol
_atom_site_label
_atom_site_fract_x
_atom_site_fract_y
_atom_site_fract_z
Si Si1 0.723516 0.691383 0.094433
Si Si2 0.360998 0.441611 0.493749
Si Si3 0.077732 0.371571 0.589047
Si Si4 0.137179 0.869668 0.588808
Si Si5 0.336949 0.686655 0.415980
Si Si6 0.428431 0.577301 0.900275
Si Si7 0.843813 0.983286 0.094118
O O1 0.717093 0.717633 0.250000
O O2 0.836792 0.679767 0.050212
O O3 0.679886 0.750000 0.000000
O O4 0.661166 0.624186 0.083344
O O5 0.454487 0.428303 0.398919
O O6 0.381730 0.504134 0.592449
O O7 0.267389 0.457464 0.399812
O O8 0.085375 0.391186 0.750000
O O9 0.088131 0.438531 0.502159
O O10 0.970695 0.340581 0.554179
O O11 0.153454 0.878413 0.750000
O O12 0.223169 0.821071 0.537852
O O13 0.150912 0.943386 0.526708
O O14 0.377707 0.750000 0.500000
O O15 0.352698 0.693823 0.250000
O O16 0.394669 0.622274 0.470743
O O17 0.397891 0.607209 0.750000
O O18 0.885790 0.981228 0.250000
#
# Coordination Sequence:
#
# PCOD8230500 Si02
#       7
#     8   8   8   8   8   8   8
#     4  10  22  39  59  86 120 159 198 243 294 349
#     4  10  22  39  63  91 122 153 195 247 302 361
#     4   9  19  35  55  83 119 157 196 242 296 350
#     4   9  18  35  58  83 117 158 196 241 296 351
#     4  11  24  43  63  87 122 162 203 250 302 359
#     4  11  23  40  65  93 119 154 200 250 305 364
#     4  10  18  33  57  88 120 153 193 240 295 353
#
# _framework density 21.001588000000002
#
# number of rings (size 3 to 8) (size 9 to 14) (size 15 to 20)
#    0.000    2.000    1.429    1.714    0.000    7.429 
#    0.000    1.429    0.000    0.000    0.000    0.000 
#    0.000    0.000    0.000    0.000    0.000    0.000 
#
# Total GULP energy -694144.549360 kJ/mol
# GULP energy per Si atom -12395.438381 kJ/mol
# Density = 2.095379 g / cm^3
# Si number density = 21.001588 Si / 1000 Ang^3
#
#
#
# Elastic Constant Matrix: (Units=GPa)
#
#
# Indices 1 2 3 4 5 6 
#
# 1 80.8985 21.5637 14.1614 0.0000 0.0000 0.0000
# 2 21.5637 108.4342 43.4940 0.0000 0.0000 0.0000
# 3 14.1614 43.4940 95.9017 0.0000 0.0000 0.0000
# 4 0.0000 0.0000 0.0000 27.2139 0.0000 0.0000
# 5 0.0000 0.0000 0.0000 0.0000 15.1955 0.0000
# 6 0.0000 0.0000 0.0000 0.0000 0.0000 13.9033
#
#
#
# Elastic Compliance Matrix: (Units=1/GPa)
#
#
# Indices 1 2 3 4 5 6 
#
# 1 0.013119 -0.002239 -0.000922 0.000000 0.000000 0.000000
# 2 -0.002239 0.011655 -0.004955 0.000000 0.000000 0.000000
# 3 -0.000922 -0.004955 0.012811 0.000000 0.000000 0.000000
# 4 0.000000 0.000000 0.000000 0.036746 0.000000 0.000000
# 5 0.000000 0.000000 0.000000 0.000000 0.065809 0.000000
# 6 0.000000 0.000000 0.000000 0.000000 0.000000 0.071925
#
#
# Mechanical properties :
#
#
# Convention : Reuss Voigt Hill
#
# Bulk Modulus (GPa) = 46.83218 49.29693 48.06456
# Shear Modulus (GPa) = 21.23905 24.99690 23.11797
#
# Velocity S-wave (km/s) = 3.18356 3.45373 3.32139
# Velocity P-wave (km/s) = 5.98842 6.27919 6.13553
#
# Compressibility (1/GPa) = 0.02135284
#
# Stress axis : x y z
#
# Youngs Moduli (GPa) = 76.22300 85.79947 78.05929
#
# Poissons Ratio (x) = 0.19213 0.07195
# Poissons Ratio (y) = 0.17068 0.38680
# Poissons Ratio (z) = 0.07026 0.42516
#
# Static dielectric constant tensor:
#      x y z
#    x 3.971970 0.000000 0.000000 
#    y 0.000000 3.630140 0.000000 
#    z 0.000000 0.000000 3.482270 
# 
# 
# High freq. dielectric constant tensor:
#      x y z
#    x 1.829120 0.000000 0.000000 
#    y 0.000000 1.811730 0.000000 
#    z 0.000000 0.000000 1.806060 
# 
# From -- ./inp_files/5276.got.cif
#   From: 2010.03.12/outbox.cif.g09.slc.cpg/sg57_3_cif.got.tgz:5276.got - 2010.04.16 15:48:40.
