data_PCOD8230914
_publ_section_title
;
Structure prediction by ZEFSAII (Michael W. Deem and Ramdas Pophale) SiO2 
 PCOD8230914
Probable space group: P B C M
;
_chemical_formula_sum "Si O2"
_cell_formula_units_Z 64
_cell_length_a 20.032703
_cell_length_b 19.471980
_cell_length_c 9.063726
_cell_angle_alpha 90.000000
_cell_angle_beta 90.000000
_cell_angle_gamma 90.000000
_cell_volume 3535.545538
_symmetry_space_group_name_H-M "P B C M"
_symmetry_group_IT_number 57
_symmetry_cell_setting 'orthorhombic'
loop_
_space_group_symop_operation_xyz
x,y,z
-x,-y,1/2+z
x,1/2-y,-z
-x,1/2+y,1/2-z
-x,-y,-z
x,y,1/2-z
-x,1/2+y,z
x,1/2-y,1/2+z
loop_
_atom_site_type_symbol
_atom_site_label
_atom_site_fract_x
_atom_site_fract_y
_atom_site_fract_z
Si Si1 0.768645 0.936278 0.577832
Si Si2 0.609186 0.176230 0.924362
Si Si3 0.967680 0.407320 0.919578
Si Si4 0.261066 0.909955 0.079999
Si Si5 0.518191 0.676964 0.077025
Si Si6 0.907280 0.552122 0.577160
Si Si7 0.334243 0.177516 0.422077
Si Si8 0.843929 0.320395 0.920352
O O1 0.782965 0.927280 0.750000
O O2 0.837974 0.926607 0.494663
O O3 0.718568 0.877822 0.518358
O O4 0.734045 0.009294 0.545058
O O5 0.599936 0.186471 0.750000
O O6 0.669542 0.125503 0.962121
O O7 0.623065 0.250000 0.000000
O O8 0.543329 0.138735 0.994758
O O9 0.989535 0.414584 0.750000
O O10 0.925649 0.474393 0.967986
O O11 0.921002 0.341263 0.945610
O O12 0.033912 0.398331 0.017366
O O13 0.242734 0.896415 0.250000
O O14 0.202400 0.880359 0.980703
O O15 0.502266 0.683075 0.250000
O O16 0.591656 0.645165 0.049170
O O17 0.518999 0.750000 0.000000
O O18 0.900711 0.562464 0.750000
O O19 0.322593 0.250000 0.500000
O O20 0.324682 0.191475 0.250000
O O21 0.827467 0.310450 0.750000
O O22 0.827254 0.250000 0.000000
#
# Coordination Sequence:
#
# PCOD8230914 Si02
#       8
#     8   8   8   8   8   8   8   8
#     4  10  20  36  56  78 107 141 174 214 265 319
#     4  10  19  31  48  73 102 136 177 217 258 305
#     4   9  19  35  53  76 104 135 171 214 259 306
#     4  10  21  35  52  75 105 143 181 216 260 314
#     4   9  16  29  50  74  99 131 172 215 260 311
#     4  10  19  33  55  81 104 131 172 216 258 307
#     4   9  19  35  56  80 104 133 171 216 267 322
#     4  11  22  36  54  78 110 143 180 221 263 310
#
# _framework density 18.101873999999999
#
# number of rings (size 3 to 8) (size 9 to 14) (size 15 to 20)
#    0.000    2.250    1.250    2.625    0.000    4.500 
#    0.000    1.250    0.000    0.000    0.000    0.000 
#    0.000    0.000    0.000    0.000    0.000    0.000 
#
# Total GULP energy -793444.891079 kJ/mol
# GULP energy per Si atom -12397.576423 kJ/mol
# Density = 1.806067 g / cm^3
# Si number density = 18.101874 Si / 1000 Ang^3
#
#
#
# Elastic Constant Matrix: (Units=GPa)
#
#
# Indices 1 2 3 4 5 6 
#
# 1 151.6818 56.8123 65.2936 0.0000 0.0000 0.0000
# 2 56.8123 81.1492 41.1521 0.0000 0.0000 0.0000
# 3 65.2936 41.1521 86.2781 0.0000 0.0000 0.0000
# 4 0.0000 0.0000 0.0000 19.5940 0.0000 0.0000
# 5 0.0000 0.0000 0.0000 0.0000 31.2678 0.0000
# 6 0.0000 0.0000 0.0000 0.0000 0.0000 27.0159
#
#
#
# Elastic Compliance Matrix: (Units=1/GPa)
#
#
# Indices 1 2 3 4 5 6 
#
# 1 0.010922 -0.004557 -0.006092 0.000000 0.000000 0.000000
# 2 -0.004557 0.018156 -0.005211 0.000000 0.000000 0.000000
# 3 -0.006092 -0.005211 0.018686 0.000000 0.000000 0.000000
# 4 0.000000 0.000000 0.000000 0.051036 0.000000 0.000000
# 5 0.000000 0.000000 0.000000 0.000000 0.031982 0.000000
# 6 0.000000 0.000000 0.000000 0.000000 0.000000 0.037015
#
#
# Mechanical properties :
#
#
# Convention : Reuss Voigt Hill
#
# Bulk Modulus (GPa) = 62.32912 71.73612 67.03262
# Shear Modulus (GPa) = 24.40622 25.96560 25.18591
#
# Velocity S-wave (km/s) = 3.67586 3.79148 3.73412
# Velocity P-wave (km/s) = 7.24728 7.67347 7.46342
#
# Compressibility (1/GPa) = 0.01604387
#
# Stress axis : x y z
#
# Youngs Moduli (GPa) = 91.55862 55.07795 53.51525
#
# Poissons Ratio (x) = 0.25100 0.32601
# Poissons Ratio (y) = 0.41724 0.27888
# Poissons Ratio (z) = 0.55777 0.28702
#
# Static dielectric constant tensor:
#      x y z
#    x 3.807470 0.000000 0.000000 
#    y 0.000000 3.112770 0.000000 
#    z 0.000000 0.000000 3.386780 
# 
# 
# High freq. dielectric constant tensor:
#      x y z
#    x 1.715400 0.000000 0.000000 
#    y 0.000000 1.669120 0.000000 
#    z 0.000000 0.000000 1.707710 
# 
# From -- ./inp_files/8572.got.cif
#   From: 2010.03.12/outbox.cif.g09.slc.cpg/sg57_5_cif.got.tgz:8572.got - 2010.04.16 15:48:40.
