data_PCOD8230044
_publ_section_title
;
Structure prediction by ZEFSAII (Michael W. Deem and Ramdas Pophale) SiO2 
 PCOD8230044
Probable space group: P B C M
;
_chemical_formula_sum "Si O2"
_cell_formula_units_Z 48
_cell_length_a 7.819318
_cell_length_b 14.344240
_cell_length_c 19.236913
_cell_angle_alpha 90.000000
_cell_angle_beta 90.000000
_cell_angle_gamma 90.000000
_cell_volume 2157.653984
_symmetry_space_group_name_H-M "P B C M"
_symmetry_group_IT_number 57
_symmetry_cell_setting 'orthorhombic'
loop_
_space_group_symop_operation_xyz
x,y,z
-x,-y,1/2+z
x,1/2-y,-z
-x,1/2+y,1/2-z
-x,-y,-z
x,y,1/2-z
-x,1/2+y,z
x,1/2-y,1/2+z
loop_
_atom_site_type_symbol
_atom_site_label
_atom_site_fract_x
_atom_site_fract_y
_atom_site_fract_z
Si Si1 0.469193 0.814316 0.600321
Si Si2 0.120209 0.948673 0.091954
Si Si3 0.589636 0.638327 0.950202
Si Si4 0.235894 0.542148 0.441930
Si Si5 0.787400 0.619114 0.170782
Si Si6 0.050421 0.232531 0.576460
O O1 0.450167 0.701216 0.592848
O O2 0.554330 0.860382 0.531852
O O3 0.281774 0.863984 0.602962
O O4 0.593949 0.841102 0.663711
O O5 0.066154 0.844712 0.116463
O O6 0.213394 0.008737 0.151590
O O7 0.245848 0.939895 0.025246
O O8 0.951763 0.008252 0.074496
O O9 0.615815 0.533451 0.922621
O O10 0.765905 0.690949 0.938391
O O11 0.845052 0.631229 0.250000
O O12 0.924853 0.675022 0.122902
O O13 0.964920 0.250000 0.500000
#
# Coordination Sequence:
#
# PCOD8230044 Si02
#       6
#     8   8   8   8   8   8
#     4  10  18  33  54  83 109 146 190 238 287 350
#     4  10  21  35  56  87 118 147 191 241 302 360
#     4   9  16  30  54  81 112 135 185 243 288 334
#     4  10  18  33  57  87 115 141 184 251 300 336
#     4  11  22  38  57  80 117 163 196 237 299 361
#     4  10  17  36  59  82 113 147 200 248 289 354
#
# _framework density 22.246386000000001
#
# number of rings (size 3 to 8) (size 9 to 14) (size 15 to 20)
#    0.000    2.000    5.000    2.500    0.000    0.667 
#    9.000    0.833    0.000    4.000    0.000    0.000 
#    0.000    0.000    0.000    0.000    0.000    0.000 
#
# Total GULP energy -594668.389133 kJ/mol
# GULP energy per Si atom -12388.924774 kJ/mol
# Density = 2.219575 g / cm^3
# Si number density = 22.246386 Si / 1000 Ang^3
#
#
#
# Elastic Constant Matrix: (Units=GPa)
#
#
# Indices 1 2 3 4 5 6 
#
# 1 37.6813 22.3617 8.7883 0.0000 0.0000 0.0000
# 2 22.3617 115.8740 23.0784 0.0000 0.0000 0.0000
# 3 8.7883 23.0784 87.1647 0.0000 0.0000 0.0000
# 4 0.0000 0.0000 0.0000 17.2083 0.0000 0.0000
# 5 0.0000 0.0000 0.0000 0.0000 9.6427 0.0000
# 6 0.0000 0.0000 0.0000 0.0000 0.0000 23.3784
#
#
#
# Elastic Compliance Matrix: (Units=1/GPa)
#
#
# Indices 1 2 3 4 5 6 
#
# 1 0.030177 -0.005508 -0.001584 0.000000 0.000000 0.000000
# 2 -0.005508 0.010116 -0.002123 0.000000 0.000000 0.000000
# 3 -0.001584 -0.002123 0.012194 0.000000 0.000000 0.000000
# 4 0.000000 0.000000 0.000000 0.058112 0.000000 0.000000
# 5 0.000000 0.000000 0.000000 0.000000 0.103705 0.000000
# 6 0.000000 0.000000 0.000000 0.000000 0.000000 0.042775
#
#
# Mechanical properties :
#
#
# Convention : Reuss Voigt Hill
#
# Bulk Modulus (GPa) = 29.36311 38.79743 34.08027
# Shear Modulus (GPa) = 17.43004 22.47863 19.95434
#
# Velocity S-wave (km/s) = 2.80214 3.18219 2.99819
# Velocity P-wave (km/s) = 4.86796 5.56592 5.22860
#
# Compressibility (1/GPa) = 0.03405634
#
# Stress axis : x y z
#
# Youngs Moduli (GPa) = 33.13827 98.85470 82.00510
#
# Poissons Ratio (x) = 0.54450 0.12991
# Poissons Ratio (y) = 0.18253 0.17410
# Poissons Ratio (z) = 0.05250 0.20987
#
# Static dielectric constant tensor:
#      x y z
#    x 4.085750 0.000000 0.000000 
#    y 0.000000 5.153660 0.000000 
#    z 0.000000 0.000000 3.291890 
# 
# 
# High freq. dielectric constant tensor:
#      x y z
#    x 1.881180 0.000000 0.000000 
#    y 0.000000 1.902580 0.000000 
#    z 0.000000 0.000000 1.784290 
# 
# From -- ./inp_files/24241.got.cif
#   From: 2010.03.12/outbox.cif.g09.slc.cpg/sg57_13_cif.got.tgz:24241.got - 2010.04.16 15:48:40.
