data_PCOD8230287
_publ_section_title
;
Structure prediction by ZEFSAII (Michael W. Deem and Ramdas Pophale) SiO2 
 PCOD8230287
Probable space group: P B C M
;
_chemical_formula_sum "Si O2"
_cell_formula_units_Z 32
_cell_length_a 11.732077
_cell_length_b 18.860223
_cell_length_c 8.822834
_cell_angle_alpha 90.000000
_cell_angle_beta 90.000000
_cell_angle_gamma 90.000000
_cell_volume 1952.224848
_symmetry_space_group_name_H-M "P B C M"
_symmetry_group_IT_number 57
_symmetry_cell_setting 'orthorhombic'
loop_
_space_group_symop_operation_xyz
x,y,z
-x,-y,1/2+z
x,1/2-y,-z
-x,1/2+y,1/2-z
-x,-y,-z
x,y,1/2-z
-x,1/2+y,z
x,1/2-y,1/2+z
loop_
_atom_site_type_symbol
_atom_site_label
_atom_site_fract_x
_atom_site_fract_y
_atom_site_fract_z
Si Si1 0.695186 0.908336 0.578741
Si Si2 0.122852 0.007747 0.571386
Si Si3 0.500773 0.825076 0.070130
Si Si4 0.314900 0.563889 0.578896
O O1 0.715872 0.881282 0.750000
O O2 0.817235 0.920800 0.495475
O O3 0.623497 0.849769 0.489528
O O4 0.629453 0.984594 0.578920
O O5 0.112711 0.013394 0.750000
O O6 0.200124 0.939121 0.524044
O O7 0.000000 0.000000 0.500000
O O8 0.505364 0.820674 0.250000
O O9 0.404694 0.880066 0.012525
O O10 0.468139 0.750000 0.000000
O O11 0.279911 0.585295 0.750000
#
# Coordination Sequence:
#
# PCOD8230287 Si02
#       4
#     8   8   8   8
#     4   9  18  33  51  73 100 129 165 206 247 294
#     4  10  18  30  51  76 100 126 162 206 250 292
#     4  11  21  33  49  73 104 136 166 201 245 294
#     4   8  18  33  50  72 100 130 165 204 245 293
#
# _framework density 16.391553999999999
#
# number of rings (size 3 to 8) (size 9 to 14) (size 15 to 20)
#    1.500    1.000    0.000    3.750    0.000    2.000 
#    0.000    0.000    0.000    1.500    0.000    7.000 
#    0.000    0.000    0.000    0.000    0.000    0.000 
#
# Total GULP energy -396451.181877 kJ/mol
# GULP energy per Si atom -12389.099434 kJ/mol
# Density = 1.635425 g / cm^3
# Si number density = 16.391554 Si / 1000 Ang^3
#
#
#
# Elastic Constant Matrix: (Units=GPa)
#
#
# Indices 1 2 3 4 5 6 
#
# 1 92.8599 21.7937 46.4834 0.0000 0.0000 0.0000
# 2 21.7937 52.3802 23.0912 0.0000 0.0000 0.0000
# 3 46.4834 23.0912 118.4547 0.0000 0.0000 0.0000
# 4 0.0000 0.0000 0.0000 25.8060 0.0000 0.0000
# 5 0.0000 0.0000 0.0000 0.0000 29.6457 0.0000
# 6 0.0000 0.0000 0.0000 0.0000 0.0000 9.3102
#
#
#
# Elastic Compliance Matrix: (Units=1/GPa)
#
#
# Indices 1 2 3 4 5 6 
#
# 1 0.014038 -0.003733 -0.004781 0.000000 0.000000 0.000000
# 2 -0.003733 0.021879 -0.002800 0.000000 0.000000 0.000000
# 3 -0.004781 -0.002800 0.010864 0.000000 0.000000 0.000000
# 4 0.000000 0.000000 0.000000 0.038751 0.000000 0.000000
# 5 0.000000 0.000000 0.000000 0.000000 0.033732 0.000000
# 6 0.000000 0.000000 0.000000 0.000000 0.000000 0.107409
#
#
# Mechanical properties :
#
#
# Convention : Reuss Voigt Hill
#
# Bulk Modulus (GPa) = 41.40352 49.60349 45.50350
# Shear Modulus (GPa) = 19.42861 24.44079 21.93470
#
# Velocity S-wave (km/s) = 3.44653 3.86561 3.66207
# Velocity P-wave (km/s) = 6.41498 7.08881 6.76030
#
# Compressibility (1/GPa) = 0.02415254
#
# Stress axis : x y z
#
# Youngs Moduli (GPa) = 71.23311 45.70628 92.04650
#
# Poissons Ratio (x) = 0.17063 0.44009
# Poissons Ratio (y) = 0.26593 0.25773
# Poissons Ratio (z) = 0.34058 0.12798
#
# Static dielectric constant tensor:
#      x y z
#    x 2.951240 0.000000 0.000000 
#    y 0.000000 2.853270 0.000000 
#    z 0.000000 0.000000 3.123010 
# 
# 
# High freq. dielectric constant tensor:
#      x y z
#    x 1.615460 0.000000 0.000000 
#    y 0.000000 1.596180 0.000000 
#    z 0.000000 0.000000 1.645880 
# 
# From -- ./inp_files/2575.got.cif
#   From: 2010.03.12/outbox.cif.g09.slc.cpg/sg57_2_cif.got.tgz:2575.got - 2010.04.16 15:48:40.
