data_PCOD8230114
_publ_section_title
;
Structure prediction by ZEFSAII (Michael W. Deem and Ramdas Pophale) SiO2 
 PCOD8230114
Probable space group: P B C M
;
_chemical_formula_sum "Si O2"
_cell_formula_units_Z 64
_cell_length_a 18.313995
_cell_length_b 24.843198
_cell_length_c 8.940636
_cell_angle_alpha 90.000000
_cell_angle_beta 90.000000
_cell_angle_gamma 90.000000
_cell_volume 4067.794510
_symmetry_space_group_name_H-M "P B C M"
_symmetry_group_IT_number 57
_symmetry_cell_setting 'orthorhombic'
loop_
_space_group_symop_operation_xyz
x,y,z
-x,-y,1/2+z
x,1/2-y,-z
-x,1/2+y,1/2-z
-x,-y,-z
x,y,1/2-z
-x,1/2+y,z
x,1/2-y,1/2+z
loop_
_atom_site_type_symbol
_atom_site_label
_atom_site_fract_x
_atom_site_fract_y
_atom_site_fract_z
Si Si1 0.736070 0.009325 0.079690
Si Si2 0.327527 0.390900 0.418938
Si Si3 0.890448 0.490707 0.074296
Si Si4 0.950744 0.805696 0.427515
Si Si5 0.537257 0.923491 0.918017
Si Si6 0.003730 0.414069 0.925704
Si Si7 0.215909 0.303786 0.073766
Si Si8 0.400977 0.543521 0.919104
O O1 0.753686 0.026643 0.250000
O O2 0.704575 0.949986 0.073840
O O3 0.807487 0.011111 0.978436
O O4 0.674509 0.048760 0.011140
O O5 0.346753 0.374690 0.250000
O O6 0.401773 0.384360 0.512444
O O7 0.265982 0.351966 0.487041
O O8 0.895462 0.478489 0.250000
O O9 0.925139 0.549301 0.037662
O O10 0.932539 0.444546 0.984849
O O11 0.980302 0.750000 0.500000
O O12 0.961127 0.802695 0.250000
O O13 0.993794 0.856797 0.491628
O O14 0.866963 0.814401 0.476719
O O15 0.521329 0.905049 0.750000
O O16 0.567968 0.983557 0.924202
O O17 0.461764 0.917648 0.008567
O O18 0.995851 0.403914 0.750000
O O19 0.220224 0.298097 0.250000
O O20 0.246875 0.250000 0.000000
O O21 0.386106 0.562147 0.750000
#
# Coordination Sequence:
#
# PCOD8230114 Si02
#       8
#     8   8   8   8   8   8   8   8
#     4  10  18  28  43  62  85 113 146 181 216 258
#     4   9  17  28  41  58  82 113 145 177 215 257
#     4  10  20  32  46  65  90 120 152 186 226 272
#     4  10  19  32  49  68  90 117 150 188 229 270
#     4   9  16  25  38  57  79 106 140 173 205 242
#     4  10  20  33  48  66  89 118 152 188 226 270
#     4   9  18  30  43  60  83 111 143 179 218 257
#     4   9  16  26  39  56  81 110 138 170 207 246
#
# _framework density 15.733340999999999
#
# number of rings (size 3 to 8) (size 9 to 14) (size 15 to 20)
#    0.000    2.500    0.000    3.000    0.000    7.000 
#    0.000    0.000    0.000    0.000    0.000    0.000 
#    0.000    1.000    0.000    8.500    0.000    6.250 
#
# Total GULP energy -793539.695793 kJ/mol
# GULP energy per Si atom -12399.057747 kJ/mol
# Density = 1.569753 g / cm^3
# Si number density = 15.733341 Si / 1000 Ang^3
#
#
#
# Elastic Constant Matrix: (Units=GPa)
#
#
# Indices 1 2 3 4 5 6 
#
# 1 57.4295 10.6183 25.4030 0.0000 0.0000 0.0000
# 2 10.6183 57.6578 28.4074 0.0000 0.0000 0.0000
# 3 25.4030 28.4074 77.3660 0.0000 0.0000 0.0000
# 4 0.0000 0.0000 0.0000 22.4050 0.0000 0.0000
# 5 0.0000 0.0000 0.0000 0.0000 29.9894 0.0000
# 6 0.0000 0.0000 0.0000 0.0000 0.0000 18.0562
#
#
#
# Elastic Compliance Matrix: (Units=1/GPa)
#
#
# Indices 1 2 3 4 5 6 
#
# 1 0.020386 -0.000557 -0.006489 0.000000 0.000000 0.000000
# 2 -0.000557 0.021189 -0.007597 0.000000 0.000000 0.000000
# 3 -0.006489 -0.007597 0.017846 0.000000 0.000000 0.000000
# 4 0.000000 0.000000 0.000000 0.044633 0.000000 0.000000
# 5 0.000000 0.000000 0.000000 0.000000 0.033345 0.000000
# 6 0.000000 0.000000 0.000000 0.000000 0.000000 0.055383
#
#
# Mechanical properties :
#
#
# Convention : Reuss Voigt Hill
#
# Bulk Modulus (GPa) = 33.18521 35.70119 34.44320
# Shear Modulus (GPa) = 21.54114 22.62512 22.08313
#
# Velocity S-wave (km/s) = 3.70420 3.79626 3.75051
# Velocity P-wave (km/s) = 6.27956 6.47736 6.37923
#
# Compressibility (1/GPa) = 0.03013391
#
# Stress axis : x y z
#
# Youngs Moduli (GPa) = 49.05325 47.19320 56.03527
#
# Poissons Ratio (x) = 0.02630 0.36362
# Poissons Ratio (y) = 0.02733 0.42572
# Poissons Ratio (z) = 0.31831 0.35855
#
# Static dielectric constant tensor:
#      x y z
#    x 3.004740 0.000000 0.000000 
#    y 0.000000 2.748520 0.000000 
#    z 0.000000 0.000000 3.143200 
# 
# 
# High freq. dielectric constant tensor:
#      x y z
#    x 1.596710 0.000000 0.000000 
#    y 0.000000 1.559450 0.000000 
#    z 0.000000 0.000000 1.620360 
# 
# From -- ./inp_files/7417.got.cif
#   From: 2010.03.12/outbox.cif.g09.slc.cpg/sg57_4_cif.got.tgz:7417.got - 2010.04.16 15:48:40.
