data_PCOD8230986
_publ_section_title
;
Structure prediction by ZEFSAII (Michael W. Deem and Ramdas Pophale) SiO2 
 PCOD8230986
Probable space group: P B C M
;
_chemical_formula_sum "Si O2"
_cell_formula_units_Z 64
_cell_length_a 14.759088
_cell_length_b 29.525506
_cell_length_c 8.708816
_cell_angle_alpha 90.000000
_cell_angle_beta 90.000000
_cell_angle_gamma 90.000000
_cell_volume 3795.036754
_symmetry_space_group_name_H-M "P B C M"
_symmetry_group_IT_number 57
_symmetry_cell_setting 'orthorhombic'
loop_
_space_group_symop_operation_xyz
x,y,z
-x,-y,1/2+z
x,1/2-y,-z
-x,1/2+y,1/2-z
-x,-y,-z
x,y,1/2-z
-x,1/2+y,z
x,1/2-y,1/2+z
loop_
_atom_site_type_symbol
_atom_site_label
_atom_site_fract_x
_atom_site_fract_y
_atom_site_fract_z
Si Si1 0.997822 0.202951 0.932109
Si Si2 0.793818 0.795712 0.069329
Si Si3 0.168579 0.960492 0.432023
Si Si4 0.964895 0.390618 0.931897
Si Si5 0.299091 0.114481 0.569590
Si Si6 0.544749 0.935645 0.930408
Si Si7 0.374606 0.530424 0.930961
Si Si8 0.870237 0.945471 0.431162
O O1 0.983702 0.201807 0.750000
O O2 0.102440 0.198629 0.981879
O O3 0.958026 0.250000 0.000000
O O4 0.947279 0.160516 0.009806
O O5 0.786859 0.793387 0.250000
O O6 0.737366 0.837941 0.004393
O O7 0.751651 0.750000 0.000000
O O8 0.158313 0.954720 0.250000
O O9 0.122849 0.919039 0.519675
O O10 0.272833 0.960399 0.486902
O O11 0.119710 0.007028 0.481287
O O12 0.978010 0.391625 0.750000
O O13 0.052969 0.411072 0.013917
O O14 0.313819 0.116813 0.750000
O O15 0.395379 0.106021 0.489893
O O16 0.227146 0.075506 0.526811
O O17 0.538375 0.933805 0.750000
O O18 0.594131 0.981177 0.990423
O O19 0.443035 0.932488 0.997692
O O20 0.381065 0.533486 0.750000
O O21 0.881590 0.953081 0.250000
#
# Coordination Sequence:
#
# PCOD8230986 Si02
#       8
#     8   8   8   8   8   8   8   8
#     4  10  19  35  54  76 102 132 170 213 260 303
#     4   9  18  32  49  72  99 131 166 205 251 299
#     4  11  22  37  53  72 101 136 177 219 256 304
#     4  12  24  36  51  74 102 139 178 213 257 307
#     4  10  19  32  50  72 102 136 169 205 251 302
#     4  10  19  31  50  75  99 127 166 207 247 297
#     4   9  19  34  50  71  98 130 165 206 254 298
#     4  11  21  35  51  71 102 140 177 214 252 300
#
# _framework density 16.864132000000001
#
# number of rings (size 3 to 8) (size 9 to 14) (size 15 to 20)
#    0.000    1.750    2.500    3.000    0.000    3.000 
#    0.000    0.000    0.000    0.000    0.000    0.875 
#    0.000    4.000    0.000    0.000    0.000    0.000 
#
# Total GULP energy -793758.262286 kJ/mol
# GULP energy per Si atom -12402.472848 kJ/mol
# Density = 1.682575 g / cm^3
# Si number density = 16.864132 Si / 1000 Ang^3
#
#
#
# Elastic Constant Matrix: (Units=GPa)
#
#
# Indices 1 2 3 4 5 6 
#
# 1 66.7023 29.8052 21.0789 0.0000 0.0000 0.0000
# 2 29.8052 110.3189 20.8590 0.0000 0.0000 0.0000
# 3 21.0789 20.8590 39.4565 0.0000 0.0000 0.0000
# 4 0.0000 0.0000 0.0000 29.9123 0.0000 0.0000
# 5 0.0000 0.0000 0.0000 0.0000 24.1586 0.0000
# 6 0.0000 0.0000 0.0000 0.0000 0.0000 18.4492
#
#
#
# Elastic Compliance Matrix: (Units=1/GPa)
#
#
# Indices 1 2 3 4 5 6 
#
# 1 0.019255 -0.003619 -0.008374 0.000000 0.000000 0.000000
# 2 -0.003619 0.010752 -0.003751 0.000000 0.000000 0.000000
# 3 -0.008374 -0.003751 0.031801 0.000000 0.000000 0.000000
# 4 0.000000 0.000000 0.000000 0.033431 0.000000 0.000000
# 5 0.000000 0.000000 0.000000 0.000000 0.041393 0.000000
# 6 0.000000 0.000000 0.000000 0.000000 0.000000 0.054203
#
#
# Mechanical properties :
#
#
# Convention : Reuss Voigt Hill
#
# Bulk Modulus (GPa) = 32.98019 39.99597 36.48808
# Shear Modulus (GPa) = 21.51207 24.15298 22.83253
#
# Velocity S-wave (km/s) = 3.57544 3.78856 3.68354
# Velocity P-wave (km/s) = 6.05342 6.55024 6.30673
#
# Compressibility (1/GPa) = 0.03032123
#
# Stress axis : x y z
#
# Youngs Moduli (GPa) = 51.93386 93.01003 31.44600
#
# Poissons Ratio (x) = 0.33660 0.26331
# Poissons Ratio (y) = 0.18795 0.11794
# Poissons Ratio (z) = 0.43487 0.34884
#
# Static dielectric constant tensor:
#      x y z
#    x 3.131800 0.000000 0.000000 
#    y 0.000000 3.258870 0.000000 
#    z 0.000000 0.000000 3.105410 
# 
# 
# High freq. dielectric constant tensor:
#      x y z
#    x 1.629080 0.000000 0.000000 
#    y 0.000000 1.638980 0.000000 
#    z 0.000000 0.000000 1.658570 
# 
# From -- ./inp_files/6032.got.cif
#   From: 2010.03.12/outbox.cif.g09.slc.cpg/sg57_4_cif.got.tgz:6032.got - 2010.04.16 15:48:40.
