data_PCOD8230213
_publ_section_title
;
Structure prediction by ZEFSAII (Michael W. Deem and Ramdas Pophale) SiO2 
 PCOD8230213
Probable space group: P B C M
;
_chemical_formula_sum "Si O2"
_cell_formula_units_Z 64
_cell_length_a 9.200238
_cell_length_b 20.259015
_cell_length_c 18.955843
_cell_angle_alpha 90.000000
_cell_angle_beta 90.000000
_cell_angle_gamma 90.000000
_cell_volume 3533.137109
_symmetry_space_group_name_H-M "P B C M"
_symmetry_group_IT_number 57
_symmetry_cell_setting 'orthorhombic'
loop_
_space_group_symop_operation_xyz
x,y,z
-x,-y,1/2+z
x,1/2-y,-z
-x,1/2+y,1/2-z
-x,-y,-z
x,y,1/2-z
-x,1/2+y,z
x,1/2-y,1/2+z
loop_
_atom_site_type_symbol
_atom_site_label
_atom_site_fract_x
_atom_site_fract_y
_atom_site_fract_z
Si Si1 0.410552 0.056279 0.426355
Si Si2 0.811742 0.278198 0.602519
Si Si3 0.116665 0.847695 0.461836
Si Si4 0.504963 0.230468 0.581811
Si Si5 0.333869 0.173437 0.170148
Si Si6 0.591764 0.087925 0.941928
Si Si7 0.915271 0.939686 0.967103
Si Si8 0.983335 0.874147 0.827828
O O1 0.404414 0.106085 0.360814
O O2 0.540155 0.079448 0.477120
O O3 0.258144 0.055195 0.469932
O O4 0.441839 0.980818 0.400441
O O5 0.905389 0.209912 0.596225
O O6 0.804376 0.315309 0.528459
O O7 0.646460 0.260174 0.620834
O O8 0.880870 0.324925 0.661809
O O9 0.233441 0.902523 0.436531
O O10 0.960983 0.877061 0.484307
O O11 0.495176 0.250000 0.500000
O O12 0.371005 0.262109 0.623876
O O13 0.506931 0.150828 0.590875
O O14 0.390220 0.181059 0.250000
O O15 0.160803 0.169794 0.166570
O O16 0.975354 0.931028 0.887029
O O17 0.000000 0.000000 0.000000
O O18 0.996861 0.906770 0.750000
#
# Coordination Sequence:
#
# PCOD8230213 Si02
#       8
#     8   8   8   8   8   8   8   8
#     4  10  19  31  50  77 104 141 172 215 271 316
#     4   9  16  29  50  73 103 136 164 217 274 307
#     4   9  15  28  45  74 102 129 162 220 261 302
#     4  11  18  33  54  81 109 136 179 232 267 312
#     4  10  21  37  53  75 108 144 181 221 269 327
#     4  10  18  30  50  77 109 131 171 222 270 303
#     4  10  18  29  50  76 103 134 180 216 260 309
#     4   9  20  35  51  74 107 141 177 219 265 324
#
# _framework density 18.114212999999999
#
# number of rings (size 3 to 8) (size 9 to 14) (size 15 to 20)
#    0.000    2.250    5.000    0.000    0.000    1.500 
#    2.250    0.625    0.000    1.500    0.000    0.875 
#    0.000    0.000    0.000    0.000    0.000    0.000 
#
# Total GULP energy -793112.097333 kJ/mol
# GULP energy per Si atom -12392.376521 kJ/mol
# Density = 1.807298 g / cm^3
# Si number density = 18.114213 Si / 1000 Ang^3
#
#
#
# Elastic Constant Matrix: (Units=GPa)
#
#
# Indices 1 2 3 4 5 6 
#
# 1 40.2154 21.0443 23.4546 0.0000 0.0000 0.0000
# 2 21.0443 103.2396 32.6616 0.0000 0.0000 0.0000
# 3 23.4546 32.6616 79.7891 0.0000 0.0000 0.0000
# 4 0.0000 0.0000 0.0000 21.7828 0.0000 0.0000
# 5 0.0000 0.0000 0.0000 0.0000 17.8252 0.0000
# 6 0.0000 0.0000 0.0000 0.0000 0.0000 23.8101
#
#
#
# Elastic Compliance Matrix: (Units=1/GPa)
#
#
# Indices 1 2 3 4 5 6 
#
# 1 0.031384 -0.003996 -0.007590 0.000000 0.000000 0.000000
# 2 -0.003996 0.011636 -0.003589 0.000000 0.000000 0.000000
# 3 -0.007590 -0.003589 0.016233 0.000000 0.000000 0.000000
# 4 0.000000 0.000000 0.000000 0.045908 0.000000 0.000000
# 5 0.000000 0.000000 0.000000 0.000000 0.056100 0.000000
# 6 0.000000 0.000000 0.000000 0.000000 0.000000 0.041999
#
#
# Mechanical properties :
#
#
# Convention : Reuss Voigt Hill
#
# Bulk Modulus (GPa) = 34.59706 41.95168 38.27437
# Shear Modulus (GPa) = 20.55553 22.42251 21.48902
#
# Velocity S-wave (km/s) = 3.37229 3.52211 3.44802
# Velocity P-wave (km/s) = 5.85696 6.30477 6.08499
#
# Compressibility (1/GPa) = 0.02890419
#
# Stress axis : x y z
#
# Youngs Moduli (GPa) = 31.86366 85.93975 61.60270
#
# Poissons Ratio (x) = 0.34342 0.46755
# Poissons Ratio (y) = 0.12733 0.22106
# Poissons Ratio (z) = 0.24184 0.30840
#
# Static dielectric constant tensor:
#      x y z
#    x 3.348310 0.000000 0.000000 
#    y 0.000000 3.694390 0.000000 
#    z 0.000000 0.000000 3.118440 
# 
# 
# High freq. dielectric constant tensor:
#      x y z
#    x 1.698060 0.000000 0.000000 
#    y 0.000000 1.708660 0.000000 
#    z 0.000000 0.000000 1.656720 
# 
# From -- ./inp_files/24681.got.cif
#   From: 2010.03.12/outbox.cif.g09.slc.cpg/sg57_13_cif.got.tgz:24681.got - 2010.04.16 15:48:40.
