data_PCOD8230992
_publ_section_title
;
Structure prediction by ZEFSAII (Michael W. Deem and Ramdas Pophale) SiO2 
 PCOD8230992
Probable space group: P B C M
;
_chemical_formula_sum "Si O2"
_cell_formula_units_Z 48
_cell_length_a 15.129059
_cell_length_b 20.060402
_cell_length_c 8.721253
_cell_angle_alpha 90.000000
_cell_angle_beta 90.000000
_cell_angle_gamma 90.000000
_cell_volume 2646.856727
_symmetry_space_group_name_H-M "P B C M"
_symmetry_group_IT_number 57
_symmetry_cell_setting 'orthorhombic'
loop_
_space_group_symop_operation_xyz
x,y,z
-x,-y,1/2+z
x,1/2-y,-z
-x,1/2+y,1/2-z
-x,-y,-z
x,y,1/2-z
-x,1/2+y,z
x,1/2-y,1/2+z
loop_
_atom_site_type_symbol
_atom_site_label
_atom_site_fract_x
_atom_site_fract_y
_atom_site_fract_z
Si Si1 0.463359 0.432248 0.430878
Si Si2 0.896430 0.932066 0.422375
Si Si3 0.412006 0.678381 0.068730
Si Si4 0.750069 0.108856 0.572244
Si Si5 0.928824 0.088769 0.077611
Si Si6 0.281791 0.454179 0.572294
O O1 0.500000 0.500000 0.500000
O O2 0.476622 0.434157 0.250000
O O3 0.516521 0.371035 0.498923
O O4 0.360832 0.423340 0.473257
O O5 0.883350 0.905472 0.250000
O O6 0.808135 0.918184 0.519483
O O7 0.977825 0.892597 0.499608
O O8 0.917195 0.009877 0.421446
O O9 0.421513 0.679902 0.250000
O O10 0.432948 0.750000 0.000000
O O11 0.313270 0.656282 0.024821
O O12 0.741422 0.127162 0.750000
O O13 0.850164 0.122488 0.518667
O O14 0.722600 0.032891 0.540432
O O15 0.927597 0.117097 0.250000
O O16 0.297845 0.438931 0.750000
#
# Coordination Sequence:
#
# PCOD8230992 Si02
#       6
#     8   8   8   8   8   8
#     4  12  23  37  57  82 110 144 186 231 281 335
#     4   9  16  26  41  66 101 137 174 216 265 316
#     4  12  25  41  59  80 110 145 185 231 281 336
#     4  10  19  32  51  75 105 140 180 221 270 326
#     4   9  16  26  42  66  99 137 175 213 262 316
#     4  10  19  31  50  76 107 141 180 224 274 327
#
# _framework density 18.134719
#
# number of rings (size 3 to 8) (size 9 to 14) (size 15 to 20)
#    0.000    1.667    1.667    5.000    0.000    5.333 
#    0.000    0.000    0.000    0.000    0.000    1.167 
#    0.000    0.000    0.000    0.000    0.000    0.000 
#
# Total GULP energy -595345.663919 kJ/mol
# GULP energy per Si atom -12403.034665 kJ/mol
# Density = 1.809344 g / cm^3
# Si number density = 18.134719 Si / 1000 Ang^3
#
#
#
# Elastic Constant Matrix: (Units=GPa)
#
#
# Indices 1 2 3 4 5 6 
#
# 1 145.9937 49.9443 62.8946 0.0000 0.0000 0.0000
# 2 49.9443 68.0582 47.4043 0.0000 0.0000 0.0000
# 3 62.8946 47.4043 160.9054 0.0000 0.0000 0.0000
# 4 0.0000 0.0000 0.0000 20.8748 0.0000 0.0000
# 5 0.0000 0.0000 0.0000 0.0000 40.7507 0.0000
# 6 0.0000 0.0000 0.0000 0.0000 0.0000 11.8583
#
#
#
# Elastic Compliance Matrix: (Units=1/GPa)
#
#
# Indices 1 2 3 4 5 6 
#
# 1 0.009693 -0.005629 -0.002130 0.000000 0.000000 0.000000
# 2 -0.005629 0.021756 -0.004209 0.000000 0.000000 0.000000
# 3 -0.002130 -0.004209 0.008288 0.000000 0.000000 0.000000
# 4 0.000000 0.000000 0.000000 0.047905 0.000000 0.000000
# 5 0.000000 0.000000 0.000000 0.000000 0.024539 0.000000
# 6 0.000000 0.000000 0.000000 0.000000 0.000000 0.084329
#
#
# Mechanical properties :
#
#
# Convention : Reuss Voigt Hill
#
# Bulk Modulus (GPa) = 63.29487 77.27152 70.28319
# Shear Modulus (GPa) = 22.15187 29.01104 25.58146
#
# Velocity S-wave (km/s) = 3.49881 4.00403 3.75992
# Velocity P-wave (km/s) = 7.16244 8.00491 7.59537
#
# Compressibility (1/GPa) = 0.01579907
#
# Stress axis : x y z
#
# Youngs Moduli (GPa) = 103.16484 45.96370 120.66194
#
# Poissons Ratio (x) = 0.25875 0.25706
# Poissons Ratio (y) = 0.58077 0.50789
# Poissons Ratio (z) = 0.21978 0.19347
#
# Static dielectric constant tensor:
#      x y z
#    x 3.756110 0.000000 0.000000 
#    y 0.000000 2.610540 0.000000 
#    z 0.000000 0.000000 3.574150 
# 
# 
# High freq. dielectric constant tensor:
#      x y z
#    x 1.721540 0.000000 0.000000 
#    y 0.000000 1.636250 0.000000 
#    z 0.000000 0.000000 1.725120 
# 
# From -- ./inp_files/4601.got.cif
#   From: 2010.03.12/outbox.cif.g09.slc.cpg/sg57_3_cif.got.tgz:4601.got - 2010.04.16 15:48:40.
