data_PCOD8230054
_publ_section_title
;
Structure prediction by ZEFSAII (Michael W. Deem and Ramdas Pophale) SiO2 
 PCOD8230054
Probable space group: P B C M
;
_chemical_formula_sum "Si O2"
_cell_formula_units_Z 56
_cell_length_a 17.479393
_cell_length_b 22.050563
_cell_length_c 9.180330
_cell_angle_alpha 90.000000
_cell_angle_beta 90.000000
_cell_angle_gamma 90.000000
_cell_volume 3538.378783
_symmetry_space_group_name_H-M "P B C M"
_symmetry_group_IT_number 57
_symmetry_cell_setting 'orthorhombic'
loop_
_space_group_symop_operation_xyz
x,y,z
-x,-y,1/2+z
x,1/2-y,-z
-x,1/2+y,1/2-z
-x,-y,-z
x,y,1/2-z
-x,1/2+y,z
x,1/2-y,1/2+z
loop_
_atom_site_type_symbol
_atom_site_label
_atom_site_fract_x
_atom_site_fract_y
_atom_site_fract_z
Si Si1 0.171761 0.461314 0.919440
Si Si2 0.868331 0.399567 0.414752
Si Si3 0.970971 0.941310 0.418248
Si Si4 0.321180 0.031987 0.916403
Si Si5 0.620510 0.100862 0.080912
Si Si6 0.485565 0.062023 0.918094
Si Si7 0.758583 0.313628 0.578905
O O1 0.167160 0.445713 0.750000
O O2 0.157238 0.532068 0.952009
O O3 0.107684 0.420719 0.003137
O O4 0.254734 0.442759 0.980073
O O5 0.843098 0.383547 0.250000
O O6 0.829595 0.353881 0.526547
O O7 0.960577 0.392066 0.430750
O O8 0.954414 0.956826 0.250000
O O9 0.000000 0.000000 0.500000
O O10 0.292102 0.032122 0.750000
O O11 0.394987 0.076434 0.934382
O O12 0.342290 0.963414 0.963072
O O13 0.599150 0.101443 0.250000
O O14 0.679105 0.153730 0.038803
O O15 0.541544 0.112046 0.990978
O O16 0.507896 0.054557 0.750000
O O17 0.500000 0.000000 0.000000
O O18 0.759972 0.250000 0.500000
O O19 0.767295 0.303881 0.750000
#
# Coordination Sequence:
#
# PCOD8230054 Si02
#       7
#     8   8   8   8   8   8   8
#     4  10  18  26  41  65  89 117 149 178 214 260
#     4   9  18  31  44  61  84 113 149 184 221 261
#     4   9  17  28  42  61  85 113 145 179 216 261
#     4   9  16  27  41  61  88 116 147 178 215 260
#     4   9  18  31  44  60  83 114 148 183 225 263
#     4   9  17  27  41  61  84 113 146 179 217 262
#     4  11  22  34  48  65  86 115 152 192 228 263
#
# _framework density 15.826457
#
# number of rings (size 3 to 8) (size 9 to 14) (size 15 to 20)
#    0.000    2.571    1.429    3.429    0.000    6.857 
#    0.000    0.000    0.000    0.000    0.000    0.000 
#    0.000    1.143    0.000    8.000    0.000    5.857 
#
# Total GULP energy -694088.667532 kJ/mol
# GULP energy per Si atom -12394.440492 kJ/mol
# Density = 1.579044 g / cm^3
# Si number density = 15.826457 Si / 1000 Ang^3
#
#
#
# Elastic Constant Matrix: (Units=GPa)
#
#
# Indices 1 2 3 4 5 6 
#
# 1 127.9031 28.5803 73.4785 0.0000 0.0000 0.0000
# 2 28.5803 36.5083 29.0490 0.0000 0.0000 0.0000
# 3 73.4785 29.0490 107.3356 0.0000 0.0000 0.0000
# 4 0.0000 0.0000 0.0000 17.1763 0.0000 0.0000
# 5 0.0000 0.0000 0.0000 0.0000 35.4935 0.0000
# 6 0.0000 0.0000 0.0000 0.0000 0.0000 11.3716
#
#
#
# Elastic Compliance Matrix: (Units=1/GPa)
#
#
# Indices 1 2 3 4 5 6 
#
# 1 0.013340 -0.004049 -0.008036 0.000000 0.000000 0.000000
# 2 -0.004049 0.036137 -0.007008 0.000000 0.000000 0.000000
# 3 -0.008036 -0.007008 0.016715 0.000000 0.000000 0.000000
# 4 0.000000 0.000000 0.000000 0.058220 0.000000 0.000000
# 5 0.000000 0.000000 0.000000 0.000000 0.028174 0.000000
# 6 0.000000 0.000000 0.000000 0.000000 0.000000 0.087939
#
#
# Mechanical properties :
#
#
# Convention : Reuss Voigt Hill
#
# Bulk Modulus (GPa) = 35.70827 59.32918 47.51872
# Shear Modulus (GPa) = 17.35835 22.18422 19.77128
#
# Velocity S-wave (km/s) = 3.31538 3.74801 3.53831
# Velocity P-wave (km/s) = 6.10467 7.50326 6.83981
#
# Compressibility (1/GPa) = 0.02800472
#
# Stress axis : x y z
#
# Youngs Moduli (GPa) = 74.96335 27.67254 59.82754
#
# Poissons Ratio (x) = 0.11204 0.48079
# Poissons Ratio (y) = 0.30350 0.41930
# Poissons Ratio (z) = 0.60243 0.19394
#
# Static dielectric constant tensor:
#      x y z
#    x 3.704950 0.000000 0.000000 
#    y 0.000000 2.573730 0.000000 
#    z 0.000000 0.000000 3.188950 
# 
# 
# High freq. dielectric constant tensor:
#      x y z
#    x 1.624110 0.000000 0.000000 
#    y 0.000000 1.529070 0.000000 
#    z 0.000000 0.000000 1.624310 
# 
# From -- ./inp_files/7061.got.cif
#   From: 2010.03.12/outbox.cif.g09.slc.cpg/sg57_4_cif.got.tgz:7061.got - 2010.04.16 15:48:40.
