data_PCOD8230282
_publ_section_title
;
Structure prediction by ZEFSAII (Michael W. Deem and Ramdas Pophale) SiO2 
 PCOD8230282
Probable space group: P B C M
;
_chemical_formula_sum "Si O2"
_cell_formula_units_Z 64
_cell_length_a 19.042816
_cell_length_b 22.811293
_cell_length_c 8.894353
_cell_angle_alpha 90.000000
_cell_angle_beta 90.000000
_cell_angle_gamma 90.000000
_cell_volume 3863.629165
_symmetry_space_group_name_H-M "P B C M"
_symmetry_group_IT_number 57
_symmetry_cell_setting 'orthorhombic'
loop_
_space_group_symop_operation_xyz
x,y,z
-x,-y,1/2+z
x,1/2-y,-z
-x,1/2+y,1/2-z
-x,-y,-z
x,y,1/2-z
-x,1/2+y,z
x,1/2-y,1/2+z
loop_
_atom_site_type_symbol
_atom_site_label
_atom_site_fract_x
_atom_site_fract_y
_atom_site_fract_z
Si Si1 0.158823 0.416579 0.924212
Si Si2 0.574431 0.490934 0.925592
Si Si3 0.942076 0.811038 0.925543
Si Si4 0.918924 0.362952 0.073001
Si Si5 0.073405 0.984387 0.572589
Si Si6 0.694267 0.956576 0.916960
Si Si7 0.227833 0.689909 0.926035
Si Si8 0.678240 0.415609 0.419230
O O1 0.148073 0.435613 0.750000
O O2 0.123543 0.353920 0.954102
O O3 0.242040 0.413421 0.963965
O O4 0.126673 0.463800 0.036425
O O5 0.564244 0.489464 0.750000
O O6 0.500000 0.500000 0.000000
O O7 0.626738 0.545132 0.971946
O O8 0.608113 0.429037 0.982425
O O9 0.957483 0.802243 0.750000
O O10 0.920754 0.750000 0.000000
O O11 0.011574 0.836331 0.001146
O O12 0.930819 0.371595 0.250000
O O13 0.854025 0.320184 0.037459
O O14 0.898992 0.424363 0.998059
O O15 0.064599 0.976927 0.750000
O O16 0.000000 0.000000 0.500000
O O17 0.667548 0.939864 0.750000
O O18 0.724052 0.023991 0.917112
O O19 0.239789 0.694255 0.750000
O O20 0.275405 0.636628 0.990718
O O21 0.253413 0.750000 0.000000
O O22 0.654683 0.399151 0.250000
#
# Coordination Sequence:
#
# PCOD8230282 Si02
#       8
#     8   8   8   8   8   8   8   8
#     4  10  20  36  54  72  98 132 169 206 256 309
#     4  10  18  30  50  79 109 137 164 195 241 299
#     4  11  23  37  53  71  95 132 175 222 266 311
#     4  11  22  37  54  72  98 134 175 222 270 315
#     4  12  23  34  51  75 100 129 167 212 265 318
#     4   8  16  32  52  73 101 132 162 201 250 301
#     4  10  21  35  51  71  99 138 180 219 261 304
#     4   8  16  32  50  71 101 137 167 204 253 300
#
# _framework density 16.564737000000001
#
# number of rings (size 3 to 8) (size 9 to 14) (size 15 to 20)
#    0.750    1.250    1.250    3.750    0.000    5.500 
#    0.000    0.000    0.000    0.000    0.000    0.875 
#    0.000    4.000    0.000    0.000    0.000    0.000 
#
# Total GULP energy -793179.826007 kJ/mol
# GULP energy per Si atom -12393.434781 kJ/mol
# Density = 1.652704 g / cm^3
# Si number density = 16.564737 Si / 1000 Ang^3
#
#
#
# Elastic Constant Matrix: (Units=GPa)
#
#
# Indices 1 2 3 4 5 6 
#
# 1 119.2747 42.1725 55.9079 0.0000 0.0000 0.0000
# 2 42.1725 83.9132 41.2585 0.0000 0.0000 0.0000
# 3 55.9079 41.2585 104.7970 0.0000 0.0000 0.0000
# 4 0.0000 0.0000 0.0000 25.3715 0.0000 0.0000
# 5 0.0000 0.0000 0.0000 0.0000 25.4927 0.0000
# 6 0.0000 0.0000 0.0000 0.0000 0.0000 15.8308
#
#
#
# Elastic Compliance Matrix: (Units=1/GPa)
#
#
# Indices 1 2 3 4 5 6 
#
# 1 0.011984 -0.003571 -0.004988 0.000000 0.000000 0.000000
# 2 -0.003571 0.015841 -0.004332 0.000000 0.000000 0.000000
# 3 -0.004988 -0.004332 0.013909 0.000000 0.000000 0.000000
# 4 0.000000 0.000000 0.000000 0.039414 0.000000 0.000000
# 5 0.000000 0.000000 0.000000 0.000000 0.039227 0.000000
# 6 0.000000 0.000000 0.000000 0.000000 0.000000 0.063168
#
#
# Mechanical properties :
#
#
# Convention : Reuss Voigt Hill
#
# Bulk Modulus (GPa) = 62.68051 65.18475 63.93263
# Shear Modulus (GPa) = 23.29457 24.58208 23.93832
#
# Velocity S-wave (km/s) = 3.75410 3.85645 3.80562
# Velocity P-wave (km/s) = 7.53080 7.69848 7.61510
#
# Compressibility (1/GPa) = 0.01595392
#
# Stress axis : x y z
#
# Youngs Moduli (GPa) = 83.44155 63.12536 71.89781
#
# Poissons Ratio (x) = 0.22540 0.35861
# Poissons Ratio (y) = 0.29794 0.31145
# Poissons Ratio (z) = 0.41619 0.27345
#
# Static dielectric constant tensor:
#      x y z
#    x 3.122970 0.000000 0.000000 
#    y 0.000000 3.087570 0.000000 
#    z 0.000000 0.000000 3.166750 
# 
# 
# High freq. dielectric constant tensor:
#      x y z
#    x 1.623090 0.000000 0.000000 
#    y 0.000000 1.615490 0.000000 
#    z 0.000000 0.000000 1.644100 
# 
# From -- ./inp_files/8781.got.cif
#   From: 2010.03.12/outbox.cif.g09.slc.cpg/sg57_5_cif.got.tgz:8781.got - 2010.04.16 15:48:40.
