data_PCOD8230097
_publ_section_title
;
Structure prediction by ZEFSAII (Michael W. Deem and Ramdas Pophale) SiO2 
 PCOD8230097
Probable space group: P B C M
;
_chemical_formula_sum "Si O2"
_cell_formula_units_Z 64
_cell_length_a 26.361700
_cell_length_b 18.365349
_cell_length_c 9.098370
_cell_angle_alpha 90.000000
_cell_angle_beta 90.000000
_cell_angle_gamma 90.000000
_cell_volume 4404.901418
_symmetry_space_group_name_H-M "P B C M"
_symmetry_group_IT_number 57
_symmetry_cell_setting 'orthorhombic'
loop_
_space_group_symop_operation_xyz
x,y,z
-x,-y,1/2+z
x,1/2-y,-z
-x,1/2+y,1/2-z
-x,-y,-z
x,y,1/2-z
-x,1/2+y,z
x,1/2-y,1/2+z
loop_
_atom_site_type_symbol
_atom_site_label
_atom_site_fract_x
_atom_site_fract_y
_atom_site_fract_z
Si Si1 0.491890 0.824906 0.918796
Si Si2 0.306154 0.676893 0.420334
Si Si3 0.011305 0.825085 0.923287
Si Si4 0.104778 0.906678 0.423602
Si Si5 0.190333 0.674630 0.076351
Si Si6 0.602807 0.421723 0.577400
Si Si7 0.044006 0.461867 0.916559
Si Si8 0.452805 0.464505 0.920495
O O1 0.484237 0.805134 0.750000
O O2 0.440957 0.865517 0.975315
O O3 0.541345 0.877182 0.941783
O O4 0.502010 0.750000 0.000000
O O5 0.323700 0.750000 0.500000
O O6 0.312277 0.693872 0.250000
O O7 0.248612 0.655567 0.460037
O O8 0.342626 0.610763 0.467601
O O9 0.022846 0.814647 0.750000
O O10 0.960454 0.875284 0.948788
O O11 0.997424 0.750000 0.000000
O O12 0.060458 0.859311 0.001511
O O13 0.107413 0.888351 0.250000
O O14 0.157510 0.889108 0.503230
O O15 0.096095 0.994195 0.451778
O O16 0.180149 0.680083 0.250000
O O17 0.174233 0.750000 0.000000
O O18 0.598109 0.436642 0.750000
O O19 0.597213 0.499806 0.494607
O O20 0.029940 0.476314 0.750000
O O21 0.000000 0.500000 0.000000
O O22 0.453809 0.485162 0.750000
O O23 0.500000 0.500000 0.000000
#
# Coordination Sequence:
#
# PCOD8230097 Si02
#       8
#     8   8   8   8   8   8   8   8
#     4   9  17  26  38  57  80 103 131 161 191 228
#     4   9  18  30  43  59  81 106 136 170 202 234
#     4  10  18  28  41  59  81 105 132 162 195 235
#     4  10  18  29  43  58  77 105 137 167 198 234
#     4  10  19  30  42  58  80 107 136 169 202 233
#     4   9  17  29  42  58  79 105 135 166 198 235
#     4   8  16  28  41  56  76 101 130 162 195 230
#     4   9  17  28  40  57  79 104 133 165 196 233
#
# _framework density 14.529268999999999
#
# number of rings (size 3 to 8) (size 9 to 14) (size 15 to 20)
#    0.000    2.750    0.000    3.000    0.000    4.500 
#    0.000    0.000    0.000    0.000    0.000    0.000 
#    0.000    1.000    0.000    4.500    0.000    4.000 
#
# Total GULP energy -792903.659664 kJ/mol
# GULP energy per Si atom -12389.119682 kJ/mol
# Density = 1.449620 g / cm^3
# Si number density = 14.529269 Si / 1000 Ang^3
#
#
#
# Elastic Constant Matrix: (Units=GPa)
#
#
# Indices 1 2 3 4 5 6 
#
# 1 70.7353 49.7374 35.3047 0.0000 0.0000 0.0000
# 2 49.7374 95.0571 45.8554 0.0000 0.0000 0.0000
# 3 35.3047 45.8554 69.4612 0.0000 0.0000 0.0000
# 4 0.0000 0.0000 0.0000 25.2045 0.0000 0.0000
# 5 0.0000 0.0000 0.0000 0.0000 18.5269 0.0000
# 6 0.0000 0.0000 0.0000 0.0000 0.0000 25.2508
#
#
#
# Elastic Compliance Matrix: (Units=1/GPa)
#
#
# Indices 1 2 3 4 5 6 
#
# 1 0.023805 -0.009712 -0.005688 0.000000 0.000000 0.000000
# 2 -0.009712 0.019398 -0.007869 0.000000 0.000000 0.000000
# 3 -0.005688 -0.007869 0.022483 0.000000 0.000000 0.000000
# 4 0.000000 0.000000 0.000000 0.039676 0.000000 0.000000
# 5 0.000000 0.000000 0.000000 0.000000 0.053976 0.000000
# 6 0.000000 0.000000 0.000000 0.000000 0.000000 0.039603
#
#
# Mechanical properties :
#
#
# Convention : Reuss Voigt Hill
#
# Bulk Modulus (GPa) = 52.22743 55.22759 53.72751
# Shear Modulus (GPa) = 19.85234 20.75352 20.30293
#
# Velocity S-wave (km/s) = 3.70045 3.78351 3.74221
# Velocity P-wave (km/s) = 7.36765 7.56177 7.46534
#
# Compressibility (1/GPa) = 0.01914703
#
# Stress axis : x y z
#
# Youngs Moduli (GPa) = 42.00811 51.55239 44.47894
#
# Poissons Ratio (x) = 0.50067 0.25299
# Poissons Ratio (y) = 0.40797 0.35002
# Poissons Ratio (z) = 0.23894 0.40569
#
# Static dielectric constant tensor:
#      x y z
#    x 4.659220 0.000000 0.000000 
#    y 0.000000 3.145290 0.000000 
#    z 0.000000 0.000000 3.154850 
# 
# 
# High freq. dielectric constant tensor:
#      x y z
#    x 1.521590 0.000000 0.000000 
#    y 0.000000 1.545110 0.000000 
#    z 0.000000 0.000000 1.570600 
# 
# From -- ./inp_files/9802.got.cif
#   From: 2010.03.12/outbox.cif.g09.slc.cpg/sg57_5_cif.got.tgz:9802.got - 2010.04.16 15:48:40.
