data_PCOD8230673
_publ_section_title
;
Structure prediction by ZEFSAII (Michael W. Deem and Ramdas Pophale) SiO2 
 PCOD8230673
Probable space group: P B C M
;
_chemical_formula_sum "Si O2"
_cell_formula_units_Z 64
_cell_length_a 15.478898
_cell_length_b 28.508652
_cell_length_c 8.978259
_cell_angle_alpha 90.000000
_cell_angle_beta 90.000000
_cell_angle_gamma 90.000000
_cell_volume 3961.948725
_symmetry_space_group_name_H-M "P B C M"
_symmetry_group_IT_number 57
_symmetry_cell_setting 'orthorhombic'
loop_
_space_group_symop_operation_xyz
x,y,z
-x,-y,1/2+z
x,1/2-y,-z
-x,1/2+y,1/2-z
-x,-y,-z
x,y,1/2-z
-x,1/2+y,z
x,1/2-y,1/2+z
loop_
_atom_site_type_symbol
_atom_site_label
_atom_site_fract_x
_atom_site_fract_y
_atom_site_fract_z
Si Si1 0.307543 0.956921 0.924344
Si Si2 0.494191 0.548664 0.421608
Si Si3 0.001748 0.449853 0.076101
Si Si4 0.829698 0.608887 0.578075
Si Si5 0.149387 0.607642 0.427509
Si Si6 0.084395 0.296597 0.424142
Si Si7 0.680350 0.557428 0.424628
Si Si8 0.883948 0.202191 0.926054
O O1 0.298412 0.967748 0.750000
O O2 0.399373 0.929878 0.960512
O O3 0.231075 0.923331 0.977894
O O4 0.300716 0.006502 0.006645
O O5 0.500000 0.500000 0.500000
O O6 0.497517 0.536783 0.250000
O O7 0.582456 0.576589 0.463351
O O8 0.977140 0.453486 0.250000
O O9 0.097887 0.430530 0.055097
O O10 0.936241 0.415010 0.995515
O O11 0.000000 0.500000 0.000000
O O12 0.804756 0.613283 0.750000
O O13 0.863610 0.658563 0.515657
O O14 0.744489 0.596100 0.488056
O O15 0.140455 0.611174 0.250000
O O16 0.165179 0.658845 0.497455
O O17 0.122242 0.250000 0.500000
O O18 0.096207 0.290861 0.250000
O O19 0.984537 0.303807 0.465214
O O20 0.695572 0.552994 0.250000
O O21 0.866384 0.202811 0.750000
O O22 0.848392 0.250000 0.000000
#
# Coordination Sequence:
#
# PCOD8230673 Si02
#       8
#     8   8   8   8   8   8   8   8
#     4   9  18  32  48  66  94 130 159 188 234 284
#     4   8  15  29  46  65  91 120 153 194 235 276
#     4  11  22  35  46  62  93 131 165 195 230 274
#     4  10  20  34  47  63  93 128 156 185 232 284
#     4  11  21  32  48  71  94 125 163 195 234 282
#     4   9  18  33  50  68  88 117 152 190 234 276
#     4  10  19  29  46  72  95 120 159 200 234 270
#     4  10  19  34  52  71  94 122 156 198 241 281
#
# _framework density 16.153666999999999
#
# number of rings (size 3 to 8) (size 9 to 14) (size 15 to 20)
#    0.000    2.250    1.250    2.250    0.000    6.500 
#    0.000    0.000    0.000    0.000    0.000    0.875 
#    0.000    2.000    0.000    0.000    0.000    0.000 
#
# Total GULP energy -793205.356066 kJ/mol
# GULP energy per Si atom -12393.833689 kJ/mol
# Density = 1.611690 g / cm^3
# Si number density = 16.153667 Si / 1000 Ang^3
#
#
#
# Elastic Constant Matrix: (Units=GPa)
#
#
# Indices 1 2 3 4 5 6 
#
# 1 66.2746 13.8909 22.5731 0.0000 0.0000 0.0000
# 2 13.8909 83.6962 25.6527 0.0000 0.0000 0.0000
# 3 22.5731 25.6527 50.7868 0.0000 0.0000 0.0000
# 4 0.0000 0.0000 0.0000 29.5726 0.0000 0.0000
# 5 0.0000 0.0000 0.0000 0.0000 20.1276 0.0000
# 6 0.0000 0.0000 0.0000 0.0000 0.0000 12.4780
#
#
#
# Elastic Compliance Matrix: (Units=1/GPa)
#
#
# Indices 1 2 3 4 5 6 
#
# 1 0.017808 -0.000627 -0.007599 0.000000 0.000000 0.000000
# 2 -0.000627 0.014159 -0.006873 0.000000 0.000000 0.000000
# 3 -0.007599 -0.006873 0.026539 0.000000 0.000000 0.000000
# 4 0.000000 0.000000 0.000000 0.033815 0.000000 0.000000
# 5 0.000000 0.000000 0.000000 0.000000 0.049683 0.000000
# 6 0.000000 0.000000 0.000000 0.000000 0.000000 0.080141
#
#
# Mechanical properties :
#
#
# Convention : Reuss Voigt Hill
#
# Bulk Modulus (GPa) = 35.32419 36.11011 35.71715
# Shear Modulus (GPa) = 19.10014 21.67836 20.38925
#
# Velocity S-wave (km/s) = 3.44234 3.66732 3.55661
# Velocity P-wave (km/s) = 6.14123 6.35098 6.24698
#
# Compressibility (1/GPa) = 0.02830921
#
# Stress axis : x y z
#
# Youngs Moduli (GPa) = 56.15398 70.62865 37.68016
#
# Poissons Ratio (x) = 0.04426 0.28632
# Poissons Ratio (y) = 0.03519 0.25898
# Poissons Ratio (z) = 0.42669 0.48544
#
# Static dielectric constant tensor:
#      x y z
#    x 3.509200 0.000000 0.000000 
#    y 0.000000 2.779270 0.000000 
#    z 0.000000 0.000000 3.114710 
# 
# 
# High freq. dielectric constant tensor:
#      x y z
#    x 1.614490 0.000000 0.000000 
#    y 0.000000 1.600590 0.000000 
#    z 0.000000 0.000000 1.631270 
# 
# From -- ./inp_files/6009.got.cif
#   From: 2010.03.12/outbox.cif.g09.slc.cpg/sg57_4_cif.got.tgz:6009.got - 2010.04.16 15:48:40.
