data_PCOD8230384
_publ_section_title
;
Structure prediction by ZEFSAII (Michael W. Deem and Ramdas Pophale) SiO2 
 PCOD8230384
Probable space group: P B C M
;
_chemical_formula_sum "Si O2"
_cell_formula_units_Z 32
_cell_length_a 19.281858
_cell_length_b 8.204718
_cell_length_c 8.426920
_cell_angle_alpha 90.000000
_cell_angle_beta 90.000000
_cell_angle_gamma 90.000000
_cell_volume 1333.157346
_symmetry_space_group_name_H-M "P B C M"
_symmetry_group_IT_number 57
_symmetry_cell_setting 'orthorhombic'
loop_
_space_group_symop_operation_xyz
x,y,z
-x,-y,1/2+z
x,1/2-y,-z
-x,1/2+y,1/2-z
-x,-y,-z
x,y,1/2-z
-x,1/2+y,z
x,1/2-y,1/2+z
loop_
_atom_site_type_symbol
_atom_site_label
_atom_site_fract_x
_atom_site_fract_y
_atom_site_fract_z
Si Si1 0.574429 0.295001 0.250000
Si Si2 0.780908 0.432452 0.564465
Si Si3 0.932185 0.076934 0.070072
Si Si4 0.353443 0.057927 0.074217
Si Si5 0.582513 0.593994 0.750000
O O1 0.608986 0.380949 0.406316
O O2 0.493461 0.332525 0.250000
O O3 0.586353 0.102736 0.250000
O O4 0.779529 0.250000 0.500000
O O5 0.758430 0.432235 0.750000
O O6 0.857991 0.514030 0.544498
O O7 0.728348 0.538270 0.458869
O O8 0.950747 0.098075 0.250000
O O9 0.918916 0.250000 0.000000
O O10 0.000000 0.000000 0.000000
O O11 0.363975 0.147882 0.250000
O O12 0.382823 0.151529 0.917952
#
# Coordination Sequence:
#
# PCOD8230384 Si02
#       5
#     4   8   8   8   4
#     4  10  24  34  60  78 111 144 186 224 289 328
#     4  10  18  31  53  82 114 143 185 237 280 324
#     4  10  21  36  58  87 119 155 192 237 289 343
#     4  10  22  33  56  82 111 146 185 233 285 327
#     4  12  20  42  52  84 111 144 182 238 273 344
#
# _framework density 24.003170000000001
#
# number of rings (size 3 to 8) (size 9 to 14) (size 15 to 20)
#    0.750    1.000    1.250    4.500    0.000    3.000 
#    0.000    0.000    0.000    3.000    0.000    0.000 
#    0.000    0.000    0.000    0.000    0.000    0.000 
#
# Total GULP energy -396436.643236 kJ/mol
# GULP energy per Si atom -12388.645101 kJ/mol
# Density = 2.394854 g / cm^3
# Si number density = 24.003170 Si / 1000 Ang^3
#
#
#
# Elastic Constant Matrix: (Units=GPa)
#
#
# Indices 1 2 3 4 5 6 
#
# 1 192.0190 24.0598 105.1537 0.0000 0.0000 0.0000
# 2 24.0598 61.6581 66.8060 0.0000 0.0000 0.0000
# 3 105.1537 66.8060 208.3582 0.0000 0.0000 0.0000
# 4 0.0000 0.0000 0.0000 51.3363 0.0000 0.0000
# 5 0.0000 0.0000 0.0000 0.0000 37.2797 0.0000
# 6 0.0000 0.0000 0.0000 0.0000 0.0000 -160.6036
#
#
#
# Elastic Compliance Matrix: (Units=1/GPa)
#
#
# Indices 1 2 3 4 5 6 
#
# 1 0.007319 0.001756 -0.004257 0.000000 0.000000 0.000000
# 2 0.001756 0.025274 -0.008990 0.000000 0.000000 0.000000
# 3 -0.004257 -0.008990 0.009830 0.000000 0.000000 0.000000
# 4 0.000000 0.000000 0.000000 0.019479 0.000000 0.000000
# 5 0.000000 0.000000 0.000000 0.000000 0.026824 0.000000
# 6 0.000000 0.000000 0.000000 0.000000 0.000000 -0.006227
#
#
# Mechanical properties :
#
#
# Convention : Reuss Voigt Hill
#
# Bulk Modulus (GPa) = 51.43540 94.89715 73.16628
# Shear Modulus (GPa) = 44.65843 3.33685 23.99764
#
# Velocity S-wave (km/s) = 4.31806 1.18033 3.16534
# Velocity P-wave (km/s) = 6.80705 6.44039 6.62626
#
# Compressibility (1/GPa) = 0.01944186
#
# Stress axis : x y z
#
# Youngs Moduli (GPa) = 136.63334 39.56712 101.72805
#
# Poissons Ratio (x) = -0.06949 0.43303
# Poissons Ratio (y) = -0.23996 0.91452
# Poissons Ratio (z) = 0.58162 0.35570
#
# Static dielectric constant tensor:
#      x y z
#    x 2.835020 0.000000 0.000000 
#    y 0.000000 4.015390 0.000000 
#    z 0.000000 0.000000 4.843280 
# 
# 
# High freq. dielectric constant tensor:
#      x y z
#    x 1.964580 0.000000 0.000000 
#    y 0.000000 1.947160 0.000000 
#    z 0.000000 0.000000 1.984570 
# 
# From -- ./inp_files/7567.got.cif
#   From: 2010.03.12/outbox.cif.g09.slc.cpg/sg57_4_cif.got.tgz:7567.got - 2010.04.16 15:48:40.
