data_PCOD8230291
_publ_section_title
;
Structure prediction by ZEFSAII (Michael W. Deem and Ramdas Pophale) SiO2 
 PCOD8230291
Probable space group: P B C M
;
_chemical_formula_sum "Si O2"
_cell_formula_units_Z 40
_cell_length_a 12.787471
_cell_length_b 20.070224
_cell_length_c 8.745440
_cell_angle_alpha 90.000000
_cell_angle_beta 90.000000
_cell_angle_gamma 90.000000
_cell_volume 2244.494502
_symmetry_space_group_name_H-M "P B C M"
_symmetry_group_IT_number 57
_symmetry_cell_setting 'orthorhombic'
loop_
_space_group_symop_operation_xyz
x,y,z
-x,-y,1/2+z
x,1/2-y,-z
-x,1/2+y,1/2-z
-x,-y,-z
x,y,1/2-z
-x,1/2+y,z
x,1/2-y,1/2+z
loop_
_atom_site_type_symbol
_atom_site_label
_atom_site_fract_x
_atom_site_fract_y
_atom_site_fract_z
Si Si1 0.236793 0.538237 0.573264
Si Si2 0.533591 0.069334 0.928424
Si Si3 0.982833 0.429727 0.427123
Si Si4 0.201570 0.396462 0.070458
Si Si5 0.612887 0.678879 0.069667
O O1 0.231111 0.514700 0.750000
O O2 0.342441 0.579302 0.543421
O O3 0.138578 0.588952 0.535767
O O4 0.234461 0.472022 0.470313
O O5 0.504663 0.069954 0.750000
O O6 0.474910 0.128409 0.012336
O O7 0.500000 0.000000 0.000000
O O8 0.000312 0.439517 0.250000
O O9 0.000000 0.500000 0.500000
O O10 0.079258 0.382001 0.479821
O O11 0.220515 0.385501 0.250000
O O12 0.271661 0.344046 0.979826
O O13 0.608035 0.683303 0.250000
O O14 0.586271 0.750000 0.000000
#
# Coordination Sequence:
#
# PCOD8230291 Si02
#       5
#     8   8   8   8   8
#     4   9  17  30  50  77 109 142 175 215 264 315
#     4  11  21  34  55  82 112 145 183 225 271 323
#     4   8  15  27  45  73 105 136 168 207 255 308
#     4  10  18  30  51  77 107 138 174 218 266 320
#     4  12  25  40  56  76 106 143 184 230 279 333
#
# _framework density 17.821383000000001
#
# number of rings (size 3 to 8) (size 9 to 14) (size 15 to 20)
#    0.000    2.000    2.000    3.000    0.000    1.600 
#    0.000    0.000    0.000    1.200    0.000    0.000 
#    0.000    0.000    0.000    0.000    0.000    0.000 
#
# Total GULP energy -495542.619360 kJ/mol
# GULP energy per Si atom -12388.565484 kJ/mol
# Density = 1.778082 g / cm^3
# Si number density = 17.821383 Si / 1000 Ang^3
#
#
#
# Elastic Constant Matrix: (Units=GPa)
#
#
# Indices 1 2 3 4 5 6 
#
# 1 165.4393 59.0279 53.3922 0.0000 0.0000 0.0000
# 2 59.0279 94.4015 44.8283 0.0000 0.0000 0.0000
# 3 53.3922 44.8283 102.5794 0.0000 0.0000 0.0000
# 4 0.0000 0.0000 0.0000 25.8703 0.0000 0.0000
# 5 0.0000 0.0000 0.0000 0.0000 24.0047 0.0000
# 6 0.0000 0.0000 0.0000 0.0000 0.0000 18.8393
#
#
#
# Elastic Compliance Matrix: (Units=1/GPa)
#
#
# Indices 1 2 3 4 5 6 
#
# 1 0.008291 -0.003956 -0.002587 0.000000 0.000000 0.000000
# 2 -0.003956 0.015254 -0.004607 0.000000 0.000000 0.000000
# 3 -0.002587 -0.004607 0.013108 0.000000 0.000000 0.000000
# 4 0.000000 0.000000 0.000000 0.038654 0.000000 0.000000
# 5 0.000000 0.000000 0.000000 0.000000 0.041659 0.000000
# 6 0.000000 0.000000 0.000000 0.000000 0.000000 0.053080
#
#
# Mechanical properties :
#
#
# Convention : Reuss Voigt Hill
#
# Bulk Modulus (GPa) = 69.66697 75.21300 72.43998
# Shear Modulus (GPa) = 25.36385 27.42097 26.39241
#
# Velocity S-wave (km/s) = 3.77666 3.92683 3.85247
# Velocity P-wave (km/s) = 7.62851 7.92814 7.77977
#
# Compressibility (1/GPa) = 0.01435401
#
# Stress axis : x y z
#
# Youngs Moduli (GPa) = 120.61757 65.55464 76.28744
#
# Poissons Ratio (x) = 0.25932 0.19732
# Poissons Ratio (y) = 0.47713 0.35149
# Poissons Ratio (z) = 0.31198 0.30204
#
# Static dielectric constant tensor:
#      x y z
#    x 4.413310 0.000000 0.000000 
#    y 0.000000 2.948880 0.000000 
#    z 0.000000 0.000000 3.430290 
# 
# 
# High freq. dielectric constant tensor:
#      x y z
#    x 1.721260 0.000000 0.000000 
#    y 0.000000 1.629660 0.000000 
#    z 0.000000 0.000000 1.701560 
# 
# From -- ./inp_files/2913.got.cif
#   From: 2010.03.12/outbox.cif.g09.slc.cpg/sg57_2_cif.got.tgz:2913.got - 2010.04.16 15:48:40.
