data_PCOD8230439
_publ_section_title
;
Structure prediction by ZEFSAII (Michael W. Deem and Ramdas Pophale) SiO2 
 PCOD8230439
Probable space group: P B C M
;
_chemical_formula_sum "Si O2"
_cell_formula_units_Z 40
_cell_length_a 25.998457
_cell_length_b 9.111724
_cell_length_c 8.557447
_cell_angle_alpha 90.000000
_cell_angle_beta 90.000000
_cell_angle_gamma 90.000000
_cell_volume 2027.180163
_symmetry_space_group_name_H-M "P B C M"
_symmetry_group_IT_number 57
_symmetry_cell_setting 'orthorhombic'
loop_
_space_group_symop_operation_xyz
x,y,z
-x,-y,1/2+z
x,1/2-y,-z
-x,1/2+y,1/2-z
-x,-y,-z
x,y,1/2-z
-x,1/2+y,z
x,1/2-y,1/2+z
loop_
_atom_site_type_symbol
_atom_site_label
_atom_site_fract_x
_atom_site_fract_y
_atom_site_fract_z
Si Si1 0.652140 0.913534 0.435245
Si Si2 0.148884 0.589242 0.065595
Si Si3 0.047388 0.088457 0.567205
Si Si4 0.242764 0.087878 0.065717
Si Si5 0.452160 0.087012 0.065134
O O1 0.653713 0.750000 0.500000
O O2 0.649008 0.916472 0.250000
O O3 0.705245 0.985963 0.494500
O O4 0.600935 0.990150 0.506059
O O5 0.158996 0.593370 0.250000
O O6 0.099649 0.493030 0.021019
O O7 0.138774 0.750000 0.000000
O O8 0.197273 0.520286 0.978689
O O9 0.049228 0.250000 0.500000
O O10 0.040028 0.099270 0.750000
O O11 0.000000 0.000000 0.500000
O O12 0.248650 0.100431 0.250000
O O13 0.231573 0.250000 0.000000
O O14 0.453482 0.088766 0.250000
O O15 0.455278 0.250000 0.000000
O O16 0.500000 0.000000 0.000000
#
# Coordination Sequence:
#
# PCOD8230439 Si02
#       5
#     8   8   8   8   8
#     4  10  18  32  54  81 111 146 187 234 283 338
#     4  11  24  41  60  86 118 155 193 236 286 342
#     4  11  24  41  64  91 122 156 196 240 288 340
#     4  11  21  36  59  86 114 148 189 237 285 338
#     4  11  21  36  56  82 113 149 190 235 286 342
#
# _framework density 19.731843000000001
#
# number of rings (size 3 to 8) (size 9 to 14) (size 15 to 20)
#    0.000    1.200    0.000   10.200    0.000    6.400 
#    0.000    1.000    0.000    0.000    0.000    0.000 
#    0.000    0.000    0.000    0.000    0.000    0.000 
#
# Total GULP energy -496044.297774 kJ/mol
# GULP energy per Si atom -12401.107444 kJ/mol
# Density = 1.968693 g / cm^3
# Si number density = 19.731843 Si / 1000 Ang^3
#
#
#
# Elastic Constant Matrix: (Units=GPa)
#
#
# Indices 1 2 3 4 5 6 
#
# 1 187.1158 68.7978 86.4554 0.0000 0.0000 0.0000
# 2 68.7978 106.7213 49.0558 0.0000 0.0000 0.0000
# 3 86.4554 49.0558 173.1819 0.0000 0.0000 0.0000
# 4 0.0000 0.0000 0.0000 32.4899 0.0000 0.0000
# 5 0.0000 0.0000 0.0000 0.0000 37.8915 0.0000
# 6 0.0000 0.0000 0.0000 0.0000 0.0000 109.1190
#
#
#
# Elastic Compliance Matrix: (Units=1/GPa)
#
#
# Indices 1 2 3 4 5 6 
#
# 1 0.008143 -0.003887 -0.002964 0.000000 0.000000 0.000000
# 2 -0.003887 0.012628 -0.001637 0.000000 0.000000 0.000000
# 3 -0.002964 -0.001637 0.007718 0.000000 0.000000 0.000000
# 4 0.000000 0.000000 0.000000 0.030779 0.000000 0.000000
# 5 0.000000 0.000000 0.000000 0.000000 0.026391 0.000000
# 6 0.000000 0.000000 0.000000 0.000000 0.000000 0.009164
#
#
# Mechanical properties :
#
#
# Convention : Reuss Voigt Hill
#
# Bulk Modulus (GPa) = 86.85498 97.29299 92.07399
# Shear Modulus (GPa) = 43.23913 53.41409 48.32661
#
# Velocity S-wave (km/s) = 4.68625 5.20853 4.95428
# Velocity P-wave (km/s) = 8.56706 9.25129 8.91574
#
# Compressibility (1/GPa) = 0.01151344
#
# Stress axis : x y z
#
# Youngs Moduli (GPa) = 122.80620 79.18802 129.57369
#
# Poissons Ratio (x) = 0.30779 0.38407
# Poissons Ratio (y) = 0.47733 0.21207
# Poissons Ratio (z) = 0.36401 0.12961
#
# Static dielectric constant tensor:
#      x y z
#    x 3.389630 0.000000 0.000000 
#    y 0.000000 2.420930 0.000000 
#    z 0.000000 0.000000 3.821260 
# 
# 
# High freq. dielectric constant tensor:
#      x y z
#    x 1.799830 0.000000 0.000000 
#    y 0.000000 1.742030 0.000000 
#    z 0.000000 0.000000 1.793840 
# 
# From -- ./inp_files/8923.got.cif
#   From: 2010.03.12/outbox.cif.g09.slc.cpg/sg57_5_cif.got.tgz:8923.got - 2010.04.16 15:48:40.
