data_PCOD8230299
_publ_section_title
;
Structure prediction by ZEFSAII (Michael W. Deem and Ramdas Pophale) SiO2 
 PCOD8230299
Probable space group: P B C M
;
_chemical_formula_sum "Si O2"
_cell_formula_units_Z 64
_cell_length_a 15.482158
_cell_length_b 23.638628
_cell_length_c 8.661895
_cell_angle_alpha 90.000000
_cell_angle_beta 90.000000
_cell_angle_gamma 90.000000
_cell_volume 3170.054118
_symmetry_space_group_name_H-M "P B C M"
_symmetry_group_IT_number 57
_symmetry_cell_setting 'orthorhombic'
loop_
_space_group_symop_operation_xyz
x,y,z
-x,-y,1/2+z
x,1/2-y,-z
-x,1/2+y,1/2-z
-x,-y,-z
x,y,1/2-z
-x,1/2+y,z
x,1/2-y,1/2+z
loop_
_atom_site_type_symbol
_atom_site_label
_atom_site_fract_x
_atom_site_fract_y
_atom_site_fract_z
Si Si1 0.718798 0.311754 0.432193
Si Si2 0.439438 0.871724 0.928468
Si Si3 0.627077 0.892616 0.929058
Si Si4 0.120783 0.626149 0.427115
Si Si5 0.037899 0.188280 0.931482
Si Si6 0.197699 0.512092 0.072682
Si Si7 0.373034 0.520033 0.570683
Si Si8 0.805589 0.615295 0.931070
O O1 0.731414 0.250000 0.500000
O O2 0.734853 0.311329 0.250000
O O3 0.621659 0.333310 0.465729
O O4 0.786643 0.352064 0.516040
O O5 0.415599 0.861640 0.750000
O O6 0.540398 0.855861 0.959850
O O7 0.430786 0.937983 0.968747
O O8 0.650445 0.895058 0.750000
O O9 0.609526 0.956430 0.987930
O O10 0.710225 0.866124 0.013149
O O11 0.106761 0.644603 0.250000
O O12 0.120067 0.557533 0.443420
O O13 0.045600 0.651234 0.530875
O O14 0.045380 0.194059 0.750000
O O15 0.122530 0.157304 0.002455
O O16 0.027837 0.250000 0.000000
O O17 0.230990 0.510526 0.250000
O O18 0.169542 0.449023 0.020030
O O19 0.273052 0.534257 0.960985
O O20 0.394204 0.529445 0.750000
O O21 0.807536 0.621842 0.750000
#
# Coordination Sequence:
#
# PCOD8230299 Si02
#       8
#     8   8   8   8   8   8   8   8
#     4  12  25  41  60  83 115 154 198 245 294 351
#     4  11  21  35  54  81 117 156 196 239 287 339
#     4   9  20  35  55  84 118 153 193 239 287 342
#     4  11  22  38  62  90 120 152 189 233 291 355
#     4  11  24  42  63  87 115 149 197 246 292 345
#     4   9  18  34  57  85 120 156 189 230 290 354
#     4  10  18  30  51  83 118 155 195 234 280 336
#     4   9  20  39  61  86 117 154 195 244 294 347
#
# _framework density 20.188931
#
# number of rings (size 3 to 8) (size 9 to 14) (size 15 to 20)
#    0.000    1.750    1.250    3.375    0.000    3.500 
#    0.000    0.625    0.000    1.500    0.000    0.000 
#    0.000    0.000    0.000    0.000    0.000    0.000 
#
# Total GULP energy -793547.945453 kJ/mol
# GULP energy per Si atom -12399.186648 kJ/mol
# Density = 2.014298 g / cm^3
# Si number density = 20.188931 Si / 1000 Ang^3
#
#
#
# Elastic Constant Matrix: (Units=GPa)
#
#
# Indices 1 2 3 4 5 6 
#
# 1 98.5541 29.3234 17.0407 0.0000 0.0000 0.0000
# 2 29.3234 18.6448 12.2683 0.0000 0.0000 0.0000
# 3 17.0407 12.2683 47.2374 0.0000 0.0000 0.0000
# 4 0.0000 0.0000 0.0000 22.0469 0.0000 0.0000
# 5 0.0000 0.0000 0.0000 0.0000 32.0034 0.0000
# 6 0.0000 0.0000 0.0000 0.0000 0.0000 21.6331
#
#
#
# Elastic Compliance Matrix: (Units=1/GPa)
#
#
# Indices 1 2 3 4 5 6 
#
# 1 0.019118 -0.030792 0.001100 0.000000 0.000000 0.000000
# 2 -0.030792 0.114283 -0.018573 0.000000 0.000000 0.000000
# 3 0.001100 -0.018573 0.025596 0.000000 0.000000 0.000000
# 4 0.000000 0.000000 0.000000 0.045358 0.000000 0.000000
# 5 0.000000 0.000000 0.000000 0.000000 0.031247 0.000000
# 6 0.000000 0.000000 0.000000 0.000000 0.000000 0.046225
#
#
# Mechanical properties :
#
#
# Convention : Reuss Voigt Hill
#
# Bulk Modulus (GPa) = 16.00810 31.30015 23.65413
# Shear Modulus (GPa) = 12.52567 22.19027 17.35797
#
# Velocity S-wave (km/s) = 2.49353 3.31891 2.93538
# Velocity P-wave (km/s) = 4.02947 5.49765 4.81979
#
# Compressibility (1/GPa) = 0.06246836
#
# Stress axis : x y z
#
# Youngs Moduli (GPa) = 52.30624 8.75019 39.06785
#
# Poissons Ratio (x) = 0.26944 -0.04299
# Poissons Ratio (y) = 1.61061 0.72561
# Poissons Ratio (z) = -0.05756 0.16252
#
# Static dielectric constant tensor:
#      x y z
#    x 3.678330 0.000000 0.000000 
#    y 0.000000 3.592860 0.000000 
#    z 0.000000 0.000000 3.598090 
# 
# 
# High freq. dielectric constant tensor:
#      x y z
#    x 1.785760 0.000000 0.000000 
#    y 0.000000 1.776330 0.000000 
#    z 0.000000 0.000000 1.787940 
# 
# From -- ./inp_files/5761.got.cif
#   From: 2010.03.12/outbox.cif.g09.slc.cpg/sg57_3_cif.got.tgz:5761.got - 2010.04.16 15:48:40.
