data_PCOD8230267
_publ_section_title
;
Structure prediction by ZEFSAII (Michael W. Deem and Ramdas Pophale) SiO2 
 PCOD8230267
Probable space group: P B C M
;
_chemical_formula_sum "Si O2"
_cell_formula_units_Z 64
_cell_length_a 14.521076
_cell_length_b 25.667090
_cell_length_c 8.757251
_cell_angle_alpha 90.000000
_cell_angle_beta 90.000000
_cell_angle_gamma 90.000000
_cell_volume 3263.947988
_symmetry_space_group_name_H-M "P B C M"
_symmetry_group_IT_number 57
_symmetry_cell_setting 'orthorhombic'
loop_
_space_group_symop_operation_xyz
x,y,z
-x,-y,1/2+z
x,1/2-y,-z
-x,1/2+y,1/2-z
-x,-y,-z
x,y,1/2-z
-x,1/2+y,z
x,1/2-y,1/2+z
loop_
_atom_site_type_symbol
_atom_site_label
_atom_site_fract_x
_atom_site_fract_y
_atom_site_fract_z
Si Si1 0.731687 0.510429 0.918717
Si Si2 0.717384 0.803939 0.431692
Si Si3 0.682090 0.196262 0.930807
Si Si4 0.466439 0.450145 0.416978
Si Si5 0.158220 0.101983 0.928442
Si Si6 0.783131 0.402325 0.930363
Si Si7 0.517147 0.837767 0.068193
Si Si8 0.029838 0.944302 0.429946
O O1 0.771332 0.498327 0.750000
O O2 0.642455 0.545803 0.909143
O O3 0.804149 0.547939 0.005639
O O4 0.720200 0.452044 0.987321
O O5 0.753583 0.750000 0.500000
O O6 0.719132 0.801334 0.250000
O O7 0.788992 0.847508 0.496032
O O8 0.612220 0.812666 0.492976
O O9 0.688140 0.198397 0.750000
O O10 0.575016 0.191816 0.985607
O O11 0.721208 0.250000 0.000000
O O12 0.744907 0.148730 0.986633
O O13 0.500000 0.500000 0.500000
O O14 0.511638 0.450565 0.250000
O O15 0.491607 0.396270 0.500901
O O16 0.183788 0.100365 0.750000
O O17 0.049013 0.100098 0.955117
O O18 0.779711 0.391004 0.750000
O O19 0.885101 0.418237 0.982859
O O20 0.523642 0.841807 0.250000
O O21 0.050312 0.951698 0.250000
O O22 0.000000 0.000000 0.500000
#
# Coordination Sequence:
#
# PCOD8230267 Si02
#       8
#     8   8   8   8   8   8   8   8
#     4   9  16  30  54  80 108 146 187 223 275 345
#     4  10  19  35  58  82 111 150 191 231 276 331
#     4  11  23  40  59  83 114 151 194 240 287 336
#     4  10  18  30  49  75 109 148 187 226 275 335
#     4   9  17  33  57  81 110 150 188 224 278 343
#     4  11  22  38  60  87 116 150 192 240 290 347
#     4   9  18  33  56  81 110 148 190 231 275 332
#     4  11  21  36  60  89 117 150 191 236 288 350
#
# _framework density 19.608155
#
# number of rings (size 3 to 8) (size 9 to 14) (size 15 to 20)
#    0.000    2.000    2.500    2.250    0.000    0.000 
#    0.000    4.375    0.000    1.500    0.000    0.000 
#    0.000    0.000    0.000    0.000    0.000    0.000 
#
# Total GULP energy -792848.890093 kJ/mol
# GULP energy per Si atom -12388.263908 kJ/mol
# Density = 1.956353 g / cm^3
# Si number density = 19.608155 Si / 1000 Ang^3
#
#
#
# Elastic Constant Matrix: (Units=GPa)
#
#
# Indices 1 2 3 4 5 6 
#
# 1 76.3208 44.5779 21.7640 0.0000 0.0000 0.0000
# 2 44.5779 166.1368 29.3545 0.0000 0.0000 0.0000
# 3 21.7640 29.3545 49.9514 0.0000 0.0000 0.0000
# 4 0.0000 0.0000 0.0000 29.8423 0.0000 0.0000
# 5 0.0000 0.0000 0.0000 0.0000 22.8267 0.0000
# 6 0.0000 0.0000 0.0000 0.0000 0.0000 26.0404
#
#
#
# Elastic Compliance Matrix: (Units=1/GPa)
#
#
# Indices 1 2 3 4 5 6 
#
# 1 0.016652 -0.003555 -0.005166 0.000000 0.000000 0.000000
# 2 -0.003555 0.007476 -0.002844 0.000000 0.000000 0.000000
# 3 -0.005166 -0.002844 0.023942 0.000000 0.000000 0.000000
# 4 0.000000 0.000000 0.000000 0.033509 0.000000 0.000000
# 5 0.000000 0.000000 0.000000 0.000000 0.043808 0.000000
# 6 0.000000 0.000000 0.000000 0.000000 0.000000 0.038402
#
#
# Mechanical properties :
#
#
# Convention : Reuss Voigt Hill
#
# Bulk Modulus (GPa) = 40.09847 53.75574 46.92711
# Shear Modulus (GPa) = 25.61034 28.85604 27.23319
#
# Velocity S-wave (km/s) = 3.61793 3.84035 3.73080
# Velocity P-wave (km/s) = 6.16010 6.86578 6.52249
#
# Compressibility (1/GPa) = 0.02493861
#
# Stress axis : x y z
#
# Youngs Moduli (GPa) = 60.05127 133.76799 41.76808
#
# Poissons Ratio (x) = 0.47560 0.21578
# Poissons Ratio (y) = 0.21351 0.11879
# Poissons Ratio (z) = 0.31023 0.38044
#
# Static dielectric constant tensor:
#      x y z
#    x 3.338480 0.000000 0.000000 
#    y 0.000000 3.588030 0.000000 
#    z 0.000000 0.000000 3.176490 
# 
# 
# High freq. dielectric constant tensor:
#      x y z
#    x 1.761740 0.000000 0.000000 
#    y 0.000000 1.776160 0.000000 
#    z 0.000000 0.000000 1.727170 
# 
# From -- ./inp_files/5560.got.cif
#   From: 2010.03.12/outbox.cif.g09.slc.cpg/sg57_3_cif.got.tgz:5560.got - 2010.04.16 15:48:40.
