data_PCOD8230374
_publ_section_title
;
Structure prediction by ZEFSAII (Michael W. Deem and Ramdas Pophale) SiO2 
 PCOD8230374
Probable space group: P B C M
;
_chemical_formula_sum "Si O2"
_cell_formula_units_Z 64
_cell_length_a 12.275388
_cell_length_b 17.891165
_cell_length_c 15.318847
_cell_angle_alpha 90.000000
_cell_angle_beta 90.000000
_cell_angle_gamma 90.000000
_cell_volume 3364.340377
_symmetry_space_group_name_H-M "P B C M"
_symmetry_group_IT_number 57
_symmetry_cell_setting 'orthorhombic'
loop_
_space_group_symop_operation_xyz
x,y,z
-x,-y,1/2+z
x,1/2-y,-z
-x,1/2+y,1/2-z
-x,-y,-z
x,y,1/2-z
-x,1/2+y,z
x,1/2-y,1/2+z
loop_
_atom_site_type_symbol
_atom_site_label
_atom_site_fract_x
_atom_site_fract_y
_atom_site_fract_z
Si Si1 0.401770 0.167821 0.352436
Si Si2 0.629504 0.117600 0.350563
Si Si3 0.837480 0.314479 0.561507
Si Si4 0.729820 0.695496 0.848126
Si Si5 0.880216 0.028749 0.998869
Si Si6 0.072553 0.219041 0.096328
Si Si7 0.262836 0.469494 0.147713
Si Si8 0.197952 0.072559 0.352398
O O1 0.413054 0.182418 0.250000
O O2 0.519207 0.149064 0.396223
O O3 0.347217 0.242522 0.395420
O O4 0.322188 0.097719 0.367105
O O5 0.616118 0.134214 0.250000
O O6 0.738106 0.160714 0.378314
O O7 0.637777 0.027973 0.367186
O O8 0.791022 0.250000 0.500000
O O9 0.876904 0.381554 0.498501
O O10 0.942524 0.283825 0.616802
O O11 0.689861 0.687175 0.750000
O O12 0.856580 0.722827 0.846024
O O13 0.710792 0.613434 0.889995
O O14 0.817553 0.000840 0.911972
O O15 0.836075 0.999669 0.091161
O O16 0.000000 0.000000 0.000000
O O17 0.116367 0.135739 0.111993
O O18 0.092642 0.250000 0.000000
O O19 0.228256 0.467309 0.250000
O O20 0.174313 0.055575 0.250000
#
# Coordination Sequence:
#
# PCOD8230374 Si02
#       8
#     8   8   8   8   8   8   8   8
#     4   8  16  33  56  81 111 145 184 237 286 335
#     4   9  18  36  58  77 105 149 193 229 281 346
#     4  10  22  37  52  74 111 147 185 227 283 342
#     4   9  17  30  51  82 110 133 178 237 286 332
#     4  11  21  37  56  79 111 150 184 231 292 339
#     4  10  18  31  53  76 110 146 181 229 285 335
#     4   9  19  34  55  84 112 143 190 238 284 342
#     4  10  20  35  57  85 113 147 192 236 291 349
#
# _framework density 19.023046000000001
#
# number of rings (size 3 to 8) (size 9 to 14) (size 15 to 20)
#    0.000    2.500    1.250    1.875    1.750    1.500 
#    0.000    8.125    0.000    3.000    0.000    0.000 
#    0.000    0.000    0.000    0.000    0.000    0.000 
#
# Total GULP energy -792867.300419 kJ/mol
# GULP energy per Si atom -12388.551569 kJ/mol
# Density = 1.897975 g / cm^3
# Si number density = 19.023046 Si / 1000 Ang^3
#
#
#
# Elastic Constant Matrix: (Units=GPa)
#
#
# Indices 1 2 3 4 5 6 
#
# 1 134.3448 54.9182 22.9569 0.0000 0.0000 0.0000
# 2 54.9182 134.5763 26.6719 0.0000 0.0000 0.0000
# 3 22.9569 26.6719 51.8248 0.0000 0.0000 0.0000
# 4 0.0000 0.0000 0.0000 26.9216 0.0000 0.0000
# 5 0.0000 0.0000 0.0000 0.0000 17.7170 0.0000
# 6 0.0000 0.0000 0.0000 0.0000 0.0000 16.4808
#
#
#
# Elastic Compliance Matrix: (Units=1/GPa)
#
#
# Indices 1 2 3 4 5 6 
#
# 1 0.009191 -0.003278 -0.002384 0.000000 0.000000 0.000000
# 2 -0.003278 0.009444 -0.003408 0.000000 0.000000 0.000000
# 3 -0.002384 -0.003408 0.022106 0.000000 0.000000 0.000000
# 4 0.000000 0.000000 0.000000 0.037145 0.000000 0.000000
# 5 0.000000 0.000000 0.000000 0.000000 0.056443 0.000000
# 6 0.000000 0.000000 0.000000 0.000000 0.000000 0.060677
#
#
# Mechanical properties :
#
#
# Convention : Reuss Voigt Hill
#
# Bulk Modulus (GPa) = 44.24836 58.87110 51.55973
# Shear Modulus (GPa) = 22.65726 26.63716 24.64721
#
# Velocity S-wave (km/s) = 3.45489 3.74606 3.60342
# Velocity P-wave (km/s) = 6.26306 7.05160 6.66900
#
# Compressibility (1/GPa) = 0.02259971
#
# Stress axis : x y z
#
# Youngs Moduli (GPa) = 108.80190 105.88761 45.23653
#
# Poissons Ratio (x) = 0.34712 0.10785
# Poissons Ratio (y) = 0.35667 0.15418
# Poissons Ratio (z) = 0.25941 0.36089
#
# Static dielectric constant tensor:
#      x y z
#    x 3.642530 0.000000 0.000000 
#    y 0.000000 3.857060 0.000000 
#    z 0.000000 0.000000 3.554240 
# 
# 
# High freq. dielectric constant tensor:
#      x y z
#    x 1.731630 0.000000 0.000000 
#    y 0.000000 1.743760 0.000000 
#    z 0.000000 0.000000 1.718190 
# 
# From -- ./inp_files/17985.got.cif
#   From: 2010.03.12/outbox.cif.g09.slc.cpg/sg57_9_cif.got.tgz:17985.got - 2010.04.16 15:48:40.
