data_PCOD8230004
_publ_section_title
;
Structure prediction by ZEFSAII (Michael W. Deem and Ramdas Pophale) SiO2 
 PCOD8230004
Probable space group: P B C M
;
_chemical_formula_sum "Si O2"
_cell_formula_units_Z 64
_cell_length_a 15.106928
_cell_length_b 29.333824
_cell_length_c 8.903852
_cell_angle_alpha 90.000000
_cell_angle_beta 90.000000
_cell_angle_gamma 90.000000
_cell_volume 3945.688298
_symmetry_space_group_name_H-M "P B C M"
_symmetry_group_IT_number 57
_symmetry_cell_setting 'orthorhombic'
loop_
_space_group_symop_operation_xyz
x,y,z
-x,-y,1/2+z
x,1/2-y,-z
-x,1/2+y,1/2-z
-x,-y,-z
x,y,1/2-z
-x,1/2+y,z
x,1/2-y,1/2+z
loop_
_atom_site_type_symbol
_atom_site_label
_atom_site_fract_x
_atom_site_fract_y
_atom_site_fract_z
Si Si1 0.288739 0.120176 0.424821
Si Si2 0.546824 0.560980 0.076541
Si Si3 0.620124 0.035249 0.572780
Si Si4 0.181617 0.544024 0.928538
Si Si5 0.976956 0.796035 0.573127
Si Si6 0.131834 0.444813 0.927961
Si Si7 0.042525 0.894005 0.925864
Si Si8 0.212289 0.204018 0.927769
O O1 0.271958 0.131904 0.250000
O O2 0.388214 0.103113 0.452280
O O3 0.218682 0.082410 0.481092
O O4 0.279680 0.164390 0.527821
O O5 0.524056 0.555228 0.250000
O O6 0.595679 0.515518 0.016706
O O7 0.454137 0.569787 0.991051
O O8 0.620316 0.038178 0.750000
O O9 0.717553 0.047869 0.512148
O O10 0.178654 0.545429 0.750000
O O11 0.138270 0.496689 0.988209
O O12 0.128989 0.586946 0.993032
O O13 0.018584 0.750000 0.500000
O O14 0.963499 0.788290 0.750000
O O15 0.882898 0.806774 0.499021
O O16 0.038459 0.839809 0.540973
O O17 0.129661 0.445056 0.750000
O O18 0.044093 0.419987 0.991350
O O19 0.050423 0.903366 0.750000
O O20 0.203830 0.208847 0.750000
O O21 0.250959 0.250000 0.000000
#
# Coordination Sequence:
#
# PCOD8230004 Si02
#       8
#     8   8   8   8   8   8   8   8
#     4  10  17  31  51  69  95 130 163 194 238 290
#     4   9  17  29  49  70  91 124 160 194 236 283
#     4   9  17  30  46  67  95 125 158 198 240 277
#     4  10  19  31  48  67  93 132 169 200 234 279
#     4  10  19  33  51  69  93 124 158 198 245 287
#     4   9  16  30  47  64  94 132 164 192 232 280
#     4  10  20  32  47  67  94 129 161 198 243 281
#     4  11  21  32  48  71  97 125 159 197 239 285
#
# _framework density 16.220237000000001
#
# number of rings (size 3 to 8) (size 9 to 14) (size 15 to 20)
#    0.000    2.250    2.500    2.625    0.000    2.000 
#    0.000    0.625    0.000    0.000    0.000    0.875 
#    0.000    4.000    0.000    0.000    0.000    0.000 
#
# Total GULP energy -793496.553548 kJ/mol
# GULP energy per Si atom -12398.383649 kJ/mol
# Density = 1.618332 g / cm^3
# Si number density = 16.220237 Si / 1000 Ang^3
#
#
#
# Elastic Constant Matrix: (Units=GPa)
#
#
# Indices 1 2 3 4 5 6 
#
# 1 108.8095 54.4701 33.8660 0.0000 0.0000 0.0000
# 2 54.4701 108.0863 41.0135 0.0000 0.0000 0.0000
# 3 33.8660 41.0135 56.8771 0.0000 0.0000 0.0000
# 4 0.0000 0.0000 0.0000 24.8906 0.0000 0.0000
# 5 0.0000 0.0000 0.0000 0.0000 25.1510 0.0000
# 6 0.0000 0.0000 0.0000 0.0000 0.0000 18.7229
#
#
#
# Elastic Compliance Matrix: (Units=1/GPa)
#
#
# Indices 1 2 3 4 5 6 
#
# 1 0.012963 -0.004961 -0.004141 0.000000 0.000000 0.000000
# 2 -0.004961 0.014636 -0.007600 0.000000 0.000000 0.000000
# 3 -0.004141 -0.007600 0.025527 0.000000 0.000000 0.000000
# 4 0.000000 0.000000 0.000000 0.040176 0.000000 0.000000
# 5 0.000000 0.000000 0.000000 0.000000 0.039760 0.000000
# 6 0.000000 0.000000 0.000000 0.000000 0.000000 0.053410
#
#
# Mechanical properties :
#
#
# Convention : Reuss Voigt Hill
#
# Bulk Modulus (GPa) = 50.70376 59.16355 54.93366
# Shear Modulus (GPa) = 22.07995 23.38113 22.73054
#
# Velocity S-wave (km/s) = 3.69353 3.80080 3.74755
# Velocity P-wave (km/s) = 7.03683 7.47100 7.25716
#
# Compressibility (1/GPa) = 0.01972240
#
# Stress axis : x y z
#
# Youngs Moduli (GPa) = 77.14361 68.32533 39.17375
#
# Poissons Ratio (x) = 0.33899 0.16221
# Poissons Ratio (y) = 0.38274 0.29771
# Poissons Ratio (z) = 0.31943 0.51925
#
# Static dielectric constant tensor:
#      x y z
#    x 3.027800 0.000000 0.000000 
#    y 0.000000 3.105900 0.000000 
#    z 0.000000 0.000000 2.911820 
# 
# 
# High freq. dielectric constant tensor:
#      x y z
#    x 1.606050 0.000000 0.000000 
#    y 0.000000 1.612290 0.000000 
#    z 0.000000 0.000000 1.613030 
# 
# From -- ./inp_files/5999.got.cif
#   From: 2010.03.12/outbox.cif.g09.slc.cpg/sg57_3_cif.got.tgz:5999.got - 2010.04.16 15:48:40.
