data_PCOD8230950
_publ_section_title
;
Structure prediction by ZEFSAII (Michael W. Deem and Ramdas Pophale) SiO2 
 PCOD8230950
Probable space group: P B C M
;
_chemical_formula_sum "Si O2"
_cell_formula_units_Z 48
_cell_length_a 13.670585
_cell_length_b 23.463202
_cell_length_c 8.705152
_cell_angle_alpha 90.000000
_cell_angle_beta 90.000000
_cell_angle_gamma 90.000000
_cell_volume 2792.227100
_symmetry_space_group_name_H-M "P B C M"
_symmetry_group_IT_number 57
_symmetry_cell_setting 'orthorhombic'
loop_
_space_group_symop_operation_xyz
x,y,z
-x,-y,1/2+z
x,1/2-y,-z
-x,1/2+y,1/2-z
-x,-y,-z
x,y,1/2-z
-x,1/2+y,z
x,1/2-y,1/2+z
loop_
_atom_site_type_symbol
_atom_site_label
_atom_site_fract_x
_atom_site_fract_y
_atom_site_fract_z
Si Si1 0.856943 0.983573 0.072594
Si Si2 0.857166 0.309898 0.569440
Si Si3 0.636054 0.971234 0.427863
Si Si4 0.537166 0.088824 0.072089
Si Si5 0.649301 0.189715 0.568985
Si Si6 0.042744 0.912364 0.426892
O O1 0.863270 0.003056 0.250000
O O2 0.749268 0.961284 0.031095
O O3 0.932209 0.932456 0.038382
O O4 0.881484 0.037774 0.968626
O O5 0.891997 0.250000 0.500000
O O6 0.845758 0.303515 0.750000
O O7 0.753386 0.329196 0.500140
O O8 0.938248 0.356868 0.529268
O O9 0.613397 0.959056 0.250000
O O10 0.574073 0.927176 0.529401
O O11 0.607764 0.036065 0.469221
O O12 0.543505 0.105237 0.250000
O O13 0.568826 0.142789 0.972153
O O14 0.615324 0.250000 0.500000
O O15 0.659706 0.195839 0.750000
O O16 0.057756 0.896252 0.250000
#
# Coordination Sequence:
#
# PCOD8230950 Si02
#       6
#     8   8   8   8   8   8
#     4   9  18  32  50  72 100 133 167 204 243 286
#     4  11  21  34  51  72  99 129 162 200 244 291
#     4   9  18  32  49  70  98 132 166 201 242 286
#     4  10  19  31  49  74 102 130 162 200 243 290
#     4  11  21  34  52  74 100 129 162 199 242 290
#     4  10  19  31  49  74 101 130 165 202 244 291
#
# _framework density 17.190577999999999
#
# number of rings (size 3 to 8) (size 9 to 14) (size 15 to 20)
#    0.000    2.000    0.000    6.000    0.000    3.333 
#    0.000    0.000    0.000    1.000    0.000    4.667 
#    0.000    0.000    0.000    0.000    0.000    0.000 
#
# Total GULP energy -595412.226847 kJ/mol
# GULP energy per Si atom -12404.421393 kJ/mol
# Density = 1.715145 g / cm^3
# Si number density = 17.190578 Si / 1000 Ang^3
#
#
#
# Elastic Constant Matrix: (Units=GPa)
#
#
# Indices 1 2 3 4 5 6 
#
# 1 106.2337 54.8517 38.8658 0.0000 0.0000 0.0000
# 2 54.8517 100.3392 49.3749 0.0000 0.0000 0.0000
# 3 38.8658 49.3749 110.0984 0.0000 0.0000 0.0000
# 4 0.0000 0.0000 0.0000 31.4775 0.0000 0.0000
# 5 0.0000 0.0000 0.0000 0.0000 26.3130 0.0000
# 6 0.0000 0.0000 0.0000 0.0000 0.0000 24.7032
#
#
#
# Elastic Compliance Matrix: (Units=1/GPa)
#
#
# Indices 1 2 3 4 5 6 
#
# 1 0.013404 -0.006415 -0.001855 0.000000 0.000000 0.000000
# 2 -0.006415 0.015858 -0.004847 0.000000 0.000000 0.000000
# 3 -0.001855 -0.004847 0.011911 0.000000 0.000000 0.000000
# 4 0.000000 0.000000 0.000000 0.031769 0.000000 0.000000
# 5 0.000000 0.000000 0.000000 0.000000 0.038004 0.000000
# 6 0.000000 0.000000 0.000000 0.000000 0.000000 0.040481
#
#
# Mechanical properties :
#
#
# Convention : Reuss Voigt Hill
#
# Bulk Modulus (GPa) = 66.93626 66.98401 66.96013
# Shear Modulus (GPa) = 27.37617 28.07067 27.72342
#
# Velocity S-wave (km/s) = 3.99496 4.04531 4.02021
# Velocity P-wave (km/s) = 7.76543 7.80189 7.78368
#
# Compressibility (1/GPa) = 0.01493959
#
# Stress axis : x y z
#
# Youngs Moduli (GPa) = 74.60494 63.05918 83.95276
#
# Poissons Ratio (x) = 0.40450 0.15573
# Poissons Ratio (y) = 0.47856 0.40695
# Poissons Ratio (z) = 0.13839 0.30567
#
# Static dielectric constant tensor:
#      x y z
#    x 3.155550 0.000000 0.000000 
#    y 0.000000 3.098420 0.000000 
#    z 0.000000 0.000000 3.289630 
# 
# 
# High freq. dielectric constant tensor:
#      x y z
#    x 1.651570 0.000000 0.000000 
#    y 0.000000 1.652090 0.000000 
#    z 0.000000 0.000000 1.677110 
# 
# From -- ./inp_files/3121.got.cif
#   From: 2010.03.12/outbox.cif.g09.slc.cpg/sg57_2_cif.got.tgz:3121.got - 2010.04.16 15:48:40.
