data_PCOD8230602
_publ_section_title
;
Structure prediction by ZEFSAII (Michael W. Deem and Ramdas Pophale) SiO2 
 PCOD8230602
Probable space group: P B C M
;
_chemical_formula_sum "Si O2"
_cell_formula_units_Z 44
_cell_length_a 21.783216
_cell_length_b 9.330354
_cell_length_c 10.416417
_cell_angle_alpha 90.000000
_cell_angle_beta 90.000000
_cell_angle_gamma 90.000000
_cell_volume 2117.085887
_symmetry_space_group_name_H-M "P B C M"
_symmetry_group_IT_number 57
_symmetry_cell_setting 'orthorhombic'
loop_
_space_group_symop_operation_xyz
x,y,z
-x,-y,1/2+z
x,1/2-y,-z
-x,1/2+y,1/2-z
-x,-y,-z
x,y,1/2-z
-x,1/2+y,z
x,1/2-y,1/2+z
loop_
_atom_site_type_symbol
_atom_site_label
_atom_site_fract_x
_atom_site_fract_y
_atom_site_fract_z
Si Si1 0.178941 0.512453 0.106394
Si Si2 0.307337 0.865209 0.895881
Si Si3 0.040584 0.201686 0.750000
Si Si4 0.596655 0.907309 0.034448
Si Si5 0.923765 0.119201 0.250000
Si Si6 0.116635 0.250000 0.500000
Si Si7 0.464080 0.639367 0.887665
O O1 0.191501 0.445780 0.250000
O O2 0.239215 0.593054 0.056353
O O3 0.120807 0.621958 0.123409
O O4 0.161113 0.387630 0.007645
O O5 0.305871 0.802732 0.750000
O O6 0.349834 0.006013 0.894814
O O7 0.332548 0.750000 0.000000
O O8 0.074103 0.264017 0.624904
O O9 0.969656 0.248747 0.750000
O O10 0.038710 0.030249 0.750000
O O11 0.536400 0.893656 0.123042
O O12 0.622466 0.750000 0.000000
O O13 0.573787 0.992556 0.907688
O O14 0.443449 0.704707 0.750000
O O15 0.448084 0.750000 0.000000
#
# Coordination Sequence:
#
# PCOD8230602 Si02
#       7
#     8   8   4   8   4   4   8
#     4   8  19  39  58  81 125 157 196 250 302 353
#     4  11  24  45  64  87 124 166 210 258 312 370
#     4  10  20  34  60  86 124 152 201 239 302 364
#     4  10  23  38  63  96 123 162 212 255 313 373
#     4   8  18  40  54  92 118 160 191 253 296 366
#     4  10  18  38  58  90 118 160 196 246 310 366
#     4  10  22  41  64  93 130 163 202 260 318 373
#
# _framework density 20.783286
#
# number of rings (size 3 to 8) (size 9 to 14) (size 15 to 20)
#    0.545    1.818    0.909    1.091    1.273   13.818 
#    6.545    0.000    0.000    0.000    0.000    0.000 
#    0.000    0.000    0.000    0.000    0.000    0.000 
#
# Total GULP energy -545232.310939 kJ/mol
# GULP energy per Si atom -12391.643430 kJ/mol
# Density = 2.073598 g / cm^3
# Si number density = 20.783286 Si / 1000 Ang^3
#
#
#
# Elastic Constant Matrix: (Units=GPa)
#
#
# Indices 1 2 3 4 5 6 
#
# 1 110.6396 49.6888 17.1362 0.0000 0.0000 0.0000
# 2 49.6888 93.4218 37.4458 0.0000 0.0000 0.0000
# 3 17.1362 37.4458 129.7491 0.0000 0.0000 0.0000
# 4 0.0000 0.0000 0.0000 19.8543 0.0000 0.0000
# 5 0.0000 0.0000 0.0000 0.0000 70.8737 0.0000
# 6 0.0000 0.0000 0.0000 0.0000 0.0000 37.0037
#
#
#
# Elastic Compliance Matrix: (Units=1/GPa)
#
#
# Indices 1 2 3 4 5 6 
#
# 1 0.011884 -0.006436 0.000288 0.000000 0.000000 0.000000
# 2 -0.006436 0.015590 -0.003649 0.000000 0.000000 0.000000
# 3 0.000288 -0.003649 0.008722 0.000000 0.000000 0.000000
# 4 0.000000 0.000000 0.000000 0.050367 0.000000 0.000000
# 5 0.000000 0.000000 0.000000 0.000000 0.014110 0.000000
# 6 0.000000 0.000000 0.000000 0.000000 0.000000 0.027024
#
#
# Mechanical properties :
#
#
# Convention : Reuss Voigt Hill
#
# Bulk Modulus (GPa) = 60.23571 60.26135 60.24853
# Shear Modulus (GPa) = 32.71669 40.84900 36.78285
#
# Velocity S-wave (km/s) = 3.97190 4.43818 4.21150
# Velocity P-wave (km/s) = 7.07675 7.43783 7.25953
#
# Compressibility (1/GPa) = 0.01660145
#
# Stress axis : x y z
#
# Youngs Moduli (GPa) = 84.14391 64.14255 114.64808
#
# Poissons Ratio (x) = 0.41285 -0.03302
# Poissons Ratio (y) = 0.54159 0.41839
# Poissons Ratio (z) = -0.02423 0.23408
#
# Static dielectric constant tensor:
#      x y z
#    x 3.860510 0.000000 0.000000 
#    y 0.000000 3.553140 0.000000 
#    z 0.000000 0.000000 3.564860 
# 
# 
# High freq. dielectric constant tensor:
#      x y z
#    x 1.820870 0.000000 0.000000 
#    y 0.000000 1.794790 0.000000 
#    z 0.000000 0.000000 1.797940 
# 
# From -- ./inp_files/14406.got.cif
#   From: 2010.03.12/outbox.cif.g09.slc.cpg/sg57_8_cif.got.tgz:14406.got - 2010.04.16 15:48:40.
