data_PCOD8230870
_publ_section_title
;
Structure prediction by ZEFSAII (Michael W. Deem and Ramdas Pophale) SiO2 
 PCOD8230870
Probable space group: P B C M
;
_chemical_formula_sum "Si O2"
_cell_formula_units_Z 48
_cell_length_a 16.204193
_cell_length_b 18.357424
_cell_length_c 8.925661
_cell_angle_alpha 90.000000
_cell_angle_beta 90.000000
_cell_angle_gamma 90.000000
_cell_volume 2655.091756
_symmetry_space_group_name_H-M "P B C M"
_symmetry_group_IT_number 57
_symmetry_cell_setting 'orthorhombic'
loop_
_space_group_symop_operation_xyz
x,y,z
-x,-y,1/2+z
x,1/2-y,-z
-x,1/2+y,1/2-z
-x,-y,-z
x,y,1/2-z
-x,1/2+y,z
x,1/2-y,1/2+z
loop_
_atom_site_type_symbol
_atom_site_label
_atom_site_fract_x
_atom_site_fract_y
_atom_site_fract_z
Si Si1 0.916521 0.025859 0.074426
Si Si2 0.322266 0.608975 0.922173
Si Si3 0.470467 0.674215 0.427216
Si Si4 0.833214 0.324474 0.927514
Si Si5 0.234725 0.458972 0.921434
Si Si6 0.657848 0.824718 0.926217
O O1 0.926725 0.019040 0.250000
O O2 0.894249 0.108994 0.027910
O O3 0.845082 0.971109 0.022730
O O4 0.000000 0.000000 0.000000
O O5 0.327177 0.634313 0.750000
O O6 0.297888 0.525195 0.935887
O O7 0.411073 0.613530 0.001778
O O8 0.257295 0.660567 0.006732
O O9 0.442902 0.750000 0.500000
O O10 0.458848 0.677571 0.250000
O O11 0.564311 0.655573 0.473468
O O12 0.826764 0.315804 0.750000
O O13 0.868520 0.250000 0.000000
O O14 0.205828 0.449136 0.750000
O O15 0.281573 0.387950 0.982893
O O16 0.663351 0.815081 0.750000
O O17 0.687787 0.750000 0.000000
#
# Coordination Sequence:
#
# PCOD8230870 Si02
#       6
#     8   8   8   8   8   8
#     4  10  21  37  58  82 106 133 166 205 251 303
#     4  10  19  31  49  73 102 136 170 207 253 302
#     4  10  19  31  47  69 100 136 174 214 253 295
#     4  10  20  34  53  78 106 135 168 206 249 299
#     4   9  19  36  55  75 101 132 167 207 254 306
#     4   9  19  35  53  73  99 134 174 215 256 296
#
# _framework density 18.078472000000001
#
# number of rings (size 3 to 8) (size 9 to 14) (size 15 to 20)
#    0.000    2.333    0.000    2.500    0.000    4.667 
#    0.000    0.833    0.000    0.000    0.000    0.000 
#    0.000    0.000    0.000    0.000    0.000    0.000 
#
# Total GULP energy -595303.240642 kJ/mol
# GULP energy per Si atom -12402.150847 kJ/mol
# Density = 1.803732 g / cm^3
# Si number density = 18.078472 Si / 1000 Ang^3
#
#
#
# Elastic Constant Matrix: (Units=GPa)
#
#
# Indices 1 2 3 4 5 6 
#
# 1 118.9375 78.3752 54.3435 0.0000 0.0000 0.0000
# 2 78.3752 117.1601 52.7229 0.0000 0.0000 0.0000
# 3 54.3435 52.7229 81.9952 0.0000 0.0000 0.0000
# 4 0.0000 0.0000 0.0000 29.9000 0.0000 0.0000
# 5 0.0000 0.0000 0.0000 0.0000 32.0945 0.0000
# 6 0.0000 0.0000 0.0000 0.0000 0.0000 23.2291
#
#
#
# Elastic Compliance Matrix: (Units=1/GPa)
#
#
# Indices 1 2 3 4 5 6 
#
# 1 0.016594 -0.008656 -0.005432 0.000000 0.000000 0.000000
# 2 -0.008656 0.016526 -0.004889 0.000000 0.000000 0.000000
# 3 -0.005432 -0.004889 0.018940 0.000000 0.000000 0.000000
# 4 0.000000 0.000000 0.000000 0.033445 0.000000 0.000000
# 5 0.000000 0.000000 0.000000 0.000000 0.031158 0.000000
# 6 0.000000 0.000000 0.000000 0.000000 0.000000 0.043049
#
#
# Mechanical properties :
#
#
# Convention : Reuss Voigt Hill
#
# Bulk Modulus (GPa) = 70.89702 76.55290 73.72496
# Shear Modulus (GPa) = 24.70746 25.88812 25.29779
#
# Velocity S-wave (km/s) = 3.70087 3.78826 3.74482
# Velocity P-wave (km/s) = 7.58705 7.84674 7.71799
#
# Compressibility (1/GPa) = 0.01410497
#
# Stress axis : x y z
#
# Youngs Moduli (GPa) = 60.26395 60.51014 52.79920
#
# Poissons Ratio (x) = 0.52378 0.28680
# Poissons Ratio (y) = 0.52165 0.25815
# Poissons Ratio (z) = 0.32734 0.29585
#
# Static dielectric constant tensor:
#      x y z
#    x 3.281040 0.000000 0.000000 
#    y 0.000000 3.464950 0.000000 
#    z 0.000000 0.000000 3.398080 
# 
# 
# High freq. dielectric constant tensor:
#      x y z
#    x 1.689700 0.000000 0.000000 
#    y 0.000000 1.697280 0.000000 
#    z 0.000000 0.000000 1.709360 
# 
# From -- ./inp_files/4678.got.cif
#   From: 2010.03.12/outbox.cif.g09.slc.cpg/sg57_3_cif.got.tgz:4678.got - 2010.04.16 15:48:40.
