data_PCOD8230394
_publ_section_title
;
Structure prediction by ZEFSAII (Michael W. Deem and Ramdas Pophale) SiO2 
 PCOD8230394
Probable space group: P B C M
;
_chemical_formula_sum "Si O2"
_cell_formula_units_Z 64
_cell_length_a 18.381781
_cell_length_b 10.782885
_cell_length_c 13.939855
_cell_angle_alpha 90.000000
_cell_angle_beta 90.000000
_cell_angle_gamma 90.000000
_cell_volume 2762.999571
_symmetry_space_group_name_H-M "P B C M"
_symmetry_group_IT_number 57
_symmetry_cell_setting 'orthorhombic'
loop_
_space_group_symop_operation_xyz
x,y,z
-x,-y,1/2+z
x,1/2-y,-z
-x,1/2+y,1/2-z
-x,-y,-z
x,y,1/2-z
-x,1/2+y,z
x,1/2-y,1/2+z
loop_
_atom_site_type_symbol
_atom_site_label
_atom_site_fract_x
_atom_site_fract_y
_atom_site_fract_z
Si Si1 0.797007 0.491109 0.362530
Si Si2 0.941171 0.075934 0.135489
Si Si3 0.079867 0.382135 0.521189
Si Si4 0.353356 0.111707 0.393043
Si Si5 0.576463 0.130724 0.609197
Si Si6 0.358922 0.622891 0.101027
Si Si7 0.405825 0.133125 0.609372
Si Si8 0.790718 0.207828 0.361473
O O1 0.812767 0.499768 0.250000
O O2 0.868526 0.530714 0.417760
O O3 0.732001 0.582628 0.392406
O O4 0.781894 0.350008 0.393840
O O5 0.952035 0.057218 0.250000
O O6 0.869834 0.156771 0.112091
O O7 0.008592 0.146023 0.085966
O O8 0.936661 0.943252 0.082404
O O9 0.117073 0.250000 0.500000
O O10 0.384165 0.126223 0.499005
O O11 0.369180 0.244527 0.341778
O O12 0.394332 0.996070 0.340737
O O13 0.614688 0.252276 0.656756
O O14 0.596836 0.121422 0.497810
O O15 0.491353 0.143745 0.624311
O O16 0.377648 0.495310 0.158016
O O17 0.271855 0.629272 0.083887
O O18 0.774948 0.191005 0.250000
#
# Coordination Sequence:
#
# PCOD8230394 Si02
#       8
#     8   8   8   8   8   8   8   8
#     4  11  25  44  67  96 138 183 230 286 346 410
#     4  10  25  47  73 106 143 181 225 284 339 403
#     4  11  27  45  72 107 141 185 229 273 340 422
#     4  10  19  34  56  88 124 173 216 280 340 415
#     4  10  18  32  55  88 123 167 221 286 343 414
#     4  10  18  31  56  88 117 162 216 281 331 403
#     4  10  20  32  56  87 130 164 220 291 346 420
#     4  10  23  42  66  93 130 175 225 283 344 402
#
# _framework density 23.163232000000001
#
# number of rings (size 3 to 8) (size 9 to 14) (size 15 to 20)
#    0.000    1.750    1.250    4.125    8.750    1.000 
#    0.000    1.875    0.000    8.250    0.000    0.000 
#    0.000    0.000    0.000    0.000    0.000    0.000 
#
# Total GULP energy -793177.611494 kJ/mol
# GULP energy per Si atom -12393.400180 kJ/mol
# Density = 2.311051 g / cm^3
# Si number density = 23.163232 Si / 1000 Ang^3
#
#
#
# Elastic Constant Matrix: (Units=GPa)
#
#
# Indices 1 2 3 4 5 6 
#
# 1 157.6764 63.0560 24.2459 0.0000 0.0000 0.0000
# 2 63.0560 220.6416 19.0366 0.0000 0.0000 0.0000
# 3 24.2459 19.0366 74.1108 0.0000 0.0000 0.0000
# 4 0.0000 0.0000 0.0000 -4.4438 0.0000 0.0000
# 5 0.0000 0.0000 0.0000 0.0000 -119.7085 0.0000
# 6 0.0000 0.0000 0.0000 0.0000 0.0000 41.5692
#
#
#
# Elastic Compliance Matrix: (Units=1/GPa)
#
#
# Indices 1 2 3 4 5 6 
#
# 1 0.007420 -0.001954 -0.001925 0.000000 0.000000 0.000000
# 2 -0.001954 0.005150 -0.000683 0.000000 0.000000 0.000000
# 3 -0.001925 -0.000683 0.014299 0.000000 0.000000 0.000000
# 4 0.000000 0.000000 0.000000 -0.225035 0.000000 0.000000
# 5 0.000000 0.000000 0.000000 0.000000 -0.008354 0.000000
# 6 0.000000 0.000000 0.000000 0.000000 0.000000 0.024056
#
#
# Mechanical properties :
#
#
# Convention : Reuss Voigt Hill
#
# Bulk Modulus (GPa) = 56.36378 73.90065 65.13221
# Shear Modulus (GPa) = -29.86435 6.55609 -11.65413
#
# Velocity S-wave (km/s) = -3.59458 1.68420 -2.24549
# Velocity P-wave (km/s) = 2.67547 5.97960 4.63216
#
# Compressibility (1/GPa) = 0.01774189
#
# Stress axis : x y z
#
# Youngs Moduli (GPa) = 134.77597 194.18550 69.93613
#
# Poissons Ratio (x) = 0.37950 0.13466
# Poissons Ratio (y) = 0.26340 0.04780
# Poissons Ratio (z) = 0.25950 0.13271
#
# Static dielectric constant tensor:
#      x y z
#    x 4.140280 0.000000 0.000000 
#    y 0.000000 -0.738760 0.000000 
#    z 0.000000 0.000000 3.834090 
# 
# 
# High freq. dielectric constant tensor:
#      x y z
#    x 1.916680 0.000000 0.000000 
#    y 0.000000 1.933770 0.000000 
#    z 0.000000 0.000000 1.904000 
# 
# From -- ./inp_files/19102.got.cif
#   From: 2010.03.12/outbox.cif.g09.slc.cpg/sg57_10_cif.got.tgz:19102.got - 2010.04.16 15:48:40.
