data_PCOD8230642
_publ_section_title
;
Structure prediction by ZEFSAII (Michael W. Deem and Ramdas Pophale) SiO2 
 PCOD8230642
Probable space group: P B C M
;
_chemical_formula_sum "Si O2"
_cell_formula_units_Z 48
_cell_length_a 11.429102
_cell_length_b 26.858847
_cell_length_c 8.904724
_cell_angle_alpha 90.000000
_cell_angle_beta 90.000000
_cell_angle_gamma 90.000000
_cell_volume 2733.505406
_symmetry_space_group_name_H-M "P B C M"
_symmetry_group_IT_number 57
_symmetry_cell_setting 'orthorhombic'
loop_
_space_group_symop_operation_xyz
x,y,z
-x,-y,1/2+z
x,1/2-y,-z
-x,1/2+y,1/2-z
-x,-y,-z
x,y,1/2-z
-x,1/2+y,z
x,1/2-y,1/2+z
loop_
_atom_site_type_symbol
_atom_site_label
_atom_site_fract_x
_atom_site_fract_y
_atom_site_fract_z
Si Si1 0.136307 0.051921 0.926031
Si Si2 0.868131 0.050663 0.926158
Si Si3 0.672660 0.124810 0.574977
Si Si4 0.308181 0.120114 0.086273
Si Si5 0.486664 0.949868 0.584214
Si Si6 0.495416 0.803451 0.571158
O O1 0.153413 0.047827 0.750000
O O2 0.001713 0.059670 0.973735
O O3 0.202494 0.102171 0.980058
O O4 0.182045 0.999512 0.995282
O O5 0.853610 0.041469 0.750000
O O6 0.798277 0.101220 0.973404
O O7 0.670354 0.138302 0.750000
O O8 0.581458 0.082497 0.535885
O O9 0.629451 0.173791 0.484460
O O10 0.258386 0.136660 0.250000
O O11 0.385477 0.071488 0.109678
O O12 0.391178 0.164067 0.019046
O O13 0.425577 0.954034 0.750000
O O14 0.500000 0.000000 0.500000
O O15 0.513174 0.750000 0.500000
O O16 0.490002 0.801223 0.750000
#
# Coordination Sequence:
#
# PCOD8230642 Si02
#       6
#     8   8   8   8   8   8
#     4  10  19  30  48  73 100 134 173 205 234 278
#     4   9  19  33  47  69 103 138 168 201 240 281
#     4  10  19  32  50  70  96 129 163 200 244 292
#     4   9  19  33  47  67  97 128 157 196 244 291
#     4  10  19  29  42  65  97 128 160 198 241 290
#     4  10  21  37  56  77  99 123 157 202 253 303
#
# _framework density 17.559871000000001
#
# number of rings (size 3 to 8) (size 9 to 14) (size 15 to 20)
#    0.000    2.333    0.000    4.000    0.000   10.000 
#    0.000    0.000    0.000    1.000    0.000    2.333 
#    0.000    0.000    0.000    0.000    0.000    0.000 
#
# Total GULP energy -594651.764016 kJ/mol
# GULP energy per Si atom -12388.578417 kJ/mol
# Density = 1.751990 g / cm^3
# Si number density = 17.559871 Si / 1000 Ang^3
#
#
#
# Elastic Constant Matrix: (Units=GPa)
#
#
# Indices 1 2 3 4 5 6 
#
# 1 77.1409 47.2015 35.9071 0.0000 0.0000 0.0000
# 2 47.2015 123.4889 43.3494 0.0000 0.0000 0.0000
# 3 35.9071 43.3494 68.2743 0.0000 0.0000 0.0000
# 4 0.0000 0.0000 0.0000 27.7391 0.0000 0.0000
# 5 0.0000 0.0000 0.0000 0.0000 26.3172 0.0000
# 6 0.0000 0.0000 0.0000 0.0000 0.0000 24.6961
#
#
#
# Elastic Compliance Matrix: (Units=1/GPa)
#
#
# Indices 1 2 3 4 5 6 
#
# 1 0.019212 -0.004885 -0.007002 0.000000 0.000000 0.000000
# 2 -0.004885 0.011663 -0.004836 0.000000 0.000000 0.000000
# 3 -0.007002 -0.004836 0.021400 0.000000 0.000000 0.000000
# 4 0.000000 0.000000 0.000000 0.036050 0.000000 0.000000
# 5 0.000000 0.000000 0.000000 0.000000 0.037998 0.000000
# 6 0.000000 0.000000 0.000000 0.000000 0.000000 0.040492
#
#
# Mechanical properties :
#
#
# Convention : Reuss Voigt Hill
#
# Bulk Modulus (GPa) = 53.11247 57.97999 55.54623
# Shear Modulus (GPa) = 24.20871 25.24688 24.72779
#
# Velocity S-wave (km/s) = 3.71703 3.79589 3.75667
# Velocity P-wave (km/s) = 6.98097 7.23200 7.10759
#
# Compressibility (1/GPa) = 0.01882797
#
# Stress axis : x y z
#
# Youngs Moduli (GPa) = 52.05107 85.74286 46.72959
#
# Poissons Ratio (x) = 0.41889 0.32721
# Poissons Ratio (y) = 0.25429 0.22597
# Poissons Ratio (z) = 0.36447 0.41463
#
# Static dielectric constant tensor:
#      x y z
#    x 3.349360 0.000000 0.000000 
#    y 0.000000 3.068850 0.000000 
#    z 0.000000 0.000000 3.291610 
# 
# 
# High freq. dielectric constant tensor:
#      x y z
#    x 1.665810 0.000000 0.000000 
#    y 0.000000 1.656960 0.000000 
#    z 0.000000 0.000000 1.689140 
# 
# From -- ./inp_files/3275.got.cif
#   From: 2010.03.12/outbox.cif.g09.slc.cpg/sg57_2_cif.got.tgz:3275.got - 2010.04.16 15:48:40.
