data_PCOD8230989
_publ_section_title
;
Structure prediction by ZEFSAII (Michael W. Deem and Ramdas Pophale) SiO2 
 PCOD8230989
Probable space group: P B C M
;
_chemical_formula_sum "Si O2"
_cell_formula_units_Z 48
_cell_length_a 11.529196
_cell_length_b 22.992393
_cell_length_c 9.258810
_cell_angle_alpha 90.000000
_cell_angle_beta 90.000000
_cell_angle_gamma 90.000000
_cell_volume 2454.360588
_symmetry_space_group_name_H-M "P B C M"
_symmetry_group_IT_number 57
_symmetry_cell_setting 'orthorhombic'
loop_
_space_group_symop_operation_xyz
x,y,z
-x,-y,1/2+z
x,1/2-y,-z
-x,1/2+y,1/2-z
-x,-y,-z
x,y,1/2-z
-x,1/2+y,z
x,1/2-y,1/2+z
loop_
_atom_site_type_symbol
_atom_site_label
_atom_site_fract_x
_atom_site_fract_y
_atom_site_fract_z
Si Si1 0.713682 0.101442 0.918483
Si Si2 0.130145 0.811231 0.919654
Si Si3 0.306525 0.196565 0.586348
Si Si4 0.547422 0.582425 0.586837
Si Si5 0.885648 0.864604 0.917020
Si Si6 0.745104 0.974623 0.583510
O O1 0.718704 0.119671 0.750000
O O2 0.583095 0.088277 0.970251
O O3 0.784626 0.041166 0.946818
O O4 0.761497 0.154134 0.014184
O O5 0.150255 0.799715 0.750000
O O6 0.020351 0.853223 0.947415
O O7 0.113883 0.750000 0.000000
O O8 0.362632 0.250000 0.500000
O O9 0.280124 0.214640 0.750000
O O10 0.398378 0.145841 0.575286
O O11 0.184566 0.180712 0.513235
O O12 0.548260 0.559116 0.750000
O O13 0.623131 0.537515 0.495042
O O14 0.855208 0.853583 0.750000
O O15 0.848422 0.930495 0.963487
O O16 0.715413 0.966205 0.750000
#
# Coordination Sequence:
#
# PCOD8230989 Si02
#       6
#     8   8   8   8   8   8
#     4  10  21  37  56  80 112 146 179 217 263 317
#     4  11  24  40  57  77 105 142 183 224 266 317
#     4  10  19  31  50  76 104 136 176 222 270 317
#     4   9  19  34  52  78 111 144 179 220 265 316
#     4   9  19  36  56  80 108 137 174 220 270 320
#     4   9  18  34  58  85 111 140 175 219 269 319
#
# _framework density 19.557027999999999
#
# number of rings (size 3 to 8) (size 9 to 14) (size 15 to 20)
#    0.000    2.333    0.000    2.000    0.000    6.000 
#    0.000    1.667    0.000    0.000    0.000    0.000 
#    0.000    0.000    0.000    0.000    0.000    0.000 
#
# Total GULP energy -595136.128465 kJ/mol
# GULP energy per Si atom -12398.669343 kJ/mol
# Density = 1.951252 g / cm^3
# Si number density = 19.557028 Si / 1000 Ang^3
#
#
#
# Elastic Constant Matrix: (Units=GPa)
#
#
# Indices 1 2 3 4 5 6 
#
# 1 79.0283 38.6381 38.3694 0.0000 0.0000 0.0000
# 2 38.6381 82.7547 43.9842 0.0000 0.0000 0.0000
# 3 38.3694 43.9842 86.1264 0.0000 0.0000 0.0000
# 4 0.0000 0.0000 0.0000 27.8953 0.0000 0.0000
# 5 0.0000 0.0000 0.0000 0.0000 28.8426 0.0000
# 6 0.0000 0.0000 0.0000 0.0000 0.0000 10.2558
#
#
#
# Elastic Compliance Matrix: (Units=1/GPa)
#
#
# Indices 1 2 3 4 5 6 
#
# 1 0.017883 -0.005648 -0.005082 0.000000 0.000000 0.000000
# 2 -0.005648 0.018370 -0.006865 0.000000 0.000000 0.000000
# 3 -0.005082 -0.006865 0.017381 0.000000 0.000000 0.000000
# 4 0.000000 0.000000 0.000000 0.035848 0.000000 0.000000
# 5 0.000000 0.000000 0.000000 0.000000 0.034671 0.000000
# 6 0.000000 0.000000 0.000000 0.000000 0.000000 0.097506
#
#
# Mechanical properties :
#
#
# Convention : Reuss Voigt Hill
#
# Bulk Modulus (GPa) = 54.22286 54.43254 54.32770
# Shear Modulus (GPa) = 19.01164 21.85993 20.43578
#
# Velocity S-wave (km/s) = 3.12125 3.34691 3.23605
# Velocity P-wave (km/s) = 6.38556 6.54438 6.46546
#
# Compressibility (1/GPa) = 0.01844240
#
# Stress axis : x y z
#
# Youngs Moduli (GPa) = 55.91998 54.43709 57.53430
#
# Poissons Ratio (x) = 0.30747 0.29240
# Poissons Ratio (y) = 0.31585 0.39498
# Poissons Ratio (z) = 0.28420 0.37371
#
# Static dielectric constant tensor:
#      x y z
#    x 3.399630 0.000000 0.000000 
#    y 0.000000 3.749480 0.000000 
#    z 0.000000 0.000000 3.671510 
# 
# 
# High freq. dielectric constant tensor:
#      x y z
#    x 1.747370 0.000000 0.000000 
#    y 0.000000 1.771840 0.000000 
#    z 0.000000 0.000000 1.761290 
# 
# From -- ./inp_files/3127.got.cif
#   From: 2010.03.12/outbox.cif.g09.slc.cpg/sg57_2_cif.got.tgz:3127.got - 2010.04.16 15:48:40.
