data_PCOD8230186
_publ_section_title
;
Structure prediction by ZEFSAII (Michael W. Deem and Ramdas Pophale) SiO2 
 PCOD8230186
Probable space group: P B C M
;
_chemical_formula_sum "Si O2"
_cell_formula_units_Z 56
_cell_length_a 14.290986
_cell_length_b 21.067237
_cell_length_c 9.022440
_cell_angle_alpha 90.000000
_cell_angle_beta 90.000000
_cell_angle_gamma 90.000000
_cell_volume 2716.400348
_symmetry_space_group_name_H-M "P B C M"
_symmetry_group_IT_number 57
_symmetry_cell_setting 'orthorhombic'
loop_
_space_group_symop_operation_xyz
x,y,z
-x,-y,1/2+z
x,1/2-y,-z
-x,1/2+y,1/2-z
-x,-y,-z
x,y,1/2-z
-x,1/2+y,z
x,1/2-y,1/2+z
loop_
_atom_site_type_symbol
_atom_site_label
_atom_site_fract_x
_atom_site_fract_y
_atom_site_fract_z
Si Si1 0.259965 0.129737 0.425078
Si Si2 0.457395 0.182904 0.426935
Si Si3 0.379859 0.618862 0.575115
Si Si4 0.235478 0.805356 0.587994
Si Si5 0.912954 0.086847 0.087828
Si Si6 0.064871 0.184215 0.426493
Si Si7 0.765604 0.011413 0.575038
O O1 0.258944 0.123845 0.250000
O O2 0.352384 0.165839 0.479067
O O3 0.170417 0.169739 0.478988
O O4 0.256327 0.058220 0.489581
O O5 0.485085 0.250000 0.500000
O O6 0.467146 0.186785 0.250000
O O7 0.521261 0.125102 0.489732
O O8 0.396832 0.621093 0.750000
O O9 0.322283 0.679564 0.519353
O O10 0.321959 0.555877 0.527005
O O11 0.180295 0.750000 0.500000
O O12 0.271465 0.783213 0.750000
O O13 0.168829 0.863561 0.610222
O O14 0.939638 0.058481 0.250000
O O15 0.001544 0.124443 0.018140
O O16 0.868693 0.032197 0.984834
O O17 0.031993 0.250000 0.500000
O O18 0.053780 0.190923 0.250000
O O19 0.776051 0.012785 0.750000
#
# Coordination Sequence:
#
# PCOD8230186 Si02
#       7
#     8   8   8   8   8   8   8
#     4   9  20  38  58  79 107 144 181 223 270 314
#     4  11  22  37  57  80 108 141 179 222 270 320
#     4  10  20  34  53  77 105 137 175 218 264 319
#     4  10  18  29  46  71 104 138 173 213 261 314
#     4   9  19  33  51  78 110 141 173 217 267 313
#     4  10  20  36  57  81 111 144 181 223 268 317
#     4   9  19  37  58  80 108 143 181 217 263 324
#
# _framework density 20.615518000000002
#
# number of rings (size 3 to 8) (size 9 to 14) (size 15 to 20)
#    0.000    2.286    0.000    2.571    0.000    2.857 
#    0.000    2.857    0.000    0.000    0.000    0.000 
#    0.000    0.000    0.000    0.000    0.000    0.000 
#
# Total GULP energy -694030.379123 kJ/mol
# GULP energy per Si atom -12393.399627 kJ/mol
# Density = 2.056860 g / cm^3
# Si number density = 20.615518 Si / 1000 Ang^3
#
#
#
# Elastic Constant Matrix: (Units=GPa)
#
#
# Indices 1 2 3 4 5 6 
#
# 1 107.5706 14.2842 20.2626 0.0000 0.0000 0.0000
# 2 14.2842 81.1761 24.7895 0.0000 0.0000 0.0000
# 3 20.2626 24.7895 59.4587 0.0000 0.0000 0.0000
# 4 0.0000 0.0000 0.0000 20.1445 0.0000 0.0000
# 5 0.0000 0.0000 0.0000 0.0000 27.7489 0.0000
# 6 0.0000 0.0000 0.0000 0.0000 0.0000 15.3556
#
#
#
# Elastic Compliance Matrix: (Units=1/GPa)
#
#
# Indices 1 2 3 4 5 6 
#
# 1 0.009982 -0.000822 -0.003059 0.000000 0.000000 0.000000
# 2 -0.000822 0.014184 -0.005633 0.000000 0.000000 0.000000
# 3 -0.003059 -0.005633 0.020209 0.000000 0.000000 0.000000
# 4 0.000000 0.000000 0.000000 0.049641 0.000000 0.000000
# 5 0.000000 0.000000 0.000000 0.000000 0.036037 0.000000
# 6 0.000000 0.000000 0.000000 0.000000 0.000000 0.065123
#
#
# Mechanical properties :
#
#
# Convention : Reuss Voigt Hill
#
# Bulk Modulus (GPa) = 39.45374 40.76422 40.10898
# Shear Modulus (GPa) = 22.45638 25.24108 23.84873
#
# Velocity S-wave (km/s) = 3.30403 3.50290 3.40492
# Velocity P-wave (km/s) = 5.80817 6.01472 5.91235
#
# Compressibility (1/GPa) = 0.02534614
#
# Stress axis : x y z
#
# Youngs Moduli (GPa) = 100.18459 70.50246 49.48192
#
# Poissons Ratio (x) = 0.05798 0.15135
# Poissons Ratio (y) = 0.08239 0.27875
# Poissons Ratio (z) = 0.30644 0.39716
#
# Static dielectric constant tensor:
#      x y z
#    x 3.937760 0.000000 0.000000 
#    y 0.000000 3.828730 0.000000 
#    z 0.000000 0.000000 3.602110 
# 
# 
# High freq. dielectric constant tensor:
#      x y z
#    x 1.810770 0.000000 0.000000 
#    y 0.000000 1.801370 0.000000 
#    z 0.000000 0.000000 1.788710 
# 
# From -- ./inp_files/5148.got.cif
#   From: 2010.03.12/outbox.cif.g09.slc.cpg/sg57_3_cif.got.tgz:5148.got - 2010.04.16 15:48:40.
