data_PCOD8230091
_publ_section_title
;
Structure prediction by ZEFSAII (Michael W. Deem and Ramdas Pophale) SiO2 
 PCOD8230091
Probable space group: P B C M
;
_chemical_formula_sum "Si O2"
_cell_formula_units_Z 64
_cell_length_a 16.916655
_cell_length_b 24.217156
_cell_length_c 8.796958
_cell_angle_alpha 90.000000
_cell_angle_beta 90.000000
_cell_angle_gamma 90.000000
_cell_volume 3603.878577
_symmetry_space_group_name_H-M "P B C M"
_symmetry_group_IT_number 57
_symmetry_cell_setting 'orthorhombic'
loop_
_space_group_symop_operation_xyz
x,y,z
-x,-y,1/2+z
x,1/2-y,-z
-x,1/2+y,1/2-z
-x,-y,-z
x,y,1/2-z
-x,1/2+y,z
x,1/2-y,1/2+z
loop_
_atom_site_type_symbol
_atom_site_label
_atom_site_fract_x
_atom_site_fract_y
_atom_site_fract_z
Si Si1 0.181017 0.028109 0.074430
Si Si2 0.126765 0.192953 0.929083
Si Si3 0.137058 0.588569 0.931607
Si Si4 0.241458 0.690365 0.571771
Si Si5 0.269002 0.367337 0.570087
Si Si6 0.583580 0.190269 0.571667
Si Si7 0.968871 0.598586 0.427058
Si Si8 0.429036 0.310405 0.571055
O O1 0.200370 0.026738 0.250000
O O2 0.245002 0.071571 0.004542
O O3 0.091580 0.048390 0.043609
O O4 0.188356 0.965088 0.014307
O O5 0.132571 0.197673 0.750000
O O6 0.098836 0.250000 0.000000
O O7 0.212373 0.177510 0.994288
O O8 0.059134 0.150341 0.975219
O O9 0.125376 0.588541 0.750000
O O10 0.180334 0.644355 0.987951
O O11 0.054259 0.581750 0.014389
O O12 0.223518 0.750000 0.500000
O O13 0.232997 0.699109 0.750000
O O14 0.329389 0.666493 0.533154
O O15 0.254191 0.364340 0.750000
O O16 0.358465 0.352137 0.526793
O O17 0.580825 0.250000 0.500000
O O18 0.568584 0.192678 0.750000
O O19 0.508896 0.159599 0.493432
O O20 0.971495 0.614532 0.250000
O O21 0.413915 0.250000 0.500000
O O22 0.436130 0.302786 0.750000
#
# Coordination Sequence:
#
# PCOD8230091 Si02
#       8
#     8   8   8   8   8   8   8   8
#     4   8  16  32  52  70  93 124 159 200 239 280
#     4  11  21  33  49  69  96 131 164 195 236 284
#     4  10  19  33  53  74  93 120 161 202 242 288
#     4   9  19  33  50  72  97 124 154 192 239 288
#     4   9  18  32  48  70  98 127 160 197 237 280
#     4   9  16  28  45  66  93 123 155 191 232 277
#     4  10  20  34  50  71  97 125 159 200 244 285
#     4  10  18  27  44  70  98 126 157 191 230 279
#
# _framework density 17.758645000000001
#
# number of rings (size 3 to 8) (size 9 to 14) (size 15 to 20)
#    0.000    2.500    0.000    4.500    0.000    3.500 
#    0.000    3.750    0.000    0.750    0.000    0.000 
#    0.000    0.000    0.000    0.000    0.000    2.625 
#
# Total GULP energy -793062.731868 kJ/mol
# GULP energy per Si atom -12391.605185 kJ/mol
# Density = 1.771823 g / cm^3
# Si number density = 17.758645 Si / 1000 Ang^3
#
#
#
# Elastic Constant Matrix: (Units=GPa)
#
#
# Indices 1 2 3 4 5 6 
#
# 1 81.1908 29.9636 27.7043 0.0000 0.0000 0.0000
# 2 29.9636 89.3629 25.9433 0.0000 0.0000 0.0000
# 3 27.7043 25.9433 53.9385 0.0000 0.0000 0.0000
# 4 0.0000 0.0000 0.0000 16.9104 0.0000 0.0000
# 5 0.0000 0.0000 0.0000 0.0000 26.4311 0.0000
# 6 0.0000 0.0000 0.0000 0.0000 0.0000 16.8175
#
#
#
# Elastic Compliance Matrix: (Units=1/GPa)
#
#
# Indices 1 2 3 4 5 6 
#
# 1 0.015783 -0.003415 -0.006464 0.000000 0.000000 0.000000
# 2 -0.003415 0.013746 -0.004857 0.000000 0.000000 0.000000
# 3 -0.006464 -0.004857 0.024196 0.000000 0.000000 0.000000
# 4 0.000000 0.000000 0.000000 0.059135 0.000000 0.000000
# 5 0.000000 0.000000 0.000000 0.000000 0.037834 0.000000
# 6 0.000000 0.000000 0.000000 0.000000 0.000000 0.059462
#
#
# Mechanical properties :
#
#
# Convention : Reuss Voigt Hill
#
# Bulk Modulus (GPa) = 41.23441 43.52384 42.37912
# Shear Modulus (GPa) = 20.18475 21.42386 20.80431
#
# Velocity S-wave (km/s) = 3.37503 3.47708 3.42644
# Velocity P-wave (km/s) = 6.20141 6.37823 6.29044
#
# Compressibility (1/GPa) = 0.02425159
#
# Stress axis : x y z
#
# Youngs Moduli (GPa) = 63.36040 72.75047 41.32968
#
# Poissons Ratio (x) = 0.24848 0.26714
# Poissons Ratio (y) = 0.21641 0.20074
# Poissons Ratio (z) = 0.40954 0.35335
#
# Static dielectric constant tensor:
#      x y z
#    x 3.881400 0.000000 0.000000 
#    y 0.000000 3.344230 0.000000 
#    z 0.000000 0.000000 3.225900 
# 
# 
# High freq. dielectric constant tensor:
#      x y z
#    x 1.686980 0.000000 0.000000 
#    y 0.000000 1.668770 0.000000 
#    z 0.000000 0.000000 1.680900 
# 
# From -- ./inp_files/7449.got.cif
#   From: 2010.03.12/outbox.cif.g09.slc.cpg/sg57_4_cif.got.tgz:7449.got - 2010.04.16 15:48:40.
