data_PCOD8230055
_publ_section_title
;
Structure prediction by ZEFSAII (Michael W. Deem and Ramdas Pophale) SiO2 
 PCOD8230055
Probable space group: P B C M
;
_chemical_formula_sum "Si O2"
_cell_formula_units_Z 56
_cell_length_a 14.318649
_cell_length_b 26.180321
_cell_length_c 9.452804
_cell_angle_alpha 90.000000
_cell_angle_beta 90.000000
_cell_angle_gamma 90.000000
_cell_volume 3543.542643
_symmetry_space_group_name_H-M "P B C M"
_symmetry_group_IT_number 57
_symmetry_cell_setting 'orthorhombic'
loop_
_space_group_symop_operation_xyz
x,y,z
-x,-y,1/2+z
x,1/2-y,-z
-x,1/2+y,1/2-z
-x,-y,-z
x,y,1/2-z
-x,1/2+y,z
x,1/2-y,1/2+z
loop_
_atom_site_type_symbol
_atom_site_label
_atom_site_fract_x
_atom_site_fract_y
_atom_site_fract_z
Si Si1 0.485755 0.107698 0.413759
Si Si2 0.702022 0.563466 0.409152
Si Si3 0.625915 0.452513 0.087776
Si Si4 0.945393 0.432831 0.589433
Si Si5 0.616829 0.300896 0.588241
Si Si6 0.118251 0.453755 0.414520
Si Si7 0.241361 0.885320 0.588507
O O1 0.508479 0.095641 0.250000
O O2 0.373638 0.108580 0.439296
O O3 0.531760 0.063036 0.506927
O O4 0.531328 0.161973 0.456305
O O5 0.743046 0.567555 0.250000
O O6 0.641145 0.512564 0.425914
O O7 0.786192 0.567033 0.518969
O O8 0.617979 0.435016 0.250000
O O9 0.714931 0.425501 0.018517
O O10 0.983333 0.433714 0.750000
O O11 0.892595 0.486081 0.555616
O O12 0.870778 0.387026 0.566274
O O13 0.031647 0.423749 0.484919
O O14 0.611376 0.250000 0.500000
O O15 0.607571 0.284583 0.750000
O O16 0.716134 0.329168 0.559624
O O17 0.119537 0.440435 0.250000
O O18 0.265394 0.901905 0.750000
#
# Coordination Sequence:
#
# PCOD8230055 Si02
#       7
#     8   8   8   8   8   8   8
#     4   9  19  33  46  61  87 123 154 182 223 277
#     4  10  19  30  43  62  90 124 158 187 218 262
#     4  10  18  26  41  66  91 117 151 191 222 253
#     4   9  17  30  45  62  88 123 157 185 217 261
#     4   9  18  32  50  69  90 114 146 186 230 277
#     4  10  19  28  43  65  91 123 156 189 221 254
#     4   9  17  31  48  65  89 124 155 181 222 277
#
# _framework density 15.803393
#
# number of rings (size 3 to 8) (size 9 to 14) (size 15 to 20)
#    0.000    2.571    1.429    2.143    0.000    4.571 
#    0.000    0.000    0.000    0.000    0.000    1.000 
#    0.000    0.000    0.000    0.000    0.000    0.000 
#
# Total GULP energy -694214.186268 kJ/mol
# GULP energy per Si atom -12396.681898 kJ/mol
# Density = 1.576742 g / cm^3
# Si number density = 15.803393 Si / 1000 Ang^3
#
#
#
# Elastic Constant Matrix: (Units=GPa)
#
#
# Indices 1 2 3 4 5 6 
#
# 1 125.9732 43.0123 66.0760 0.0000 0.0000 0.0000
# 2 43.0123 62.2849 35.6256 0.0000 0.0000 0.0000
# 3 66.0760 35.6256 91.9067 0.0000 0.0000 0.0000
# 4 0.0000 0.0000 0.0000 20.9859 0.0000 0.0000
# 5 0.0000 0.0000 0.0000 0.0000 29.4550 0.0000
# 6 0.0000 0.0000 0.0000 0.0000 0.0000 14.2139
#
#
#
# Elastic Compliance Matrix: (Units=1/GPa)
#
#
# Indices 1 2 3 4 5 6 
#
# 1 0.013846 -0.004970 -0.008028 0.000000 0.000000 0.000000
# 2 -0.004970 0.022413 -0.005115 0.000000 0.000000 0.000000
# 3 -0.008028 -0.005115 0.018635 0.000000 0.000000 0.000000
# 4 0.000000 0.000000 0.000000 0.047651 0.000000 0.000000
# 5 0.000000 0.000000 0.000000 0.000000 0.033950 0.000000
# 6 0.000000 0.000000 0.000000 0.000000 0.000000 0.070354
#
#
# Mechanical properties :
#
#
# Convention : Reuss Voigt Hill
#
# Bulk Modulus (GPa) = 53.56637 63.28803 58.42720
# Shear Modulus (GPa) = 20.05641 21.96102 21.00872
#
# Velocity S-wave (km/s) = 3.56634 3.73183 3.65002
# Velocity P-wave (km/s) = 7.13634 7.66178 7.40372
#
# Compressibility (1/GPa) = 0.01866843
#
# Stress axis : x y z
#
# Youngs Moduli (GPa) = 72.22290 44.61734 53.66233
#
# Poissons Ratio (x) = 0.22174 0.43081
# Poissons Ratio (y) = 0.35893 0.27447
# Poissons Ratio (z) = 0.57981 0.22821
#
# Static dielectric constant tensor:
#      x y z
#    x 3.096710 0.000000 0.000000 
#    y 0.000000 2.637650 0.000000 
#    z 0.000000 0.000000 3.077560 
# 
# 
# High freq. dielectric constant tensor:
#      x y z
#    x 1.607910 0.000000 0.000000 
#    y 0.000000 1.555760 0.000000 
#    z 0.000000 0.000000 1.616120 
# 
# From -- ./inp_files/5890.got.cif
#   From: 2010.03.12/outbox.cif.g09.slc.cpg/sg57_3_cif.got.tgz:5890.got - 2010.04.16 15:48:40.
