data_PCOD8230277
_publ_section_title
;
Structure prediction by ZEFSAII (Michael W. Deem and Ramdas Pophale) SiO2 
 PCOD8230277
Probable space group: P B C M
;
_chemical_formula_sum "Si O2"
_cell_formula_units_Z 64
_cell_length_a 20.436261
_cell_length_b 20.294670
_cell_length_c 8.896604
_cell_angle_alpha 90.000000
_cell_angle_beta 90.000000
_cell_angle_gamma 90.000000
_cell_volume 3689.841359
_symmetry_space_group_name_H-M "P B C M"
_symmetry_group_IT_number 57
_symmetry_cell_setting 'orthorhombic'
loop_
_space_group_symop_operation_xyz
x,y,z
-x,-y,1/2+z
x,1/2-y,-z
-x,1/2+y,1/2-z
-x,-y,-z
x,y,1/2-z
-x,1/2+y,z
x,1/2-y,1/2+z
loop_
_atom_site_type_symbol
_atom_site_label
_atom_site_fract_x
_atom_site_fract_y
_atom_site_fract_z
Si Si1 0.949963 0.449473 0.573016
Si Si2 0.841169 0.652124 0.079350
Si Si3 0.284412 0.334760 0.084684
Si Si4 0.823178 0.496571 0.080462
Si Si5 0.555202 0.954540 0.430062
Si Si6 0.302414 0.012393 0.914577
Si Si7 0.582937 0.816318 0.571588
Si Si8 0.984937 0.684134 0.072739
O O1 0.955542 0.458823 0.750000
O O2 0.875749 0.459711 0.521965
O O3 0.969836 0.376272 0.522035
O O4 0.000000 0.500000 0.500000
O O5 0.832508 0.675804 0.250000
O O6 0.836195 0.573704 0.070551
O O7 0.911166 0.672921 0.012425
O O8 0.785486 0.688005 0.980573
O O9 0.297235 0.303208 0.250000
O O10 0.282216 0.412403 0.102327
O O11 0.340036 0.313512 0.967347
O O12 0.830003 0.470869 0.250000
O O13 0.749832 0.477639 0.024389
O O14 0.549583 0.949232 0.250000
O O15 0.623463 0.989602 0.477869
O O16 0.549966 0.880980 0.498093
O O17 0.500000 0.000000 0.500000
O O18 0.299132 0.978442 0.750000
O O19 0.550466 0.750000 0.500000
O O20 0.572300 0.817900 0.750000
O O21 0.984372 0.691243 0.250000
O O22 0.014480 0.750000 0.000000
#
# Coordination Sequence:
#
# PCOD8230277 Si02
#       8
#     8   8   8   8   8   8   8   8
#     4  11  21  35  53  74  98 126 166 213 259 308
#     4   9  17  31  46  65  96 130 166 206 247 295
#     4   9  17  29  45  68  96 130 171 209 248 295
#     4  10  18  30  50  75 100 128 166 212 256 300
#     4  10  20  35  55  81 111 143 179 215 258 311
#     4   8  16  30  47  72 104 135 168 206 248 298
#     4  11  21  34  51  72 101 139 179 220 260 301
#     4  10  22  37  49  67  95 127 164 208 257 311
#
# _framework density 17.344919999999998
#
# number of rings (size 3 to 8) (size 9 to 14) (size 15 to 20)
#    0.000    2.250    1.250    3.375    0.000    6.000 
#    0.000    1.250    0.000    0.000    0.000    0.875 
#    0.000    4.000    0.000    0.000    0.000    0.000 
#
# Total GULP energy -793389.698493 kJ/mol
# GULP energy per Si atom -12396.714039 kJ/mol
# Density = 1.730544 g / cm^3
# Si number density = 17.344920 Si / 1000 Ang^3
#
#
#
# Elastic Constant Matrix: (Units=GPa)
#
#
# Indices 1 2 3 4 5 6 
#
# 1 102.8706 51.4217 44.5911 0.0000 0.0000 0.0000
# 2 51.4217 85.3099 46.4661 0.0000 0.0000 0.0000
# 3 44.5911 46.4661 97.5261 0.0000 0.0000 0.0000
# 4 0.0000 0.0000 0.0000 25.4108 0.0000 0.0000
# 5 0.0000 0.0000 0.0000 0.0000 26.3523 0.0000
# 6 0.0000 0.0000 0.0000 0.0000 0.0000 8.9236
#
#
#
# Elastic Compliance Matrix: (Units=1/GPa)
#
#
# Indices 1 2 3 4 5 6 
#
# 1 0.014691 -0.007018 -0.003374 0.000000 0.000000 0.000000
# 2 -0.007018 0.019182 -0.005931 0.000000 0.000000 0.000000
# 3 -0.003374 -0.005931 0.014622 0.000000 0.000000 0.000000
# 4 0.000000 0.000000 0.000000 0.039353 0.000000 0.000000
# 5 0.000000 0.000000 0.000000 0.000000 0.037947 0.000000
# 6 0.000000 0.000000 0.000000 0.000000 0.000000 0.112062
#
#
# Mechanical properties :
#
#
# Convention : Reuss Voigt Hill
#
# Bulk Modulus (GPa) = 63.08647 63.40717 63.24682
# Shear Modulus (GPa) = 18.12997 21.68586 19.90792
#
# Velocity S-wave (km/s) = 3.23656 3.53975 3.39155
# Velocity P-wave (km/s) = 7.10055 7.30359 7.20279
#
# Compressibility (1/GPa) = 0.01585126
#
# Stress axis : x y z
#
# Youngs Moduli (GPa) = 68.06757 52.13115 68.39123
#
# Poissons Ratio (x) = 0.36585 0.23072
# Poissons Ratio (y) = 0.47769 0.40561
# Poissons Ratio (z) = 0.22963 0.30917
#
# Static dielectric constant tensor:
#      x y z
#    x 3.271620 0.000000 0.000000 
#    y 0.000000 3.007990 0.000000 
#    z 0.000000 0.000000 3.525610 
# 
# 
# High freq. dielectric constant tensor:
#      x y z
#    x 1.652230 0.000000 0.000000 
#    y 0.000000 1.642340 0.000000 
#    z 0.000000 0.000000 1.681330 
# 
# From -- ./inp_files/8712.got.cif
#   From: 2010.03.12/outbox.cif.g09.slc.cpg/sg57_5_cif.got.tgz:8712.got - 2010.04.16 15:48:40.
