data_PCOD8230981
_publ_section_title
;
Structure prediction by ZEFSAII (Michael W. Deem and Ramdas Pophale) SiO2 
 PCOD8230981
Probable space group: P B C M
;
_chemical_formula_sum "Si O2"
_cell_formula_units_Z 56
_cell_length_a 22.489747
_cell_length_b 14.404163
_cell_length_c 9.012324
_cell_angle_alpha 90.000000
_cell_angle_beta 90.000000
_cell_angle_gamma 90.000000
_cell_volume 2919.506145
_symmetry_space_group_name_H-M "P B C M"
_symmetry_group_IT_number 57
_symmetry_cell_setting 'orthorhombic'
loop_
_space_group_symop_operation_xyz
x,y,z
-x,-y,1/2+z
x,1/2-y,-z
-x,1/2+y,1/2-z
-x,-y,-z
x,y,1/2-z
-x,1/2+y,z
x,1/2-y,1/2+z
loop_
_atom_site_type_symbol
_atom_site_label
_atom_site_fract_x
_atom_site_fract_y
_atom_site_fract_z
Si Si1 0.361165 0.459332 0.077842
Si Si2 0.512345 0.903640 0.423948
Si Si3 0.248188 0.350034 0.426194
Si Si4 0.100174 0.840032 0.579230
Si Si5 0.597479 0.339712 0.926949
Si Si6 0.035306 0.343154 0.924797
Si Si7 0.130724 0.459358 0.422579
O O1 0.349583 0.474733 0.250000
O O2 0.416743 0.388739 0.052452
O O3 0.303274 0.410137 0.008288
O O4 0.372561 0.563994 0.014541
O O5 0.496041 0.904804 0.250000
O O6 0.470541 0.831721 0.511261
O O7 0.500000 0.000000 0.500000
O O8 0.247567 0.250000 0.500000
O O9 0.252938 0.337767 0.250000
O O10 0.189166 0.404920 0.473617
O O11 0.128101 0.750000 0.500000
O O12 0.099770 0.814518 0.750000
O O13 0.032699 0.859362 0.525425
O O14 0.139917 0.930834 0.545904
O O15 0.597293 0.332750 0.750000
O O16 0.630789 0.250000 0.000000
O O17 0.042713 0.334652 0.750000
O O18 0.060703 0.250000 0.000000
O O19 0.074094 0.428298 0.983102
O O20 0.116549 0.442622 0.250000
#
# Coordination Sequence:
#
# PCOD8230981 Si02
#       7
#     8   8   8   8   8   8   8
#     4   8  17  34  53  72  99 135 170 204 248 298
#     4   9  16  29  49  73 101 132 167 206 249 298
#     4  10  21  38  56  74  98 130 167 208 250 297
#     4   9  19  34  51  75 103 134 167 204 251 302
#     4  10  19  32  51  76 105 136 169 207 253 306
#     4  10  19  31  50  75 105 135 167 206 251 301
#     4  10  20  34  53  75 102 134 170 209 252 298
#
# _framework density 19.181325999999999
#
# number of rings (size 3 to 8) (size 9 to 14) (size 15 to 20)
#    0.000    2.571    0.000    3.000    0.000    3.429 
#    0.000    6.429    0.000    0.000    0.000    0.000 
#    0.000    0.000    0.000    0.000    0.000    0.000 
#
# Total GULP energy -694010.800383 kJ/mol
# GULP energy per Si atom -12393.050007 kJ/mol
# Density = 1.913767 g / cm^3
# Si number density = 19.181326 Si / 1000 Ang^3
#
#
#
# Elastic Constant Matrix: (Units=GPa)
#
#
# Indices 1 2 3 4 5 6 
#
# 1 79.3982 59.0755 26.0537 0.0000 0.0000 0.0000
# 2 59.0755 144.0112 38.7981 0.0000 0.0000 0.0000
# 3 26.0537 38.7981 56.4156 0.0000 0.0000 0.0000
# 4 0.0000 0.0000 0.0000 34.6261 0.0000 0.0000
# 5 0.0000 0.0000 0.0000 0.0000 18.1400 0.0000
# 6 0.0000 0.0000 0.0000 0.0000 0.0000 28.8159
#
#
#
# Elastic Compliance Matrix: (Units=1/GPa)
#
#
# Indices 1 2 3 4 5 6 
#
# 1 0.018893 -0.006628 -0.004167 0.000000 0.000000 0.000000
# 2 -0.006628 0.010848 -0.004400 0.000000 0.000000 0.000000
# 3 -0.004167 -0.004400 0.022676 0.000000 0.000000 0.000000
# 4 0.000000 0.000000 0.000000 0.028880 0.000000 0.000000
# 5 0.000000 0.000000 0.000000 0.000000 0.055127 0.000000
# 6 0.000000 0.000000 0.000000 0.000000 0.000000 0.034703
#
#
# Mechanical properties :
#
#
# Convention : Reuss Voigt Hill
#
# Bulk Modulus (GPa) = 45.39665 58.63106 52.01385
# Shear Modulus (GPa) = 23.93962 26.70960 25.32461
#
# Velocity S-wave (km/s) = 3.53663 3.73564 3.63750
# Velocity P-wave (km/s) = 6.35575 7.01711 6.69460
#
# Compressibility (1/GPa) = 0.02202806
#
# Stress axis : x y z
#
# Youngs Moduli (GPa) = 52.92844 92.18332 44.09985
#
# Poissons Ratio (x) = 0.61096 0.18378
# Poissons Ratio (y) = 0.35079 0.19402
# Poissons Ratio (z) = 0.22057 0.40557
#
# Static dielectric constant tensor:
#      x y z
#    x 3.671570 0.000000 0.000000 
#    y 0.000000 3.705870 0.000000 
#    z 0.000000 0.000000 3.465060 
# 
# 
# High freq. dielectric constant tensor:
#      x y z
#    x 1.724490 0.000000 0.000000 
#    y 0.000000 1.755110 0.000000 
#    z 0.000000 0.000000 1.731740 
# 
# From -- ./inp_files/8003.got.cif
#   From: 2010.03.12/outbox.cif.g09.slc.cpg/sg57_5_cif.got.tgz:8003.got - 2010.04.16 15:48:40.
