data_PCOD8230488
_publ_section_title
;
Structure prediction by ZEFSAII (Michael W. Deem and Ramdas Pophale) SiO2 
 PCOD8230488
Probable space group: P B C M
;
_chemical_formula_sum "Si O2"
_cell_formula_units_Z 48
_cell_length_a 9.201375
_cell_length_b 16.113759
_cell_length_c 16.274525
_cell_angle_alpha 90.000000
_cell_angle_beta 90.000000
_cell_angle_gamma 90.000000
_cell_volume 2413.003303
_symmetry_space_group_name_H-M "P B C M"
_symmetry_group_IT_number 57
_symmetry_cell_setting 'orthorhombic'
loop_
_space_group_symop_operation_xyz
x,y,z
-x,-y,1/2+z
x,1/2-y,-z
-x,1/2+y,1/2-z
-x,-y,-z
x,y,1/2-z
-x,1/2+y,z
x,1/2-y,1/2+z
loop_
_atom_site_type_symbol
_atom_site_label
_atom_site_fract_x
_atom_site_fract_y
_atom_site_fract_z
Si Si1 0.163448 0.606341 0.914528
Si Si2 0.091947 0.857707 0.902317
Si Si3 0.186198 0.433027 0.655073
Si Si4 0.345883 0.227768 0.406265
Si Si5 0.336997 0.753501 0.656831
Si Si6 0.928817 0.704643 0.844420
O O1 0.232873 0.519706 0.885933
O O2 0.282281 0.678577 0.900865
O O3 0.015265 0.619441 0.860778
O O4 0.120087 0.602804 0.009277
O O5 0.246960 0.838693 0.859419
O O6 0.988750 0.921150 0.852408
O O7 0.006306 0.770118 0.905676
O O8 0.233112 0.430829 0.750000
O O9 0.270555 0.361550 0.605202
O O10 0.376283 0.250000 0.500000
O O11 0.495564 0.227693 0.357724
O O12 0.241080 0.299300 0.367935
O O13 0.311771 0.724970 0.750000
O O14 0.945726 0.733277 0.750000
#
# Coordination Sequence:
#
# PCOD8230488 Si02
#       6
#     8   8   8   8   8   8
#     4  11  21  36  59  87 116 147 186 238 289 332
#     4  10  19  34  56  82 111 147 189 229 272 331
#     4  11  22  39  59  85 117 152 187 233 287 337
#     4  11  22  38  58  81 111 150 193 235 280 339
#     4  11  21  38  60  84 113 153 194 233 278 339
#     4  10  18  33  56  83 111 149 192 234 277 334
#
# _framework density 19.892222
#
# number of rings (size 3 to 8) (size 9 to 14) (size 15 to 20)
#    0.000    1.333    0.000   12.000    0.000    0.000 
#    0.000    5.000    0.000    0.000    0.000    0.000 
#    0.000    0.000    0.000    0.000    0.000    0.000 
#
# Total GULP energy -595085.524195 kJ/mol
# GULP energy per Si atom -12397.615087 kJ/mol
# Density = 1.984695 g / cm^3
# Si number density = 19.892222 Si / 1000 Ang^3
#
#
#
# Elastic Constant Matrix: (Units=GPa)
#
#
# Indices 1 2 3 4 5 6 
#
# 1 124.5370 17.2377 8.3604 0.0000 0.0000 0.0000
# 2 17.2377 75.2599 16.0896 0.0000 0.0000 0.0000
# 3 8.3604 16.0896 104.8064 0.0000 0.0000 0.0000
# 4 0.0000 0.0000 0.0000 16.5941 0.0000 0.0000
# 5 0.0000 0.0000 0.0000 0.0000 31.6400 0.0000
# 6 0.0000 0.0000 0.0000 0.0000 0.0000 18.1173
#
#
#
# Elastic Compliance Matrix: (Units=1/GPa)
#
#
# Indices 1 2 3 4 5 6 
#
# 1 0.008308 -0.001821 -0.000383 0.000000 0.000000 0.000000
# 2 -0.001821 0.014137 -0.002025 0.000000 0.000000 0.000000
# 3 -0.000383 -0.002025 0.009883 0.000000 0.000000 0.000000
# 4 0.000000 0.000000 0.000000 0.060262 0.000000 0.000000
# 5 0.000000 0.000000 0.000000 0.000000 0.031606 0.000000
# 6 0.000000 0.000000 0.000000 0.000000 0.000000 0.055196
#
#
# Mechanical properties :
#
#
# Convention : Reuss Voigt Hill
#
# Bulk Modulus (GPa) = 41.89454 43.10875 42.50165
# Shear Modulus (GPa) = 25.53550 30.79800 28.16675
#
# Velocity S-wave (km/s) = 3.58675 3.93904 3.76702
# Velocity P-wave (km/s) = 6.18543 6.51201 6.35082
#
# Compressibility (1/GPa) = 0.02386946
#
# Stress axis : x y z
#
# Youngs Moduli (GPa) = 120.37315 70.73499 101.18536
#
# Poissons Ratio (x) = 0.12880 0.03877
# Poissons Ratio (y) = 0.21918 0.20491
# Poissons Ratio (z) = 0.04612 0.14324
#
# Static dielectric constant tensor:
#      x y z
#    x 3.751620 0.000000 0.000000 
#    y 0.000000 3.495690 0.000000 
#    z 0.000000 0.000000 3.585150 
# 
# 
# High freq. dielectric constant tensor:
#      x y z
#    x 1.772900 0.000000 0.000000 
#    y 0.000000 1.748450 0.000000 
#    z 0.000000 0.000000 1.788130 
# 
# From -- ./inp_files/16356.got.cif
#   From: 2010.03.12/outbox.cif.g09.slc.cpg/sg57_9_cif.got.tgz:16356.got - 2010.04.16 15:48:40.
