data_PCOD8230722
_publ_section_title
;
Structure prediction by ZEFSAII (Michael W. Deem and Ramdas Pophale) SiO2 
 PCOD8230722
Probable space group: P B C M
;
_chemical_formula_sum "Si O2"
_cell_formula_units_Z 48
_cell_length_a 11.396428
_cell_length_b 26.563194
_cell_length_c 8.769535
_cell_angle_alpha 90.000000
_cell_angle_beta 90.000000
_cell_angle_gamma 90.000000
_cell_volume 2654.762112
_symmetry_space_group_name_H-M "P B C M"
_symmetry_group_IT_number 57
_symmetry_cell_setting 'orthorhombic'
loop_
_space_group_symop_operation_xyz
x,y,z
-x,-y,1/2+z
x,1/2-y,-z
-x,1/2+y,1/2-z
-x,-y,-z
x,y,1/2-z
-x,1/2+y,z
x,1/2-y,1/2+z
loop_
_atom_site_type_symbol
_atom_site_label
_atom_site_fract_x
_atom_site_fract_y
_atom_site_fract_z
Si Si1 0.635642 0.951231 0.072393
Si Si2 0.993359 0.195152 0.068712
Si Si3 0.610379 0.065273 0.072407
Si Si4 0.826290 0.884316 0.915885
Si Si5 0.954150 0.047382 0.416109
Si Si6 0.803267 0.124225 0.927966
O O1 0.605958 0.945869 0.250000
O O2 0.665940 0.009756 0.032990
O O3 0.524599 0.933889 0.975613
O O4 0.741139 0.913005 0.032335
O O5 0.986366 0.197034 0.250000
O O6 0.115012 0.167088 0.016554
O O7 0.999610 0.250000 0.000000
O O8 0.872787 0.169135 0.010961
O O9 0.619876 0.076337 0.250000
O O10 0.671613 0.112920 0.987657
O O11 0.764230 0.875177 0.750000
O O12 0.939014 0.916982 0.882138
O O13 0.894664 0.035100 0.250000
O O14 0.863643 0.071435 0.533149
O O15 0.000000 0.000000 0.500000
O O16 0.802146 0.136047 0.750000
#
# Coordination Sequence:
#
# PCOD8230722 Si02
#       6
#     8   8   8   8   8   8
#     4  10  20  32  50  76 105 140 180 215 251 302
#     4  10  21  38  58  80 104 132 170 215 267 319
#     4  10  20  34  51  73 106 144 179 215 254 301
#     4   9  19  33  49  71 101 134 167 207 255 307
#     4  10  19  30  45  69 101 135 170 208 253 305
#     4  11  21  33  51  75 103 135 172 213 259 310
#
# _framework density 18.080715999999999
#
# number of rings (size 3 to 8) (size 9 to 14) (size 15 to 20)
#    0.000    2.000    0.000    5.500    0.000    8.667 
#    0.000    0.000    0.000    1.000    0.000    4.667 
#    0.000    0.000    0.000    0.000    0.000    0.000 
#
# Total GULP energy -594703.406455 kJ/mol
# GULP energy per Si atom -12389.654301 kJ/mol
# Density = 1.803956 g / cm^3
# Si number density = 18.080716 Si / 1000 Ang^3
#
#
#
# Elastic Constant Matrix: (Units=GPa)
#
#
# Indices 1 2 3 4 5 6 
#
# 1 60.6493 20.1734 29.7712 0.0000 0.0000 0.0000
# 2 20.1734 65.3631 32.6050 0.0000 0.0000 0.0000
# 3 29.7712 32.6050 98.9628 0.0000 0.0000 0.0000
# 4 0.0000 0.0000 0.0000 19.8135 0.0000 0.0000
# 5 0.0000 0.0000 0.0000 0.0000 29.2304 0.0000
# 6 0.0000 0.0000 0.0000 0.0000 0.0000 25.2579
#
#
#
# Elastic Compliance Matrix: (Units=1/GPa)
#
#
# Indices 1 2 3 4 5 6 
#
# 1 0.020110 -0.003816 -0.004792 0.000000 0.000000 0.000000
# 2 -0.003816 0.019032 -0.005122 0.000000 0.000000 0.000000
# 3 -0.004792 -0.005122 0.013234 0.000000 0.000000 0.000000
# 4 0.000000 0.000000 0.000000 0.050471 0.000000 0.000000
# 5 0.000000 0.000000 0.000000 0.000000 0.034211 0.000000
# 6 0.000000 0.000000 0.000000 0.000000 0.000000 0.039592
#
#
# Mechanical properties :
#
#
# Convention : Reuss Voigt Hill
#
# Bulk Modulus (GPa) = 40.13743 43.34161 41.73952
# Shear Modulus (GPa) = 23.53865 24.35539 23.94702
#
# Velocity S-wave (km/s) = 3.61205 3.67418 3.64325
# Velocity P-wave (km/s) = 6.29628 6.48249 6.39006
#
# Compressibility (1/GPa) = 0.02491440
#
# Stress axis : x y z
#
# Youngs Moduli (GPa) = 49.72634 52.54265 75.56163
#
# Poissons Ratio (x) = 0.20051 0.36213
# Poissons Ratio (y) = 0.18976 0.38706
# Poissons Ratio (z) = 0.23831 0.26915
#
# Static dielectric constant tensor:
#      x y z
#    x 3.321780 0.000000 0.000000 
#    y 0.000000 3.062120 0.000000 
#    z 0.000000 0.000000 3.406580 
# 
# 
# High freq. dielectric constant tensor:
#      x y z
#    x 1.692920 0.000000 0.000000 
#    y 0.000000 1.675160 0.000000 
#    z 0.000000 0.000000 1.714250 
# 
# From -- ./inp_files/3273.got.cif
#   From: 2010.03.12/outbox.cif.g09.slc.cpg/sg57_2_cif.got.tgz:3273.got - 2010.04.16 15:48:40.
