data_PCOD8230839
_publ_section_title
;
Structure prediction by ZEFSAII (Michael W. Deem and Ramdas Pophale) SiO2 
 PCOD8230839
Probable space group: P B C M
;
_chemical_formula_sum "Si O2"
_cell_formula_units_Z 48
_cell_length_a 22.027742
_cell_length_b 5.152705
_cell_length_c 25.880514
_cell_angle_alpha 90.000000
_cell_angle_beta 90.000000
_cell_angle_gamma 90.000000
_cell_volume 2937.501910
_symmetry_space_group_name_H-M "P B C M"
_symmetry_group_IT_number 57
_symmetry_cell_setting 'orthorhombic'
loop_
_space_group_symop_operation_xyz
x,y,z
-x,-y,1/2+z
x,1/2-y,-z
-x,1/2+y,1/2-z
-x,-y,-z
x,y,1/2-z
-x,1/2+y,z
x,1/2-y,1/2+z
loop_
_atom_site_type_symbol
_atom_site_label
_atom_site_fract_x
_atom_site_fract_y
_atom_site_fract_z
Si Si1 0.459882 0.711105 0.250000
Si Si2 0.827739 0.564901 0.688353
Si Si3 0.035353 0.045056 0.811609
Si Si4 0.458626 0.278087 0.388460
Si Si5 0.242188 0.932974 0.311455
Si Si6 0.540733 0.750000 0.500000
Si Si7 0.623909 0.537508 0.307509
O O1 0.517411 0.915092 0.250000
O O2 0.419415 0.781396 0.199220
O O3 0.828696 0.560115 0.750000
O O4 0.896163 0.549793 0.666727
O O5 0.796374 0.825082 0.667505
O O6 0.788829 0.325345 0.666112
O O7 0.036360 0.046267 0.750000
O O8 0.001233 0.792010 0.832865
O O9 0.490177 0.556373 0.382002
O O10 0.424115 0.254206 0.444766
O O11 0.407281 0.246003 0.344921
O O12 0.241254 0.924392 0.250000
O O13 0.311547 0.951701 0.331124
O O14 0.500000 0.500000 0.500000
O O15 0.632774 0.667006 0.250000
#
# Coordination Sequence:
#
# PCOD8230839 Si02
#       7
#     4   8   8   8   8   4   8
#     4  10  20  30  40  54  74  96 120 156 200 234
#     4   9  16  25  38  47  68  95 122 154 191 223
#     4   9  15  22  33  50  66  84 115 157 194 219
#     4  10  19  31  46  62  80 101 128 164 208 247
#     4   9  17  28  35  50  67  96 126 152 184 226
#     4   8  16  30  46  62  78  98 124 158 200 248
#     4   9  20  31  42  60  80 106 132 168 196 245
#
# _framework density 16.340413999999999
#
# number of rings (size 3 to 8) (size 9 to 14) (size 15 to 20)
#    0.500    2.333    0.000    2.000    0.000    6.667 
#    0.000    0.000    0.000    0.000    0.000    0.000 
#    0.000    0.000    0.000    0.000    0.000    0.000 
#
# Total GULP energy -594631.712852 kJ/mol
# GULP energy per Si atom -12388.160684 kJ/mol
# Density = 1.630322 g / cm^3
# Si number density = 16.340414 Si / 1000 Ang^3
#
#
#
# Elastic Constant Matrix: (Units=GPa)
#
#
# Indices 1 2 3 4 5 6 
#
# 1 109.7235 28.4895 7.6321 0.0000 0.0000 0.0000
# 2 28.4895 92.7854 -1.3194 0.0000 0.0000 0.0000
# 3 7.6321 -1.3194 40.8869 0.0000 0.0000 0.0000
# 4 0.0000 0.0000 0.0000 7.4440 0.0000 0.0000
# 5 0.0000 0.0000 0.0000 0.0000 4.0635 0.0000
# 6 0.0000 0.0000 0.0000 0.0000 0.0000 11.8208
#
#
#
# Elastic Compliance Matrix: (Units=1/GPa)
#
#
# Indices 1 2 3 4 5 6 
#
# 1 0.010061 -0.003117 -0.001979 0.000000 0.000000 0.000000
# 2 -0.003117 0.011748 0.000961 0.000000 0.000000 0.000000
# 3 -0.001979 0.000961 0.024858 0.000000 0.000000 0.000000
# 4 0.000000 0.000000 0.000000 0.134337 0.000000 0.000000
# 5 0.000000 0.000000 0.000000 0.000000 0.246094 0.000000
# 6 0.000000 0.000000 0.000000 0.000000 0.000000 0.084597
#
#
# Mechanical properties :
#
#
# Convention : Reuss Voigt Hill
#
# Bulk Modulus (GPa) = 26.04335 34.77780 30.41057
# Shear Modulus (GPa) = 9.38502 18.57189 13.97846
#
# Velocity S-wave (km/s) = 2.39915 3.37495 2.92799
# Velocity P-wave (km/s) = 4.86283 6.04289 5.48469
#
# Compressibility (1/GPa) = 0.03839752
#
# Stress axis : x y z
#
# Youngs Moduli (GPa) = 99.39531 85.11812 40.22840
#
# Poissons Ratio (x) = 0.26534 0.07960
# Poissons Ratio (y) = 0.30984 -0.03866
# Poissons Ratio (z) = 0.19666 -0.08180
#
# Static dielectric constant tensor:
#      x y z
#    x 3.150970 0.000000 0.000000 
#    y 0.000000 3.213290 0.000000 
#    z 0.000000 0.000000 2.903230 
# 
# 
# High freq. dielectric constant tensor:
#      x y z
#    x 1.618150 0.000000 0.000000 
#    y 0.000000 1.647020 0.000000 
#    z 0.000000 0.000000 1.549130 
# 
# From -- ./inp_files/28823.got.cif
#   From: 2010.03.12/outbox.cif.g09.slc.cpg/sg57_15_cif.got.tgz:28823.got - 2010.04.16 15:48:40.
