data_PCOD8230341
_publ_section_title
;
Structure prediction by ZEFSAII (Michael W. Deem and Ramdas Pophale) SiO2 
 PCOD8230341
Probable space group: P B C M
;
_chemical_formula_sum "Si O2"
_cell_formula_units_Z 40
_cell_length_a 10.111434
_cell_length_b 27.701512
_cell_length_c 8.893487
_cell_angle_alpha 90.000000
_cell_angle_beta 90.000000
_cell_angle_gamma 90.000000
_cell_volume 2491.083587
_symmetry_space_group_name_H-M "P B C M"
_symmetry_group_IT_number 57
_symmetry_cell_setting 'orthorhombic'
loop_
_space_group_symop_operation_xyz
x,y,z
-x,-y,1/2+z
x,1/2-y,-z
-x,1/2+y,1/2-z
-x,-y,-z
x,y,1/2-z
-x,1/2+y,z
x,1/2-y,1/2+z
loop_
_atom_site_type_symbol
_atom_site_label
_atom_site_fract_x
_atom_site_fract_y
_atom_site_fract_z
Si Si1 0.110386 0.438850 0.927607
Si Si2 0.157138 0.951767 0.073192
Si Si3 0.481533 0.698305 0.572284
Si Si4 0.370864 0.611858 0.419847
Si Si5 0.657113 0.629055 0.080237
O O1 0.090618 0.435309 0.750000
O O2 0.157074 0.492261 0.974541
O O3 0.220364 0.401120 0.985949
O O4 0.973126 0.425615 0.008033
O O5 0.159630 0.944589 0.250000
O O6 0.287247 0.928444 0.003799
O O7 0.460529 0.750000 0.500000
O O8 0.472796 0.702142 0.750000
O O9 0.364950 0.663287 0.508378
O O10 0.625001 0.676184 0.522127
O O11 0.317737 0.618863 0.250000
O O12 0.525299 0.595043 0.418567
O O13 0.688375 0.646545 0.250000
#
# Coordination Sequence:
#
# PCOD8230341 Si02
#       5
#     8   8   8   8   8
#     4   9  18  33  49  67  98 135 166 197 237 284
#     4  10  19  30  47  72  99 131 167 199 236 285
#     4  10  18  31  51  74  97 122 154 196 243 290
#     4   9  18  32  49  71  96 127 161 199 240 282
#     4   8  17  32  49  71  95 126 163 199 237 281
#
# _framework density 16.057269999999999
#
# number of rings (size 3 to 8) (size 9 to 14) (size 15 to 20)
#    1.200    1.600    0.000    2.400    0.000    2.400 
#    0.000    0.000    0.000    1.200    0.000    2.800 
#    0.000    0.000    0.000    0.000    0.000    0.000 
#
# Total GULP energy -495632.222732 kJ/mol
# GULP energy per Si atom -12390.805568 kJ/mol
# Density = 1.602072 g / cm^3
# Si number density = 16.057270 Si / 1000 Ang^3
#
#
#
# Elastic Constant Matrix: (Units=GPa)
#
#
# Indices 1 2 3 4 5 6 
#
# 1 30.5308 -2.1413 9.1591 0.0000 0.0000 0.0000
# 2 -2.1413 32.7987 17.5387 0.0000 0.0000 0.0000
# 3 9.1591 17.5387 72.1084 0.0000 0.0000 0.0000
# 4 0.0000 0.0000 0.0000 27.8997 0.0000 0.0000
# 5 0.0000 0.0000 0.0000 0.0000 27.6151 0.0000
# 6 0.0000 0.0000 0.0000 0.0000 0.0000 12.9744
#
#
#
# Elastic Compliance Matrix: (Units=1/GPa)
#
#
# Indices 1 2 3 4 5 6 
#
# 1 0.034845 0.005336 -0.005724 0.000000 0.000000 0.000000
# 2 0.005336 0.035864 -0.009401 0.000000 0.000000 0.000000
# 3 -0.005724 -0.009401 0.016882 0.000000 0.000000 0.000000
# 4 0.000000 0.000000 0.000000 0.035843 0.000000 0.000000
# 5 0.000000 0.000000 0.000000 0.000000 0.036212 0.000000
# 6 0.000000 0.000000 0.000000 0.000000 0.000000 0.077075
#
#
# Mechanical properties :
#
#
# Convention : Reuss Voigt Hill
#
# Bulk Modulus (GPa) = 14.70307 20.50565 17.60436
# Shear Modulus (GPa) = 17.92309 21.08994 19.50651
#
# Velocity S-wave (km/s) = 3.34458 3.62805 3.48919
# Velocity P-wave (km/s) = 4.90831 5.50893 5.21727
#
# Compressibility (1/GPa) = 0.06801300
#
# Stress axis : x y z
#
# Youngs Moduli (GPa) = 28.69841 27.88283 59.23625
#
# Poissons Ratio (x) = -0.14877 0.33905
# Poissons Ratio (y) = -0.15312 0.55687
# Poissons Ratio (z) = 0.16426 0.26212
#
# Static dielectric constant tensor:
#      x y z
#    x 2.924510 0.000000 0.000000 
#    y 0.000000 2.861590 0.000000 
#    z 0.000000 0.000000 3.073330 
# 
# 
# High freq. dielectric constant tensor:
#      x y z
#    x 1.599460 0.000000 0.000000 
#    y 0.000000 1.595380 0.000000 
#    z 0.000000 0.000000 1.627640 
# 
# From -- ./inp_files/3244.got.cif
#   From: 2010.03.12/outbox.cif.g09.slc.cpg/sg57_2_cif.got.tgz:3244.got - 2010.04.16 15:48:40.
