data_PCOD8230376
_publ_section_title
;
Structure prediction by ZEFSAII (Michael W. Deem and Ramdas Pophale) SiO2 
 PCOD8230376
Probable space group: P B C M
;
_chemical_formula_sum "Si O2"
_cell_formula_units_Z 64
_cell_length_a 11.310004
_cell_length_b 33.391785
_cell_length_c 8.934349
_cell_angle_alpha 90.000000
_cell_angle_beta 90.000000
_cell_angle_gamma 90.000000
_cell_volume 3374.157160
_symmetry_space_group_name_H-M "P B C M"
_symmetry_group_IT_number 57
_symmetry_cell_setting 'orthorhombic'
loop_
_space_group_symop_operation_xyz
x,y,z
-x,-y,1/2+z
x,1/2-y,-z
-x,1/2+y,1/2-z
-x,-y,-z
x,y,1/2-z
-x,1/2+y,z
x,1/2-y,1/2+z
loop_
_atom_site_type_symbol
_atom_site_label
_atom_site_fract_x
_atom_site_fract_y
_atom_site_fract_z
Si Si1 0.775516 0.485928 0.574663
Si Si2 0.561002 0.430132 0.577839
Si Si3 0.061575 0.208213 0.427242
Si Si4 0.085089 0.579574 0.579930
Si Si5 0.691173 0.364223 0.080472
Si Si6 0.856665 0.628620 0.572223
Si Si7 0.210428 0.709469 0.075177
Si Si8 0.290847 0.064794 0.424221
O O1 0.785341 0.493989 0.750000
O O2 0.651478 0.465077 0.529510
O O3 0.885822 0.458643 0.523200
O O4 0.784492 0.528171 0.490845
O O5 0.582950 0.418731 0.750000
O O6 0.582893 0.390516 0.480362
O O7 0.428555 0.444844 0.547969
O O8 0.104249 0.250000 0.500000
O O9 0.081497 0.210153 0.250000
O O10 0.137700 0.172246 0.497068
O O11 0.924999 0.200251 0.469922
O O12 0.070266 0.564511 0.750000
O O13 0.188428 0.611527 0.565996
O O14 0.967492 0.601320 0.521795
O O15 0.664262 0.351780 0.250000
O O16 0.702418 0.324795 0.981441
O O17 0.850840 0.633988 0.750000
O O18 0.741389 0.605852 0.509890
O O19 0.224233 0.714265 0.250000
O O20 0.254448 0.750000 0.000000
O O21 0.261586 0.069742 0.250000
#
# Coordination Sequence:
#
# PCOD8230376 Si02
#       8
#     8   8   8   8   8   8   8   8
#     4  10  20  35  57  81 105 136 178 227 276 323
#     4   9  20  37  56  78 104 137 179 227 272 320
#     4  10  20  34  55  82 112 146 181 219 264 314
#     4   9  19  34  52  76 107 142 176 216 269 321
#     4  10  18  31  53  79 107 138 174 218 268 320
#     4  11  22  37  56  79 112 146 183 226 266 320
#     4  10  19  30  49  78 112 143 174 213 261 319
#     4  11  23  38  55  77 107 143 184 226 271 320
#
# _framework density 18.967701000000002
#
# number of rings (size 3 to 8) (size 9 to 14) (size 15 to 20)
#    0.000    2.000    1.250    2.625    0.000    4.500 
#    0.000    0.000    0.000    0.750    0.000    0.000 
#    0.000    0.000    0.000    0.000    0.000    0.000 
#
# Total GULP energy -793844.365424 kJ/mol
# GULP energy per Si atom -12403.818210 kJ/mol
# Density = 1.892453 g / cm^3
# Si number density = 18.967701 Si / 1000 Ang^3
#
#
#
# Elastic Constant Matrix: (Units=GPa)
#
#
# Indices 1 2 3 4 5 6 
#
# 1 32.8685 20.0705 18.2461 0.0000 0.0000 0.0000
# 2 20.0705 128.4365 54.6168 0.0000 0.0000 0.0000
# 3 18.2461 54.6168 87.0272 0.0000 0.0000 0.0000
# 4 0.0000 0.0000 0.0000 40.4232 0.0000 0.0000
# 5 0.0000 0.0000 0.0000 0.0000 24.1349 0.0000
# 6 0.0000 0.0000 0.0000 0.0000 0.0000 20.8505
#
#
#
# Elastic Compliance Matrix: (Units=1/GPa)
#
#
# Indices 1 2 3 4 5 6 
#
# 1 0.035393 -0.003240 -0.005387 0.000000 0.000000 0.000000
# 2 -0.003240 0.010917 -0.006172 0.000000 0.000000 0.000000
# 3 -0.005387 -0.006172 0.016494 0.000000 0.000000 0.000000
# 4 0.000000 0.000000 0.000000 0.024738 0.000000 0.000000
# 5 0.000000 0.000000 0.000000 0.000000 0.041434 0.000000
# 6 0.000000 0.000000 0.000000 0.000000 0.000000 0.047961
#
#
# Mechanical properties :
#
#
# Convention : Reuss Voigt Hill
#
# Bulk Modulus (GPa) = 30.11553 48.24434 39.17993
# Shear Modulus (GPa) = 22.97765 27.44165 25.20965
#
# Velocity S-wave (km/s) = 3.48431 3.80775 3.64961
# Velocity P-wave (km/s) = 5.66559 6.69494 6.20166
#
# Compressibility (1/GPa) = 0.03320546
#
# Stress axis : x y z
#
# Youngs Moduli (GPa) = 28.25397 91.60169 60.62986
#
# Poissons Ratio (x) = 0.29679 0.32662
# Poissons Ratio (y) = 0.09154 0.37420
# Poissons Ratio (z) = 0.15221 0.56536
#
# Static dielectric constant tensor:
#      x y z
#    x 3.245050 0.000000 0.000000 
#    y 0.000000 3.561390 0.000000 
#    z 0.000000 0.000000 3.504720 
# 
# 
# High freq. dielectric constant tensor:
#      x y z
#    x 1.705970 0.000000 0.000000 
#    y 0.000000 1.740030 0.000000 
#    z 0.000000 0.000000 1.747970 
# 
# From -- ./inp_files/3797.got.cif
#   From: 2010.03.12/outbox.cif.g09.slc.cpg/sg57_2_cif.got.tgz:3797.got - 2010.04.16 15:48:40.
