data_PCOD8230208
_publ_section_title
;
Structure prediction by ZEFSAII (Michael W. Deem and Ramdas Pophale) SiO2 
 PCOD8230208
Probable space group: P B C M
;
_chemical_formula_sum "Si O2"
_cell_formula_units_Z 64
_cell_length_a 20.131712
_cell_length_b 19.323846
_cell_length_c 8.793307
_cell_angle_alpha 90.000000
_cell_angle_beta 90.000000
_cell_angle_gamma 90.000000
_cell_volume 3420.790776
_symmetry_space_group_name_H-M "P B C M"
_symmetry_group_IT_number 57
_symmetry_cell_setting 'orthorhombic'
loop_
_space_group_symop_operation_xyz
x,y,z
-x,-y,1/2+z
x,1/2-y,-z
-x,1/2+y,1/2-z
-x,-y,-z
x,y,1/2-z
-x,1/2+y,z
x,1/2-y,1/2+z
loop_
_atom_site_type_symbol
_atom_site_label
_atom_site_fract_x
_atom_site_fract_y
_atom_site_fract_z
Si Si1 0.148953 0.429089 0.926308
Si Si2 0.485398 0.928171 0.074191
Si Si3 0.375902 0.107435 0.928536
Si Si4 0.345238 0.960453 0.071689
Si Si5 0.200986 0.918685 0.073157
Si Si6 0.013115 0.425490 0.429657
Si Si7 0.095567 0.674362 0.430188
Si Si8 0.259141 0.180013 0.072487
O O1 0.130474 0.418195 0.750000
O O2 0.165571 0.508552 0.960428
O O3 0.211915 0.383378 0.973771
O O4 0.088101 0.403785 0.030037
O O5 0.493109 0.941915 0.250000
O O6 0.545980 0.876992 0.026409
O O7 0.408295 0.908418 0.037264
O O8 0.500000 0.000000 0.000000
O O9 0.363548 0.113882 0.750000
O O10 0.332981 0.165503 0.011642
O O11 0.353346 0.031249 0.980331
O O12 0.340555 0.980064 0.250000
O O13 0.278058 0.921654 0.021989
O O14 0.194385 0.899044 0.250000
O O15 0.165997 0.860025 0.973112
O O16 0.001864 0.428322 0.250000
O O17 0.000000 0.500000 0.500000
O O18 0.964017 0.369854 0.500566
O O19 0.092002 0.750000 0.500000
O O20 0.088130 0.678207 0.250000
O O21 0.262673 0.190633 0.250000
O O22 0.230558 0.250000 0.000000
#
# Coordination Sequence:
#
# PCOD8230208 Si02
#       8
#     8   8   8   8   8   8   8   8
#     4  10  21  38  60  85 116 151 192 237 287 341
#     4   8  15  26  44  73 107 141 180 226 278 330
#     4  10  18  29  48  76 110 146 187 236 283 337
#     4   9  16  30  52  79 111 148 186 231 284 334
#     4  10  19  35  60  87 117 153 191 235 285 341
#     4  12  24  40  64  92 121 155 194 236 282 335
#     4  12  26  44  65  90 120 154 190 235 286 344
#     4  11  23  39  56  78 110 152 194 239 289 346
#
# _framework density 18.709123000000002
#
# number of rings (size 3 to 8) (size 9 to 14) (size 15 to 20)
#    0.000    1.750    2.500    3.000    0.000    2.500 
#    0.000    1.250    0.000    0.750    0.000    0.000 
#    0.000    0.000    0.000    0.000    0.000    0.000 
#
# Total GULP energy -793286.881816 kJ/mol
# GULP energy per Si atom -12395.107528 kJ/mol
# Density = 1.866654 g / cm^3
# Si number density = 18.709123 Si / 1000 Ang^3
#
#
#
# Elastic Constant Matrix: (Units=GPa)
#
#
# Indices 1 2 3 4 5 6 
#
# 1 145.4776 44.3546 53.3072 0.0000 0.0000 0.0000
# 2 44.3546 97.9432 45.9030 0.0000 0.0000 0.0000
# 3 53.3072 45.9030 96.2396 0.0000 0.0000 0.0000
# 4 0.0000 0.0000 0.0000 28.5280 0.0000 0.0000
# 5 0.0000 0.0000 0.0000 0.0000 28.5254 0.0000
# 6 0.0000 0.0000 0.0000 0.0000 0.0000 21.7048
#
#
#
# Elastic Compliance Matrix: (Units=1/GPa)
#
#
# Indices 1 2 3 4 5 6 
#
# 1 0.008990 -0.002238 -0.003912 0.000000 0.000000 0.000000
# 2 -0.002238 0.013706 -0.005298 0.000000 0.000000 0.000000
# 3 -0.003912 -0.005298 0.015085 0.000000 0.000000 0.000000
# 4 0.000000 0.000000 0.000000 0.035053 0.000000 0.000000
# 5 0.000000 0.000000 0.000000 0.000000 0.035056 0.000000
# 6 0.000000 0.000000 0.000000 0.000000 0.000000 0.046073
#
#
# Mechanical properties :
#
#
# Convention : Reuss Voigt Hill
#
# Bulk Modulus (GPa) = 67.18116 69.64334 68.41225
# Shear Modulus (GPa) = 27.49967 28.82468 28.16218
#
# Velocity S-wave (km/s) = 3.83803 3.92940 3.88398
# Velocity P-wave (km/s) = 7.45834 7.60868 7.53388
#
# Compressibility (1/GPa) = 0.01488513
#
# Stress axis : x y z
#
# Youngs Moduli (GPa) = 111.23920 72.95892 66.29247
#
# Poissons Ratio (x) = 0.16325 0.25934
# Poissons Ratio (y) = 0.24890 0.35122
# Poissons Ratio (z) = 0.43518 0.38654
#
# Static dielectric constant tensor:
#      x y z
#    x 4.155100 0.000000 0.000000 
#    y 0.000000 3.181240 0.000000 
#    z 0.000000 0.000000 3.470870 
# 
# 
# High freq. dielectric constant tensor:
#      x y z
#    x 1.750300 0.000000 0.000000 
#    y 0.000000 1.689410 0.000000 
#    z 0.000000 0.000000 1.730000 
# 
# From -- ./inp_files/8502.got.cif
#   From: 2010.03.12/outbox.cif.g09.slc.cpg/sg57_5_cif.got.tgz:8502.got - 2010.04.16 15:48:40.
