data_PCOD8230424
_publ_section_title
;
Structure prediction by ZEFSAII (Michael W. Deem and Ramdas Pophale) SiO2 
 PCOD8230424
Probable space group: P B C M
;
_chemical_formula_sum "Si O2"
_cell_formula_units_Z 64
_cell_length_a 18.951911
_cell_length_b 10.159110
_cell_length_c 17.683188
_cell_angle_alpha 90.000000
_cell_angle_beta 90.000000
_cell_angle_gamma 90.000000
_cell_volume 3404.624619
_symmetry_space_group_name_H-M "P B C M"
_symmetry_group_IT_number 57
_symmetry_cell_setting 'orthorhombic'
loop_
_space_group_symop_operation_xyz
x,y,z
-x,-y,1/2+z
x,1/2-y,-z
-x,1/2+y,1/2-z
-x,-y,-z
x,y,1/2-z
-x,1/2+y,z
x,1/2-y,1/2+z
loop_
_atom_site_type_symbol
_atom_site_label
_atom_site_fract_x
_atom_site_fract_y
_atom_site_fract_z
Si Si1 0.783163 0.126590 0.839503
Si Si2 0.444433 0.226122 0.340166
Si Si3 0.715657 0.102368 0.160390
Si Si4 0.437752 0.525026 0.340212
Si Si5 0.808363 0.860910 0.160710
Si Si6 0.293637 0.363588 0.839244
Si Si7 0.908803 0.382096 0.453695
Si Si8 0.930691 0.626114 0.946808
O O1 0.799660 0.129186 0.750000
O O2 0.743400 0.257060 0.868117
O O3 0.857064 0.109150 0.882249
O O4 0.729873 0.009805 0.861678
O O5 0.444412 0.223060 0.250000
O O6 0.455912 0.376630 0.368333
O O7 0.505419 0.129872 0.371792
O O8 0.370619 0.169847 0.372742
O O9 0.710792 0.101095 0.250000
O O10 0.638272 0.069814 0.127417
O O11 0.770611 0.993366 0.132009
O O12 0.437116 0.526439 0.250000
O O13 0.814804 0.856635 0.250000
O O14 0.763307 0.738997 0.128379
O O15 0.887187 0.851622 0.129419
O O16 0.297300 0.345844 0.750000
O O17 0.895003 0.250000 0.500000
O O18 0.897035 0.501862 0.510767
O O19 0.988371 0.392794 0.421736
O O20 0.922934 0.750000 0.000000
#
# Coordination Sequence:
#
# PCOD8230424 Si02
#       8
#     8   8   8   8   8   8   8   8
#     4  10  20  32  51  75 103 138 172 210 258 310
#     4   9  16  25  39  62  97 139 172 201 247 305
#     4   9  17  29  44  68 101 135 171 211 256 301
#     4   9  16  25  39  62  97 138 173 203 246 305
#     4  10  18  32  53  75 101 136 172 211 257 305
#     4   9  17  29  44  68 103 135 167 212 257 295
#     4  10  21  38  54  75 106 135 166 214 263 302
#     4  10  21  36  56  77 102 135 170 211 260 309
#
# _framework density 18.79796
#
# number of rings (size 3 to 8) (size 9 to 14) (size 15 to 20)
#    0.000    2.500    1.250    1.500    1.750    0.500 
#    0.000    0.000    0.000    9.000    0.000    0.000 
#    0.000   20.000    0.000    0.000    0.000    0.000 
#
# Total GULP energy -793482.639569 kJ/mol
# GULP energy per Si atom -12398.166243 kJ/mol
# Density = 1.875518 g / cm^3
# Si number density = 18.797960 Si / 1000 Ang^3
#
#
#
# Elastic Constant Matrix: (Units=GPa)
#
#
# Indices 1 2 3 4 5 6 
#
# 1 134.8617 50.6701 34.6446 0.0000 0.0000 0.0000
# 2 50.6701 142.7278 19.3001 0.0000 0.0000 0.0000
# 3 34.6446 19.3001 23.2414 0.0000 0.0000 0.0000
# 4 0.0000 0.0000 0.0000 8.2215 0.0000 0.0000
# 5 0.0000 0.0000 0.0000 0.0000 9.1666 0.0000
# 6 0.0000 0.0000 0.0000 0.0000 0.0000 40.4879
#
#
#
# Elastic Compliance Matrix: (Units=1/GPa)
#
#
# Indices 1 2 3 4 5 6 
#
# 1 0.012589 -0.002176 -0.016959 0.000000 0.000000 0.000000
# 2 -0.002176 0.008269 -0.003623 0.000000 0.000000 0.000000
# 3 -0.016959 -0.003623 0.071315 0.000000 0.000000 0.000000
# 4 0.000000 0.000000 0.000000 0.121633 0.000000 0.000000
# 5 0.000000 0.000000 0.000000 0.000000 0.109092 0.000000
# 6 0.000000 0.000000 0.000000 0.000000 0.000000 0.024699
#
#
# Mechanical properties :
#
#
# Convention : Reuss Voigt Hill
#
# Bulk Modulus (GPa) = 21.43291 56.67338 39.05314
# Shear Modulus (GPa) = 12.23499 24.65627 18.44563
#
# Velocity S-wave (km/s) = 2.55398 3.62559 3.13590
# Velocity P-wave (km/s) = 4.48593 6.90947 5.82513
#
# Compressibility (1/GPa) = 0.04665721
#
# Stress axis : x y z
#
# Youngs Moduli (GPa) = 79.43344 120.93711 14.02233
#
# Poissons Ratio (x) = 0.26317 0.23780
# Poissons Ratio (y) = 0.17285 0.05080
# Poissons Ratio (z) = 1.34710 0.43813
#
# Static dielectric constant tensor:
#      x y z
#    x 3.654990 0.000000 0.000000 
#    y 0.000000 3.774890 0.000000 
#    z 0.000000 0.000000 2.779400 
# 
# 
# High freq. dielectric constant tensor:
#      x y z
#    x 1.739970 0.000000 0.000000 
#    y 0.000000 1.752880 0.000000 
#    z 0.000000 0.000000 1.666430 
# 
# From -- ./inp_files/25629.got.cif
#   From: 2010.03.12/outbox.cif.g09.slc.cpg/sg57_13_cif.got.tgz:25629.got - 2010.04.16 15:48:40.
