data_PCOD8230472
_publ_section_title
;
Structure prediction by ZEFSAII (Michael W. Deem and Ramdas Pophale) SiO2 
 PCOD8230472
Probable space group: P B C M
;
_chemical_formula_sum "Si O2"
_cell_formula_units_Z 40
_cell_length_a 15.899566
_cell_length_b 8.984585
_cell_length_c 13.282455
_cell_angle_alpha 90.000000
_cell_angle_beta 90.000000
_cell_angle_gamma 90.000000
_cell_volume 1897.412008
_symmetry_space_group_name_H-M "P B C M"
_symmetry_group_IT_number 57
_symmetry_cell_setting 'orthorhombic'
loop_
_space_group_symop_operation_xyz
x,y,z
-x,-y,1/2+z
x,1/2-y,-z
-x,1/2+y,1/2-z
-x,-y,-z
x,y,1/2-z
-x,1/2+y,z
x,1/2-y,1/2+z
loop_
_atom_site_type_symbol
_atom_site_label
_atom_site_fract_x
_atom_site_fract_y
_atom_site_fract_z
Si Si1 0.896890 0.032442 0.435919
Si Si2 0.283773 0.918885 0.527917
Si Si3 0.443486 0.673532 0.368230
Si Si4 0.040994 0.848141 0.365589
Si Si5 0.395889 0.000048 0.368620
O O1 0.797303 0.014523 0.414255
O O2 0.904674 0.050212 0.557528
O O3 0.939668 0.174486 0.381687
O O4 0.943239 0.885572 0.392975
O O5 0.259036 0.750000 0.500000
O O6 0.365344 0.929731 0.599591
O O7 0.307583 0.017569 0.428330
O O8 0.444717 0.672036 0.250000
O O9 0.431084 0.840410 0.408717
O O10 0.534550 0.617171 0.404845
O O11 0.061393 0.890775 0.250000
O O12 0.377738 0.003072 0.250000
#
# Coordination Sequence:
#
# PCOD8230472 Si02
#       5
#     8   8   8   8   8
#     4  10  21  37  57  84 111 141 191 230 274 344
#     4  10  18  33  52  81 106 137 177 227 260 317
#     4   9  18  31  52  76 106 142 178 215 261 317
#     4  10  20  36  59  81 109 146 180 230 286 333
#     4   9  18  32  53  78 107 143 178 217 265 318
#
# _framework density 21.081347999999998
#
# number of rings (size 3 to 8) (size 9 to 14) (size 15 to 20)
#    0.000    2.400    2.000    1.200    0.000    2.400 
#    0.000    0.000   17.600    0.000    0.000    0.000 
#    0.000    0.000    0.000    0.000    0.000    0.000 
#
# Total GULP energy -495709.363369 kJ/mol
# GULP energy per Si atom -12392.734084 kJ/mol
# Density = 2.103337 g / cm^3
# Si number density = 21.081348 Si / 1000 Ang^3
#
#
#
# Elastic Constant Matrix: (Units=GPa)
#
#
# Indices 1 2 3 4 5 6 
#
# 1 134.7616 39.7087 22.9611 0.0000 0.0000 0.0000
# 2 39.7087 40.1430 28.2672 0.0000 0.0000 0.0000
# 3 22.9611 28.2672 43.0670 0.0000 0.0000 0.0000
# 4 0.0000 0.0000 0.0000 18.9261 0.0000 0.0000
# 5 0.0000 0.0000 0.0000 0.0000 19.2389 0.0000
# 6 0.0000 0.0000 0.0000 0.0000 0.0000 27.0276
#
#
#
# Elastic Compliance Matrix: (Units=1/GPa)
#
#
# Indices 1 2 3 4 5 6 
#
# 1 0.010593 -0.012089 0.002287 0.000000 0.000000 0.000000
# 2 -0.012089 0.060114 -0.033011 0.000000 0.000000 0.000000
# 3 0.002287 -0.033011 0.043667 0.000000 0.000000 0.000000
# 4 0.000000 0.000000 0.000000 0.052837 0.000000 0.000000
# 5 0.000000 0.000000 0.000000 0.000000 0.051978 0.000000
# 6 0.000000 0.000000 0.000000 0.000000 0.000000 0.036999
#
#
# Mechanical properties :
#
#
# Convention : Reuss Voigt Hill
#
# Bulk Modulus (GPa) = 34.78436 44.42728 39.60582
# Shear Modulus (GPa) = 14.22894 21.50750 17.86822
#
# Velocity S-wave (km/s) = 2.60081 3.19754 2.91449
# Velocity P-wave (km/s) = 5.05518 5.89511 5.49123
#
# Compressibility (1/GPa) = 0.02874856
#
# Stress axis : x y z
#
# Youngs Moduli (GPa) = 94.40311 16.63513 22.90040
#
# Poissons Ratio (x) = 0.20109 -0.05237
# Poissons Ratio (y) = 1.14119 0.75596
# Poissons Ratio (z) = -0.21588 0.54914
#
# Static dielectric constant tensor:
#      x y z
#    x 3.926110 0.000000 0.000000 
#    y 0.000000 3.846380 0.000000 
#    z 0.000000 0.000000 3.885540 
# 
# 
# High freq. dielectric constant tensor:
#      x y z
#    x 1.819680 0.000000 0.000000 
#    y 0.000000 1.785780 0.000000 
#    z 0.000000 0.000000 1.836010 
# 
# From -- ./inp_files/18331.got.cif
#   From: 2010.03.12/outbox.cif.g09.slc.cpg/sg57_10_cif.got.tgz:18331.got - 2010.04.16 15:48:40.
