data_PCOD8230292
_publ_section_title
;
Structure prediction by ZEFSAII (Michael W. Deem and Ramdas Pophale) SiO2 
 PCOD8230292
Probable space group: P B C M
;
_chemical_formula_sum "Si O2"
_cell_formula_units_Z 48
_cell_length_a 9.216554
_cell_length_b 34.055505
_cell_length_c 8.920269
_cell_angle_alpha 90.000000
_cell_angle_beta 90.000000
_cell_angle_gamma 90.000000
_cell_volume 2799.844088
_symmetry_space_group_name_H-M "P B C M"
_symmetry_group_IT_number 57
_symmetry_cell_setting 'orthorhombic'
loop_
_space_group_symop_operation_xyz
x,y,z
-x,-y,1/2+z
x,1/2-y,-z
-x,1/2+y,1/2-z
-x,-y,-z
x,y,1/2-z
-x,1/2+y,z
x,1/2-y,1/2+z
loop_
_atom_site_type_symbol
_atom_site_label
_atom_site_fract_x
_atom_site_fract_y
_atom_site_fract_z
Si Si1 0.656770 0.853001 0.916454
Si Si2 0.338496 0.643201 0.082137
Si Si3 0.829130 0.572721 0.072208
Si Si4 0.840355 0.429013 0.572104
Si Si5 0.510512 0.207942 0.925650
Si Si6 0.656724 0.502985 0.928213
O O1 0.698108 0.837759 0.750000
O O2 0.500854 0.875616 0.910466
O O3 0.777720 0.883460 0.973709
O O4 0.637906 0.815020 0.024808
O O5 0.286305 0.654766 0.250000
O O6 0.231430 0.611077 0.008091
O O7 0.348473 0.682863 0.981520
O O8 0.810682 0.565845 0.250000
O O9 0.994310 0.567980 0.017988
O O10 0.732722 0.542518 0.981157
O O11 0.830274 0.427241 0.750000
O O12 0.753414 0.466660 0.512138
O O13 0.514872 0.213102 0.750000
O O14 0.514395 0.250000 0.000000
O O15 0.642782 0.502979 0.750000
O O16 0.500000 0.500000 0.000000
#
# Coordination Sequence:
#
# PCOD8230292 Si02
#       6
#     8   8   8   8   8   8
#     4   8  16  30  49  72 100 130 164 204 250 299
#     4   8  15  30  49  72  99 130 166 205 249 297
#     4  10  19  34  54  75 101 137 173 210 259 308
#     4   9  18  33  53  74 101 137 174 210 255 307
#     4  10  18  30  51  78 102 127 163 206 251 298
#     4  11  22  35  51  74 103 137 178 220 256 296
#
# _framework density 17.143810999999999
#
# number of rings (size 3 to 8) (size 9 to 14) (size 15 to 20)
#    1.000    1.667    0.000    3.000    0.000    3.333 
#    0.000    2.500    0.000    1.000    0.000    0.000 
#    0.000    0.000    0.000    0.000    0.000    0.000 
#
# Total GULP energy -594746.435939 kJ/mol
# GULP energy per Si atom -12390.550749 kJ/mol
# Density = 1.710479 g / cm^3
# Si number density = 17.143811 Si / 1000 Ang^3
#
#
#
# Elastic Constant Matrix: (Units=GPa)
#
#
# Indices 1 2 3 4 5 6 
#
# 1 92.1720 43.3502 28.6269 0.0000 0.0000 0.0000
# 2 43.3502 119.4121 52.7591 0.0000 0.0000 0.0000
# 3 28.6269 52.7591 83.8061 0.0000 0.0000 0.0000
# 4 0.0000 0.0000 0.0000 28.4834 0.0000 0.0000
# 5 0.0000 0.0000 0.0000 0.0000 19.1611 0.0000
# 6 0.0000 0.0000 0.0000 0.0000 0.0000 13.9065
#
#
#
# Elastic Compliance Matrix: (Units=1/GPa)
#
#
# Indices 1 2 3 4 5 6 
#
# 1 0.013342 -0.003920 -0.002089 0.000000 0.000000 0.000000
# 2 -0.003920 0.012753 -0.006689 0.000000 0.000000 0.000000
# 3 -0.002089 -0.006689 0.016857 0.000000 0.000000 0.000000
# 4 0.000000 0.000000 0.000000 0.035108 0.000000 0.000000
# 5 0.000000 0.000000 0.000000 0.000000 0.052189 0.000000
# 6 0.000000 0.000000 0.000000 0.000000 0.000000 0.071909
#
#
# Mechanical properties :
#
#
# Convention : Reuss Voigt Hill
#
# Bulk Modulus (GPa) = 56.96718 60.54029 58.75374
# Shear Modulus (GPa) = 21.42171 23.68714 22.55443
#
# Velocity S-wave (km/s) = 3.53870 3.72112 3.63106
# Velocity P-wave (km/s) = 7.07091 7.33840 7.20590
#
# Compressibility (1/GPa) = 0.01755397
#
# Stress axis : x y z
#
# Youngs Moduli (GPa) = 74.95103 78.41212 59.32165
#
# Poissons Ratio (x) = 0.30741 0.12395
# Poissons Ratio (y) = 0.29384 0.39683
# Poissons Ratio (z) = 0.15660 0.52453
#
# Static dielectric constant tensor:
#      x y z
#    x 3.215840 0.000000 0.000000 
#    y 0.000000 3.151560 0.000000 
#    z 0.000000 0.000000 3.064480 
# 
# 
# High freq. dielectric constant tensor:
#      x y z
#    x 1.643200 0.000000 0.000000 
#    y 0.000000 1.658330 0.000000 
#    z 0.000000 0.000000 1.645270 
# 
# From -- ./inp_files/2106.got.cif
#   From: 2010.03.12/outbox.cif.g09.slc.cpg/sg57_2_cif.got.tgz:2106.got - 2010.04.16 15:48:40.
