data_PCOD8230428
_publ_section_title
;
Structure prediction by ZEFSAII (Michael W. Deem and Ramdas Pophale) SiO2 
 PCOD8230428
Probable space group: P B C M
;
_chemical_formula_sum "Si O2"
_cell_formula_units_Z 48
_cell_length_a 9.467549
_cell_length_b 17.321911
_cell_length_c 15.679521
_cell_angle_alpha 90.000000
_cell_angle_beta 90.000000
_cell_angle_gamma 90.000000
_cell_volume 2571.379371
_symmetry_space_group_name_H-M "P B C M"
_symmetry_group_IT_number 57
_symmetry_cell_setting 'orthorhombic'
loop_
_space_group_symop_operation_xyz
x,y,z
-x,-y,1/2+z
x,1/2-y,-z
-x,1/2+y,1/2-z
-x,-y,-z
x,y,1/2-z
-x,1/2+y,z
x,1/2-y,1/2+z
loop_
_atom_site_type_symbol
_atom_site_label
_atom_site_fract_x
_atom_site_fract_y
_atom_site_fract_z
Si Si1 0.000432 0.165407 0.345561
Si Si2 0.500467 0.090710 0.508138
Si Si3 0.001825 0.652132 0.655133
Si Si4 0.287916 0.304264 0.581703
Si Si5 0.319019 0.150633 0.844201
Si Si6 0.189551 0.842301 0.501327
O O1 0.984249 0.129234 0.250000
O O2 0.985035 0.256510 0.339431
O O3 0.153594 0.147087 0.385933
O O4 0.883975 0.130301 0.410193
O O5 0.409053 0.133252 0.435635
O O6 0.433133 0.108044 0.599097
O O7 0.656576 0.122851 0.501963
O O8 0.500000 0.000000 0.500000
O O9 0.040267 0.618594 0.750000
O O10 0.841852 0.628837 0.629513
O O11 0.105641 0.622841 0.580547
O O12 0.249653 0.250000 0.500000
O O13 0.340322 0.243719 0.653041
O O14 0.350850 0.121495 0.750000
O O15 0.195971 0.750000 0.500000
#
# Coordination Sequence:
#
# PCOD8230428 Si02
#       6
#     8   8   8   8   8   8
#     4   9  16  29  52  81 103 124 163 221 272 308
#     4  11  23  36  49  72 111 152 179 207 256 313
#     4   8  15  29  55  83 101 121 163 222 274 310
#     4   9  16  32  56  77  99 133 178 217 258 312
#     4   9  17  34  58  80 100 131 177 224 263 311
#     4  10  18  32  53  77 104 131 168 217 264 310
#
# _framework density 18.667024999999999
#
# number of rings (size 3 to 8) (size 9 to 14) (size 15 to 20)
#    0.000    2.667    0.000    6.500    0.000    0.667 
#    0.000   10.833    0.000    2.000    0.000    0.000 
#    0.000    0.000    0.000    0.000    0.000    0.000 
#
# Total GULP energy -594842.409256 kJ/mol
# GULP energy per Si atom -12392.550193 kJ/mol
# Density = 1.862454 g / cm^3
# Si number density = 18.667025 Si / 1000 Ang^3
#
#
#
# Elastic Constant Matrix: (Units=GPa)
#
#
# Indices 1 2 3 4 5 6 
#
# 1 165.4914 41.3508 101.7175 0.0000 0.0000 0.0000
# 2 41.3508 41.9416 30.5698 0.0000 0.0000 0.0000
# 3 101.7175 30.5698 136.2492 0.0000 0.0000 0.0000
# 4 0.0000 0.0000 0.0000 5.9247 0.0000 0.0000
# 5 0.0000 0.0000 0.0000 0.0000 14.8563 0.0000
# 6 0.0000 0.0000 0.0000 0.0000 0.0000 -7.1531
#
#
#
# Elastic Compliance Matrix: (Units=1/GPa)
#
#
# Indices 1 2 3 4 5 6 
#
# 1 0.012536 -0.006621 -0.007874 0.000000 0.000000 0.000000
# 2 -0.006621 0.032001 -0.002237 0.000000 0.000000 0.000000
# 3 -0.007874 -0.002237 0.013719 0.000000 0.000000 0.000000
# 4 0.000000 0.000000 0.000000 0.168786 0.000000 0.000000
# 5 0.000000 0.000000 0.000000 0.000000 0.067311 0.000000
# 6 0.000000 0.000000 0.000000 0.000000 0.000000 -0.139800
#
#
# Mechanical properties :
#
#
# Convention : Reuss Voigt Hill
#
# Bulk Modulus (GPa) = 40.33296 76.77314 58.55305
# Shear Modulus (GPa) = 25.47366 14.06186 19.76776
#
# Velocity S-wave (km/s) = 3.69810 2.74761 3.25771
# Velocity P-wave (km/s) = 6.31570 7.16120 6.75170
#
# Compressibility (1/GPa) = 0.02479362
#
# Stress axis : x y z
#
# Youngs Moduli (GPa) = 79.76778 31.24909 72.88930
#
# Poissons Ratio (x) = 0.20690 0.57390
# Poissons Ratio (y) = 0.52815 0.16305
# Poissons Ratio (z) = 0.62806 0.06990
#
# Static dielectric constant tensor:
#      x y z
#    x 2.298750 0.000000 0.000000 
#    y 0.000000 2.897930 0.000000 
#    z 0.000000 0.000000 3.903600 
# 
# 
# High freq. dielectric constant tensor:
#      x y z
#    x 1.725060 0.000000 0.000000 
#    y 0.000000 1.668220 0.000000 
#    z 0.000000 0.000000 1.737660 
# 
# From -- ./inp_files/16377.got.cif
#   From: 2010.03.12/outbox.cif.g09.slc.cpg/sg57_9_cif.got.tgz:16377.got - 2010.04.16 15:48:40.
