data_PCOD8230811
_publ_section_title
;
Structure prediction by ZEFSAII (Michael W. Deem and Ramdas Pophale) SiO2 
 PCOD8230811
Probable space group: P B C M
;
_chemical_formula_sum "Si O2"
_cell_formula_units_Z 40
_cell_length_a 11.728623
_cell_length_b 21.041803
_cell_length_c 8.735680
_cell_angle_alpha 90.000000
_cell_angle_beta 90.000000
_cell_angle_gamma 90.000000
_cell_volume 2155.890476
_symmetry_space_group_name_H-M "P B C M"
_symmetry_group_IT_number 57
_symmetry_cell_setting 'orthorhombic'
loop_
_space_group_symop_operation_xyz
x,y,z
-x,-y,1/2+z
x,1/2-y,-z
-x,1/2+y,1/2-z
-x,-y,-z
x,y,1/2-z
-x,1/2+y,z
x,1/2-y,1/2+z
loop_
_atom_site_type_symbol
_atom_site_label
_atom_site_fract_x
_atom_site_fract_y
_atom_site_fract_z
Si Si1 0.139472 0.680009 0.924883
Si Si2 0.309797 0.511087 0.576110
Si Si3 0.605231 0.314820 0.422875
Si Si4 0.915944 0.051721 0.071226
Si Si5 0.489113 0.416901 0.576012
O O1 0.099591 0.687413 0.750000
O O2 0.269511 0.651890 0.930616
O O3 0.122115 0.750000 0.000000
O O4 0.066328 0.623292 0.004080
O O5 0.267517 0.523302 0.750000
O O6 0.210730 0.524995 0.457137
O O7 0.357533 0.438617 0.555599
O O8 0.424418 0.550963 0.545013
O O9 0.636471 0.250000 0.500000
O O10 0.561300 0.308207 0.250000
O O11 0.504217 0.343892 0.527338
O O12 0.939817 0.056121 0.250000
O O13 0.000000 0.000000 0.000000
O O14 0.529971 0.428555 0.750000
#
# Coordination Sequence:
#
# PCOD8230811 Si02
#       5
#     8   8   8   8   8
#     4  10  20  35  55  81 112 145 182 228 279 333
#     4  10  20  34  51  76 107 140 177 217 265 321
#     4  10  19  30  49  75 109 143 178 221 268 324
#     4  12  24  38  58  82 112 148 188 236 283 333
#     4  10  19  31  51  76 107 141 174 214 263 319
#
# _framework density 18.553820000000002
#
# number of rings (size 3 to 8) (size 9 to 14) (size 15 to 20)
#    0.000    1.600    2.000    4.200    0.000    4.000 
#    0.000    0.000    0.000    1.200    0.000    2.800 
#    0.000    0.000    0.000    0.000    0.000    0.000 
#
# Total GULP energy -495580.379101 kJ/mol
# GULP energy per Si atom -12389.509478 kJ/mol
# Density = 1.851159 g / cm^3
# Si number density = 18.553820 Si / 1000 Ang^3
#
#
#
# Elastic Constant Matrix: (Units=GPa)
#
#
# Indices 1 2 3 4 5 6 
#
# 1 47.4298 36.9902 24.6508 0.0000 0.0000 0.0000
# 2 36.9902 100.0225 56.9601 0.0000 0.0000 0.0000
# 3 24.6508 56.9601 135.2060 0.0000 0.0000 0.0000
# 4 0.0000 0.0000 0.0000 35.9845 0.0000 0.0000
# 5 0.0000 0.0000 0.0000 0.0000 25.7007 0.0000
# 6 0.0000 0.0000 0.0000 0.0000 0.0000 32.9018
#
#
#
# Elastic Compliance Matrix: (Units=1/GPa)
#
#
# Indices 1 2 3 4 5 6 
#
# 1 0.029740 -0.010407 -0.001038 0.000000 0.000000 0.000000
# 2 -0.010407 0.016795 -0.005178 0.000000 0.000000 0.000000
# 3 -0.001038 -0.005178 0.009767 0.000000 0.000000 0.000000
# 4 0.000000 0.000000 0.000000 0.027790 0.000000 0.000000
# 5 0.000000 0.000000 0.000000 0.000000 0.038909 0.000000
# 6 0.000000 0.000000 0.000000 0.000000 0.000000 0.030393
#
#
# Mechanical properties :
#
#
# Convention : Reuss Voigt Hill
#
# Bulk Modulus (GPa) = 43.37360 57.76228 50.56794
# Shear Modulus (GPa) = 25.72991 29.85455 27.79223
#
# Velocity S-wave (km/s) = 3.72798 4.01568 3.87450
# Velocity P-wave (km/s) = 6.47753 7.25953 6.87965
#
# Compressibility (1/GPa) = 0.02305550
#
# Stress axis : x y z
#
# Youngs Moduli (GPa) = 33.62496 59.53997 102.38781
#
# Poissons Ratio (x) = 0.61966 0.10625
# Poissons Ratio (y) = 0.34995 0.53018
# Poissons Ratio (z) = 0.03489 0.30831
#
# Static dielectric constant tensor:
#      x y z
#    x 3.279370 0.000000 0.000000 
#    y 0.000000 3.680950 0.000000 
#    z 0.000000 0.000000 3.503160 
# 
# 
# High freq. dielectric constant tensor:
#      x y z
#    x 1.669560 0.000000 0.000000 
#    y 0.000000 1.727350 0.000000 
#    z 0.000000 0.000000 1.737480 
# 
# From -- ./inp_files/2903.got.cif
#   From: 2010.03.12/outbox.cif.g09.slc.cpg/sg57_2_cif.got.tgz:2903.got - 2010.04.16 15:48:40.
