data_PCOD8230388
_publ_section_title
;
Structure prediction by ZEFSAII (Michael W. Deem and Ramdas Pophale) SiO2 
 PCOD8230388
Probable space group: P B C M
;
_chemical_formula_sum "Si O2"
_cell_formula_units_Z 56
_cell_length_a 18.859559
_cell_length_b 18.078607
_cell_length_c 9.049496
_cell_angle_alpha 90.000000
_cell_angle_beta 90.000000
_cell_angle_gamma 90.000000
_cell_volume 3085.466885
_symmetry_space_group_name_H-M "P B C M"
_symmetry_group_IT_number 57
_symmetry_cell_setting 'orthorhombic'
loop_
_space_group_symop_operation_xyz
x,y,z
-x,-y,1/2+z
x,1/2-y,-z
-x,1/2+y,1/2-z
-x,-y,-z
x,y,1/2-z
-x,1/2+y,z
x,1/2-y,1/2+z
loop_
_atom_site_type_symbol
_atom_site_label
_atom_site_fract_x
_atom_site_fract_y
_atom_site_fract_z
Si Si1 0.770237 0.603105 0.079031
Si Si2 0.354998 0.324238 0.425065
Si Si3 0.927112 0.576184 0.419366
Si Si4 0.807655 0.324892 0.577968
Si Si5 0.569266 0.973093 0.080667
Si Si6 0.716539 0.035652 0.080983
Si Si7 0.066127 0.594293 0.577629
O O1 0.748798 0.610942 0.250000
O O2 0.853543 0.619789 0.055408
O O3 0.724702 0.660681 0.983119
O O4 0.756510 0.519198 0.028940
O O5 0.385208 0.250000 0.500000
O O6 0.352312 0.314875 0.250000
O O7 0.405241 0.392142 0.474507
O O8 0.952558 0.581828 0.250000
O O9 0.915472 0.490293 0.461301
O O10 0.986383 0.612592 0.523616
O O11 0.783125 0.250000 0.500000
O O12 0.820394 0.310659 0.750000
O O13 0.743641 0.382072 0.549807
O O14 0.880705 0.353182 0.509365
O O15 0.548517 0.967726 0.250000
O O16 0.632089 0.032164 0.052471
O O17 0.500000 0.000000 0.000000
O O18 0.732545 0.010761 0.250000
O O19 0.072408 0.611841 0.750000
#
# Coordination Sequence:
#
# PCOD8230388 Si02
#       7
#     8   8   8   8   8   8   8
#     4  10  18  31  54  81 108 138 176 222 267 318
#     4  10  21  37  56  82 114 146 181 219 267 323
#     4   9  18  31  49  76 105 135 175 223 270 322
#     4  11  22  36  54  74 104 143 182 229 280 325
#     4   9  19  36  58  85 113 141 177 217 260 313
#     4   9  19  35  54  77 106 139 178 222 264 316
#     4  10  19  32  50  74 103 136 179 226 271 323
#
# _framework density 18.149602999999999
#
# number of rings (size 3 to 8) (size 9 to 14) (size 15 to 20)
#    0.000    2.286    1.429    2.571    0.000    5.143 
#    0.000    1.429    0.000    6.857    0.000    0.000 
#    0.000    0.000    0.000    0.000    0.000    0.000 
#
# Total GULP energy -694447.943091 kJ/mol
# GULP energy per Si atom -12400.856127 kJ/mol
# Density = 1.810829 g / cm^3
# Si number density = 18.149603 Si / 1000 Ang^3
#
#
#
# Elastic Constant Matrix: (Units=GPa)
#
#
# Indices 1 2 3 4 5 6 
#
# 1 113.3211 53.5146 49.7042 0.0000 0.0000 0.0000
# 2 53.5146 102.8969 49.1427 0.0000 0.0000 0.0000
# 3 49.7042 49.1427 88.5169 0.0000 0.0000 0.0000
# 4 0.0000 0.0000 0.0000 31.5246 0.0000 0.0000
# 5 0.0000 0.0000 0.0000 0.0000 33.5153 0.0000
# 6 0.0000 0.0000 0.0000 0.0000 0.0000 19.7619
#
#
#
# Elastic Compliance Matrix: (Units=1/GPa)
#
#
# Indices 1 2 3 4 5 6 
#
# 1 0.013067 -0.004479 -0.004851 0.000000 0.000000 0.000000
# 2 -0.004479 0.014761 -0.005679 0.000000 0.000000 0.000000
# 3 -0.004851 -0.005679 0.017174 0.000000 0.000000 0.000000
# 4 0.000000 0.000000 0.000000 0.031721 0.000000 0.000000
# 5 0.000000 0.000000 0.000000 0.000000 0.029837 0.000000
# 6 0.000000 0.000000 0.000000 0.000000 0.000000 0.050602
#
#
# Mechanical properties :
#
#
# Convention : Reuss Voigt Hill
#
# Bulk Modulus (GPa) = 66.74272 67.71755 67.23013
# Shear Modulus (GPa) = 26.01771 27.11858 26.56815
#
# Velocity S-wave (km/s) = 3.79028 3.86964 3.83017
# Velocity P-wave (km/s) = 7.48388 7.57346 7.52880
#
# Compressibility (1/GPa) = 0.01498291
#
# Stress axis : x y z
#
# Youngs Moduli (GPa) = 76.52596 67.74794 58.22679
#
# Poissons Ratio (x) = 0.30347 0.28245
# Poissons Ratio (y) = 0.34279 0.33070
# Poissons Ratio (z) = 0.37121 0.38477
#
# Static dielectric constant tensor:
#      x y z
#    x 3.297830 0.000000 0.000000 
#    y 0.000000 3.261530 0.000000 
#    z 0.000000 0.000000 3.422660 
# 
# 
# High freq. dielectric constant tensor:
#      x y z
#    x 1.696770 0.000000 0.000000 
#    y 0.000000 1.683280 0.000000 
#    z 0.000000 0.000000 1.712750 
# 
# From -- ./inp_files/8359.got.cif
#   From: 2010.03.12/outbox.cif.g09.slc.cpg/sg57_5_cif.got.tgz:8359.got - 2010.04.16 15:48:40.
