data_PCOD8230902
_publ_section_title
;
Structure prediction by ZEFSAII (Michael W. Deem and Ramdas Pophale) SiO2 
 PCOD8230902
Probable space group: P B C M
;
_chemical_formula_sum "Si O2"
_cell_formula_units_Z 56
_cell_length_a 14.461211
_cell_length_b 26.520978
_cell_length_c 8.585333
_cell_angle_alpha 90.000000
_cell_angle_beta 90.000000
_cell_angle_gamma 90.000000
_cell_volume 3292.693778
_symmetry_space_group_name_H-M "P B C M"
_symmetry_group_IT_number 57
_symmetry_cell_setting 'orthorhombic'
loop_
_space_group_symop_operation_xyz
x,y,z
-x,-y,1/2+z
x,1/2-y,-z
-x,1/2+y,1/2-z
-x,-y,-z
x,y,1/2-z
-x,1/2+y,z
x,1/2-y,1/2+z
loop_
_atom_site_type_symbol
_atom_site_label
_atom_site_fract_x
_atom_site_fract_y
_atom_site_fract_z
Si Si1 0.066493 0.569312 0.066701
Si Si2 0.618404 0.458176 0.569052
Si Si3 0.316827 0.440183 0.568361
Si Si4 0.763092 0.113755 0.932969
Si Si5 0.474129 0.113443 0.932512
Si Si6 0.877833 0.543761 0.567274
Si Si7 0.618152 0.194890 0.568219
O O1 0.058899 0.577336 0.250000
O O2 0.108684 0.514778 0.022862
O O3 0.130738 0.612762 0.990229
O O4 0.965757 0.575482 0.991131
O O5 0.594059 0.451885 0.750000
O O6 0.633605 0.516253 0.529882
O O7 0.713574 0.430110 0.529652
O O8 0.535352 0.436229 0.465996
O O9 0.322557 0.451979 0.750000
O O10 0.376322 0.390156 0.524076
O O11 0.210756 0.433371 0.519534
O O12 0.755095 0.102052 0.750000
O O13 0.715091 0.167263 0.973329
O O14 0.454776 0.117588 0.750000
O O15 0.531695 0.161907 0.995526
O O16 0.864644 0.550897 0.750000
O O17 0.617599 0.250000 0.500000
O O18 0.606696 0.199814 0.750000
#
# Coordination Sequence:
#
# PCOD8230902 Si02
#       7
#     8   8   8   8   8   8   8
#     4  10  19  31  48  71  98 133 172 206 246 288
#     4  11  20  31  46  68  97 132 169 205 244 289
#     4  12  22  32  47  69  98 134 171 208 244 288
#     4  10  19  32  50  73 101 133 167 205 250 298
#     4  10  21  36  50  69  97 129 165 204 249 298
#     4  10  20  32  47  68  99 136 172 208 244 283
#     4   9  20  36  55  77 100 127 160 204 254 302
#
# _framework density 17.007351
#
# number of rings (size 3 to 8) (size 9 to 14) (size 15 to 20)
#    0.000    1.714    1.429    5.571    0.000    4.571 
#    0.000    0.000    0.000    0.000    0.000    1.000 
#    0.000    0.000    0.000    0.000    0.000    0.000 
#
# Total GULP energy -694432.178413 kJ/mol
# GULP energy per Si atom -12400.574615 kJ/mol
# Density = 1.696864 g / cm^3
# Si number density = 17.007351 Si / 1000 Ang^3
#
#
#
# Elastic Constant Matrix: (Units=GPa)
#
#
# Indices 1 2 3 4 5 6 
#
# 1 129.2981 49.4182 27.4006 0.0000 0.0000 0.0000
# 2 49.4182 73.3317 24.3258 0.0000 0.0000 0.0000
# 3 27.4006 24.3258 64.5560 0.0000 0.0000 0.0000
# 4 0.0000 0.0000 0.0000 22.8736 0.0000 0.0000
# 5 0.0000 0.0000 0.0000 0.0000 32.5508 0.0000
# 6 0.0000 0.0000 0.0000 0.0000 0.0000 14.3288
#
#
#
# Elastic Compliance Matrix: (Units=1/GPa)
#
#
# Indices 1 2 3 4 5 6 
#
# 1 0.010655 -0.006492 -0.002076 0.000000 0.000000 0.000000
# 2 -0.006492 0.019540 -0.004608 0.000000 0.000000 0.000000
# 3 -0.002076 -0.004608 0.018108 0.000000 0.000000 0.000000
# 4 0.000000 0.000000 0.000000 0.043719 0.000000 0.000000
# 5 0.000000 0.000000 0.000000 0.000000 0.030721 0.000000
# 6 0.000000 0.000000 0.000000 0.000000 0.000000 0.069789
#
#
# Mechanical properties :
#
#
# Convention : Reuss Voigt Hill
#
# Bulk Modulus (GPa) = 45.55461 52.16389 48.85925
# Shear Modulus (GPa) = 22.10425 25.02006 23.56216
#
# Velocity S-wave (km/s) = 3.60903 3.83970 3.72615
# Velocity P-wave (km/s) = 6.64907 7.09899 6.87771
#
# Compressibility (1/GPa) = 0.02195167
#
# Stress axis : x y z
#
# Youngs Moduli (GPa) = 93.85022 51.17729 55.22439
#
# Poissons Ratio (x) = 0.33223 0.11467
# Poissons Ratio (y) = 0.60926 0.25445
# Poissons Ratio (z) = 0.19487 0.23580
#
# Static dielectric constant tensor:
#      x y z
#    x 3.408140 0.000000 0.000000 
#    y 0.000000 2.359290 0.000000 
#    z 0.000000 0.000000 3.196510 
# 
# 
# High freq. dielectric constant tensor:
#      x y z
#    x 1.664490 0.000000 0.000000 
#    y 0.000000 1.601170 0.000000 
#    z 0.000000 0.000000 1.670090 
# 
# From -- ./inp_files/5903.got.cif
#   From: 2010.03.12/outbox.cif.g09.slc.cpg/sg57_3_cif.got.tgz:5903.got - 2010.04.16 15:48:40.
