data_PCOD8230947
_publ_section_title
;
Structure prediction by ZEFSAII (Michael W. Deem and Ramdas Pophale) SiO2 
 PCOD8230947
Probable space group: P B C M
;
_chemical_formula_sum "Si O2"
_cell_formula_units_Z 64
_cell_length_a 23.075312
_cell_length_b 17.584351
_cell_length_c 8.960966
_cell_angle_alpha 90.000000
_cell_angle_beta 90.000000
_cell_angle_gamma 90.000000
_cell_volume 3636.040864
_symmetry_space_group_name_H-M "P B C M"
_symmetry_group_IT_number 57
_symmetry_cell_setting 'orthorhombic'
loop_
_space_group_symop_operation_xyz
x,y,z
-x,-y,1/2+z
x,1/2-y,-z
-x,1/2+y,1/2-z
-x,-y,-z
x,y,1/2-z
-x,1/2+y,z
x,1/2-y,1/2+z
loop_
_atom_site_type_symbol
_atom_site_label
_atom_site_fract_x
_atom_site_fract_y
_atom_site_fract_z
Si Si1 0.459944 0.438429 0.075368
Si Si2 0.242609 0.014939 0.074950
Si Si3 0.916236 0.618323 0.573070
Si Si4 0.632612 0.025778 0.572671
Si Si5 0.441921 0.830072 0.423213
Si Si6 0.041961 0.826875 0.424283
Si Si7 0.196973 0.174709 0.427464
Si Si8 0.118430 0.532312 0.574616
O O1 0.454628 0.454838 0.250000
O O2 0.491235 0.356772 0.047292
O O3 0.500000 0.500000 0.000000
O O4 0.397522 0.450027 0.997952
O O5 0.249525 0.019124 0.250000
O O6 0.233701 0.101559 0.017409
O O7 0.301196 0.976505 0.011858
O O8 0.186662 0.964553 0.031247
O O9 0.906952 0.624325 0.750000
O O10 0.868448 0.667852 0.487719
O O11 0.913514 0.531179 0.522220
O O12 0.978454 0.648988 0.520571
O O13 0.627482 0.018867 0.750000
O O14 0.602596 0.104498 0.518027
O O15 0.429243 0.750000 0.500000
O O16 0.430699 0.817414 0.250000
O O17 0.062542 0.750000 0.500000
O O18 0.041301 0.813936 0.250000
O O19 0.089761 0.888658 0.470281
O O20 0.225513 0.250000 0.500000
O O21 0.195495 0.181805 0.250000
O O22 0.110849 0.512865 0.750000
#
# Coordination Sequence:
#
# PCOD8230947 Si02
#       8
#     8   8   8   8   8   8   8   8
#     4   9  17  30  48  72  97 124 155 190 232 279
#     4   8  16  32  53  70  91 127 166 197 235 285
#     4  10  19  31  49  73  96 122 157 200 249 303
#     4   9  17  32  52  73  95 127 166 199 234 283
#     4   9  18  30  47  71  99 126 156 192 233 275
#     4  10  21  33  47  69  97 127 160 199 249 300
#     4  10  19  32  50  72  97 127 160 200 248 297
#     4   9  18  34  52  70  93 126 164 201 242 294
#
# _framework density 17.601562999999999
#
# number of rings (size 3 to 8) (size 9 to 14) (size 15 to 20)
#    0.000    2.750    0.000    3.375    0.000    5.000 
#    0.000    4.375    0.000    3.000    0.000    0.000 
#    0.000    0.000    0.000    0.000    0.000    0.000 
#
# Total GULP energy -793192.745210 kJ/mol
# GULP energy per Si atom -12393.636644 kJ/mol
# Density = 1.756150 g / cm^3
# Si number density = 17.601563 Si / 1000 Ang^3
#
#
#
# Elastic Constant Matrix: (Units=GPa)
#
#
# Indices 1 2 3 4 5 6 
#
# 1 91.8366 58.4039 19.4209 0.0000 0.0000 0.0000
# 2 58.4039 115.2532 30.3468 0.0000 0.0000 0.0000
# 3 19.4209 30.3468 43.4558 0.0000 0.0000 0.0000
# 4 0.0000 0.0000 0.0000 32.1796 0.0000 0.0000
# 5 0.0000 0.0000 0.0000 0.0000 19.2870 0.0000
# 6 0.0000 0.0000 0.0000 0.0000 0.0000 19.4296
#
#
#
# Elastic Compliance Matrix: (Units=1/GPa)
#
#
# Indices 1 2 3 4 5 6 
#
# 1 0.016186 -0.007717 -0.001845 0.000000 0.000000 0.000000
# 2 -0.007717 0.014310 -0.006545 0.000000 0.000000 0.000000
# 3 -0.001845 -0.006545 0.028407 0.000000 0.000000 0.000000
# 4 0.000000 0.000000 0.000000 0.031076 0.000000 0.000000
# 5 0.000000 0.000000 0.000000 0.000000 0.051848 0.000000
# 6 0.000000 0.000000 0.000000 0.000000 0.000000 0.051468
#
#
# Mechanical properties :
#
#
# Convention : Reuss Voigt Hill
#
# Bulk Modulus (GPa) = 37.46619 51.87653 44.67136
# Shear Modulus (GPa) = 21.33058 23.67083 22.50070
#
# Velocity S-wave (km/s) = 3.48495 3.67115 3.57926
# Velocity P-wave (km/s) = 6.12577 6.89249 6.52041
#
# Compressibility (1/GPa) = 0.02669073
#
# Stress axis : x y z
#
# Youngs Moduli (GPa) = 61.77991 69.88050 35.20268
#
# Poissons Ratio (x) = 0.53924 0.06495
# Poissons Ratio (y) = 0.47673 0.23039
# Poissons Ratio (z) = 0.11399 0.45735
#
# Static dielectric constant tensor:
#      x y z
#    x 3.608240 0.000000 0.000000 
#    y 0.000000 3.343820 0.000000 
#    z 0.000000 0.000000 3.223880 
# 
# 
# High freq. dielectric constant tensor:
#      x y z
#    x 1.673320 0.000000 0.000000 
#    y 0.000000 1.672270 0.000000 
#    z 0.000000 0.000000 1.670700 
# 
# From -- ./inp_files/9534.got.cif
#   From: 2010.03.12/outbox.cif.g09.slc.cpg/sg57_5_cif.got.tgz:9534.got - 2010.04.16 15:48:40.
