data_PCOD8230305
_publ_section_title
;
Structure prediction by ZEFSAII (Michael W. Deem and Ramdas Pophale) SiO2 
 PCOD8230305
Probable space group: P B C M
;
_chemical_formula_sum "Si O2"
_cell_formula_units_Z 48
_cell_length_a 8.929390
_cell_length_b 17.805519
_cell_length_c 17.591387
_cell_angle_alpha 90.000000
_cell_angle_beta 90.000000
_cell_angle_gamma 90.000000
_cell_volume 2796.897248
_symmetry_space_group_name_H-M "P B C M"
_symmetry_group_IT_number 57
_symmetry_cell_setting 'orthorhombic'
loop_
_space_group_symop_operation_xyz
x,y,z
-x,-y,1/2+z
x,1/2-y,-z
-x,1/2+y,1/2-z
-x,-y,-z
x,y,1/2-z
-x,1/2+y,z
x,1/2-y,1/2+z
loop_
_atom_site_type_symbol
_atom_site_label
_atom_site_fract_x
_atom_site_fract_y
_atom_site_fract_z
Si Si1 0.955626 0.954364 0.925929
Si Si2 0.552380 0.943973 0.066334
Si Si3 0.460751 0.361773 0.667065
Si Si4 0.299747 0.521925 0.834736
Si Si5 0.253433 0.947204 0.839075
Si Si6 0.276547 0.329029 0.969248
O O1 0.859911 0.011719 0.874568
O O2 0.864583 0.880270 0.948762
O O3 0.095948 0.925976 0.876996
O O4 0.000000 0.000000 0.000000
O O5 0.406270 0.922237 0.116749
O O6 0.681582 0.979950 0.118382
O O7 0.618090 0.868308 0.031369
O O8 0.500000 0.000000 0.000000
O O9 0.439811 0.323878 0.750000
O O10 0.385931 0.443415 0.666715
O O11 0.636697 0.375434 0.649761
O O12 0.379627 0.310962 0.604444
O O13 0.275763 0.554184 0.750000
O O14 0.233449 0.966056 0.750000
O O15 0.215678 0.250000 0.000000
#
# Coordination Sequence:
#
# PCOD8230305 Si02
#       6
#     8   8   8   8   8   8
#     4  11  19  32  54  79 111 143 182 222 261 318
#     4  11  16  33  55  80 103 132 181 228 263 308
#     4   8  16  32  53  76 103 138 180 220 261 318
#     4   9  17  29  51  79 105 133 176 224 265 308
#     4  10  18  30  55  84 105 137 186 231 263 306
#     4  11  22  35  54  82 110 141 179 221 280 325
#
# _framework density 17.161874999999998
#
# number of rings (size 3 to 8) (size 9 to 14) (size 15 to 20)
#    0.000    2.000    6.667    2.000    0.000    0.667 
#    0.000    2.500    0.000    0.000    0.000    0.000 
#    0.000    0.000    0.000    0.000    0.000    0.000 
#
# Total GULP energy -595021.644414 kJ/mol
# GULP energy per Si atom -12396.284259 kJ/mol
# Density = 1.712281 g / cm^3
# Si number density = 17.161875 Si / 1000 Ang^3
#
#
#
# Elastic Constant Matrix: (Units=GPa)
#
#
# Indices 1 2 3 4 5 6 
#
# 1 125.8059 27.7563 70.6732 0.0000 0.0000 0.0000
# 2 27.7563 54.5737 39.1111 0.0000 0.0000 0.0000
# 3 70.6732 39.1111 148.0069 0.0000 0.0000 0.0000
# 4 0.0000 0.0000 0.0000 16.0524 0.0000 0.0000
# 5 0.0000 0.0000 0.0000 0.0000 38.2361 0.0000
# 6 0.0000 0.0000 0.0000 0.0000 0.0000 14.1707
#
#
#
# Elastic Compliance Matrix: (Units=1/GPa)
#
#
# Indices 1 2 3 4 5 6 
#
# 1 0.011087 -0.002276 -0.004693 0.000000 0.000000 0.000000
# 2 -0.002276 0.023072 -0.005010 0.000000 0.000000 0.000000
# 3 -0.004693 -0.005010 0.010321 0.000000 0.000000 0.000000
# 4 0.000000 0.000000 0.000000 0.062296 0.000000 0.000000
# 5 0.000000 0.000000 0.000000 0.000000 0.026153 0.000000
# 6 0.000000 0.000000 0.000000 0.000000 0.000000 0.070568
#
#
# Mechanical properties :
#
#
# Convention : Reuss Voigt Hill
#
# Bulk Modulus (GPa) = 48.72607 67.05199 57.88903
# Shear Modulus (GPa) = 21.34057 26.41489 23.87773
#
# Velocity S-wave (km/s) = 3.53014 3.92747 3.73409
# Velocity P-wave (km/s) = 6.71338 7.72799 7.23848
#
# Compressibility (1/GPa) = 0.02052289
#
# Stress axis : x y z
#
# Youngs Moduli (GPa) = 90.19548 43.34273 96.88879
#
# Poissons Ratio (x) = 0.09864 0.45467
# Poissons Ratio (y) = 0.20527 0.48542
# Poissons Ratio (z) = 0.42326 0.21715
#
# Static dielectric constant tensor:
#      x y z
#    x 3.444180 0.000000 0.000000 
#    y 0.000000 2.634020 0.000000 
#    z 0.000000 0.000000 3.813880 
# 
# 
# High freq. dielectric constant tensor:
#      x y z
#    x 1.671970 0.000000 0.000000 
#    y 0.000000 1.591190 0.000000 
#    z 0.000000 0.000000 1.689160 
# 
# From -- ./inp_files/21290.got.cif
#   From: 2010.03.12/outbox.cif.g09.slc.cpg/sg57_11_cif.got.tgz:21290.got - 2010.04.16 15:48:40.
