data_PCOD8230298
_publ_section_title
;
Structure prediction by ZEFSAII (Michael W. Deem and Ramdas Pophale) SiO2 
 PCOD8230298
Probable space group: P B C M
;
_chemical_formula_sum "Si O2"
_cell_formula_units_Z 64
_cell_length_a 9.564378
_cell_length_b 19.392360
_cell_length_c 18.798003
_cell_angle_alpha 90.000000
_cell_angle_beta 90.000000
_cell_angle_gamma 90.000000
_cell_volume 3486.575798
_symmetry_space_group_name_H-M "P B C M"
_symmetry_group_IT_number 57
_symmetry_cell_setting 'orthorhombic'
loop_
_space_group_symop_operation_xyz
x,y,z
-x,-y,1/2+z
x,1/2-y,-z
-x,1/2+y,1/2-z
-x,-y,-z
x,y,1/2-z
-x,1/2+y,z
x,1/2-y,1/2+z
loop_
_atom_site_type_symbol
_atom_site_label
_atom_site_fract_x
_atom_site_fract_y
_atom_site_fract_z
Si Si1 0.340147 0.326309 0.528659
Si Si2 0.842908 0.427111 0.479349
Si Si3 0.246182 0.503651 0.326372
Si Si4 0.834165 0.337026 0.828835
Si Si5 0.926054 0.891422 0.906163
Si Si6 0.648578 0.314395 0.950147
Si Si7 0.637999 0.532713 0.967058
Si Si8 0.062661 0.968104 0.167747
O O1 0.305946 0.250000 0.500000
O O2 0.216317 0.351408 0.578673
O O3 0.487555 0.328576 0.570221
O O4 0.357916 0.384163 0.467401
O O5 0.722205 0.376709 0.507713
O O6 0.778518 0.503833 0.493455
O O7 0.871365 0.418315 0.394051
O O8 0.986027 0.417119 0.524169
O O9 0.312883 0.485901 0.250000
O O10 0.207956 0.583317 0.330549
O O11 0.362475 0.487085 0.384335
O O12 0.104636 0.459772 0.337511
O O13 0.835139 0.305287 0.750000
O O14 0.723704 0.295302 0.876246
O O15 0.986491 0.332637 0.864342
O O16 0.893436 0.954137 0.852619
O O17 0.659851 0.250000 0.000000
O O18 0.500000 0.500000 0.000000
O O19 0.111738 0.951754 0.250000
#
# Coordination Sequence:
#
# PCOD8230298 Si02
#       8
#     8   8   8   8   8   8   8   8
#     4  11  23  35  55  85 118 149 187 234 287 343
#     4  11  19  34  58  84 106 143 194 242 275 334
#     4   9  17  31  53  83 113 141 178 233 290 337
#     4   9  17  34  58  84 110 141 186 236 283 335
#     4  10  18  32  57  81 115 144 185 231 286 339
#     4  10  21  38  56  78 111 148 190 231 283 339
#     4  12  19  34  61  85 109 148 196 236 282 339
#     4  10  18  30  51  83 113 141 178 237 290 329
#
# _framework density 18.356119
#
# number of rings (size 3 to 8) (size 9 to 14) (size 15 to 20)
#    0.000    1.750    6.250    2.250    0.000    2.000 
#    0.000    2.500    0.000    6.000    0.000    0.000 
#    0.000    0.000    0.000    0.000    0.000    0.000 
#
# Total GULP energy -792987.612963 kJ/mol
# GULP energy per Si atom -12390.431453 kJ/mol
# Density = 1.831434 g / cm^3
# Si number density = 18.356119 Si / 1000 Ang^3
#
#
#
# Elastic Constant Matrix: (Units=GPa)
#
#
# Indices 1 2 3 4 5 6 
#
# 1 107.3312 32.1646 72.2998 0.0000 0.0000 0.0000
# 2 32.1646 61.7269 21.0234 0.0000 0.0000 0.0000
# 3 72.2998 21.0234 163.9078 0.0000 0.0000 0.0000
# 4 0.0000 0.0000 0.0000 12.9361 0.0000 0.0000
# 5 0.0000 0.0000 0.0000 0.0000 23.6034 0.0000
# 6 0.0000 0.0000 0.0000 0.0000 0.0000 18.8935
#
#
#
# Elastic Compliance Matrix: (Units=1/GPa)
#
#
# Indices 1 2 3 4 5 6 
#
# 1 0.015023 -0.005826 -0.005880 0.000000 0.000000 0.000000
# 2 -0.005826 0.019200 0.000107 0.000000 0.000000 0.000000
# 3 -0.005880 0.000107 0.008681 0.000000 0.000000 0.000000
# 4 0.000000 0.000000 0.000000 0.077303 0.000000 0.000000
# 5 0.000000 0.000000 0.000000 0.000000 0.042367 0.000000
# 6 0.000000 0.000000 0.000000 0.000000 0.000000 0.052928
#
#
# Mechanical properties :
#
#
# Convention : Reuss Voigt Hill
#
# Bulk Modulus (GPa) = 50.74280 64.88237 57.81259
# Shear Modulus (GPa) = 20.38593 24.91849 22.65221
#
# Velocity S-wave (km/s) = 3.33615 3.68843 3.51670
# Velocity P-wave (km/s) = 6.52253 7.31864 6.93203
#
# Compressibility (1/GPa) = 0.01970723
#
# Stress axis : x y z
#
# Youngs Moduli (GPa) = 66.56289 52.08431 115.19779
#
# Poissons Ratio (x) = 0.30344 0.67731
# Poissons Ratio (y) = 0.38779 -0.01235
# Poissons Ratio (z) = 0.39136 -0.00558
#
# Static dielectric constant tensor:
#      x y z
#    x 3.581600 0.000000 0.000000 
#    y 0.000000 3.228250 0.000000 
#    z 0.000000 0.000000 3.773390 
# 
# 
# High freq. dielectric constant tensor:
#      x y z
#    x 1.712210 0.000000 0.000000 
#    y 0.000000 1.681450 0.000000 
#    z 0.000000 0.000000 1.706780 
# 
# From -- ./inp_files/24637.got.cif
#   From: 2010.03.12/outbox.cif.g09.slc.cpg/sg57_13_cif.got.tgz:24637.got - 2010.04.16 15:48:40.
