data_PCOD8230748
_publ_section_title
;
Structure prediction by ZEFSAII (Michael W. Deem and Ramdas Pophale) SiO2 
 PCOD8230748
Probable space group: P B C M
;
_chemical_formula_sum "Si O2"
_cell_formula_units_Z 56
_cell_length_a 16.139898
_cell_length_b 20.835789
_cell_length_c 8.949249
_cell_angle_alpha 90.000000
_cell_angle_beta 90.000000
_cell_angle_gamma 90.000000
_cell_volume 3009.520656
_symmetry_space_group_name_H-M "P B C M"
_symmetry_group_IT_number 57
_symmetry_cell_setting 'orthorhombic'
loop_
_space_group_symop_operation_xyz
x,y,z
-x,-y,1/2+z
x,1/2-y,-z
-x,1/2+y,1/2-z
-x,-y,-z
x,y,1/2-z
-x,1/2+y,z
x,1/2-y,1/2+z
loop_
_atom_site_type_symbol
_atom_site_label
_atom_site_fract_x
_atom_site_fract_y
_atom_site_fract_z
Si Si1 0.557344 0.414065 0.417440
Si Si2 0.396183 0.436857 0.581577
Si Si3 0.761372 0.538142 0.583696
Si Si4 0.065708 0.050089 0.429579
Si Si5 0.169783 0.812035 0.083291
Si Si6 0.973909 0.684735 0.921040
Si Si7 0.286908 0.894649 0.913110
O O1 0.549903 0.387763 0.250000
O O2 0.470290 0.400203 0.497964
O O3 0.582365 0.488286 0.417726
O O4 0.629265 0.374478 0.501545
O O5 0.389451 0.410770 0.750000
O O6 0.308975 0.419850 0.499938
O O7 0.782148 0.566186 0.750000
O O8 0.842764 0.530885 0.482243
O O9 0.718500 0.470190 0.604816
O O10 0.058481 0.046757 0.250000
O O11 0.053019 0.122764 0.485188
O O12 0.000000 0.000000 0.500000
O O13 0.204015 0.810655 0.250000
O O14 0.071980 0.814790 0.078649
O O15 0.204982 0.750000 0.000000
O O16 0.205145 0.874144 0.001945
O O17 0.940611 0.681507 0.750000
O O18 0.940305 0.750000 0.000000
O O19 0.288272 0.862007 0.750000
#
# Coordination Sequence:
#
# PCOD8230748 Si02
#       7
#     8   8   8   8   8   8   8
#     4   9  16  26  42  64  92 126 161 196 237 288
#     4   9  16  27  43  65  94 126 161 199 240 290
#     4  10  20  33  49  71 100 133 167 206 254 306
#     4  12  24  37  54  78 108 141 177 220 270 320
#     4  10  20  33  50  70  94 125 162 203 246 295
#     4  10  21  38  58  79 104 137 177 219 263 314
#     4  10  19  30  46  69  98 130 164 202 247 298
#
# _framework density 18.607616
#
# number of rings (size 3 to 8) (size 9 to 14) (size 15 to 20)
#    0.000    2.000    0.000    4.714    0.000    9.143 
#    0.000    0.000    0.000    0.000    0.000    1.000 
#    0.000    0.000    0.000    0.000    0.000    0.000 
#
# Total GULP energy -694174.151221 kJ/mol
# GULP energy per Si atom -12395.966986 kJ/mol
# Density = 1.856526 g / cm^3
# Si number density = 18.607616 Si / 1000 Ang^3
#
#
#
# Elastic Constant Matrix: (Units=GPa)
#
#
# Indices 1 2 3 4 5 6 
#
# 1 82.1295 23.2434 59.4420 0.0000 0.0000 0.0000
# 2 23.2434 43.2486 28.1603 0.0000 0.0000 0.0000
# 3 59.4420 28.1603 189.8096 0.0000 0.0000 0.0000
# 4 0.0000 0.0000 0.0000 24.7993 0.0000 0.0000
# 5 0.0000 0.0000 0.0000 0.0000 26.2934 0.0000
# 6 0.0000 0.0000 0.0000 0.0000 0.0000 11.4419
#
#
#
# Elastic Compliance Matrix: (Units=1/GPa)
#
#
# Indices 1 2 3 4 5 6 
#
# 1 0.017185 -0.006345 -0.004441 0.000000 0.000000 0.000000
# 2 -0.006345 0.027937 -0.002158 0.000000 0.000000 0.000000
# 3 -0.004441 -0.002158 0.006979 0.000000 0.000000 0.000000
# 4 0.000000 0.000000 0.000000 0.040324 0.000000 0.000000
# 5 0.000000 0.000000 0.000000 0.000000 0.038032 0.000000
# 6 0.000000 0.000000 0.000000 0.000000 0.000000 0.087398
#
#
# Mechanical properties :
#
#
# Convention : Reuss Voigt Hill
#
# Bulk Modulus (GPa) = 38.14540 59.65323 48.89932
# Shear Modulus (GPa) = 19.80350 26.12971 22.96660
#
# Velocity S-wave (km/s) = 3.26585 3.75140 3.51701
# Velocity P-wave (km/s) = 5.89622 7.13387 6.54437
#
# Compressibility (1/GPa) = 0.02621548
#
# Stress axis : x y z
#
# Youngs Moduli (GPa) = 58.18885 35.79476 143.28250
#
# Poissons Ratio (x) = 0.22711 0.63626
# Poissons Ratio (y) = 0.36919 0.30918
# Poissons Ratio (z) = 0.25839 0.07724
#
# Static dielectric constant tensor:
#      x y z
#    x 3.413870 0.000000 0.000000 
#    y 0.000000 3.121050 0.000000 
#    z 0.000000 0.000000 3.895900 
# 
# 
# High freq. dielectric constant tensor:
#      x y z
#    x 1.720120 0.000000 0.000000 
#    y 0.000000 1.666290 0.000000 
#    z 0.000000 0.000000 1.749240 
# 
# From -- ./inp_files/5213.got.cif
#   From: 2010.03.12/outbox.cif.g09.slc.cpg/sg57_3_cif.got.tgz:5213.got - 2010.04.16 15:48:40.
