data_PCOD8230906
_publ_section_title
;
Structure prediction by ZEFSAII (Michael W. Deem and Ramdas Pophale) SiO2 
 PCOD8230906
Probable space group: P B C M
;
_chemical_formula_sum "Si O2"
_cell_formula_units_Z 40
_cell_length_a 12.552462
_cell_length_b 20.748243
_cell_length_c 9.125345
_cell_angle_alpha 90.000000
_cell_angle_beta 90.000000
_cell_angle_gamma 90.000000
_cell_volume 2376.618830
_symmetry_space_group_name_H-M "P B C M"
_symmetry_group_IT_number 57
_symmetry_cell_setting 'orthorhombic'
loop_
_space_group_symop_operation_xyz
x,y,z
-x,-y,1/2+z
x,1/2-y,-z
-x,1/2+y,1/2-z
-x,-y,-z
x,y,1/2-z
-x,1/2+y,z
x,1/2-y,1/2+z
loop_
_atom_site_type_symbol
_atom_site_label
_atom_site_fract_x
_atom_site_fract_y
_atom_site_fract_z
Si Si1 0.423003 0.909138 0.080759
Si Si2 0.856941 0.543658 0.079729
Si Si3 0.916802 0.083310 0.080014
Si Si4 0.741701 0.318150 0.922826
Si Si5 0.375277 0.057532 0.417783
O O1 0.419205 0.888162 0.250000
O O2 0.380512 0.980985 0.056501
O O3 0.353688 0.860909 0.984811
O O4 0.544806 0.904675 0.024143
O O5 0.858812 0.526574 0.250000
O O6 0.745605 0.579307 0.041568
O O7 0.957816 0.588706 0.035683
O O8 0.861171 0.475539 0.000399
O O9 0.904662 0.067976 0.250000
O O10 0.855511 0.148903 0.039449
O O11 0.725205 0.309625 0.750000
O O12 0.741009 0.250000 0.000000
O O13 0.404327 0.074305 0.250000
#
# Coordination Sequence:
#
# PCOD8230906 Si02
#       5
#     8   8   8   8   8
#     4  10  19  31  48  72 100 130 167 205 246 294
#     4   9  16  29  49  73 101 129 158 197 249 299
#     4   9  18  30  47  72  99 127 162 203 246 293
#     4  11  22  35  51  71  99 133 169 205 244 290
#     4   9  17  29  48  73 102 132 159 199 250 299
#
# _framework density 16.830634
#
# number of rings (size 3 to 8) (size 9 to 14) (size 15 to 20)
#    0.000    2.400    2.000    1.200    0.000    2.400 
#    0.000    0.000    0.000    1.200    0.000    2.800 
#    0.000    0.000    0.000    0.000    0.000    0.000 
#
# Total GULP energy -495862.778687 kJ/mol
# GULP energy per Si atom -12396.569467 kJ/mol
# Density = 1.679233 g / cm^3
# Si number density = 16.830634 Si / 1000 Ang^3
#
#
#
# Elastic Constant Matrix: (Units=GPa)
#
#
# Indices 1 2 3 4 5 6 
#
# 1 138.6262 48.1809 53.3819 0.0000 0.0000 0.0000
# 2 48.1809 65.4749 43.4780 0.0000 0.0000 0.0000
# 3 53.3819 43.4780 73.6080 0.0000 0.0000 0.0000
# 4 0.0000 0.0000 0.0000 24.4025 0.0000 0.0000
# 5 0.0000 0.0000 0.0000 0.0000 24.8061 0.0000
# 6 0.0000 0.0000 0.0000 0.0000 0.0000 17.0432
#
#
#
# Elastic Compliance Matrix: (Units=1/GPa)
#
#
# Indices 1 2 3 4 5 6 
#
# 1 0.010759 -0.004502 -0.005144 0.000000 0.000000 0.000000
# 2 -0.004502 0.027013 -0.012691 0.000000 0.000000 0.000000
# 3 -0.005144 -0.012691 0.024812 0.000000 0.000000 0.000000
# 4 0.000000 0.000000 0.000000 0.040979 0.000000 0.000000
# 5 0.000000 0.000000 0.000000 0.000000 0.040313 0.000000
# 6 0.000000 0.000000 0.000000 0.000000 0.000000 0.058674
#
#
# Mechanical properties :
#
#
# Convention : Reuss Voigt Hill
#
# Bulk Modulus (GPa) = 55.83078 63.08786 59.45932
# Shear Modulus (GPa) = 19.74776 22.09493 20.92134
#
# Velocity S-wave (km/s) = 3.42910 3.62716 3.52952
# Velocity P-wave (km/s) = 6.99445 7.42341 7.21212
#
# Compressibility (1/GPa) = 0.01791127
#
# Stress axis : x y z
#
# Youngs Moduli (GPa) = 92.94625 37.01918 40.30309
#
# Poissons Ratio (x) = 0.16664 0.20730
# Poissons Ratio (y) = 0.41840 0.51149
# Poissons Ratio (z) = 0.47808 0.46982
#
# Static dielectric constant tensor:
#      x y z
#    x 3.612310 0.000000 0.000000 
#    y 0.000000 2.814980 0.000000 
#    z 0.000000 0.000000 3.214890 
# 
# 
# High freq. dielectric constant tensor:
#      x y z
#    x 1.668000 0.000000 0.000000 
#    y 0.000000 1.598460 0.000000 
#    z 0.000000 0.000000 1.656830 
# 
# From -- ./inp_files/2880.got.cif
#   From: 2010.03.12/outbox.cif.g09.slc.cpg/sg57_2_cif.got.tgz:2880.got - 2010.04.16 15:48:40.
