data_PCOD8230228
_publ_section_title
;
Structure prediction by ZEFSAII (Michael W. Deem and Ramdas Pophale) SiO2 
 PCOD8230228
Probable space group: P B C M
;
_chemical_formula_sum "Si O2"
_cell_formula_units_Z 60
_cell_length_a 14.336717
_cell_length_b 9.255430
_cell_length_c 26.655244
_cell_angle_alpha 90.000000
_cell_angle_beta 90.000000
_cell_angle_gamma 90.000000
_cell_volume 3536.950448
_symmetry_space_group_name_H-M "P B C M"
_symmetry_group_IT_number 57
_symmetry_cell_setting 'orthorhombic'
loop_
_space_group_symop_operation_xyz
x,y,z
-x,-y,1/2+z
x,1/2-y,-z
-x,1/2+y,1/2-z
-x,-y,-z
x,y,1/2-z
-x,1/2+y,z
x,1/2-y,1/2+z
loop_
_atom_site_type_symbol
_atom_site_label
_atom_site_fract_x
_atom_site_fract_y
_atom_site_fract_z
Si Si1 0.057437 0.999314 0.566340
Si Si2 0.805834 0.517867 0.840999
Si Si3 0.445987 0.772219 0.692832
Si Si4 0.389495 0.088066 0.691680
Si Si5 0.242009 0.705227 0.808842
Si Si6 0.051365 0.237570 0.805303
Si Si7 0.087879 0.963573 0.145239
Si Si8 0.999155 0.250000 0.500000
O O1 0.142673 0.004168 0.605429
O O2 0.951591 0.995337 0.590275
O O3 0.065151 0.143234 0.532408
O O4 0.067093 0.851736 0.534434
O O5 0.700349 0.578935 0.844692
O O6 0.804914 0.363266 0.813685
O O7 0.858672 0.635183 0.807374
O O8 0.449202 0.720570 0.750000
O O9 0.449738 0.942929 0.687522
O O10 0.540919 0.708902 0.668605
O O11 0.348446 0.710323 0.671252
O O12 0.358432 0.113357 0.750000
O O13 0.234139 0.659594 0.750000
O O14 0.194094 0.589392 0.846807
O O15 0.009655 0.237579 0.750000
O O16 0.074010 0.401400 0.818698
O O17 0.971887 0.177231 0.840907
#
# Coordination Sequence:
#
# PCOD8230228 Si02
#       8
#     8   8   8   8   8   8   8   4
#     4  10  20  34  50  71  88 117 146 194 237 291
#     4  10  19  31  48  68  95 119 159 197 233 269
#     4   8  16  27  42  62  90 128 168 190 216 249
#     4   9  16  29  45  65  95 131 158 190 220 255
#     4  10  18  30  45  66  98 137 164 191 219 256
#     4  11  20  29  41  63  93 132 161 183 217 265
#     4  11  21  31  45  65  95 121 160 196 226 262
#     4  10  20  36  54  64  90 114 146 184 252 300
#
# _framework density 16.963764999999999
#
# number of rings (size 3 to 8) (size 9 to 14) (size 15 to 20)
#    0.000    2.133    0.000    7.200    0.000    1.067 
#    0.000    2.667    0.000    0.000    0.000    0.000 
#    0.000   36.267    0.000    0.000    0.000    0.000 
#
# Total GULP energy -743399.082054 kJ/mol
# GULP energy per Si atom -12389.984701 kJ/mol
# Density = 1.692515 g / cm^3
# Si number density = 16.963765 Si / 1000 Ang^3
#
#
#
# Elastic Constant Matrix: (Units=GPa)
#
#
# Indices 1 2 3 4 5 6 
#
# 1 69.9875 17.1489 24.0898 0.0000 0.0000 0.0000
# 2 17.1489 53.3020 13.0215 0.0000 0.0000 0.0000
# 3 24.0898 13.0215 61.1268 0.0000 0.0000 0.0000
# 4 0.0000 0.0000 0.0000 23.3717 0.0000 0.0000
# 5 0.0000 0.0000 0.0000 0.0000 14.9772 0.0000
# 6 0.0000 0.0000 0.0000 0.0000 0.0000 31.1116
#
#
#
# Elastic Compliance Matrix: (Units=1/GPa)
#
#
# Indices 1 2 3 4 5 6 
#
# 1 0.017350 -0.004126 -0.005959 0.000000 0.000000 0.000000
# 2 -0.004126 0.020772 -0.002799 0.000000 0.000000 0.000000
# 3 -0.005959 -0.002799 0.019304 0.000000 0.000000 0.000000
# 4 0.000000 0.000000 0.000000 0.042787 0.000000 0.000000
# 5 0.000000 0.000000 0.000000 0.000000 0.066768 0.000000
# 6 0.000000 0.000000 0.000000 0.000000 0.000000 0.032142
#
#
# Mechanical properties :
#
#
# Convention : Reuss Voigt Hill
#
# Bulk Modulus (GPa) = 31.58682 32.54855 32.06769
# Shear Modulus (GPa) = 21.23639 22.56917 21.90278
#
# Velocity S-wave (km/s) = 3.54201 3.65147 3.59716
# Velocity P-wave (km/s) = 5.94882 6.08329 6.01643
#
# Compressibility (1/GPa) = 0.03165877
#
# Stress axis : x y z
#
# Youngs Moduli (GPa) = 57.63576 48.14090 51.80289
#
# Poissons Ratio (x) = 0.19865 0.30868
# Poissons Ratio (y) = 0.23783 0.14499
# Poissons Ratio (z) = 0.34343 0.13474
#
# Static dielectric constant tensor:
#      x y z
#    x 3.307870 0.000000 0.000000 
#    y 0.000000 3.344430 0.000000 
#    z 0.000000 0.000000 3.002600 
# 
# 
# High freq. dielectric constant tensor:
#      x y z
#    x 1.640660 0.000000 0.000000 
#    y 0.000000 1.672940 0.000000 
#    z 0.000000 0.000000 1.609400 
# 
# From -- ./inp_files/28798.got.cif
#   From: 2010.03.12/outbox.cif.g09.slc.cpg/sg57_15_cif.got.tgz:28798.got - 2010.04.16 15:48:40.
