data_PCOD8230733
_publ_section_title
;
Structure prediction by ZEFSAII (Michael W. Deem and Ramdas Pophale) SiO2 
 PCOD8230733
Probable space group: P B C M
;
_chemical_formula_sum "Si O2"
_cell_formula_units_Z 48
_cell_length_a 13.585427
_cell_length_b 23.766182
_cell_length_c 9.112898
_cell_angle_alpha 90.000000
_cell_angle_beta 90.000000
_cell_angle_gamma 90.000000
_cell_volume 2942.315374
_symmetry_space_group_name_H-M "P B C M"
_symmetry_group_IT_number 57
_symmetry_cell_setting 'orthorhombic'
loop_
_space_group_symop_operation_xyz
x,y,z
-x,-y,1/2+z
x,1/2-y,-z
-x,1/2+y,1/2-z
-x,-y,-z
x,y,1/2-z
-x,1/2+y,z
x,1/2-y,1/2+z
loop_
_atom_site_type_symbol
_atom_site_label
_atom_site_fract_x
_atom_site_fract_y
_atom_site_fract_z
Si Si1 0.859489 0.805489 0.579032
Si Si2 0.366097 0.529800 0.419243
Si Si3 0.537227 0.912576 0.420897
Si Si4 0.855384 0.019122 0.079809
Si Si5 0.048405 0.080836 0.078061
Si Si6 0.367815 0.307373 0.923125
O O1 0.898987 0.750000 0.500000
O O2 0.873112 0.795506 0.750000
O O3 0.926072 0.856936 0.520908
O O4 0.746312 0.817890 0.539179
O O5 0.390064 0.544135 0.250000
O O6 0.429064 0.569952 0.523863
O O7 0.388478 0.464204 0.450359
O O8 0.252596 0.542060 0.458778
O O9 0.532113 0.896791 0.250000
O O10 0.571292 0.858999 0.512360
O O11 0.863425 0.003745 0.250000
O O12 0.935639 0.066488 0.035694
O O13 0.875449 0.962187 0.993187
O O14 0.067051 0.077033 0.250000
O O15 0.386759 0.302830 0.750000
O O16 0.404260 0.250000 0.000000
#
# Coordination Sequence:
#
# PCOD8230733 Si02
#       6
#     8   8   8   8   8   8
#     4   9  18  30  45  66  91 119 148 180 219 263
#     4   9  18  31  46  66  92 122 153 185 225 271
#     4  10  19  30  46  68  92 118 151 189 227 269
#     4   9  17  29  46  67  91 120 151 182 221 269
#     4   9  17  29  45  67  93 118 147 184 225 266
#     4  10  19  31  47  67  92 120 149 182 223 268
#
# _framework density 16.313682
#
# number of rings (size 3 to 8) (size 9 to 14) (size 15 to 20)
#    0.000    2.667    0.000    2.000    0.000    2.667 
#    0.000    0.000    0.000    1.000    0.000    2.333 
#    0.000    0.000    0.000    0.000    0.000    0.000 
#
# Total GULP energy -595238.943234 kJ/mol
# GULP energy per Si atom -12400.811317 kJ/mol
# Density = 1.627655 g / cm^3
# Si number density = 16.313682 Si / 1000 Ang^3
#
#
#
# Elastic Constant Matrix: (Units=GPa)
#
#
# Indices 1 2 3 4 5 6 
#
# 1 85.6008 56.4193 36.3259 0.0000 0.0000 0.0000
# 2 56.4193 132.4501 51.8470 0.0000 0.0000 0.0000
# 3 36.3259 51.8470 59.4775 0.0000 0.0000 0.0000
# 4 0.0000 0.0000 0.0000 31.5306 0.0000 0.0000
# 5 0.0000 0.0000 0.0000 0.0000 22.3586 0.0000
# 6 0.0000 0.0000 0.0000 0.0000 0.0000 21.2685
#
#
#
# Elastic Compliance Matrix: (Units=1/GPa)
#
#
# Indices 1 2 3 4 5 6 
#
# 1 0.017733 -0.005031 -0.006445 0.000000 0.000000 0.000000
# 2 -0.005031 0.012888 -0.008162 0.000000 0.000000 0.000000
# 3 -0.006445 -0.008162 0.027864 0.000000 0.000000 0.000000
# 4 0.000000 0.000000 0.000000 0.031715 0.000000 0.000000
# 5 0.000000 0.000000 0.000000 0.000000 0.044725 0.000000
# 6 0.000000 0.000000 0.000000 0.000000 0.000000 0.047018
#
#
# Mechanical properties :
#
#
# Convention : Reuss Voigt Hill
#
# Bulk Modulus (GPa) = 52.05739 62.96809 57.51274
# Shear Modulus (GPa) = 21.96622 23.89397 22.93010
#
# Velocity S-wave (km/s) = 3.67344 3.83124 3.75317
# Velocity P-wave (km/s) = 7.06907 7.63238 7.35612
#
# Compressibility (1/GPa) = 0.01920957
#
# Stress axis : x y z
#
# Youngs Moduli (GPa) = 56.39222 77.59216 35.88838
#
# Poissons Ratio (x) = 0.39035 0.23130
# Poissons Ratio (y) = 0.28370 0.29292
# Poissons Ratio (z) = 0.36345 0.63330
#
# Static dielectric constant tensor:
#      x y z
#    x 3.085080 0.000000 0.000000 
#    y 0.000000 3.080730 0.000000 
#    z 0.000000 0.000000 3.077390 
# 
# 
# High freq. dielectric constant tensor:
#      x y z
#    x 1.616790 0.000000 0.000000 
#    y 0.000000 1.618620 0.000000 
#    z 0.000000 0.000000 1.633180 
# 
# From -- ./inp_files/4886.got.cif
#   From: 2010.03.12/outbox.cif.g09.slc.cpg/sg57_3_cif.got.tgz:4886.got - 2010.04.16 15:48:40.
