data_PCOD8230540
_publ_section_title
;
Structure prediction by ZEFSAII (Michael W. Deem and Ramdas Pophale) SiO2 
 PCOD8230540
Probable space group: P B C M
;
_chemical_formula_sum "Si O2"
_cell_formula_units_Z 64
_cell_length_a 20.557127
_cell_length_b 9.944396
_cell_length_c 15.891518
_cell_angle_alpha 90.000000
_cell_angle_beta 90.000000
_cell_angle_gamma 90.000000
_cell_volume 3248.674603
_symmetry_space_group_name_H-M "P B C M"
_symmetry_group_IT_number 57
_symmetry_cell_setting 'orthorhombic'
loop_
_space_group_symop_operation_xyz
x,y,z
-x,-y,1/2+z
x,1/2-y,-z
-x,1/2+y,1/2-z
-x,-y,-z
x,y,1/2-z
-x,1/2+y,z
x,1/2-y,1/2+z
loop_
_atom_site_type_symbol
_atom_site_label
_atom_site_fract_x
_atom_site_fract_y
_atom_site_fract_z
Si Si1 0.447463 0.286741 0.151587
Si Si2 0.056166 0.948761 0.150187
Si Si3 0.317210 0.363599 0.429597
Si Si4 0.201359 0.945535 0.152376
Si Si5 0.440567 0.983010 0.350530
Si Si6 0.811341 0.748804 0.099201
Si Si7 0.049722 0.252590 0.652696
Si Si8 0.320402 0.614122 0.545295
O O1 0.457189 0.279906 0.250000
O O2 0.377967 0.352190 0.132414
O O3 0.502923 0.384954 0.114253
O O4 0.453945 0.134839 0.115307
O O5 0.048765 0.961016 0.250000
O O6 0.128595 0.896412 0.128190
O O7 0.003040 0.847299 0.110281
O O8 0.045133 0.098472 0.111580
O O9 0.322879 0.250000 0.500000
O O10 0.250011 0.343690 0.377618
O O11 0.314482 0.508370 0.470722
O O12 0.216701 0.916710 0.250000
O O13 0.252205 0.866019 0.094140
O O14 0.207118 0.103624 0.135129
O O15 0.435863 0.981874 0.250000
O O16 0.372704 0.931355 0.386162
O O17 0.877249 0.805015 0.141290
O O18 0.822855 0.750000 0.000000
O O19 0.032426 0.260863 0.750000
O O20 0.341858 0.750000 0.500000
#
# Coordination Sequence:
#
# PCOD8230540 Si02
#       8
#     8   8   8   8   8   8   8   8
#     4  10  22  39  63  90 117 151 193 239 285 339
#     4   8  16  31  54  80 106 141 192 240 279 335
#     4  11  21  40  59  82 117 149 192 235 285 343
#     4  10  19  38  64  83 109 159 203 232 283 358
#     4  10  22  41  63  88 116 151 194 236 282 345
#     4  10  18  34  58  84 114 142 190 245 284 338
#     4   9  17  32  53  78 107 146 189 232 283 341
#     4  12  25  40  58  88 118 155 191 244 295 343
#
# _framework density 19.700343
#
# number of rings (size 3 to 8) (size 9 to 14) (size 15 to 20)
#    0.000    2.000    3.750    1.500    1.750    3.000 
#    2.250    3.750    0.000    0.000    0.000    0.000 
#    0.000    0.000    0.000    0.000    0.000    0.000 
#
# Total GULP energy -793439.704466 kJ/mol
# GULP energy per Si atom -12397.495382 kJ/mol
# Density = 1.965550 g / cm^3
# Si number density = 19.700343 Si / 1000 Ang^3
#
#
#
# Elastic Constant Matrix: (Units=GPa)
#
#
# Indices 1 2 3 4 5 6 
#
# 1 152.2906 59.6424 15.9625 0.0000 0.0000 0.0000
# 2 59.6424 82.0758 22.0273 0.0000 0.0000 0.0000
# 3 15.9625 22.0273 21.6007 0.0000 0.0000 0.0000
# 4 0.0000 0.0000 0.0000 21.3680 0.0000 0.0000
# 5 0.0000 0.0000 0.0000 0.0000 20.7500 0.0000
# 6 0.0000 0.0000 0.0000 0.0000 0.0000 33.0764
#
#
#
# Elastic Compliance Matrix: (Units=1/GPa)
#
#
# Indices 1 2 3 4 5 6 
#
# 1 0.009179 -0.006677 0.000026 0.000000 0.000000 0.000000
# 2 -0.006677 0.021632 -0.017125 0.000000 0.000000 0.000000
# 3 0.000026 -0.017125 0.063739 0.000000 0.000000 0.000000
# 4 0.000000 0.000000 0.000000 0.046799 0.000000 0.000000
# 5 0.000000 0.000000 0.000000 0.000000 0.048193 0.000000
# 6 0.000000 0.000000 0.000000 0.000000 0.000000 0.030233
#
#
# Mechanical properties :
#
#
# Convention : Reuss Voigt Hill
#
# Bulk Modulus (GPa) = 21.27773 50.13685 35.70729
# Shear Modulus (GPa) = 17.66840 25.59453 21.63146
#
# Velocity S-wave (km/s) = 2.99801 3.60834 3.31724
# Velocity P-wave (km/s) = 4.77579 6.54715 5.73033
#
# Compressibility (1/GPa) = 0.04699749
#
# Stress axis : x y z
#
# Youngs Moduli (GPa) = 108.94992 46.22869 15.68901
#
# Poissons Ratio (x) = 0.30866 -0.00041
# Poissons Ratio (y) = 0.72743 0.26867
# Poissons Ratio (z) = -0.00281 0.79166
#
# Static dielectric constant tensor:
#      x y z
#    x 3.961560 0.000000 0.000000 
#    y 0.000000 3.946420 0.000000 
#    z 0.000000 0.000000 3.404960 
# 
# 
# High freq. dielectric constant tensor:
#      x y z
#    x 1.784400 0.000000 0.000000 
#    y 0.000000 1.753430 0.000000 
#    z 0.000000 0.000000 1.745670 
# 
# From -- ./inp_files/23075.got.cif
#   From: 2010.03.12/outbox.cif.g09.slc.cpg/sg57_12_cif.got.tgz:23075.got - 2010.04.16 15:48:40.
