data_PCOD8230805
_publ_section_title
;
Structure prediction by ZEFSAII (Michael W. Deem and Ramdas Pophale) SiO2 
 PCOD8230805
Probable space group: P B C M
;
_chemical_formula_sum "Si O2"
_cell_formula_units_Z 48
_cell_length_a 12.377545
_cell_length_b 22.974935
_cell_length_c 8.987478
_cell_angle_alpha 90.000000
_cell_angle_beta 90.000000
_cell_angle_gamma 90.000000
_cell_volume 2555.798704
_symmetry_space_group_name_H-M "P B C M"
_symmetry_group_IT_number 57
_symmetry_cell_setting 'orthorhombic'
loop_
_space_group_symop_operation_xyz
x,y,z
-x,-y,1/2+z
x,1/2-y,-z
-x,1/2+y,1/2-z
-x,-y,-z
x,y,1/2-z
-x,1/2+y,z
x,1/2-y,1/2+z
loop_
_atom_site_type_symbol
_atom_site_label
_atom_site_fract_x
_atom_site_fract_y
_atom_site_fract_z
Si Si1 0.806748 0.388899 0.586141
Si Si2 0.205828 0.128782 0.572926
Si Si3 0.391657 0.071704 0.423433
Si Si4 0.008376 0.189894 0.427391
Si Si5 0.382758 0.938107 0.076595
Si Si6 0.103327 0.486823 0.410500
O O1 0.775604 0.363248 0.750000
O O2 0.707550 0.389395 0.469889
O O3 0.824624 0.456965 0.605314
O O4 0.914855 0.356454 0.527058
O O5 0.209999 0.139181 0.750000
O O6 0.326491 0.124467 0.506030
O O7 0.125611 0.175237 0.497568
O O8 0.165794 0.066056 0.515236
O O9 0.388728 0.085783 0.250000
O O10 0.513134 0.077096 0.480607
O O11 0.348452 0.005579 0.454724
O O12 0.969656 0.250000 0.500000
O O13 0.020520 0.194409 0.250000
O O14 0.408279 0.929682 0.250000
O O15 0.064864 0.464292 0.250000
O O16 0.000000 0.500000 0.500000
#
# Coordination Sequence:
#
# PCOD8230805 Si02
#       6
#     8   8   8   8   8   8
#     4  10  20  35  54  78 111 147 181 223 274 330
#     4  11  21  34  55  81 112 146 182 225 274 330
#     4  10  20  33  51  78 115 153 185 220 268 327
#     4  11  24  41  59  80 108 144 188 233 279 327
#     4  10  20  32  51  80 114 150 186 223 267 326
#     4  10  19  30  48  77 111 143 176 217 270 332
#
# _framework density 18.780822000000001
#
# number of rings (size 3 to 8) (size 9 to 14) (size 15 to 20)
#    0.000    1.667    3.333    2.000    0.000    4.000 
#    0.000    0.000    0.000    1.000    0.000    4.667 
#    0.000    0.000    0.000    0.000    0.000    0.000 
#
# Total GULP energy -594664.479155 kJ/mol
# GULP energy per Si atom -12388.843316 kJ/mol
# Density = 1.873808 g / cm^3
# Si number density = 18.780822 Si / 1000 Ang^3
#
#
#
# Elastic Constant Matrix: (Units=GPa)
#
#
# Indices 1 2 3 4 5 6 
#
# 1 85.0472 18.2491 47.6823 0.0000 0.0000 0.0000
# 2 18.2491 51.9606 23.7821 0.0000 0.0000 0.0000
# 3 47.6823 23.7821 97.5424 0.0000 0.0000 0.0000
# 4 0.0000 0.0000 0.0000 24.8045 0.0000 0.0000
# 5 0.0000 0.0000 0.0000 0.0000 36.4894 0.0000
# 6 0.0000 0.0000 0.0000 0.0000 0.0000 16.9957
#
#
#
# Elastic Compliance Matrix: (Units=1/GPa)
#
#
# Indices 1 2 3 4 5 6 
#
# 1 0.016451 -0.002360 -0.007466 0.000000 0.000000 0.000000
# 2 -0.002360 0.022001 -0.004210 0.000000 0.000000 0.000000
# 3 -0.007466 -0.004210 0.014928 0.000000 0.000000 0.000000
# 4 0.000000 0.000000 0.000000 0.040315 0.000000 0.000000
# 5 0.000000 0.000000 0.000000 0.000000 0.027405 0.000000
# 6 0.000000 0.000000 0.000000 0.000000 0.000000 0.058838
#
#
# Mechanical properties :
#
#
# Convention : Reuss Voigt Hill
#
# Bulk Modulus (GPa) = 39.51573 45.99745 42.75659
# Shear Modulus (GPa) = 23.10017 25.31369 24.20693
#
# Velocity S-wave (km/s) = 3.51092 3.67529 3.59404
# Velocity P-wave (km/s) = 6.12549 6.52343 6.32759
#
# Compressibility (1/GPa) = 0.02530638
#
# Stress axis : x y z
#
# Youngs Moduli (GPa) = 60.78796 45.45165 66.98713
#
# Poissons Ratio (x) = 0.10728 0.50014
# Poissons Ratio (y) = 0.14348 0.28204
# Poissons Ratio (z) = 0.45385 0.19137
#
# Static dielectric constant tensor:
#      x y z
#    x 3.435670 0.000000 0.000000 
#    y 0.000000 3.147650 0.000000 
#    z 0.000000 0.000000 3.557330 
# 
# 
# High freq. dielectric constant tensor:
#      x y z
#    x 1.730580 0.000000 0.000000 
#    y 0.000000 1.686550 0.000000 
#    z 0.000000 0.000000 1.741150 
# 
# From -- ./inp_files/3152.got.cif
#   From: 2010.03.12/outbox.cif.g09.slc.cpg/sg57_2_cif.got.tgz:3152.got - 2010.04.16 15:48:40.
