data_PCOD8230652
_publ_section_title
;
Structure prediction by ZEFSAII (Michael W. Deem and Ramdas Pophale) SiO2 
 PCOD8230652
Probable space group: P B C M
;
_chemical_formula_sum "Si O2"
_cell_formula_units_Z 64
_cell_length_a 16.784238
_cell_length_b 23.190325
_cell_length_c 9.021011
_cell_angle_alpha 90.000000
_cell_angle_beta 90.000000
_cell_angle_gamma 90.000000
_cell_volume 3511.265559
_symmetry_space_group_name_H-M "P B C M"
_symmetry_group_IT_number 57
_symmetry_cell_setting 'orthorhombic'
loop_
_space_group_symop_operation_xyz
x,y,z
-x,-y,1/2+z
x,1/2-y,-z
-x,1/2+y,1/2-z
-x,-y,-z
x,y,1/2-z
-x,1/2+y,z
x,1/2-y,1/2+z
loop_
_atom_site_type_symbol
_atom_site_label
_atom_site_fract_x
_atom_site_fract_y
_atom_site_fract_z
Si Si1 0.548185 0.808047 0.578833
Si Si2 0.566712 0.387777 0.082796
Si Si3 0.227592 0.076463 0.573799
Si Si4 0.677907 0.485251 0.424271
Si Si5 0.082122 0.996207 0.916935
Si Si6 0.200749 0.597555 0.079609
Si Si7 0.278785 0.808771 0.080300
Si Si8 0.266063 0.191239 0.076295
O O1 0.516637 0.750000 0.500000
O O2 0.529888 0.799497 0.750000
O O3 0.502668 0.865166 0.523771
O O4 0.640652 0.817640 0.545646
O O5 0.534007 0.385217 0.250000
O O6 0.592643 0.453890 0.042397
O O7 0.643581 0.347778 0.066091
O O8 0.235388 0.080859 0.750000
O O9 0.149713 0.040306 0.523173
O O10 0.219097 0.139197 0.501348
O O11 0.308256 0.045331 0.511455
O O12 0.687225 0.496957 0.250000
O O13 0.745259 0.442012 0.477326
O O14 0.063885 0.013938 0.750000
O O15 0.112521 0.929878 0.927648
O O16 0.000000 0.000000 0.000000
O O17 0.231410 0.598190 0.250000
O O18 0.204854 0.661259 0.007833
O O19 0.253714 0.798367 0.250000
O O20 0.299777 0.750000 0.000000
O O21 0.246265 0.193199 0.250000
O O22 0.236197 0.250000 0.000000
#
# Coordination Sequence:
#
# PCOD8230652 Si02
#       8
#     8   8   8   8   8   8   8   8
#     4  10  20  32  48  69  95 128 170 216 263 308
#     4   9  18  30  45  67  96 129 169 213 257 300
#     4  10  20  35  55  80 106 133 166 205 247 298
#     4   9  17  30  48  71  98 131 168 206 249 298
#     4   9  19  33  53  81 107 129 156 190 235 288
#     4   9  17  30  46  68  98 129 162 200 237 282
#     4  10  19  29  43  66  94 130 171 208 246 291
#     4  10  21  37  56  78 101 131 170 212 256 303
#
# _framework density 18.227045
#
# number of rings (size 3 to 8) (size 9 to 14) (size 15 to 20)
#    0.000    2.500    0.000    4.125    0.000    8.500 
#    0.000    0.625    0.000    0.750    0.000    5.250 
#    0.000    0.000    0.000    0.000    0.000    0.000 
#
# Total GULP energy -793258.161613 kJ/mol
# GULP energy per Si atom -12394.658775 kJ/mol
# Density = 1.818556 g / cm^3
# Si number density = 18.227045 Si / 1000 Ang^3
#
#
#
# Elastic Constant Matrix: (Units=GPa)
#
#
# Indices 1 2 3 4 5 6 
#
# 1 44.9138 19.7393 35.6597 0.0000 0.0000 0.0000
# 2 19.7393 86.7992 46.5315 0.0000 0.0000 0.0000
# 3 35.6597 46.5315 98.2641 0.0000 0.0000 0.0000
# 4 0.0000 0.0000 0.0000 36.4022 0.0000 0.0000
# 5 0.0000 0.0000 0.0000 0.0000 27.1176 0.0000
# 6 0.0000 0.0000 0.0000 0.0000 0.0000 15.0392
#
#
#
# Elastic Compliance Matrix: (Units=1/GPa)
#
#
# Indices 1 2 3 4 5 6 
#
# 1 0.031400 -0.001383 -0.010740 0.000000 0.000000 0.000000
# 2 -0.001383 0.015501 -0.006838 0.000000 0.000000 0.000000
# 3 -0.010740 -0.006838 0.017312 0.000000 0.000000 0.000000
# 4 0.000000 0.000000 0.000000 0.027471 0.000000 0.000000
# 5 0.000000 0.000000 0.000000 0.000000 0.036876 0.000000
# 6 0.000000 0.000000 0.000000 0.000000 0.000000 0.066493
#
#
# Mechanical properties :
#
#
# Convention : Reuss Voigt Hill
#
# Bulk Modulus (GPa) = 38.03674 48.20423 43.12049
# Shear Modulus (GPa) = 20.68333 24.24825 22.46579
#
# Velocity S-wave (km/s) = 3.37228 3.65135 3.51458
# Velocity P-wave (km/s) = 6.00638 6.65435 6.33865
#
# Compressibility (1/GPa) = 0.02629037
#
# Stress axis : x y z
#
# Youngs Moduli (GPa) = 31.84729 64.51031 57.76223
#
# Poissons Ratio (x) = 0.08924 0.62036
# Poissons Ratio (y) = 0.04405 0.39500
# Poissons Ratio (z) = 0.34204 0.44115
#
# Static dielectric constant tensor:
#      x y z
#    x 3.071760 0.000000 0.000000 
#    y 0.000000 4.016250 0.000000 
#    z 0.000000 0.000000 3.522540 
# 
# 
# High freq. dielectric constant tensor:
#      x y z
#    x 1.663040 0.000000 0.000000 
#    y 0.000000 1.707810 0.000000 
#    z 0.000000 0.000000 1.720410 
# 
# From -- ./inp_files/7352.got.cif
#   From: 2010.03.12/outbox.cif.g09.slc.cpg/sg57_4_cif.got.tgz:7352.got - 2010.04.16 15:48:40.
