data_PCOD8230603
_publ_section_title
;
Structure prediction by ZEFSAII (Michael W. Deem and Ramdas Pophale) SiO2 
 PCOD8230603
Probable space group: P B C M
;
_chemical_formula_sum "Si O2"
_cell_formula_units_Z 36
_cell_length_a 5.343904
_cell_length_b 16.160926
_cell_length_c 20.077069
_cell_angle_alpha 90.000000
_cell_angle_beta 90.000000
_cell_angle_gamma 90.000000
_cell_volume 1733.904609
_symmetry_space_group_name_H-M "P B C M"
_symmetry_group_IT_number 57
_symmetry_cell_setting 'orthorhombic'
loop_
_space_group_symop_operation_xyz
x,y,z
-x,-y,1/2+z
x,1/2-y,-z
-x,1/2+y,1/2-z
-x,-y,-z
x,y,1/2-z
-x,1/2+y,z
x,1/2-y,1/2+z
loop_
_atom_site_type_symbol
_atom_site_label
_atom_site_fract_x
_atom_site_fract_y
_atom_site_fract_z
Si Si1 0.440839 0.121738 0.949175
Si Si2 0.803103 0.045483 0.455657
Si Si3 0.444235 0.261641 0.176419
Si Si4 0.931958 0.185172 0.368166
Si Si5 0.937090 0.750000 0.500000
O O1 0.476637 0.167632 0.878870
O O2 0.231611 0.167059 0.993964
O O3 0.386034 0.025771 0.931115
O O4 0.681496 0.118116 0.998023
O O5 0.922140 0.088810 0.390369
O O6 0.000000 0.000000 0.500000
O O7 0.421159 0.302123 0.250000
O O8 0.692967 0.204689 0.177669
O O9 0.198812 0.204712 0.165469
O O10 0.898176 0.242550 0.433756
#
# Coordination Sequence:
#
# PCOD8230603 Si02
#       5
#     8   8   8   8   4
#     4  10  22  36  63  93 132 157 206 260 320 375
#     4  11  21  37  62 101 126 154 194 269 338 370
#     4  11  25  44  63  87 124 177 220 248 292 376
#     4  11  22  39  65  90 125 156 210 259 313 363
#     4  10  18  38  60  96 116 160 200 262 322 354
#
# _framework density 20.762388999999999
#
# number of rings (size 3 to 8) (size 9 to 14) (size 15 to 20)
#    0.000    1.333    2.222    4.667    6.222    0.889 
#    0.000    2.222    0.000    0.000    0.000    0.000 
#    0.000    0.000    0.000    0.000    0.000    0.000 
#
# Total GULP energy -446180.972058 kJ/mol
# GULP energy per Si atom -12393.915890 kJ/mol
# Density = 2.071513 g / cm^3
# Si number density = 20.762389 Si / 1000 Ang^3
#
#
#
# Elastic Constant Matrix: (Units=GPa)
#
#
# Indices 1 2 3 4 5 6 
#
# 1 119.5958 26.2168 36.9737 0.0000 0.0000 0.0000
# 2 26.2168 100.0018 39.3862 0.0000 0.0000 0.0000
# 3 36.9737 39.3862 118.3842 0.0000 0.0000 0.0000
# 4 0.0000 0.0000 0.0000 24.1365 0.0000 0.0000
# 5 0.0000 0.0000 0.0000 0.0000 18.0961 0.0000
# 6 0.0000 0.0000 0.0000 0.0000 0.0000 34.7421
#
#
#
# Elastic Compliance Matrix: (Units=1/GPa)
#
#
# Indices 1 2 3 4 5 6 
#
# 1 0.009450 -0.001513 -0.002448 0.000000 0.000000 0.000000
# 2 -0.001513 0.011750 -0.003437 0.000000 0.000000 0.000000
# 3 -0.002448 -0.003437 0.010355 0.000000 0.000000 0.000000
# 4 0.000000 0.000000 0.000000 0.041431 0.000000 0.000000
# 5 0.000000 0.000000 0.000000 0.000000 0.055261 0.000000
# 6 0.000000 0.000000 0.000000 0.000000 0.000000 0.028784
#
#
# Mechanical properties :
#
#
# Convention : Reuss Voigt Hill
#
# Bulk Modulus (GPa) = 59.66817 60.34836 60.00826
# Shear Modulus (GPa) = 28.18292 31.08861 29.63576
#
# Velocity S-wave (km/s) = 3.68829 3.87376 3.78216
# Velocity P-wave (km/s) = 6.85120 7.00980 6.93096
#
# Compressibility (1/GPa) = 0.01675936
#
# Stress axis : x y z
#
# Youngs Moduli (GPa) = 105.81980 85.10580 96.57205
#
# Poissons Ratio (x) = 0.12879 0.23640
# Poissons Ratio (y) = 0.16014 0.33188
# Poissons Ratio (z) = 0.25904 0.29247
#
# Static dielectric constant tensor:
#      x y z
#    x 3.977330 0.000000 0.000000 
#    y 0.000000 4.470470 0.000000 
#    z 0.000000 0.000000 3.632620 
# 
# 
# High freq. dielectric constant tensor:
#      x y z
#    x 1.828980 0.000000 0.000000 
#    y 0.000000 1.809790 0.000000 
#    z 0.000000 0.000000 1.788180 
# 
# From -- ./inp_files/23466.got.cif
#   From: 2010.03.12/outbox.cif.g09.slc.cpg/sg57_12_cif.got.tgz:23466.got - 2010.04.16 15:48:40.
