data_PCOD8230320
_publ_section_title
;
Structure prediction by ZEFSAII (Michael W. Deem and Ramdas Pophale) SiO2 
 PCOD8230320
Probable space group: P B C M
;
_chemical_formula_sum "Si O2"
_cell_formula_units_Z 60
_cell_length_a 8.933190
_cell_length_b 25.166677
_cell_length_c 15.204610
_cell_angle_alpha 90.000000
_cell_angle_beta 90.000000
_cell_angle_gamma 90.000000
_cell_volume 3418.280765
_symmetry_space_group_name_H-M "P B C M"
_symmetry_group_IT_number 57
_symmetry_cell_setting 'orthorhombic'
loop_
_space_group_symop_operation_xyz
x,y,z
-x,-y,1/2+z
x,1/2-y,-z
-x,1/2+y,1/2-z
-x,-y,-z
x,y,1/2-z
-x,1/2+y,z
x,1/2-y,1/2+z
loop_
_atom_site_type_symbol
_atom_site_label
_atom_site_fract_x
_atom_site_fract_y
_atom_site_fract_z
Si Si1 0.802189 0.385147 0.649357
Si Si2 0.054006 0.345116 0.545806
Si Si3 0.133785 0.042677 0.995238
Si Si4 0.336298 0.172050 0.150664
Si Si5 0.156762 0.750000 0.000000
Si Si6 0.321796 0.506949 0.352990
Si Si7 0.357338 0.449739 0.650680
Si Si8 0.357256 0.718490 0.352268
O O1 0.767427 0.393071 0.750000
O O2 0.973792 0.369572 0.632194
O O3 0.759770 0.441007 0.606362
O O4 0.696563 0.338840 0.613748
O O5 0.949736 0.301599 0.499428
O O6 0.077913 0.396296 0.483305
O O7 0.206135 0.317689 0.579677
O O8 0.247519 0.038503 0.912523
O O9 0.223838 0.034781 0.085963
O O10 0.000000 0.000000 0.000000
O O11 0.275758 0.179998 0.250000
O O12 0.402032 0.112394 0.140290
O O13 0.463943 0.216770 0.132888
O O14 0.265129 0.758693 0.085165
O O15 0.288332 0.495810 0.250000
O O16 0.498909 0.513407 0.369429
O O17 0.301432 0.460650 0.750000
O O18 0.316829 0.730133 0.250000
#
# Coordination Sequence:
#
# PCOD8230320 Si02
#       8
#     8   8   8   8   4   8   8   8
#     4   9  15  27  49  73  99 129 165 215 265 301
#     4  10  20  33  48  74 111 136 175 211 265 311
#     4  11  21  32  49  78 109 142 172 212 262 318
#     4   9  16  29  53  82 104 125 165 229 282 303
#     4  10  22  36  52  76 102 144 178 214 262 316
#     4  10  18  31  49  73 105 142 177 212 255 311
#     4   9  18  32  52  78 107 136 173 220 268 310
#     4   9  17  32  54  77  99 128 172 219 262 306
#
# _framework density 17.552683999999999
#
# number of rings (size 3 to 8) (size 9 to 14) (size 15 to 20)
#    0.000    2.400    2.667    0.800    0.000    2.133 
#    0.000    0.667    0.000    0.000    0.000    7.467 
#    0.000    0.000    0.000    0.000    0.000    0.000 
#
# Total GULP energy -743380.890106 kJ/mol
# GULP energy per Si atom -12389.681502 kJ/mol
# Density = 1.751273 g / cm^3
# Si number density = 17.552684 Si / 1000 Ang^3
#
#
#
# Elastic Constant Matrix: (Units=GPa)
#
#
# Indices 1 2 3 4 5 6 
#
# 1 108.9698 46.2388 58.3273 0.0000 0.0000 0.0000
# 2 46.2388 66.9007 40.2748 0.0000 0.0000 0.0000
# 3 58.3273 40.2748 88.4423 0.0000 0.0000 0.0000
# 4 0.0000 0.0000 0.0000 23.1784 0.0000 0.0000
# 5 0.0000 0.0000 0.0000 0.0000 33.3223 0.0000
# 6 0.0000 0.0000 0.0000 0.0000 0.0000 30.4253
#
#
#
# Elastic Compliance Matrix: (Units=1/GPa)
#
#
# Indices 1 2 3 4 5 6 
#
# 1 0.015992 -0.006480 -0.007596 0.000000 0.000000 0.000000
# 2 -0.006480 0.023219 -0.006300 0.000000 0.000000 0.000000
# 3 -0.007596 -0.006300 0.019185 0.000000 0.000000 0.000000
# 4 0.000000 0.000000 0.000000 0.043144 0.000000 0.000000
# 5 0.000000 0.000000 0.000000 0.000000 0.030010 0.000000
# 6 0.000000 0.000000 0.000000 0.000000 0.000000 0.032867
#
#
# Mechanical properties :
#
#
# Convention : Reuss Voigt Hill
#
# Bulk Modulus (GPa) = 56.67495 61.55495 59.11495
# Shear Modulus (GPa) = 23.69098 25.34999 24.52049
#
# Velocity S-wave (km/s) = 3.67782 3.80442 3.74165
# Velocity P-wave (km/s) = 7.09885 7.37855 7.24005
#
# Compressibility (1/GPa) = 0.01764448
#
# Stress axis : x y z
#
# Youngs Moduli (GPa) = 62.52934 43.06825 52.12416
#
# Poissons Ratio (x) = 0.27910 0.39593
# Poissons Ratio (y) = 0.40522 0.32836
# Poissons Ratio (z) = 0.47497 0.27131
#
# Static dielectric constant tensor:
#      x y z
#    x 3.420030 0.000000 0.000000 
#    y 0.000000 3.208760 0.000000 
#    z 0.000000 0.000000 3.179200 
# 
# 
# High freq. dielectric constant tensor:
#      x y z
#    x 1.694390 0.000000 0.000000 
#    y 0.000000 1.644970 0.000000 
#    z 0.000000 0.000000 1.661670 
# 
# From -- ./inp_files/17033.got.cif
#   From: 2010.03.12/outbox.cif.g09.slc.cpg/sg57_9_cif.got.tgz:17033.got - 2010.04.16 15:48:40.
