data_PCOD8230359
_publ_section_title
;
Structure prediction by ZEFSAII (Michael W. Deem and Ramdas Pophale) SiO2 
 PCOD8230359
Probable space group: P B C M
;
_chemical_formula_sum "Si O2"
_cell_formula_units_Z 64
_cell_length_a 24.752267
_cell_length_b 14.538173
_cell_length_c 8.804646
_cell_angle_alpha 90.000000
_cell_angle_beta 90.000000
_cell_angle_gamma 90.000000
_cell_volume 3168.375986
_symmetry_space_group_name_H-M "P B C M"
_symmetry_group_IT_number 57
_symmetry_cell_setting 'orthorhombic'
loop_
_space_group_symop_operation_xyz
x,y,z
-x,-y,1/2+z
x,1/2-y,-z
-x,1/2+y,1/2-z
-x,-y,-z
x,y,1/2-z
-x,1/2+y,z
x,1/2-y,1/2+z
loop_
_atom_site_type_symbol
_atom_site_label
_atom_site_fract_x
_atom_site_fract_y
_atom_site_fract_z
Si Si1 0.228930 0.351149 0.930225
Si Si2 0.593938 0.658541 0.423125
Si Si3 0.910779 0.344763 0.070248
Si Si4 0.026586 0.344976 0.930774
Si Si5 0.366342 0.842799 0.573460
Si Si6 0.675277 0.536600 0.573365
Si Si7 0.126775 0.037834 0.428610
Si Si8 0.479632 0.909172 0.921734
O O1 0.226555 0.341161 0.750000
O O2 0.176730 0.405049 0.998407
O O3 0.232340 0.250000 0.000000
O O4 0.280006 0.412564 0.974307
O O5 0.617861 0.750000 0.500000
O O6 0.614603 0.652589 0.250000
O O7 0.616695 0.572515 0.518849
O O8 0.528998 0.662636 0.430229
O O9 0.916340 0.332881 0.250000
O O10 0.871103 0.429504 0.026572
O O11 0.887549 0.250000 0.000000
O O12 0.969109 0.369293 0.002851
O O13 0.020745 0.337304 0.750000
O O14 0.069551 0.421457 0.983394
O O15 0.048406 0.250000 0.000000
O O16 0.342678 0.750000 0.500000
O O17 0.372571 0.823264 0.750000
O O18 0.425727 0.866011 0.502447
O O19 0.324763 0.926755 0.542815
O O20 0.684241 0.558641 0.750000
O O21 0.130633 0.048535 0.250000
O O22 0.464805 0.935814 0.750000
O O23 0.500000 0.000000 0.000000
#
# Coordination Sequence:
#
# PCOD8230359 Si02
#       8
#     8   8   8   8   8   8   8   8
#     4  11  23  42  64  87 113 144 184 232 287 340
#     4  11  22  35  56  84 113 148 187 225 275 332
#     4  10  19  34  53  79 113 151 190 229 274 325
#     4  10  18  31  51  80 114 150 187 227 277 331
#     4  10  22  39  60  85 115 149 187 231 279 330
#     4  11  23  41  61  83 113 146 186 234 282 333
#     4   9  20  36  56  80 111 148 187 232 281 334
#     4  10  20  35  55  83 115 151 186 225 274 329
#
# _framework density 20.199621
#
# number of rings (size 3 to 8) (size 9 to 14) (size 15 to 20)
#    0.000    1.750    1.250    4.125    0.000    2.000 
#    0.000    6.875    0.000    3.000    0.000    0.000 
#    0.000    0.000    0.000    0.000    0.000    0.000 
#
# Total GULP energy -793475.263291 kJ/mol
# GULP energy per Si atom -12398.050989 kJ/mol
# Density = 2.015365 g / cm^3
# Si number density = 20.199621 Si / 1000 Ang^3
#
#
#
# Elastic Constant Matrix: (Units=GPa)
#
#
# Indices 1 2 3 4 5 6 
#
# 1 75.5657 51.7517 24.2650 0.0000 0.0000 0.0000
# 2 51.7517 157.1185 52.3930 0.0000 0.0000 0.0000
# 3 24.2650 52.3930 80.9891 0.0000 0.0000 0.0000
# 4 0.0000 0.0000 0.0000 31.6115 0.0000 0.0000
# 5 0.0000 0.0000 0.0000 0.0000 19.1287 0.0000
# 6 0.0000 0.0000 0.0000 0.0000 0.0000 30.6786
#
#
#
# Elastic Compliance Matrix: (Units=1/GPa)
#
#
# Indices 1 2 3 4 5 6 
#
# 1 0.017317 -0.005067 -0.001911 0.000000 0.000000 0.000000
# 2 -0.005067 0.009598 -0.004691 0.000000 0.000000 0.000000
# 3 -0.001911 -0.004691 0.015954 0.000000 0.000000 0.000000
# 4 0.000000 0.000000 0.000000 0.031634 0.000000 0.000000
# 5 0.000000 0.000000 0.000000 0.000000 0.052277 0.000000
# 6 0.000000 0.000000 0.000000 0.000000 0.000000 0.032596
#
#
# Mechanical properties :
#
#
# Convention : Reuss Voigt Hill
#
# Bulk Modulus (GPa) = 51.19613 63.38807 57.29210
# Shear Modulus (GPa) = 26.42371 28.63466 27.52918
#
# Velocity S-wave (km/s) = 3.62073 3.76917 3.69569
# Velocity P-wave (km/s) = 6.54826 7.09867 6.82901
#
# Compressibility (1/GPa) = 0.01953272
#
# Stress axis : x y z
#
# Youngs Moduli (GPa) = 57.74657 104.19103 62.67888
#
# Poissons Ratio (x) = 0.52792 0.11975
# Poissons Ratio (y) = 0.29259 0.29402
# Poissons Ratio (z) = 0.11033 0.48875
#
# Static dielectric constant tensor:
#      x y z
#    x 3.685990 0.000000 0.000000 
#    y 0.000000 3.787380 0.000000 
#    z 0.000000 0.000000 3.658520 
# 
# 
# High freq. dielectric constant tensor:
#      x y z
#    x 1.770100 0.000000 0.000000 
#    y 0.000000 1.801030 0.000000 
#    z 0.000000 0.000000 1.781690 
# 
# From -- ./inp_files/9399.got.cif
#   From: 2010.03.12/outbox.cif.g09.slc.cpg/sg57_5_cif.got.tgz:9399.got - 2010.04.16 15:48:40.
