data_PCOD8230461
_publ_section_title
;
Structure prediction by ZEFSAII (Michael W. Deem and Ramdas Pophale) SiO2 
 PCOD8230461
Probable space group: P B C M
;
_chemical_formula_sum "Si O2"
_cell_formula_units_Z 56
_cell_length_a 21.389152
_cell_length_b 15.055125
_cell_length_c 8.588198
_cell_angle_alpha 90.000000
_cell_angle_beta 90.000000
_cell_angle_gamma 90.000000
_cell_volume 2765.540233
_symmetry_space_group_name_H-M "P B C M"
_symmetry_group_IT_number 57
_symmetry_cell_setting 'orthorhombic'
loop_
_space_group_symop_operation_xyz
x,y,z
-x,-y,1/2+z
x,1/2-y,-z
-x,1/2+y,1/2-z
-x,-y,-z
x,y,1/2-z
-x,1/2+y,z
x,1/2-y,1/2+z
loop_
_atom_site_type_symbol
_atom_site_label
_atom_site_fract_x
_atom_site_fract_y
_atom_site_fract_z
Si Si1 0.858973 0.347757 0.066969
Si Si2 0.013502 0.848562 0.565641
Si Si3 0.419427 0.842058 0.067193
Si Si4 0.561576 0.655743 0.935119
Si Si5 0.213134 0.495015 0.432030
Si Si6 0.653852 0.987254 0.933426
Si Si7 0.886094 0.651901 0.566524
O O1 0.865911 0.338198 0.250000
O O2 0.844702 0.250000 0.000000
O O3 0.922449 0.392321 0.996747
O O4 0.803301 0.414717 0.023932
O O5 0.014000 0.750000 0.500000
O O6 0.012891 0.850690 0.750000
O O7 0.950068 0.892754 0.500202
O O8 0.418922 0.834560 0.250000
O O9 0.490152 0.861751 0.011740
O O10 0.373164 0.918528 0.008798
O O11 0.393775 0.750000 0.000000
O O12 0.570702 0.649983 0.750000
O O13 0.584102 0.750000 0.000000
O O14 0.602914 0.584904 0.023615
O O15 0.205966 0.513837 0.250000
O O16 0.283102 0.466896 0.473817
O O17 0.169712 0.412905 0.484395
O O18 0.667010 0.986101 0.750000
O O19 0.873040 0.750000 0.500000
O O20 0.892546 0.660542 0.750000
#
# Coordination Sequence:
#
# PCOD8230461 Si02
#       7
#     8   8   8   8   8   8   8
#     4  11  22  39  62  86 115 150 190 239 291 344
#     4  10  18  32  57  86 115 146 184 232 288 345
#     4   9  20  37  60  89 118 149 188 234 285 339
#     4  10  20  37  61  89 118 150 189 235 286 339
#     4  11  25  42  58  82 115 155 200 240 284 341
#     4  11  23  39  58  84 118 155 194 237 285 340
#     4  10  21  38  60  84 113 147 188 238 289 342
#
# _framework density 20.249209
#
# number of rings (size 3 to 8) (size 9 to 14) (size 15 to 20)
#    0.000    1.714    0.000    6.429    0.000    5.714 
#    0.000    2.857    0.000    0.000    0.000    0.000 
#    0.000    0.000    0.000    0.000    0.000    0.000 
#
# Total GULP energy -694504.486349 kJ/mol
# GULP energy per Si atom -12401.865828 kJ/mol
# Density = 2.020312 g / cm^3
# Si number density = 20.249209 Si / 1000 Ang^3
#
#
#
# Elastic Constant Matrix: (Units=GPa)
#
#
# Indices 1 2 3 4 5 6 
#
# 1 60.6240 15.1567 18.3559 0.0000 0.0000 0.0000
# 2 15.1567 73.0143 26.1673 0.0000 0.0000 0.0000
# 3 18.3559 26.1673 85.7811 0.0000 0.0000 0.0000
# 4 0.0000 0.0000 0.0000 32.3936 0.0000 0.0000
# 5 0.0000 0.0000 0.0000 0.0000 22.4064 0.0000
# 6 0.0000 0.0000 0.0000 0.0000 0.0000 11.1499
#
#
#
# Elastic Compliance Matrix: (Units=1/GPa)
#
#
# Indices 1 2 3 4 5 6 
#
# 1 0.018086 -0.002658 -0.003059 0.000000 0.000000 0.000000
# 2 -0.002658 0.015768 -0.004241 0.000000 0.000000 0.000000
# 3 -0.003059 -0.004241 0.013606 0.000000 0.000000 0.000000
# 4 0.000000 0.000000 0.000000 0.030870 0.000000 0.000000
# 5 0.000000 0.000000 0.000000 0.000000 0.044630 0.000000
# 6 0.000000 0.000000 0.000000 0.000000 0.000000 0.089687
#
#
# Mechanical properties :
#
#
# Convention : Reuss Voigt Hill
#
# Bulk Modulus (GPa) = 36.30716 37.64213 36.97464
# Shear Modulus (GPa) = 20.68295 23.83927 22.26111
#
# Velocity S-wave (km/s) = 3.19943 3.43489 3.31925
# Velocity P-wave (km/s) = 5.62295 5.86184 5.74364
#
# Compressibility (1/GPa) = 0.02754278
#
# Stress axis : x y z
#
# Youngs Moduli (GPa) = 55.29154 63.42094 73.49716
#
# Poissons Ratio (x) = 0.16857 0.22485
# Poissons Ratio (y) = 0.14696 0.31171
# Poissons Ratio (z) = 0.16916 0.26898
#
# Static dielectric constant tensor:
#      x y z
#    x 3.991590 0.000000 0.000000 
#    y 0.000000 3.285340 0.000000 
#    z 0.000000 0.000000 3.676470 
# 
# 
# High freq. dielectric constant tensor:
#      x y z
#    x 1.794020 0.000000 0.000000 
#    y 0.000000 1.788700 0.000000 
#    z 0.000000 0.000000 1.801330 
# 
# From -- ./inp_files/8202.got.cif
#   From: 2010.03.12/outbox.cif.g09.slc.cpg/sg57_5_cif.got.tgz:8202.got - 2010.04.16 15:48:40.
