data_PCOD8230279
_publ_section_title
;
Structure prediction by ZEFSAII (Michael W. Deem and Ramdas Pophale) SiO2 
 PCOD8230279
Probable space group: P B C M
;
_chemical_formula_sum "Si O2"
_cell_formula_units_Z 40
_cell_length_a 12.728738
_cell_length_b 19.977142
_cell_length_c 8.875829
_cell_angle_alpha 90.000000
_cell_angle_beta 90.000000
_cell_angle_gamma 90.000000
_cell_volume 2256.979584
_symmetry_space_group_name_H-M "P B C M"
_symmetry_group_IT_number 57
_symmetry_cell_setting 'orthorhombic'
loop_
_space_group_symop_operation_xyz
x,y,z
-x,-y,1/2+z
x,1/2-y,-z
-x,1/2+y,1/2-z
-x,-y,-z
x,y,1/2-z
-x,1/2+y,z
x,1/2-y,1/2+z
loop_
_atom_site_type_symbol
_atom_site_label
_atom_site_fract_x
_atom_site_fract_y
_atom_site_fract_z
Si Si1 0.979650 0.568927 0.923206
Si Si2 0.621169 0.319392 0.573056
Si Si3 0.455220 0.433411 0.926679
Si Si4 0.202660 0.901449 0.072135
Si Si5 0.755430 0.954398 0.427842
O O1 0.982297 0.551523 0.750000
O O2 0.860044 0.591150 0.964573
O O3 0.078774 0.617107 0.961834
O O4 0.000000 0.500000 0.000000
O O5 0.585377 0.250000 0.500000
O O6 0.637463 0.310707 0.750000
O O7 0.531113 0.372375 0.533679
O O8 0.730966 0.341874 0.499860
O O9 0.444773 0.444967 0.750000
O O10 0.500000 0.500000 0.000000
O O11 0.341603 0.416147 0.996211
O O12 0.224879 0.906345 0.250000
O O13 0.234949 0.971379 0.996217
O O14 0.735525 0.961811 0.250000
#
# Coordination Sequence:
#
# PCOD8230279 Si02
#       5
#     8   8   8   8   8
#     4   8  16  28  45  73 105 136 168 208 255 306
#     4  11  24  39  55  77 106 141 181 225 274 329
#     4  11  22  35  54  79 108 141 181 225 273 325
#     4  10  18  31  52  76 106 140 176 217 265 316
#     4  10  18  30  50  78 110 140 175 218 266 315
#
# _framework density 17.722799999999999
#
# number of rings (size 3 to 8) (size 9 to 14) (size 15 to 20)
#    0.000    2.000    2.000    2.400    0.000    4.000 
#    0.000    0.000    0.000    1.200    0.000    2.800 
#    0.000    0.000    0.000    0.000    0.000    0.000 
#
# Total GULP energy -495635.364919 kJ/mol
# GULP energy per Si atom -12390.884123 kJ/mol
# Density = 1.768246 g / cm^3
# Si number density = 17.722800 Si / 1000 Ang^3
#
#
#
# Elastic Constant Matrix: (Units=GPa)
#
#
# Indices 1 2 3 4 5 6 
#
# 1 175.0123 57.9953 71.5656 0.0000 0.0000 0.0000
# 2 57.9953 81.6581 48.8082 0.0000 0.0000 0.0000
# 3 71.5656 48.8082 92.3814 0.0000 0.0000 0.0000
# 4 0.0000 0.0000 0.0000 24.0062 0.0000 0.0000
# 5 0.0000 0.0000 0.0000 0.0000 30.8813 0.0000
# 6 0.0000 0.0000 0.0000 0.0000 0.0000 16.8406
#
#
#
# Elastic Compliance Matrix: (Units=1/GPa)
#
#
# Indices 1 2 3 4 5 6 
#
# 1 0.008906 -0.003218 -0.005200 0.000000 0.000000 0.000000
# 2 -0.003218 0.019061 -0.007578 0.000000 0.000000 0.000000
# 3 -0.005200 -0.007578 0.018856 0.000000 0.000000 0.000000
# 4 0.000000 0.000000 0.000000 0.041656 0.000000 0.000000
# 5 0.000000 0.000000 0.000000 0.000000 0.032382 0.000000
# 6 0.000000 0.000000 0.000000 0.000000 0.000000 0.059380
#
#
# Mechanical properties :
#
#
# Convention : Reuss Voigt Hill
#
# Bulk Modulus (GPa) = 67.41551 78.42111 72.91831
# Shear Modulus (GPa) = 23.02278 25.72446 24.37362
#
# Velocity S-wave (km/s) = 3.60814 3.81398 3.71249
# Velocity P-wave (km/s) = 7.44847 7.98373 7.72074
#
# Compressibility (1/GPa) = 0.01483338
#
# Stress axis : x y z
#
# Youngs Moduli (GPa) = 112.28003 52.46373 53.03276
#
# Poissons Ratio (x) = 0.16881 0.27574
# Poissons Ratio (y) = 0.36127 0.40187
# Poissons Ratio (z) = 0.58380 0.39756
#
# Static dielectric constant tensor:
#      x y z
#    x 4.334440 0.000000 0.000000 
#    y 0.000000 2.308740 0.000000 
#    z 0.000000 0.000000 3.425810 
# 
# 
# High freq. dielectric constant tensor:
#      x y z
#    x 1.713560 0.000000 0.000000 
#    y 0.000000 1.626670 0.000000 
#    z 0.000000 0.000000 1.704250 
# 
# From -- ./inp_files/2907.got.cif
#   From: 2010.03.12/outbox.cif.g09.slc.cpg/sg57_2_cif.got.tgz:2907.got - 2010.04.16 15:48:40.
