data_PCOD8230924
_publ_section_title
;
Structure prediction by ZEFSAII (Michael W. Deem and Ramdas Pophale) SiO2 
 PCOD8230924
Probable space group: P B C M
;
_chemical_formula_sum "Si O2"
_cell_formula_units_Z 64
_cell_length_a 14.862106
_cell_length_b 29.195265
_cell_length_c 9.017530
_cell_angle_alpha 90.000000
_cell_angle_beta 90.000000
_cell_angle_gamma 90.000000
_cell_volume 3912.734430
_symmetry_space_group_name_H-M "P B C M"
_symmetry_group_IT_number 57
_symmetry_cell_setting 'orthorhombic'
loop_
_space_group_symop_operation_xyz
x,y,z
-x,-y,1/2+z
x,1/2-y,-z
-x,1/2+y,1/2-z
-x,-y,-z
x,y,1/2-z
-x,1/2+y,z
x,1/2-y,1/2+z
loop_
_atom_site_type_symbol
_atom_site_label
_atom_site_fract_x
_atom_site_fract_y
_atom_site_fract_z
Si Si1 0.321393 0.037036 0.922169
Si Si2 0.797869 0.117393 0.924521
Si Si3 0.118702 0.464603 0.079484
Si Si4 0.284283 0.703673 0.423766
Si Si5 0.536032 0.887006 0.077216
Si Si6 0.632580 0.445938 0.076236
Si Si7 0.506949 0.203346 0.423508
Si Si8 0.950350 0.433513 0.579517
O O1 0.320050 0.024161 0.750000
O O2 0.219617 0.043779 0.979911
O O3 0.374409 0.083808 0.953115
O O4 0.371775 0.995571 0.002574
O O5 0.799772 0.126438 0.750000
O O6 0.725595 0.078545 0.966925
O O7 0.774099 0.163605 0.007719
O O8 0.895460 0.102443 0.981190
O O9 0.107698 0.449498 0.250000
O O10 0.095913 0.517588 0.058502
O O11 0.052466 0.434086 0.979613
O O12 0.250665 0.750000 0.500000
O O13 0.266600 0.706917 0.250000
O O14 0.388608 0.695070 0.460691
O O15 0.523358 0.875470 0.250000
O O16 0.449984 0.915224 0.017133
O O17 0.547381 0.839667 0.988857
O O18 0.622548 0.453464 0.250000
O O19 0.472612 0.250000 0.500000
O O20 0.488283 0.207456 0.250000
O O21 0.950322 0.417921 0.750000
#
# Coordination Sequence:
#
# PCOD8230924 Si02
#       8
#     8   8   8   8   8   8   8   8
#     4  10  20  33  50  69  97 134 170 209 248 289
#     4  11  20  31  49  72 100 133 165 201 244 291
#     4   9  18  32  47  68  95 125 163 205 248 292
#     4  10  20  33  50  72  98 129 164 203 246 293
#     4  10  20  34  49  70  99 133 169 204 245 293
#     4  10  20  31  45  68 100 135 170 203 237 285
#     4  10  20  33  51  72  96 127 163 206 249 290
#     4  10  19  31  49  70  94 126 163 204 245 292
#
# _framework density 16.356846999999998
#
# number of rings (size 3 to 8) (size 9 to 14) (size 15 to 20)
#    0.000    2.000    2.500    1.875    0.000    3.500 
#    0.000    0.000    0.000    0.000    0.000    0.875 
#    0.000    2.000    0.000    0.000    0.000    0.000 
#
# Total GULP energy -793849.687668 kJ/mol
# GULP energy per Si atom -12403.901370 kJ/mol
# Density = 1.631962 g / cm^3
# Si number density = 16.356847 Si / 1000 Ang^3
#
#
#
# Elastic Constant Matrix: (Units=GPa)
#
#
# Indices 1 2 3 4 5 6 
#
# 1 81.2577 40.5647 33.4422 0.0000 0.0000 0.0000
# 2 40.5647 100.2213 46.5211 0.0000 0.0000 0.0000
# 3 33.4422 46.5211 66.6793 0.0000 0.0000 0.0000
# 4 0.0000 0.0000 0.0000 32.4313 0.0000 0.0000
# 5 0.0000 0.0000 0.0000 0.0000 21.7870 0.0000
# 6 0.0000 0.0000 0.0000 0.0000 0.0000 96.5058
#
#
#
# Elastic Compliance Matrix: (Units=1/GPa)
#
#
# Indices 1 2 3 4 5 6 
#
# 1 0.016638 -0.004231 -0.005393 0.000000 0.000000 0.000000
# 2 -0.004231 0.015833 -0.008924 0.000000 0.000000 0.000000
# 3 -0.005393 -0.008924 0.023928 0.000000 0.000000 0.000000
# 4 0.000000 0.000000 0.000000 0.030834 0.000000 0.000000
# 5 0.000000 0.000000 0.000000 0.000000 0.045899 0.000000
# 6 0.000000 0.000000 0.000000 0.000000 0.000000 0.010362
#
#
# Mechanical properties :
#
#
# Convention : Reuss Voigt Hill
#
# Bulk Modulus (GPa) = 51.80540 54.35714 53.08127
# Shear Modulus (GPa) = 26.73432 38.65350 32.69391
#
# Velocity S-wave (km/s) = 4.04721 4.86649 4.47563
# Velocity P-wave (km/s) = 7.31988 8.05488 7.69616
#
# Compressibility (1/GPa) = 0.01930301
#
# Stress axis : x y z
#
# Youngs Moduli (GPa) = 60.10289 63.15907 41.79168
#
# Poissons Ratio (x) = 0.26723 0.22537
# Poissons Ratio (y) = 0.25430 0.37297
# Poissons Ratio (z) = 0.32411 0.56366
#
# Static dielectric constant tensor:
#      x y z
#    x 3.042920 0.000000 0.000000 
#    y 0.000000 2.695510 0.000000 
#    z 0.000000 0.000000 3.090970 
# 
# 
# High freq. dielectric constant tensor:
#      x y z
#    x 1.611430 0.000000 0.000000 
#    y 0.000000 1.615200 0.000000 
#    z 0.000000 0.000000 1.637010 
# 
# From -- ./inp_files/5961.got.cif
#   From: 2010.03.12/outbox.cif.g09.slc.cpg/sg57_3_cif.got.tgz:5961.got - 2010.04.16 15:48:40.
