data_PCOD8230496
_publ_section_title
;
Structure prediction by ZEFSAII (Michael W. Deem and Ramdas Pophale) SiO2 
 PCOD8230496
Probable space group: P B C M
;
_chemical_formula_sum "Si O2"
_cell_formula_units_Z 64
_cell_length_a 22.517975
_cell_length_b 8.598776
_cell_length_c 13.949046
_cell_angle_alpha 90.000000
_cell_angle_beta 90.000000
_cell_angle_gamma 90.000000
_cell_volume 2700.912251
_symmetry_space_group_name_H-M "P B C M"
_symmetry_group_IT_number 57
_symmetry_cell_setting 'orthorhombic'
loop_
_space_group_symop_operation_xyz
x,y,z
-x,-y,1/2+z
x,1/2-y,-z
-x,1/2+y,1/2-z
-x,-y,-z
x,y,1/2-z
-x,1/2+y,z
x,1/2-y,1/2+z
loop_
_atom_site_type_symbol
_atom_site_label
_atom_site_fract_x
_atom_site_fract_y
_atom_site_fract_z
Si Si1 0.648566 0.173723 0.359926
Si Si2 0.149446 0.818803 0.645066
Si Si3 0.082309 0.119940 0.144317
Si Si4 0.182963 0.506776 0.535705
Si Si5 0.028407 0.703150 0.607283
Si Si6 0.580826 0.675262 0.365739
Si Si7 0.466851 0.501411 0.140527
Si Si8 0.317058 0.994184 0.043512
O O1 0.669050 0.143288 0.250000
O O2 0.678000 0.047680 0.430840
O O3 0.666438 0.346006 0.391067
O O4 0.577508 0.148961 0.369136
O O5 0.178473 0.846708 0.750000
O O6 0.172832 0.659194 0.599647
O O7 0.169548 0.959574 0.576135
O O8 0.078481 0.803850 0.662061
O O9 0.109821 0.103999 0.250000
O O10 0.039493 0.269366 0.139589
O O11 0.137447 0.127525 0.070658
O O12 0.038179 0.978917 0.120499
O O13 0.249530 0.449490 0.555967
O O14 0.039046 0.750000 0.500000
O O15 0.589311 0.672475 0.250000
O O16 0.561290 0.845401 0.405428
O O17 0.530672 0.551909 0.401986
O O18 0.641768 0.634387 0.419978
O O19 0.478298 0.458238 0.250000
#
# Coordination Sequence:
#
# PCOD8230496 Si02
#       8
#     8   8   8   8   8   8   8   8
#     4  10  21  38  60  87 119 151 195 254 303 354
#     4  10  18  33  57  85 116 151 194 251 308 358
#     4  11  22  38  61  90 122 159 200 248 304 365
#     4  10  21  36  54  85 118 157 204 247 294 357
#     4  11  20  36  61  88 120 154 194 251 310 362
#     4  10  20  36  61  92 124 158 197 246 299 361
#     4   9  19  37  62  92 125 157 196 249 309 360
#     4  11  23  36  60  90 117 160 206 240 300 362
#
# _framework density 23.695696999999999
#
# number of rings (size 3 to 8) (size 9 to 14) (size 15 to 20)
#    0.000    1.750    2.500    5.250    0.000    6.500 
#    0.000    0.000    2.750    0.000    0.000    0.000 
#    0.000    0.000    0.000    0.000    0.000    0.000 
#
# Total GULP energy -793343.292010 kJ/mol
# GULP energy per Si atom -12395.988938 kJ/mol
# Density = 2.364176 g / cm^3
# Si number density = 23.695697 Si / 1000 Ang^3
#
#
#
# Elastic Constant Matrix: (Units=GPa)
#
#
# Indices 1 2 3 4 5 6 
#
# 1 174.0766 29.8337 34.8294 0.0000 0.0000 0.0000
# 2 29.8337 48.4715 18.5947 0.0000 0.0000 0.0000
# 3 34.8294 18.5947 143.7200 0.0000 0.0000 0.0000
# 4 0.0000 0.0000 0.0000 131.3879 0.0000 0.0000
# 5 0.0000 0.0000 0.0000 0.0000 14.3313 0.0000
# 6 0.0000 0.0000 0.0000 0.0000 0.0000 25.8633
#
#
#
# Elastic Compliance Matrix: (Units=1/GPa)
#
#
# Indices 1 2 3 4 5 6 
#
# 1 0.006591 -0.003624 -0.001129 0.000000 0.000000 0.000000
# 2 -0.003624 0.023701 -0.002188 0.000000 0.000000 0.000000
# 3 -0.001129 -0.002188 0.007515 0.000000 0.000000 0.000000
# 4 0.000000 0.000000 0.000000 0.007611 0.000000 0.000000
# 5 0.000000 0.000000 0.000000 0.000000 0.069778 0.000000
# 6 0.000000 0.000000 0.000000 0.000000 0.000000 0.038665
#
#
# Mechanical properties :
#
#
# Convention : Reuss Voigt Hill
#
# Bulk Modulus (GPa) = 41.79685 59.19818 50.49751
# Shear Modulus (GPa) = 28.45488 53.18383 40.81936
#
# Velocity S-wave (km/s) = 3.46908 4.74270 4.15498
# Velocity P-wave (km/s) = 5.80718 7.41808 6.66150
#
# Compressibility (1/GPa) = 0.02392525
#
# Stress axis : x y z
#
# Youngs Moduli (GPa) = 151.71064 42.19290 133.07487
#
# Poissons Ratio (x) = 0.15291 0.15018
# Poissons Ratio (y) = 0.54981 0.29119
# Poissons Ratio (z) = 0.17121 0.09232
#
# Static dielectric constant tensor:
#      x y z
#    x 4.344760 0.000000 0.000000 
#    y 0.000000 3.884840 0.000000 
#    z 0.000000 0.000000 4.400980 
# 
# 
# High freq. dielectric constant tensor:
#      x y z
#    x 1.932430 0.000000 0.000000 
#    y 0.000000 1.908550 0.000000 
#    z 0.000000 0.000000 1.951490 
# 
# From -- ./inp_files/19543.got.cif
#   From: 2010.03.12/outbox.cif.g09.slc.cpg/sg57_10_cif.got.tgz:19543.got - 2010.04.16 15:48:40.
