data_PCOD8230301
_publ_section_title
;
Structure prediction by ZEFSAII (Michael W. Deem and Ramdas Pophale) SiO2 
 PCOD8230301
Probable space group: P B C M
;
_chemical_formula_sum "Si O2"
_cell_formula_units_Z 56
_cell_length_a 9.759897
_cell_length_b 22.875940
_cell_length_c 13.632461
_cell_angle_alpha 90.000000
_cell_angle_beta 90.000000
_cell_angle_gamma 90.000000
_cell_volume 3043.676191
_symmetry_space_group_name_H-M "P B C M"
_symmetry_group_IT_number 57
_symmetry_cell_setting 'orthorhombic'
loop_
_space_group_symop_operation_xyz
x,y,z
-x,-y,1/2+z
x,1/2-y,-z
-x,1/2+y,1/2-z
-x,-y,-z
x,y,1/2-z
-x,1/2+y,z
x,1/2-y,1/2+z
loop_
_atom_site_type_symbol
_atom_site_label
_atom_site_fract_x
_atom_site_fract_y
_atom_site_fract_z
Si Si1 0.512148 0.189919 0.548542
Si Si2 0.947006 0.815150 0.014488
Si Si3 0.147602 0.851085 0.864517
Si Si4 0.509159 0.971275 0.361244
Si Si5 0.388019 0.582152 0.043692
Si Si6 0.794056 0.280725 0.138284
Si Si7 0.720636 0.873267 0.139921
O O1 0.470790 0.250000 0.500000
O O2 0.518604 0.140416 0.463580
O O3 0.656103 0.188804 0.604057
O O4 0.396684 0.175665 0.628418
O O5 0.841558 0.859964 0.063522
O O6 0.082118 0.808660 0.079476
O O7 0.881910 0.750000 0.000000
O O8 0.995689 0.844955 0.912045
O O9 0.131668 0.866825 0.750000
O O10 0.235478 0.901248 0.919423
O O11 0.222976 0.788658 0.879976
O O12 0.457352 0.961523 0.250000
O O13 0.390104 0.949115 0.435804
O O14 0.651797 0.936362 0.380682
O O15 0.541320 0.039421 0.377740
O O16 0.824078 0.295042 0.250000
O O17 0.779860 0.869643 0.250000
#
# Coordination Sequence:
#
# PCOD8230301 Si02
#       7
#     8   8   8   8   8   8   8
#     4  11  18  32  52  83 115 136 174 222 280 329
#     4  10  19  35  51  77 109 147 182 224 276 330
#     4  10  19  32  54  80 105 141 182 222 275 328
#     4   9  20  36  55  79 109 148 189 224 270 327
#     4  10  18  34  57  79 109 143 180 228 278 322
#     4  10  18  30  52  80 112 140 177 221 269 331
#     4  10  21  35  52  75 108 148 186 222 270 325
#
# _framework density 18.398803999999998
#
# number of rings (size 3 to 8) (size 9 to 14) (size 15 to 20)
#    0.000    2.000    2.857    2.143    0.000    1.143 
#    0.000    0.714    0.000   11.143    0.000    0.000 
#    0.000    0.000    0.000    0.000    0.000    0.000 
#
# Total GULP energy -694180.956473 kJ/mol
# GULP energy per Si atom -12396.088508 kJ/mol
# Density = 1.835693 g / cm^3
# Si number density = 18.398804 Si / 1000 Ang^3
#
#
#
# Elastic Constant Matrix: (Units=GPa)
#
#
# Indices 1 2 3 4 5 6 
#
# 1 70.2682 20.5032 45.5230 0.0000 0.0000 0.0000
# 2 20.5032 85.5140 37.3470 0.0000 0.0000 0.0000
# 3 45.5230 37.3470 117.4032 0.0000 0.0000 0.0000
# 4 0.0000 0.0000 0.0000 24.7964 0.0000 0.0000
# 5 0.0000 0.0000 0.0000 0.0000 22.3746 0.0000
# 6 0.0000 0.0000 0.0000 0.0000 0.0000 25.6231
#
#
#
# Elastic Compliance Matrix: (Units=1/GPa)
#
#
# Indices 1 2 3 4 5 6 
#
# 1 0.019185 -0.001569 -0.006940 0.000000 0.000000 0.000000
# 2 -0.001569 0.013709 -0.003753 0.000000 0.000000 0.000000
# 3 -0.006940 -0.003753 0.012402 0.000000 0.000000 0.000000
# 4 0.000000 0.000000 0.000000 0.040328 0.000000 0.000000
# 5 0.000000 0.000000 0.000000 0.000000 0.044694 0.000000
# 6 0.000000 0.000000 0.000000 0.000000 0.000000 0.039027
#
#
# Mechanical properties :
#
#
# Convention : Reuss Voigt Hill
#
# Bulk Modulus (GPa) = 48.13832 53.32575 50.73204
# Shear Modulus (GPa) = 24.90126 25.87962 25.39044
#
# Velocity S-wave (km/s) = 3.68287 3.75453 3.71887
# Velocity P-wave (km/s) = 6.65623 6.91675 6.78774
#
# Compressibility (1/GPa) = 0.02077347
#
# Stress axis : x y z
#
# Youngs Moduli (GPa) = 52.12417 72.94444 80.63012
#
# Poissons Ratio (x) = 0.11445 0.55956
# Poissons Ratio (y) = 0.08178 0.30257
# Poissons Ratio (z) = 0.36173 0.27373
#
# Static dielectric constant tensor:
#      x y z
#    x 3.162800 0.000000 0.000000 
#    y 0.000000 3.477870 0.000000 
#    z 0.000000 0.000000 3.619360 
# 
# 
# High freq. dielectric constant tensor:
#      x y z
#    x 1.683700 0.000000 0.000000 
#    y 0.000000 1.707050 0.000000 
#    z 0.000000 0.000000 1.722280 
# 
# From -- ./inp_files/16739.got.cif
#   From: 2010.03.12/outbox.cif.g09.slc.cpg/sg57_9_cif.got.tgz:16739.got - 2010.04.16 15:48:40.
