data_PCOD8230518
_publ_section_title
;
Structure prediction by ZEFSAII (Michael W. Deem and Ramdas Pophale) SiO2 
 PCOD8230518
Probable space group: P B C M
;
_chemical_formula_sum "Si O2"
_cell_formula_units_Z 48
_cell_length_a 28.954804
_cell_length_b 8.771383
_cell_length_c 9.360138
_cell_angle_alpha 90.000000
_cell_angle_beta 90.000000
_cell_angle_gamma 90.000000
_cell_volume 2377.228652
_symmetry_space_group_name_H-M "P B C M"
_symmetry_group_IT_number 57
_symmetry_cell_setting 'orthorhombic'
loop_
_space_group_symop_operation_xyz
x,y,z
-x,-y,1/2+z
x,1/2-y,-z
-x,1/2+y,1/2-z
-x,-y,-z
x,y,1/2-z
-x,1/2+y,z
x,1/2-y,1/2+z
loop_
_atom_site_type_symbol
_atom_site_label
_atom_site_fract_x
_atom_site_fract_y
_atom_site_fract_z
Si Si1 0.292789 0.097380 0.910405
Si Si2 0.440448 0.014988 0.250000
Si Si3 0.203973 0.909120 0.920065
Si Si4 0.871224 0.599714 0.085055
Si Si5 0.462393 0.130028 0.750000
Si Si6 0.037322 0.904123 0.414374
Si Si7 0.607724 0.927723 0.020400
O O1 0.286181 0.154287 0.750000
O O2 0.342788 0.013011 0.925203
O O3 0.255472 0.969600 0.949773
O O4 0.286046 0.250000 0.000000
O O5 0.457875 0.188467 0.250000
O O6 0.406508 0.980366 0.380389
O O7 0.483527 0.902474 0.250000
O O8 0.193559 0.892441 0.750000
O O9 0.197681 0.750000 0.000000
O O10 0.170152 0.028944 0.993892
O O11 0.856234 0.634494 0.250000
O O12 0.914119 0.487537 0.085986
O O13 0.886685 0.750000 0.000000
O O14 0.436953 0.050280 0.618605
O O15 0.044712 0.750000 0.500000
O O16 0.021026 0.874849 0.250000
O O17 0.000000 0.000000 0.500000
O O18 0.616549 0.750000 0.000000
#
# Coordination Sequence:
#
# PCOD8230518 Si02
#       7
#     8   4   8   8   4   8   8
#     4  10  21  37  60  86 111 145 192 242 290 347
#     4  10  20  32  52  78 102 140 178 222 275 336
#     4  11  24  42  62  89 123 160 199 246 305 368
#     4  11  24  42  65  95 127 165 210 260 309 364
#     4  10  18  34  52  74 106 138 176 224 273 334
#     4  11  24  41  64  94 131 172 217 264 317 371
#     4   9  18  33  53  77 105 136 181 226 276 335
#
# _framework density 20.191579000000001
#
# number of rings (size 3 to 8) (size 9 to 14) (size 15 to 20)
#    0.000    1.667    0.833    3.500    3.500    8.000 
#    0.000    1.667    0.000    0.000    0.000    0.000 
#    0.000    0.000    0.000    0.000    0.000    0.000 
#
# Total GULP energy -595012.950863 kJ/mol
# GULP energy per Si atom -12396.103143 kJ/mol
# Density = 2.014562 g / cm^3
# Si number density = 20.191579 Si / 1000 Ang^3
#
#
#
# Elastic Constant Matrix: (Units=GPa)
#
#
# Indices 1 2 3 4 5 6 
#
# 1 95.6948 19.1618 36.4592 0.0000 0.0000 0.0000
# 2 19.1618 76.6452 46.5261 0.0000 0.0000 0.0000
# 3 36.4592 46.5261 143.6058 0.0000 0.0000 0.0000
# 4 0.0000 0.0000 0.0000 4.5090 0.0000 0.0000
# 5 0.0000 0.0000 0.0000 0.0000 39.0043 0.0000
# 6 0.0000 0.0000 0.0000 0.0000 0.0000 26.2833
#
#
#
# Elastic Compliance Matrix: (Units=1/GPa)
#
#
# Indices 1 2 3 4 5 6 
#
# 1 0.011688 -0.001395 -0.002515 0.000000 0.000000 0.000000
# 2 -0.001395 0.016408 -0.004962 0.000000 0.000000 0.000000
# 3 -0.002515 -0.004962 0.009210 0.000000 0.000000 0.000000
# 4 0.000000 0.000000 0.000000 0.221778 0.000000 0.000000
# 5 0.000000 0.000000 0.000000 0.000000 0.025638 0.000000
# 6 0.000000 0.000000 0.000000 0.000000 0.000000 0.038047
#
#
# Mechanical properties :
#
#
# Convention : Reuss Voigt Hill
#
# Bulk Modulus (GPa) = 51.12261 57.80443 54.46352
# Shear Modulus (GPa) = 14.40785 28.21258 21.31021
#
# Velocity S-wave (km/s) = 2.67415 3.74203 3.25222
# Velocity P-wave (km/s) = 5.90834 6.88190 6.41362
#
# Compressibility (1/GPa) = 0.01956082
#
# Stress axis : x y z
#
# Youngs Moduli (GPa) = 85.56113 60.94656 108.58223
#
# Poissons Ratio (x) = 0.08503 0.27312
# Poissons Ratio (y) = 0.11937 0.53875
# Poissons Ratio (z) = 0.21521 0.30240
#
# Static dielectric constant tensor:
#      x y z
#    x 3.754270 0.000000 0.000000 
#    y 0.000000 3.935400 0.000000 
#    z 0.000000 0.000000 4.066860 
# 
# 
# High freq. dielectric constant tensor:
#      x y z
#    x 1.803660 0.000000 0.000000 
#    y 0.000000 1.766390 0.000000 
#    z 0.000000 0.000000 1.809410 
# 
# From -- ./inp_files/10166.got.cif
#   From: 2010.03.12/outbox.cif.g09.slc.cpg/sg57_6_cif.got.tgz:10166.got - 2010.04.16 15:48:40.
