data_PCOD8230940
_publ_section_title
;
Structure prediction by ZEFSAII (Michael W. Deem and Ramdas Pophale) SiO2 
 PCOD8230940
Probable space group: P B C M
;
_chemical_formula_sum "Si O2"
_cell_formula_units_Z 64
_cell_length_a 21.788365
_cell_length_b 18.818702
_cell_length_c 8.946168
_cell_angle_alpha 90.000000
_cell_angle_beta 90.000000
_cell_angle_gamma 90.000000
_cell_volume 3668.186064
_symmetry_space_group_name_H-M "P B C M"
_symmetry_group_IT_number 57
_symmetry_cell_setting 'orthorhombic'
loop_
_space_group_symop_operation_xyz
x,y,z
-x,-y,1/2+z
x,1/2-y,-z
-x,1/2+y,1/2-z
-x,-y,-z
x,y,1/2-z
-x,1/2+y,z
x,1/2-y,1/2+z
loop_
_atom_site_type_symbol
_atom_site_label
_atom_site_fract_x
_atom_site_fract_y
_atom_site_fract_z
Si Si1 0.806728 0.031809 0.073476
Si Si2 0.914249 0.958765 0.582626
Si Si3 0.494607 0.822967 0.425499
Si Si4 0.636795 0.822524 0.423637
Si Si5 0.445754 0.956099 0.928026
Si Si6 0.321525 0.027802 0.572579
Si Si7 0.981199 0.391582 0.417883
Si Si8 0.129908 0.677029 0.427033
O O1 0.812503 0.023562 0.250000
O O2 0.824592 0.112390 0.026226
O O3 0.738735 0.013210 0.013825
O O4 0.850867 0.972957 0.002054
O O5 0.900504 0.931883 0.750000
O O6 0.952457 0.897432 0.497164
O O7 0.952510 0.030764 0.587179
O O8 0.475585 0.750000 0.500000
O O9 0.480677 0.822809 0.250000
O O10 0.565799 0.840143 0.458074
O O11 0.450451 0.877065 0.510275
O O12 0.659275 0.750000 0.500000
O O13 0.647043 0.810367 0.250000
O O14 0.676020 0.889998 0.483415
O O15 0.451497 0.959154 0.750000
O O16 0.380979 0.986237 0.985952
O O17 0.500000 0.000000 0.000000
O O18 0.322292 0.028329 0.750000
O O19 0.989135 0.361454 0.250000
O O20 0.938238 0.338528 0.511618
O O21 0.154988 0.750000 0.500000
O O22 0.126794 0.685963 0.250000
#
# Coordination Sequence:
#
# PCOD8230940 Si02
#       8
#     8   8   8   8   8   8   8   8
#     4   9  18  33  52  71  95 134 180 216 254 309
#     4   9  16  27  45  71 101 125 153 200 249 292
#     4  10  19  33  51  75 102 131 165 206 261 322
#     4   9  17  31  50  73  98 124 156 199 251 310
#     4  11  20  33  52  75 103 135 171 218 271 321
#     4   9  18  34  53  73 100 135 174 215 260 314
#     4   9  16  27  46  71  97 126 159 197 244 292
#     4  10  19  31  49  73 100 133 173 216 259 304
#
# _framework density 17.447315
#
# number of rings (size 3 to 8) (size 9 to 14) (size 15 to 20)
#    0.000    2.500    1.250    1.875    0.000    4.000 
#    0.000    2.500    0.000    2.250    0.000    3.500 
#    0.000    0.000    0.000    0.000    0.000    0.000 
#
# Total GULP energy -793439.341029 kJ/mol
# GULP energy per Si atom -12397.489704 kJ/mol
# Density = 1.740760 g / cm^3
# Si number density = 17.447315 Si / 1000 Ang^3
#
#
#
# Elastic Constant Matrix: (Units=GPa)
#
#
# Indices 1 2 3 4 5 6 
#
# 1 124.2169 67.2448 42.3138 0.0000 0.0000 0.0000
# 2 67.2448 119.4278 42.7468 0.0000 0.0000 0.0000
# 3 42.3138 42.7468 73.0208 0.0000 0.0000 0.0000
# 4 0.0000 0.0000 0.0000 30.1964 0.0000 0.0000
# 5 0.0000 0.0000 0.0000 0.0000 19.6802 0.0000
# 6 0.0000 0.0000 0.0000 0.0000 0.0000 22.8038
#
#
#
# Elastic Compliance Matrix: (Units=1/GPa)
#
#
# Indices 1 2 3 4 5 6 
#
# 1 0.012409 -0.005583 -0.003922 0.000000 0.000000 0.000000
# 2 -0.005583 0.013105 -0.004436 0.000000 0.000000 0.000000
# 3 -0.003922 -0.004436 0.018565 0.000000 0.000000 0.000000
# 4 0.000000 0.000000 0.000000 0.033117 0.000000 0.000000
# 5 0.000000 0.000000 0.000000 0.000000 0.050813 0.000000
# 6 0.000000 0.000000 0.000000 0.000000 0.000000 0.043852
#
#
# Mechanical properties :
#
#
# Convention : Reuss Voigt Hill
#
# Bulk Modulus (GPa) = 61.74778 69.03070 65.38924
# Shear Modulus (GPa) = 24.37342 25.49342 24.93342
#
# Velocity S-wave (km/s) = 3.74166 3.82667 3.78440
# Velocity P-wave (km/s) = 7.35762 7.69257 7.52696
#
# Compressibility (1/GPa) = 0.01619491
#
# Stress axis : x y z
#
# Youngs Moduli (GPa) = 80.58722 76.30831 53.86562
#
# Poissons Ratio (x) = 0.42603 0.21128
# Poissons Ratio (y) = 0.44992 0.23897
# Poissons Ratio (z) = 0.31609 0.33853
#
# Static dielectric constant tensor:
#      x y z
#    x 3.272200 0.000000 0.000000 
#    y 0.000000 3.338070 0.000000 
#    z 0.000000 0.000000 3.322750 
# 
# 
# High freq. dielectric constant tensor:
#      x y z
#    x 1.651390 0.000000 0.000000 
#    y 0.000000 1.665390 0.000000 
#    z 0.000000 0.000000 1.673920 
# 
# From -- ./inp_files/8554.got.cif
#   From: 2010.03.12/outbox.cif.g09.slc.cpg/sg57_5_cif.got.tgz:8554.got - 2010.04.16 15:48:40.
