data_PCOD8230880
_publ_section_title
;
Structure prediction by ZEFSAII (Michael W. Deem and Ramdas Pophale) SiO2 
 PCOD8230880
Probable space group: P B C M
;
_chemical_formula_sum "Si O2"
_cell_formula_units_Z 64
_cell_length_a 22.996693
_cell_length_b 15.336980
_cell_length_c 9.181394
_cell_angle_alpha 90.000000
_cell_angle_beta 90.000000
_cell_angle_gamma 90.000000
_cell_volume 3238.276017
_symmetry_space_group_name_H-M "P B C M"
_symmetry_group_IT_number 57
_symmetry_cell_setting 'orthorhombic'
loop_
_space_group_symop_operation_xyz
x,y,z
-x,-y,1/2+z
x,1/2-y,-z
-x,1/2+y,1/2-z
-x,-y,-z
x,y,1/2-z
-x,1/2+y,z
x,1/2-y,1/2+z
loop_
_atom_site_type_symbol
_atom_site_label
_atom_site_fract_x
_atom_site_fract_y
_atom_site_fract_z
Si Si1 0.009410 0.910660 0.417549
Si Si2 0.113968 0.163264 0.918384
Si Si3 0.317789 0.480268 0.917631
Si Si4 0.868696 0.337165 0.420095
Si Si5 0.424942 0.423219 0.087002
Si Si6 0.358365 0.669980 0.919780
Si Si7 0.814809 0.518987 0.418534
Si Si8 0.531113 0.380619 0.586360
O O1 0.018481 0.936035 0.250000
O O2 0.954993 0.846800 0.440208
O O3 0.066638 0.861712 0.476445
O O4 0.000000 0.000000 0.500000
O O5 0.131036 0.171897 0.750000
O O6 0.135435 0.250000 0.000000
O O7 0.144895 0.078475 0.982405
O O8 0.334906 0.463676 0.750000
O O9 0.323780 0.582250 0.954747
O O10 0.251637 0.454515 0.950553
O O11 0.360488 0.423001 0.017207
O O12 0.846643 0.250000 0.500000
O O13 0.868646 0.316316 0.250000
O O14 0.825673 0.417506 0.457297
O O15 0.420538 0.383964 0.250000
O O16 0.451864 0.518712 0.093730
O O17 0.467803 0.365899 0.986576
O O18 0.362185 0.689334 0.750000
O O19 0.325178 0.750000 0.000000
O O20 0.423124 0.668294 0.985077
O O21 0.830853 0.535283 0.250000
O O22 0.530368 0.341642 0.750000
#
# Coordination Sequence:
#
# PCOD8230880 Si02
#       8
#     8   8   8   8   8   8   8   8
#     4  10  20  35  57  85 115 148 185 229 284 341
#     4  11  23  38  60  88 114 146 187 234 289 346
#     4   9  19  34  52  73 100 140 183 224 271 323
#     4  10  21  36  55  81 114 152 189 230 281 337
#     4   9  16  27  46  72  98 125 161 209 260 311
#     4  10  19  31  47  71 104 140 180 222 268 323
#     4  10  21  39  59  80 112 151 194 242 287 333
#     4   9  16  27  45  69  97 128 163 205 255 311
#
# _framework density 19.763603
#
# number of rings (size 3 to 8) (size 9 to 14) (size 15 to 20)
#    0.000    2.250    1.250    1.875    0.000    6.000 
#    0.000    0.000    0.000    0.750    0.000    1.750 
#    0.000    0.000    0.000    0.000    0.000    0.000 
#
# Total GULP energy -793606.914835 kJ/mol
# GULP energy per Si atom -12400.108044 kJ/mol
# Density = 1.971862 g / cm^3
# Si number density = 19.763603 Si / 1000 Ang^3
#
#
#
# Elastic Constant Matrix: (Units=GPa)
#
#
# Indices 1 2 3 4 5 6 
#
# 1 80.5351 -0.7393 28.5247 0.0000 0.0000 0.0000
# 2 -0.7393 56.6735 27.0044 0.0000 0.0000 0.0000
# 3 28.5247 27.0044 95.4130 0.0000 0.0000 0.0000
# 4 0.0000 0.0000 0.0000 33.0781 0.0000 0.0000
# 5 0.0000 0.0000 0.0000 0.0000 25.5208 0.0000
# 6 0.0000 0.0000 0.0000 0.0000 0.0000 11.4614
#
#
#
# Elastic Compliance Matrix: (Units=1/GPa)
#
#
# Indices 1 2 3 4 5 6 
#
# 1 0.014200 0.002552 -0.004968 0.000000 0.000000 0.000000
# 2 0.002552 0.020854 -0.006665 0.000000 0.000000 0.000000
# 3 -0.004968 -0.006665 0.013852 0.000000 0.000000 0.000000
# 4 0.000000 0.000000 0.000000 0.030232 0.000000 0.000000
# 5 0.000000 0.000000 0.000000 0.000000 0.039184 0.000000
# 6 0.000000 0.000000 0.000000 0.000000 0.000000 0.087249
#
#
# Mechanical properties :
#
#
# Convention : Reuss Voigt Hill
#
# Bulk Modulus (GPa) = 32.52553 38.02235 35.27394
# Shear Modulus (GPa) = 21.36930 25.86749 23.61840
#
# Velocity S-wave (km/s) = 3.29180 3.62172 3.46069
# Velocity P-wave (km/s) = 5.56246 6.06379 5.81852
#
# Compressibility (1/GPa) = 0.03074508
#
# Stress axis : x y z
#
# Youngs Moduli (GPa) = 70.42335 47.95207 72.19017
#
# Poissons Ratio (x) = -0.12238 0.35861
# Poissons Ratio (y) = -0.17974 0.48117
# Poissons Ratio (z) = 0.34983 0.31961
#
# Static dielectric constant tensor:
#      x y z
#    x 3.586050 0.000000 0.000000 
#    y 0.000000 3.397240 0.000000 
#    z 0.000000 0.000000 3.686880 
# 
# 
# High freq. dielectric constant tensor:
#      x y z
#    x 1.763450 0.000000 0.000000 
#    y 0.000000 1.750850 0.000000 
#    z 0.000000 0.000000 1.773900 
# 
# From -- ./inp_files/9294.got.cif
#   From: 2010.03.12/outbox.cif.g09.slc.cpg/sg57_5_cif.got.tgz:9294.got - 2010.04.16 15:48:40.
