data_PCOD8230629
_publ_section_title
;
Structure prediction by ZEFSAII (Michael W. Deem and Ramdas Pophale) SiO2 
 PCOD8230629
Probable space group: P B C M
;
_chemical_formula_sum "Si O2"
_cell_formula_units_Z 64
_cell_length_a 18.430576
_cell_length_b 24.943079
_cell_length_c 9.115970
_cell_angle_alpha 90.000000
_cell_angle_beta 90.000000
_cell_angle_gamma 90.000000
_cell_volume 4190.751004
_symmetry_space_group_name_H-M "P B C M"
_symmetry_group_IT_number 57
_symmetry_cell_setting 'orthorhombic'
loop_
_space_group_symop_operation_xyz
x,y,z
-x,-y,1/2+z
x,1/2-y,-z
-x,1/2+y,1/2-z
-x,-y,-z
x,y,1/2-z
-x,1/2+y,z
x,1/2-y,1/2+z
loop_
_atom_site_type_symbol
_atom_site_label
_atom_site_fract_x
_atom_site_fract_y
_atom_site_fract_z
Si Si1 0.608968 0.512929 0.078198
Si Si2 0.244956 0.494182 0.412663
Si Si3 0.495347 0.917711 0.077077
Si Si4 0.907673 0.529869 0.918167
Si Si5 0.179741 0.887720 0.584209
Si Si6 0.440933 0.803021 0.421066
Si Si7 0.947886 0.425501 0.082321
Si Si8 0.727294 0.197300 0.578565
O O1 0.604932 0.522525 0.250000
O O2 0.572286 0.456199 0.033692
O O3 0.692465 0.513788 0.030779
O O4 0.567848 0.562053 0.001287
O O5 0.278086 0.485481 0.250000
O O6 0.177143 0.453183 0.441559
O O7 0.209549 0.552481 0.425214
O O8 0.507870 0.919398 0.250000
O O9 0.480259 0.857114 0.022896
O O10 0.915562 0.507083 0.750000
O O11 0.964093 0.579857 0.937563
O O12 0.928103 0.486155 0.039584
O O13 0.179467 0.865662 0.750000
O O14 0.097474 0.884856 0.520519
O O15 0.231808 0.853633 0.482592
O O16 0.472864 0.750000 0.500000
O O17 0.453636 0.794801 0.250000
O O18 0.356866 0.810278 0.459716
O O19 0.924896 0.414917 0.250000
O O20 0.758361 0.250000 0.500000
O O21 0.741242 0.202549 0.750000
#
# Coordination Sequence:
#
# PCOD8230629 Si02
#       8
#     8   8   8   8   8   8   8   8
#     4  10  19  29  43  63  84 110 146 181 212 253
#     4   9  17  28  41  58  83 113 141 171 209 251
#     4   9  18  32  45  59  84 114 141 173 215 258
#     4   8  15  26  38  55  80 108 137 167 200 240
#     4  10  19  29  41  59  83 112 145 176 208 249
#     4   9  18  31  47  65  85 110 141 177 215 256
#     4   9  15  24  39  57  78 106 138 170 202 235
#     4  10  19  31  45  62  84 109 139 175 213 249
#
# _framework density 15.271725999999999
#
# number of rings (size 3 to 8) (size 9 to 14) (size 15 to 20)
#    0.000    2.750    0.000    3.000    0.000    5.500 
#    0.000    0.000    0.000    0.000    0.000    0.000 
#    0.000    1.000    0.000    6.500    0.000    5.125 
#
# Total GULP energy -793167.328702 kJ/mol
# GULP energy per Si atom -12393.239511 kJ/mol
# Density = 1.523697 g / cm^3
# Si number density = 15.271726 Si / 1000 Ang^3
#
#
#
# Elastic Constant Matrix: (Units=GPa)
#
#
# Indices 1 2 3 4 5 6 
#
# 1 87.4786 33.4814 35.3230 0.0000 0.0000 0.0000
# 2 33.4814 70.2948 28.5722 0.0000 0.0000 0.0000
# 3 35.3230 28.5722 56.9785 0.0000 0.0000 0.0000
# 4 0.0000 0.0000 0.0000 22.7898 0.0000 0.0000
# 5 0.0000 0.0000 0.0000 0.0000 25.3535 0.0000
# 6 0.0000 0.0000 0.0000 0.0000 0.0000 15.5089
#
#
#
# Elastic Compliance Matrix: (Units=1/GPa)
#
#
# Indices 1 2 3 4 5 6 
#
# 1 0.016356 -0.004608 -0.007829 0.000000 0.000000 0.000000
# 2 -0.004608 0.019166 -0.006754 0.000000 0.000000 0.000000
# 3 -0.007829 -0.006754 0.025791 0.000000 0.000000 0.000000
# 4 0.000000 0.000000 0.000000 0.043879 0.000000 0.000000
# 5 0.000000 0.000000 0.000000 0.000000 0.039442 0.000000
# 6 0.000000 0.000000 0.000000 0.000000 0.000000 0.064479
#
#
# Mechanical properties :
#
#
# Convention : Reuss Voigt Hill
#
# Bulk Modulus (GPa) = 43.61020 45.50058 44.55539
# Shear Modulus (GPa) = 19.59705 20.55545 20.07625
#
# Velocity S-wave (km/s) = 3.58610 3.67274 3.62968
# Velocity P-wave (km/s) = 6.76498 6.91694 6.84138
#
# Compressibility (1/GPa) = 0.02293041
#
# Stress axis : x y z
#
# Youngs Moduli (GPa) = 61.13797 52.17568 38.77349
#
# Poissons Ratio (x) = 0.24044 0.30356
# Poissons Ratio (y) = 0.28175 0.26188
# Poissons Ratio (z) = 0.47865 0.35240
#
# Static dielectric constant tensor:
#      x y z
#    x 3.085980 0.000000 0.000000 
#    y 0.000000 2.771490 0.000000 
#    z 0.000000 0.000000 3.027100 
# 
# 
# High freq. dielectric constant tensor:
#      x y z
#    x 1.580680 0.000000 0.000000 
#    y 0.000000 1.539120 0.000000 
#    z 0.000000 0.000000 1.597690 
# 
# From -- ./inp_files/7358.got.cif
#   From: 2010.03.12/outbox.cif.g09.slc.cpg/sg57_4_cif.got.tgz:7358.got - 2010.04.16 15:48:40.
