data_PCOD8230013
_publ_section_title
;
Structure prediction by ZEFSAII (Michael W. Deem and Ramdas Pophale) SiO2 
 PCOD8230013
Probable space group: P B C M
;
_chemical_formula_sum "Si O2"
_cell_formula_units_Z 48
_cell_length_a 20.518363
_cell_length_b 5.597324
_cell_length_c 22.729665
_cell_angle_alpha 90.000000
_cell_angle_beta 90.000000
_cell_angle_gamma 90.000000
_cell_volume 2610.454876
_symmetry_space_group_name_H-M "P B C M"
_symmetry_group_IT_number 57
_symmetry_cell_setting 'orthorhombic'
loop_
_space_group_symop_operation_xyz
x,y,z
-x,-y,1/2+z
x,1/2-y,-z
-x,1/2+y,1/2-z
-x,-y,-z
x,y,1/2-z
-x,1/2+y,z
x,1/2-y,1/2+z
loop_
_atom_site_type_symbol
_atom_site_label
_atom_site_fract_x
_atom_site_fract_y
_atom_site_fract_z
Si Si1 0.151456 0.123043 0.923420
Si Si2 0.220053 0.750000 0.000000
Si Si3 0.669584 0.821921 0.315816
Si Si4 0.960742 0.750000 0.000000
Si Si5 0.801463 0.121943 0.315924
Si Si6 0.529035 0.979307 0.181221
Si Si7 0.744869 0.997701 0.608613
O O1 0.083441 0.247715 0.940659
O O2 0.211246 0.301157 0.921680
O O3 0.169629 0.946350 0.976477
O O4 0.145224 0.995986 0.859411
O O5 0.268213 0.679577 0.945541
O O6 0.661089 0.713425 0.250000
O O7 0.606258 0.976253 0.332260
O O8 0.678413 0.607509 0.363187
O O9 0.732874 0.985778 0.318896
O O10 0.000000 0.500000 0.000000
O O11 0.830116 0.127459 0.250000
O O12 0.786649 0.388504 0.338061
O O13 0.512723 0.981114 0.250000
O O14 0.498594 0.730405 0.154302
#
# Coordination Sequence:
#
# PCOD8230013 Si02
#       7
#     8   4   8   4   8   8   8
#     4  10  20  36  55  81 115 141 181 231 281 335
#     4  10  17  32  54  76 112 141 172 222 288 338
#     4   9  18  30  45  74 106 138 186 225 272 338
#     4  12  25  38  64  90 114 147 188 232 276 322
#     4   9  19  32  53  80 110 147 181 228 286 342
#     4   9  18  30  46  67 100 145 184 228 276 323
#     4  10  18  29  53  75 111 139 173 229 285 327
#
# _framework density 18.387599999999999
#
# number of rings (size 3 to 8) (size 9 to 14) (size 15 to 20)
#    0.000    2.333    1.667    1.000    4.667    0.667 
#    0.000    0.000    0.000    1.000    0.000    1.167 
#    0.000    0.000    0.000    0.000    0.000    0.000 
#
# Total GULP energy -594629.309980 kJ/mol
# GULP energy per Si atom -12388.110625 kJ/mol
# Density = 1.834575 g / cm^3
# Si number density = 18.387600 Si / 1000 Ang^3
#
#
#
# Elastic Constant Matrix: (Units=GPa)
#
#
# Indices 1 2 3 4 5 6 
#
# 1 63.3313 20.5142 22.0707 0.0000 0.0000 0.0000
# 2 20.5142 88.2618 22.6674 0.0000 0.0000 0.0000
# 3 22.0707 22.6674 102.2666 0.0000 0.0000 0.0000
# 4 0.0000 0.0000 0.0000 27.1302 0.0000 0.0000
# 5 0.0000 0.0000 0.0000 0.0000 21.5122 0.0000
# 6 0.0000 0.0000 0.0000 0.0000 0.0000 21.9417
#
#
#
# Elastic Compliance Matrix: (Units=1/GPa)
#
#
# Indices 1 2 3 4 5 6 
#
# 1 0.017974 -0.003373 -0.003131 0.000000 0.000000 0.000000
# 2 -0.003373 0.012647 -0.002075 0.000000 0.000000 0.000000
# 3 -0.003131 -0.002075 0.010914 0.000000 0.000000 0.000000
# 4 0.000000 0.000000 0.000000 0.036859 0.000000 0.000000
# 5 0.000000 0.000000 0.000000 0.000000 0.046485 0.000000
# 6 0.000000 0.000000 0.000000 0.000000 0.000000 0.045575
#
#
# Mechanical properties :
#
#
# Convention : Reuss Voigt Hill
#
# Bulk Modulus (GPa) = 41.02530 42.70714 41.86622
# Shear Modulus (GPa) = 25.54413 26.69065 26.11739
#
# Velocity S-wave (km/s) = 3.73125 3.81406 3.77288
# Velocity P-wave (km/s) = 6.39709 6.53243 6.46511
#
# Compressibility (1/GPa) = 0.02437521
#
# Stress axis : x y z
#
# Youngs Moduli (GPa) = 55.63609 79.07053 91.62448
#
# Poissons Ratio (x) = 0.26674 0.28691
# Poissons Ratio (y) = 0.18768 0.19014
# Poissons Ratio (z) = 0.17422 0.16408
#
# Static dielectric constant tensor:
#      x y z
#    x 3.122740 0.000000 0.000000 
#    y 0.000000 3.756700 0.000000 
#    z 0.000000 0.000000 3.685460 
# 
# 
# High freq. dielectric constant tensor:
#      x y z
#    x 1.671420 0.000000 0.000000 
#    y 0.000000 1.730570 0.000000 
#    z 0.000000 0.000000 1.697220 
# 
# From -- ./inp_files/27615.got.cif
#   From: 2010.03.12/outbox.cif.g09.slc.cpg/sg57_14_cif.got.tgz:27615.got - 2010.04.16 15:48:40.
