data_PCOD8230764
_publ_section_title
;
Structure prediction by ZEFSAII (Michael W. Deem and Ramdas Pophale) SiO2 
 PCOD8230764
Probable space group: P B C M
;
_chemical_formula_sum "Si O2"
_cell_formula_units_Z 64
_cell_length_a 16.046078
_cell_length_b 24.239040
_cell_length_c 9.173792
_cell_angle_alpha 90.000000
_cell_angle_beta 90.000000
_cell_angle_gamma 90.000000
_cell_volume 3568.068664
_symmetry_space_group_name_H-M "P B C M"
_symmetry_group_IT_number 57
_symmetry_cell_setting 'orthorhombic'
loop_
_space_group_symop_operation_xyz
x,y,z
-x,-y,1/2+z
x,1/2-y,-z
-x,1/2+y,1/2-z
-x,-y,-z
x,y,1/2-z
-x,1/2+y,z
x,1/2-y,1/2+z
loop_
_atom_site_type_symbol
_atom_site_label
_atom_site_fract_x
_atom_site_fract_y
_atom_site_fract_z
Si Si1 0.108345 0.381783 0.412223
Si Si2 0.359211 0.108680 0.417491
Si Si3 0.267213 0.304116 0.413768
Si Si4 0.764930 0.530951 0.920919
Si Si5 0.797732 0.305019 0.920298
Si Si6 0.991520 0.305343 0.919506
Si Si7 0.708209 0.413132 0.921413
Si Si8 0.471087 0.946431 0.583367
O O1 0.069122 0.384735 0.250000
O O2 0.186866 0.341961 0.412886
O O3 0.144996 0.441825 0.460773
O O4 0.038942 0.359716 0.522995
O O5 0.330358 0.114005 0.250000
O O6 0.341885 0.165249 0.502633
O O7 0.310306 0.057607 0.488688
O O8 0.458083 0.099874 0.429229
O O9 0.242105 0.250000 0.500000
O O10 0.296278 0.289890 0.250000
O O11 0.746108 0.541451 0.750000
O O12 0.766456 0.465955 0.958958
O O13 0.780766 0.297177 0.750000
O O14 0.894855 0.315177 0.951497
O O15 0.748775 0.357616 0.987751
O O16 0.765742 0.250000 0.000000
O O17 0.011342 0.297805 0.750000
O O18 0.023391 0.250000 0.000000
O O19 0.704080 0.404470 0.750000
O O20 0.614874 0.422310 0.983730
O O21 0.455414 0.964112 0.750000
O O22 0.500000 0.000000 0.500000
#
# Coordination Sequence:
#
# PCOD8230764 Si02
#       8
#     8   8   8   8   8   8   8   8
#     4   9  18  30  47  73 100 128 165 204 245 294
#     4  10  19  30  46  73 104 131 163 207 250 292
#     4  10  20  33  49  69  97 136 173 205 246 300
#     4   9  17  31  51  72  98 135 170 200 243 301
#     4   9  19  36  56  76  98 129 169 209 252 300
#     4  10  19  31  50  73  97 128 167 211 253 295
#     4   9  17  33  56  76  99 133 169 205 249 304
#     4  10  19  31  52  78 102 129 165 208 248 294
#
# _framework density 17.936874
#
# number of rings (size 3 to 8) (size 9 to 14) (size 15 to 20)
#    0.000    2.500    1.250    2.250    0.000    4.500 
#    0.000    2.500    0.000    1.500    0.000    0.000 
#    0.000    0.000    0.000    0.000    0.000    0.000 
#
# Total GULP energy -793467.973423 kJ/mol
# GULP energy per Si atom -12397.937085 kJ/mol
# Density = 1.789605 g / cm^3
# Si number density = 17.936874 Si / 1000 Ang^3
#
#
#
# Elastic Constant Matrix: (Units=GPa)
#
#
# Indices 1 2 3 4 5 6 
#
# 1 77.1408 50.9369 34.5364 0.0000 0.0000 0.0000
# 2 50.9369 115.4475 39.6170 0.0000 0.0000 0.0000
# 3 34.5364 39.6170 78.5346 0.0000 0.0000 0.0000
# 4 0.0000 0.0000 0.0000 27.0826 0.0000 0.0000
# 5 0.0000 0.0000 0.0000 0.0000 19.9773 0.0000
# 6 0.0000 0.0000 0.0000 0.0000 0.0000 27.0301
#
#
#
# Elastic Compliance Matrix: (Units=1/GPa)
#
#
# Indices 1 2 3 4 5 6 
#
# 1 0.019926 -0.006995 -0.005234 0.000000 0.000000 0.000000
# 2 -0.006995 0.012931 -0.003447 0.000000 0.000000 0.000000
# 3 -0.005234 -0.003447 0.016774 0.000000 0.000000 0.000000
# 4 0.000000 0.000000 0.000000 0.036924 0.000000 0.000000
# 5 0.000000 0.000000 0.000000 0.000000 0.050057 0.000000
# 6 0.000000 0.000000 0.000000 0.000000 0.000000 0.036996
#
#
# Mechanical properties :
#
#
# Convention : Reuss Voigt Hill
#
# Bulk Modulus (GPa) = 54.70902 57.92260 56.31581
# Shear Modulus (GPa) = 23.69086 24.55350 24.12218
#
# Velocity S-wave (km/s) = 3.63821 3.70386 3.67118
# Velocity P-wave (km/s) = 6.94376 7.11716 7.03100
#
# Compressibility (1/GPa) = 0.01827852
#
# Stress axis : x y z
#
# Youngs Moduli (GPa) = 50.18670 77.33201 59.61757
#
# Poissons Ratio (x) = 0.54097 0.31202
# Poissons Ratio (y) = 0.35108 0.20549
# Poissons Ratio (z) = 0.26266 0.26655
#
# Static dielectric constant tensor:
#      x y z
#    x 3.344280 0.000000 0.000000 
#    y 0.000000 3.496830 0.000000 
#    z 0.000000 0.000000 3.329320 
# 
# 
# High freq. dielectric constant tensor:
#      x y z
#    x 1.679680 0.000000 0.000000 
#    y 0.000000 1.690200 0.000000 
#    z 0.000000 0.000000 1.685960 
# 
# From -- ./inp_files/5589.got.cif
#   From: 2010.03.12/outbox.cif.g09.slc.cpg/sg57_3_cif.got.tgz:5589.got - 2010.04.16 15:48:40.
