data_PCOD8230153
_publ_section_title
;
Structure prediction by ZEFSAII (Michael W. Deem and Ramdas Pophale) SiO2 
 PCOD8230153
Probable space group: P B C M
;
_chemical_formula_sum "Si O2"
_cell_formula_units_Z 64
_cell_length_a 15.297962
_cell_length_b 23.713712
_cell_length_c 9.136369
_cell_angle_alpha 90.000000
_cell_angle_beta 90.000000
_cell_angle_gamma 90.000000
_cell_volume 3314.413967
_symmetry_space_group_name_H-M "P B C M"
_symmetry_group_IT_number 57
_symmetry_cell_setting 'orthorhombic'
loop_
_space_group_symop_operation_xyz
x,y,z
-x,-y,1/2+z
x,1/2-y,-z
-x,1/2+y,1/2-z
-x,-y,-z
x,y,1/2-z
-x,1/2+y,z
x,1/2-y,1/2+z
loop_
_atom_site_type_symbol
_atom_site_label
_atom_site_fract_x
_atom_site_fract_y
_atom_site_fract_z
Si Si1 0.775685 0.308694 0.923633
Si Si2 0.070995 0.866165 0.415143
Si Si3 0.316043 0.993329 0.580505
Si Si4 0.553137 0.809548 0.575277
Si Si5 0.859611 0.011473 0.916392
Si Si6 0.889131 0.902485 0.419171
Si Si7 0.610311 0.379487 0.921000
Si Si8 0.692677 0.879991 0.080433
O O1 0.776862 0.301062 0.750000
O O2 0.699930 0.351142 0.979015
O O3 0.754967 0.250000 0.000000
O O4 0.870555 0.331201 0.972499
O O5 0.093999 0.846253 0.250000
O O6 0.082517 0.932992 0.431534
O O7 0.967219 0.857397 0.449503
O O8 0.289351 0.988572 0.750000
O O9 0.232602 0.975380 0.489379
O O10 0.390331 0.946651 0.541463
O O11 0.345409 0.057250 0.545597
O O12 0.537833 0.750000 0.500000
O O13 0.554182 0.802969 0.750000
O O14 0.475821 0.849992 0.513751
O O15 0.644608 0.835559 0.522800
O O16 0.842508 0.994547 0.750000
O O17 0.908235 0.959450 0.992278
O O18 0.887474 0.920194 0.250000
O O19 0.795127 0.876317 0.461877
O O20 0.606698 0.369061 0.750000
O O21 0.677332 0.864226 0.250000
#
# Coordination Sequence:
#
# PCOD8230153 Si02
#       8
#     8   8   8   8   8   8   8   8
#     4  11  22  37  57  79 110 149 188 230 278 334
#     4  10  20  34  52  79 111 145 187 229 271 322
#     4   9  17  34  57  81 115 153 185 215 272 344
#     4  11  23  40  61  83 109 141 185 235 280 332
#     4  10  18  28  48  82 117 144 181 228 268 316
#     4   9  19  35  55  77 110 151 185 222 272 330
#     4   9  19  36  59  85 111 145 183 222 274 337
#     4   9  19  36  58  83 112 147 185 227 275 330
#
# _framework density 19.309598999999999
#
# number of rings (size 3 to 8) (size 9 to 14) (size 15 to 20)
#    0.000    2.250    1.250    2.625    0.000    3.500 
#    0.000    3.750    0.000    0.000    0.000    0.000 
#    0.000    0.000    0.000    0.000    0.000    0.000 
#
# Total GULP energy -793392.722960 kJ/mol
# GULP energy per Si atom -12396.761296 kJ/mol
# Density = 1.926565 g / cm^3
# Si number density = 19.309599 Si / 1000 Ang^3
#
#
#
# Elastic Constant Matrix: (Units=GPa)
#
#
# Indices 1 2 3 4 5 6 
#
# 1 82.8300 21.6706 22.9751 0.0000 0.0000 0.0000
# 2 21.6706 41.6301 16.1081 0.0000 0.0000 0.0000
# 3 22.9751 16.1081 63.7439 0.0000 0.0000 0.0000
# 4 0.0000 0.0000 0.0000 31.2966 0.0000 0.0000
# 5 0.0000 0.0000 0.0000 0.0000 22.7473 0.0000
# 6 0.0000 0.0000 0.0000 0.0000 0.0000 25.4873
#
#
#
# Elastic Compliance Matrix: (Units=1/GPa)
#
#
# Indices 1 2 3 4 5 6 
#
# 1 0.014739 -0.006226 -0.003739 0.000000 0.000000 0.000000
# 2 -0.006226 0.029254 -0.005149 0.000000 0.000000 0.000000
# 3 -0.003739 -0.005149 0.018337 0.000000 0.000000 0.000000
# 4 0.000000 0.000000 0.000000 0.031952 0.000000 0.000000
# 5 0.000000 0.000000 0.000000 0.000000 0.043961 0.000000
# 6 0.000000 0.000000 0.000000 0.000000 0.000000 0.039235
#
#
# Mechanical properties :
#
#
# Convention : Reuss Voigt Hill
#
# Bulk Modulus (GPa) = 31.14994 34.41239 32.78117
# Shear Modulus (GPa) = 22.89321 24.40294 23.64807
#
# Velocity S-wave (km/s) = 3.44697 3.55881 3.50334
# Velocity P-wave (km/s) = 5.65765 5.89465 5.77737
#
# Compressibility (1/GPa) = 0.03210279
#
# Stress axis : x y z
#
# Youngs Moduli (GPa) = 67.84798 34.18345 54.53601
#
# Poissons Ratio (x) = 0.21281 0.20392
# Poissons Ratio (y) = 0.42239 0.28078
# Poissons Ratio (z) = 0.25369 0.17600
#
# Static dielectric constant tensor:
#      x y z
#    x 3.713370 0.000000 0.000000 
#    y 0.000000 3.442560 0.000000 
#    z 0.000000 0.000000 3.416810 
# 
# 
# High freq. dielectric constant tensor:
#      x y z
#    x 1.751850 0.000000 0.000000 
#    y 0.000000 1.739820 0.000000 
#    z 0.000000 0.000000 1.741140 
# 
# From -- ./inp_files/5547.got.cif
#   From: 2010.03.12/outbox.cif.g09.slc.cpg/sg57_3_cif.got.tgz:5547.got - 2010.04.16 15:48:40.
