data_PCOD8230990
_publ_section_title
;
Structure prediction by ZEFSAII (Michael W. Deem and Ramdas Pophale) SiO2 
 PCOD8230990
Probable space group: P B C M
;
_chemical_formula_sum "Si O2"
_cell_formula_units_Z 48
_cell_length_a 10.257650
_cell_length_b 29.607902
_cell_length_c 8.709971
_cell_angle_alpha 90.000000
_cell_angle_beta 90.000000
_cell_angle_gamma 90.000000
_cell_volume 2645.283482
_symmetry_space_group_name_H-M "P B C M"
_symmetry_group_IT_number 57
_symmetry_cell_setting 'orthorhombic'
loop_
_space_group_symop_operation_xyz
x,y,z
-x,-y,1/2+z
x,1/2-y,-z
-x,1/2+y,1/2-z
-x,-y,-z
x,y,1/2-z
-x,1/2+y,z
x,1/2-y,1/2+z
loop_
_atom_site_type_symbol
_atom_site_label
_atom_site_fract_x
_atom_site_fract_y
_atom_site_fract_z
Si Si1 0.781994 0.388359 0.929068
Si Si2 0.212157 0.795343 0.077693
Si Si3 0.870921 0.021236 0.568292
Si Si4 0.477881 0.294998 0.422520
Si Si5 0.621413 0.526004 0.930820
Si Si6 0.477159 0.112933 0.428344
O O1 0.810567 0.393362 0.750000
O O2 0.629259 0.394422 0.965693
O O3 0.832808 0.339418 0.983545
O O4 0.860921 0.426497 0.019671
O O5 0.156979 0.798802 0.250000
O O6 0.367106 0.792414 0.079500
O O7 0.154536 0.750000 0.000000
O O8 0.873500 0.017958 0.750000
O O9 0.751768 0.992699 0.504002
O O10 0.000000 0.000000 0.500000
O O11 0.419600 0.250000 0.500000
O O12 0.423289 0.299493 0.250000
O O13 0.431285 0.337245 0.523659
O O14 0.625843 0.518110 0.750000
O O15 0.500000 0.500000 0.000000
O O16 0.607790 0.578659 0.970763
O O17 0.447840 0.105220 0.250000
#
# Coordination Sequence:
#
# PCOD8230990 Si02
#       6
#     8   8   8   8   8   8
#     4  10  19  32  51  75 106 141 180 222 272 325
#     4   9  16  26  42  67 100 136 175 217 268 321
#     4  12  25  41  59  80 110 146 186 230 279 332
#     4   9  16  26  41  65 100 138 175 216 268 324
#     4  12  23  37  57  82 110 143 184 227 273 324
#     4  10  19  31  50  76 106 140 180 224 272 323
#
# _framework density 18.145503999999999
#
# number of rings (size 3 to 8) (size 9 to 14) (size 15 to 20)
#    0.000    1.667    1.667    5.000    0.000    5.333 
#    0.000    0.000    0.000    0.000    0.000    1.167 
#    0.000    0.000    0.000    0.000    0.000    0.000 
#
# Total GULP energy -595316.608029 kJ/mol
# GULP energy per Si atom -12402.429334 kJ/mol
# Density = 1.810420 g / cm^3
# Si number density = 18.145504 Si / 1000 Ang^3
#
#
#
# Elastic Constant Matrix: (Units=GPa)
#
#
# Indices 1 2 3 4 5 6 
#
# 1 70.2255 48.1610 44.3090 0.0000 0.0000 0.0000
# 2 48.1610 159.4217 66.2908 0.0000 0.0000 0.0000
# 3 44.3090 66.2908 156.0397 0.0000 0.0000 0.0000
# 4 0.0000 0.0000 0.0000 41.6432 0.0000 0.0000
# 5 0.0000 0.0000 0.0000 0.0000 20.4992 0.0000
# 6 0.0000 0.0000 0.0000 0.0000 0.0000 10.9584
#
#
#
# Elastic Compliance Matrix: (Units=1/GPa)
#
#
# Indices 1 2 3 4 5 6 
#
# 1 0.019575 -0.004375 -0.003700 0.000000 0.000000 0.000000
# 2 -0.004375 0.008596 -0.002410 0.000000 0.000000 0.000000
# 3 -0.003700 -0.002410 0.008483 0.000000 0.000000 0.000000
# 4 0.000000 0.000000 0.000000 0.024014 0.000000 0.000000
# 5 0.000000 0.000000 0.000000 0.000000 0.048782 0.000000
# 6 0.000000 0.000000 0.000000 0.000000 0.000000 0.091254
#
#
# Mechanical properties :
#
#
# Convention : Reuss Voigt Hill
#
# Bulk Modulus (GPa) = 63.75527 78.13428 70.94477
# Shear Modulus (GPa) = 22.03605 29.74858 25.89231
#
# Velocity S-wave (km/s) = 3.48862 4.05340 3.78157
# Velocity P-wave (km/s) = 7.17211 8.06598 7.63214
#
# Compressibility (1/GPa) = 0.01568498
#
# Stress axis : x y z
#
# Youngs Moduli (GPa) = 51.08652 116.32833 117.88396
#
# Poissons Ratio (x) = 0.50894 0.43614
# Poissons Ratio (y) = 0.22351 0.28406
# Poissons Ratio (z) = 0.18901 0.28031
#
# Static dielectric constant tensor:
#      x y z
#    x 2.757570 0.000000 0.000000 
#    y 0.000000 3.664020 0.000000 
#    z 0.000000 0.000000 3.611770 
# 
# 
# High freq. dielectric constant tensor:
#      x y z
#    x 1.633450 0.000000 0.000000 
#    y 0.000000 1.725900 0.000000 
#    z 0.000000 0.000000 1.725360 
# 
# From -- ./inp_files/2009.got.cif
#   From: 2010.03.12/outbox.cif.g09.slc.cpg/sg57_2_cif.got.tgz:2009.got - 2010.04.16 15:48:40.
