data_PCOD8230437
_publ_section_title
;
Structure prediction by ZEFSAII (Michael W. Deem and Ramdas Pophale) SiO2 
 PCOD8230437
Probable space group: P B C M
;
_chemical_formula_sum "Si O2"
_cell_formula_units_Z 64
_cell_length_a 12.272822
_cell_length_b 15.876311
_cell_length_c 17.626169
_cell_angle_alpha 90.000000
_cell_angle_beta 90.000000
_cell_angle_gamma 90.000000
_cell_volume 3434.408600
_symmetry_space_group_name_H-M "P B C M"
_symmetry_group_IT_number 57
_symmetry_cell_setting 'orthorhombic'
loop_
_space_group_symop_operation_xyz
x,y,z
-x,-y,1/2+z
x,1/2-y,-z
-x,1/2+y,1/2-z
-x,-y,-z
x,y,1/2-z
-x,1/2+y,z
x,1/2-y,1/2+z
loop_
_atom_site_type_symbol
_atom_site_label
_atom_site_fract_x
_atom_site_fract_y
_atom_site_fract_z
Si Si1 0.579509 0.492464 0.428678
Si Si2 0.255550 0.549823 0.043427
Si Si3 0.953881 0.926244 0.835727
Si Si4 0.928707 0.927417 0.419054
Si Si5 0.285362 0.120091 0.162141
Si Si6 0.066360 0.661197 0.461503
Si Si7 0.776372 0.693691 0.662441
Si Si8 0.612100 0.544863 0.663058
O O1 0.500000 0.500000 0.500000
O O2 0.683181 0.442711 0.462352
O O3 0.621073 0.580697 0.391760
O O4 0.513625 0.441886 0.363512
O O5 0.170736 0.472877 0.038588
O O6 0.192174 0.637791 0.056154
O O7 0.336010 0.531740 0.114282
O O8 0.983866 0.903443 0.750000
O O9 0.823942 0.936199 0.845198
O O10 0.996435 0.846282 0.884611
O O11 0.016794 0.012060 0.856522
O O12 0.882455 0.841921 0.381040
O O13 0.020152 0.908239 0.480727
O O14 0.325430 0.121862 0.250000
O O15 0.258987 0.214470 0.132255
O O16 0.055715 0.750000 0.500000
O O17 0.809480 0.700533 0.750000
O O18 0.674161 0.632072 0.649785
O O19 0.616355 0.516563 0.750000
#
# Coordination Sequence:
#
# PCOD8230437 Si02
#       8
#     8   8   8   8   8   8   8   8
#     4  10  19  34  52  72  98 130 171 215 259 313
#     4   9  19  33  50  73 101 133 169 209 252 307
#     4  10  20  34  55  80 107 144 184 220 266 325
#     4  10  18  32  54  78 107 141 176 213 259 320
#     4  10  19  32  52  78 107 134 167 218 270 312
#     4  11  21  33  51  76 110 146 177 214 259 314
#     4   9  18  32  51  79 109 133 168 221 271 313
#     4   9  18  34  56  76  95 129 173 216 265 316
#
# _framework density 18.634941000000001
#
# number of rings (size 3 to 8) (size 9 to 14) (size 15 to 20)
#    0.000    2.250    0.000    4.500    0.000    3.000 
#    0.000    9.375    0.000    1.500    0.000    0.000 
#    0.000    0.000    0.000    0.000    0.000    0.000 
#
# Total GULP energy -793217.491309 kJ/mol
# GULP energy per Si atom -12394.023302 kJ/mol
# Density = 1.859253 g / cm^3
# Si number density = 18.634941 Si / 1000 Ang^3
#
#
#
# Elastic Constant Matrix: (Units=GPa)
#
#
# Indices 1 2 3 4 5 6 
#
# 1 87.8270 30.9798 51.4579 0.0000 0.0000 0.0000
# 2 30.9798 64.7122 43.8757 0.0000 0.0000 0.0000
# 3 51.4579 43.8757 111.0667 0.0000 0.0000 0.0000
# 4 0.0000 0.0000 0.0000 26.9270 0.0000 0.0000
# 5 0.0000 0.0000 0.0000 0.0000 35.0132 0.0000
# 6 0.0000 0.0000 0.0000 0.0000 0.0000 24.6631
#
#
#
# Elastic Compliance Matrix: (Units=1/GPa)
#
#
# Indices 1 2 3 4 5 6 
#
# 1 0.016236 -0.003650 -0.006080 0.000000 0.000000 0.000000
# 2 -0.003650 0.021927 -0.006971 0.000000 0.000000 0.000000
# 3 -0.006080 -0.006971 0.014574 0.000000 0.000000 0.000000
# 4 0.000000 0.000000 0.000000 0.037138 0.000000 0.000000
# 5 0.000000 0.000000 0.000000 0.000000 0.028561 0.000000
# 6 0.000000 0.000000 0.000000 0.000000 0.000000 0.040546
#
#
# Mechanical properties :
#
#
# Convention : Reuss Voigt Hill
#
# Bulk Modulus (GPa) = 51.72062 57.35918 54.53990
# Shear Modulus (GPa) = 25.14722 26.47348 25.81035
#
# Velocity S-wave (km/s) = 3.67749 3.77322 3.72567
# Velocity P-wave (km/s) = 6.77103 7.05905 6.91654
#
# Compressibility (1/GPa) = 0.01933465
#
# Stress axis : x y z
#
# Youngs Moduli (GPa) = 61.59152 45.60637 68.61365
#
# Poissons Ratio (x) = 0.16647 0.41719
# Poissons Ratio (y) = 0.22482 0.47829
# Poissons Ratio (z) = 0.37449 0.31791
#
# Static dielectric constant tensor:
#      x y z
#    x 3.753710 0.000000 0.000000 
#    y 0.000000 3.240540 0.000000 
#    z 0.000000 0.000000 3.600520 
# 
# 
# High freq. dielectric constant tensor:
#      x y z
#    x 1.727580 0.000000 0.000000 
#    y 0.000000 1.692760 0.000000 
#    z 0.000000 0.000000 1.732630 
# 
# From -- ./inp_files/22036.got.cif
#   From: 2010.03.12/outbox.cif.g09.slc.cpg/sg57_12_cif.got.tgz:22036.got - 2010.04.16 15:48:40.
