data_PCOD8230181
_publ_section_title
;
Structure prediction by ZEFSAII (Michael W. Deem and Ramdas Pophale) SiO2 
 PCOD8230181
Probable space group: P B C M
;
_chemical_formula_sum "Si O2"
_cell_formula_units_Z 56
_cell_length_a 17.742693
_cell_length_b 20.115974
_cell_length_c 9.131185
_cell_angle_alpha 90.000000
_cell_angle_beta 90.000000
_cell_angle_gamma 90.000000
_cell_volume 3259.025402
_symmetry_space_group_name_H-M "P B C M"
_symmetry_group_IT_number 57
_symmetry_cell_setting 'orthorhombic'
loop_
_space_group_symop_operation_xyz
x,y,z
-x,-y,1/2+z
x,1/2-y,-z
-x,1/2+y,1/2-z
-x,-y,-z
x,y,1/2-z
-x,1/2+y,z
x,1/2-y,1/2+z
loop_
_atom_site_type_symbol
_atom_site_label
_atom_site_fract_x
_atom_site_fract_y
_atom_site_fract_z
Si Si1 0.333013 0.442243 0.412621
Si Si2 0.960360 0.938428 0.423056
Si Si3 0.218194 0.887469 0.419552
Si Si4 0.496411 0.070045 0.578548
Si Si5 0.190226 0.458449 0.919267
Si Si6 0.635880 0.401623 0.584686
Si Si7 0.932747 0.317451 0.078769
O O1 0.303118 0.425105 0.250000
O O2 0.410969 0.401863 0.444309
O O3 0.268400 0.423984 0.529174
O O4 0.352506 0.519797 0.421705
O O5 0.958693 0.951605 0.250000
O O6 0.876691 0.928007 0.484794
O O7 0.006074 0.872493 0.463466
O O8 0.000000 0.000000 0.500000
O O9 0.237377 0.877064 0.250000
O O10 0.291761 0.866634 0.511444
O O11 0.149857 0.841235 0.473151
O O12 0.193190 0.963060 0.448094
O O13 0.514658 0.061141 0.750000
O O14 0.559566 0.117554 0.504646
O O15 0.500000 0.000000 0.500000
O O16 0.176841 0.441524 0.750000
O O17 0.627636 0.375422 0.750000
O O18 0.932328 0.304234 0.250000
O O19 0.955878 0.250000 0.000000
#
# Coordination Sequence:
#
# PCOD8230181 Si02
#       7
#     8   8   8   8   8   8   8
#     4   8  15  25  36  56  86 120 156 192 234 283
#     4  11  21  35  53  74  99 126 164 207 250 300
#     4   9  17  31  46  64  93 123 158 199 239 286
#     4   9  15  23  35  53  81 118 156 191 233 280
#     4  10  18  29  46  69  94 123 160 201 246 292
#     4   9  16  24  37  59  84 116 158 193 231 280
#     4  10  22  38  53  73  99 129 164 205 252 301
#
# _framework density 17.183050999999999
#
# number of rings (size 3 to 8) (size 9 to 14) (size 15 to 20)
#    0.000    2.571    1.429    2.571    0.000    6.286 
#    0.000    0.000    0.000    0.000    0.000    0.000 
#    0.000    1.143    0.000    3.714    0.000    5.571 
#
# Total GULP energy -694173.846289 kJ/mol
# GULP energy per Si atom -12395.961541 kJ/mol
# Density = 1.714394 g / cm^3
# Si number density = 17.183051 Si / 1000 Ang^3
#
#
#
# Elastic Constant Matrix: (Units=GPa)
#
#
# Indices 1 2 3 4 5 6 
#
# 1 145.6529 41.1027 75.1813 0.0000 0.0000 0.0000
# 2 41.1027 47.8982 37.0772 0.0000 0.0000 0.0000
# 3 75.1813 37.0772 108.7486 0.0000 0.0000 0.0000
# 4 0.0000 0.0000 0.0000 16.4347 0.0000 0.0000
# 5 0.0000 0.0000 0.0000 0.0000 37.1459 0.0000
# 6 0.0000 0.0000 0.0000 0.0000 0.0000 12.3531
#
#
#
# Elastic Compliance Matrix: (Units=1/GPa)
#
#
# Indices 1 2 3 4 5 6 
#
# 1 0.011509 -0.005050 -0.006235 0.000000 0.000000 0.000000
# 2 -0.005050 0.030579 -0.006935 0.000000 0.000000 0.000000
# 3 -0.006235 -0.006935 0.015870 0.000000 0.000000 0.000000
# 4 0.000000 0.000000 0.000000 0.060847 0.000000 0.000000
# 5 0.000000 0.000000 0.000000 0.000000 0.026921 0.000000
# 6 0.000000 0.000000 0.000000 0.000000 0.000000 0.080951
#
#
# Mechanical properties :
#
#
# Convention : Reuss Voigt Hill
#
# Bulk Modulus (GPa) = 46.46932 67.66912 57.06922
# Shear Modulus (GPa) = 18.49876 23.11597 20.80736
#
# Velocity S-wave (km/s) = 3.28467 3.67178 3.48361
# Velocity P-wave (km/s) = 6.44111 7.57910 7.03316
#
# Compressibility (1/GPa) = 0.02151958
#
# Stress axis : x y z
#
# Youngs Moduli (GPa) = 86.88972 32.70219 63.01164
#
# Poissons Ratio (x) = 0.16514 0.39286
# Poissons Ratio (y) = 0.43878 0.43696
# Poissons Ratio (z) = 0.54173 0.22678
#
# Static dielectric constant tensor:
#      x y z
#    x 3.904610 0.000000 0.000000 
#    y 0.000000 -6.898580 0.000000 
#    z 0.000000 0.000000 3.326000 
# 
# 
# High freq. dielectric constant tensor:
#      x y z
#    x 1.684950 0.000000 0.000000 
#    y 0.000000 1.583560 0.000000 
#    z 0.000000 0.000000 1.674910 
# 
# From -- ./inp_files/6986.got.cif
#   From: 2010.03.12/outbox.cif.g09.slc.cpg/sg57_4_cif.got.tgz:6986.got - 2010.04.16 15:48:40.
