data_PCOD8230025
_publ_section_title
;
Structure prediction by ZEFSAII (Michael W. Deem and Ramdas Pophale) SiO2 
 PCOD8230025
Probable space group: P B C M
;
_chemical_formula_sum "Si O2"
_cell_formula_units_Z 44
_cell_length_a 18.875887
_cell_length_b 5.093593
_cell_length_c 24.877522
_cell_angle_alpha 90.000000
_cell_angle_beta 90.000000
_cell_angle_gamma 90.000000
_cell_volume 2391.876367
_symmetry_space_group_name_H-M "P B C M"
_symmetry_group_IT_number 57
_symmetry_cell_setting 'orthorhombic'
loop_
_space_group_symop_operation_xyz
x,y,z
-x,-y,1/2+z
x,1/2-y,-z
-x,1/2+y,1/2-z
-x,-y,-z
x,y,1/2-z
-x,1/2+y,z
x,1/2-y,1/2+z
loop_
_atom_site_type_symbol
_atom_site_label
_atom_site_fract_x
_atom_site_fract_y
_atom_site_fract_z
Si Si1 0.546437 0.847454 0.750000
Si Si2 0.276268 0.334253 0.556893
Si Si3 0.970156 0.065521 0.440713
Si Si4 0.332759 0.277350 0.832127
Si Si5 0.812217 0.165296 0.080852
Si Si6 0.244678 0.773360 0.808647
O O1 0.482327 0.642720 0.750000
O O2 0.591129 0.807725 0.695396
O O3 0.311429 0.250000 0.500000
O O4 0.336666 0.330999 0.603249
O O5 0.237818 0.617596 0.552279
O O6 0.215881 0.125740 0.571050
O O7 0.890628 0.174442 0.442926
O O8 0.019041 0.286569 0.410742
O O9 0.000000 0.000000 0.500000
O O10 0.278801 0.485275 0.806705
O O11 0.306250 0.983313 0.820995
O O12 0.814982 0.216065 0.145216
O O13 0.210495 0.828021 0.750000
#
# Coordination Sequence:
#
# PCOD8230025 Si02
#       6
#     4   8   8   8   8   8
#     4  12  22  34  58  84 114 144 172 214 250 320
#     4  10  21  33  55  76 107 138 171 233 258 312
#     4  10  21  32  46  65  99 143 165 217 265 310
#     4  10  20  35  52  81 112 136 175 210 274 304
#     4  10  21  32  50  79  99 135 188 211 275 326
#     4  10  17  33  56  75 104 137 165 236 267 311
#
# _framework density 18.395599000000001
#
# number of rings (size 3 to 8) (size 9 to 14) (size 15 to 20)
#    0.000    1.818    1.818    2.727    7.636    0.000 
#    0.000    0.000    0.000    2.182    0.000    0.000 
#    0.000    0.000    0.000    0.000    0.000    0.000 
#
# Total GULP energy -545244.062360 kJ/mol
# GULP energy per Si atom -12391.910508 kJ/mol
# Density = 1.835373 g / cm^3
# Si number density = 18.395599 Si / 1000 Ang^3
#
#
#
# Elastic Constant Matrix: (Units=GPa)
#
#
# Indices 1 2 3 4 5 6 
#
# 1 71.9695 13.6220 40.8828 0.0000 0.0000 0.0000
# 2 13.6220 103.6009 11.4309 0.0000 0.0000 0.0000
# 3 40.8828 11.4309 136.2637 0.0000 0.0000 0.0000
# 4 0.0000 0.0000 0.0000 20.1317 0.0000 0.0000
# 5 0.0000 0.0000 0.0000 0.0000 27.9121 0.0000
# 6 0.0000 0.0000 0.0000 0.0000 0.0000 24.7323
#
#
#
# Elastic Compliance Matrix: (Units=1/GPa)
#
#
# Indices 1 2 3 4 5 6 
#
# 1 0.017038 -0.001692 -0.004970 0.000000 0.000000 0.000000
# 2 -0.001692 0.009911 -0.000324 0.000000 0.000000 0.000000
# 3 -0.004970 -0.000324 0.008857 0.000000 0.000000 0.000000
# 4 0.000000 0.000000 0.000000 0.049673 0.000000 0.000000
# 5 0.000000 0.000000 0.000000 0.000000 0.035827 0.000000
# 6 0.000000 0.000000 0.000000 0.000000 0.000000 0.040433
#
#
# Mechanical properties :
#
#
# Convention : Reuss Voigt Hill
#
# Bulk Modulus (GPa) = 45.79903 49.30059 47.54981
# Shear Modulus (GPa) = 27.32420 30.94846 29.13633
#
# Velocity S-wave (km/s) = 3.85823 4.10614 3.98411
# Velocity P-wave (km/s) = 6.69318 7.02416 6.86067
#
# Compressibility (1/GPa) = 0.02183452
#
# Stress axis : x y z
#
# Youngs Moduli (GPa) = 58.69140 100.90202 112.90492
#
# Poissons Ratio (x) = 0.17072 0.56114
# Poissons Ratio (y) = 0.09930 0.03655
# Poissons Ratio (z) = 0.29170 0.03267
#
# Static dielectric constant tensor:
#      x y z
#    x 2.949430 0.000000 0.000000 
#    y 0.000000 2.237960 0.000000 
#    z 0.000000 0.000000 3.786050 
# 
# 
# High freq. dielectric constant tensor:
#      x y z
#    x 1.657240 0.000000 0.000000 
#    y 0.000000 1.751920 0.000000 
#    z 0.000000 0.000000 1.708400 
# 
# From -- ./inp_files/27533.got.cif
#   From: 2010.03.12/outbox.cif.g09.slc.cpg/sg57_14_cif.got.tgz:27533.got - 2010.04.16 15:48:40.
