data_PCOD8230995
_publ_section_title
;
Structure prediction by ZEFSAII (Michael W. Deem and Ramdas Pophale) SiO2 
 PCOD8230995
Probable space group: P B C M
;
_chemical_formula_sum "Si O2"
_cell_formula_units_Z 64
_cell_length_a 24.595814
_cell_length_b 14.610990
_cell_length_c 9.080744
_cell_angle_alpha 90.000000
_cell_angle_beta 90.000000
_cell_angle_gamma 90.000000
_cell_volume 3263.339638
_symmetry_space_group_name_H-M "P B C M"
_symmetry_group_IT_number 57
_symmetry_cell_setting 'orthorhombic'
loop_
_space_group_symop_operation_xyz
x,y,z
-x,-y,1/2+z
x,1/2-y,-z
-x,1/2+y,1/2-z
-x,-y,-z
x,y,1/2-z
-x,1/2+y,z
x,1/2-y,1/2+z
loop_
_atom_site_type_symbol
_atom_site_label
_atom_site_fract_x
_atom_site_fract_y
_atom_site_fract_z
Si Si1 0.223240 0.151616 0.424226
Si Si2 0.367001 0.656638 0.575547
Si Si3 0.906845 0.339142 0.080275
Si Si4 0.319714 0.471904 0.919474
Si Si5 0.512811 0.404751 0.075318
Si Si6 0.587420 0.666911 0.420420
Si Si7 0.116142 0.460903 0.578418
Si Si8 0.032068 0.341417 0.422979
O O1 0.223019 0.250000 0.500000
O O2 0.229949 0.166837 0.250000
O O3 0.272162 0.089326 0.492249
O O4 0.168628 0.097647 0.464457
O O5 0.347545 0.750000 0.500000
O O6 0.362687 0.667465 0.750000
O O7 0.326887 0.575012 0.518046
O O8 0.428355 0.632738 0.528615
O O9 0.902257 0.315497 0.250000
O O10 0.873732 0.431683 0.040592
O O11 0.969342 0.355847 0.034346
O O12 0.882077 0.250000 0.000000
O O13 0.303651 0.479726 0.750000
O O14 0.378426 0.425301 0.938852
O O15 0.507870 0.415822 0.250000
O O16 0.500000 0.500000 0.000000
O O17 0.468629 0.335564 0.010893
O O18 0.620270 0.750000 0.500000
O O19 0.576127 0.688167 0.250000
O O20 0.101305 0.450807 0.750000
O O21 0.065115 0.427529 0.483872
O O22 0.055053 0.250000 0.500000
O O23 0.041458 0.332455 0.250000
#
# Coordination Sequence:
#
# PCOD8230995 Si02
#       8
#     8   8   8   8   8   8   8   8
#     4  10  21  38  60  81 106 139 174 219 272 324
#     4  10  21  38  57  79 107 142 178 216 262 314
#     4   9  19  34  51  75 108 144 184 222 265 320
#     4   9  19  38  58  76 105 141 177 218 269 319
#     4  11  21  35  55  80 111 146 179 217 265 320
#     4  11  21  35  54  79 109 141 178 219 264 320
#     4  10  20  34  53  79 108 141 181 225 273 325
#     4  10  19  31  50  76 108 146 181 221 269 322
#
# _framework density 19.611812
#
# number of rings (size 3 to 8) (size 9 to 14) (size 15 to 20)
#    0.000    2.000    1.250    2.625    0.000    4.500 
#    0.000    1.875    0.000    0.000    0.000    0.000 
#    0.000    0.000    0.000    0.000    0.000    0.000 
#
# Total GULP energy -793447.234971 kJ/mol
# GULP energy per Si atom -12397.613046 kJ/mol
# Density = 1.956717 g / cm^3
# Si number density = 19.611812 Si / 1000 Ang^3
#
#
#
# Elastic Constant Matrix: (Units=GPa)
#
#
# Indices 1 2 3 4 5 6 
#
# 1 70.5226 55.5232 29.5715 0.0000 0.0000 0.0000
# 2 55.5232 176.7328 50.3094 0.0000 0.0000 0.0000
# 3 29.5715 50.3094 58.5791 0.0000 0.0000 0.0000
# 4 0.0000 0.0000 0.0000 38.7973 0.0000 0.0000
# 5 0.0000 0.0000 0.0000 0.0000 17.4980 0.0000
# 6 0.0000 0.0000 0.0000 0.0000 0.0000 31.6581
#
#
#
# Elastic Compliance Matrix: (Units=1/GPa)
#
#
# Indices 1 2 3 4 5 6 
#
# 1 0.020493 -0.004624 -0.006374 0.000000 0.000000 0.000000
# 2 -0.004624 0.008532 -0.004994 0.000000 0.000000 0.000000
# 3 -0.006374 -0.004994 0.024577 0.000000 0.000000 0.000000
# 4 0.000000 0.000000 0.000000 0.025775 0.000000 0.000000
# 5 0.000000 0.000000 0.000000 0.000000 0.057149 0.000000
# 6 0.000000 0.000000 0.000000 0.000000 0.000000 0.031588
#
#
# Mechanical properties :
#
#
# Convention : Reuss Voigt Hill
#
# Bulk Modulus (GPa) = 46.25429 64.07138 55.16284
# Shear Modulus (GPa) = 24.11913 28.95271 26.53592
#
# Velocity S-wave (km/s) = 3.51069 3.84642 3.68238
# Velocity P-wave (km/s) = 6.33004 7.24343 6.80208
#
# Compressibility (1/GPa) = 0.02161961
#
# Stress axis : x y z
#
# Youngs Moduli (GPa) = 48.79735 117.20038 40.68763
#
# Poissons Ratio (x) = 0.54189 0.25935
# Poissons Ratio (y) = 0.22562 0.20319
# Poissons Ratio (z) = 0.31104 0.58527
#
# Static dielectric constant tensor:
#      x y z
#    x 3.577960 0.000000 0.000000 
#    y 0.000000 3.840450 0.000000 
#    z 0.000000 0.000000 3.427430 
# 
# 
# High freq. dielectric constant tensor:
#      x y z
#    x 1.742630 0.000000 0.000000 
#    y 0.000000 1.785230 0.000000 
#    z 0.000000 0.000000 1.746550 
# 
# From -- ./inp_files/9339.got.cif
#   From: 2010.03.12/outbox.cif.g09.slc.cpg/sg57_5_cif.got.tgz:9339.got - 2010.04.16 15:48:40.
