data_PCOD8230363
_publ_section_title
;
Structure prediction by ZEFSAII (Michael W. Deem and Ramdas Pophale) SiO2 
 PCOD8230363
Probable space group: P B C M
;
_chemical_formula_sum "Si O2"
_cell_formula_units_Z 56
_cell_length_a 9.550822
_cell_length_b 17.948165
_cell_length_c 18.174027
_cell_angle_alpha 90.000000
_cell_angle_beta 90.000000
_cell_angle_gamma 90.000000
_cell_volume 3115.386786
_symmetry_space_group_name_H-M "P B C M"
_symmetry_group_IT_number 57
_symmetry_cell_setting 'orthorhombic'
loop_
_space_group_symop_operation_xyz
x,y,z
-x,-y,1/2+z
x,1/2-y,-z
-x,1/2+y,1/2-z
-x,-y,-z
x,y,1/2-z
-x,1/2+y,z
x,1/2-y,1/2+z
loop_
_atom_site_type_symbol
_atom_site_label
_atom_site_fract_x
_atom_site_fract_y
_atom_site_fract_z
Si Si1 0.178880 0.482956 0.081352
Si Si2 0.252590 0.675473 0.536828
Si Si3 0.134350 0.972097 0.422843
Si Si4 0.419832 0.736769 0.833318
Si Si5 0.395286 0.891160 0.596728
Si Si6 0.631477 0.879438 0.332475
Si Si7 0.599239 0.997609 0.833824
O O1 0.262866 0.554609 0.112954
O O2 0.248726 0.406885 0.111674
O O3 0.018841 0.490788 0.108676
O O4 0.177816 0.477027 0.992684
O O5 0.187642 0.750000 0.500000
O O6 0.133366 0.613444 0.547496
O O7 0.310321 0.694041 0.616337
O O8 0.379274 0.642764 0.485446
O O9 0.242568 0.984992 0.357166
O O10 0.378402 0.717686 0.750000
O O11 0.406349 0.824837 0.844747
O O12 0.578156 0.705191 0.849261
O O13 0.536994 0.938019 0.607915
O O14 0.693441 0.885775 0.250000
O O15 0.490561 0.927821 0.340085
O O16 0.597982 0.966845 0.750000
#
# Coordination Sequence:
#
# PCOD8230363 Si02
#       7
#     8   8   8   8   8   8   8
#     4   9  20  34  52  76 104 138 176 212 268 317
#     4   9  18  31  52  79 103 135 179 216 265 315
#     4  10  19  33  54  76 104 139 173 220 262 315
#     4  10  18  31  52  76 104 133 172 219 264 310
#     4   9  19  33  53  76 104 138 173 219 262 318
#     4   9  18  31  51  76 101 131 171 216 261 315
#     4  10  19  31  51  79 103 133 174 217 265 310
#
# _framework density 17.975296
#
# number of rings (size 3 to 8) (size 9 to 14) (size 15 to 20)
#    0.000    2.571    1.429    0.429    2.000    2.857 
#    0.000    0.000   12.571    0.000    0.000    0.000 
#    0.000    0.000    0.000    0.000    0.000    0.000 
#
# Total GULP energy -694021.878430 kJ/mol
# GULP energy per Si atom -12393.247829 kJ/mol
# Density = 1.793438 g / cm^3
# Si number density = 17.975296 Si / 1000 Ang^3
#
#
#
# Elastic Constant Matrix: (Units=GPa)
#
#
# Indices 1 2 3 4 5 6 
#
# 1 106.3254 38.5499 41.0438 0.0000 0.0000 0.0000
# 2 38.5499 84.1280 35.7243 0.0000 0.0000 0.0000
# 3 41.0438 35.7243 73.0734 0.0000 0.0000 0.0000
# 4 0.0000 0.0000 0.0000 25.0390 0.0000 0.0000
# 5 0.0000 0.0000 0.0000 0.0000 22.6687 0.0000
# 6 0.0000 0.0000 0.0000 0.0000 0.0000 20.2959
#
#
#
# Elastic Compliance Matrix: (Units=1/GPa)
#
#
# Indices 1 2 3 4 5 6 
#
# 1 0.012796 -0.003548 -0.005453 0.000000 0.000000 0.000000
# 2 -0.003548 0.015985 -0.005822 0.000000 0.000000 0.000000
# 3 -0.005453 -0.005822 0.019594 0.000000 0.000000 0.000000
# 4 0.000000 0.000000 0.000000 0.039938 0.000000 0.000000
# 5 0.000000 0.000000 0.000000 0.000000 0.044114 0.000000
# 6 0.000000 0.000000 0.000000 0.000000 0.000000 0.049271
#
#
# Mechanical properties :
#
#
# Convention : Reuss Voigt Hill
#
# Bulk Modulus (GPa) = 53.39194 54.90696 54.14945
# Shear Modulus (GPa) = 22.97944 23.48132 23.23038
#
# Velocity S-wave (km/s) = 3.57934 3.61821 3.59883
# Velocity P-wave (km/s) = 6.84468 6.93306 6.88901
#
# Compressibility (1/GPa) = 0.01872942
#
# Stress axis : x y z
#
# Youngs Moduli (GPa) = 78.14664 62.55999 51.03678
#
# Poissons Ratio (x) = 0.22198 0.27830
# Poissons Ratio (y) = 0.27728 0.29712
# Poissons Ratio (z) = 0.42612 0.36420
#
# Static dielectric constant tensor:
#      x y z
#    x 3.060260 0.000000 0.000000 
#    y 0.000000 3.546550 0.000000 
#    z 0.000000 0.000000 3.324610 
# 
# 
# High freq. dielectric constant tensor:
#      x y z
#    x 1.661650 0.000000 0.000000 
#    y 0.000000 1.695370 0.000000 
#    z 0.000000 0.000000 1.698570 
# 
# From -- ./inp_files/24515.got.cif
#   From: 2010.03.12/outbox.cif.g09.slc.cpg/sg57_13_cif.got.tgz:24515.got - 2010.04.16 15:48:40.
