data_PCOD8230682
_publ_section_title
;
Structure prediction by ZEFSAII (Michael W. Deem and Ramdas Pophale) SiO2 
 PCOD8230682
Probable space group: P B C M
;
_chemical_formula_sum "Si O2"
_cell_formula_units_Z 64
_cell_length_a 15.400263
_cell_length_b 30.362152
_cell_length_c 8.982253
_cell_angle_alpha 90.000000
_cell_angle_beta 90.000000
_cell_angle_gamma 90.000000
_cell_volume 4199.967901
_symmetry_space_group_name_H-M "P B C M"
_symmetry_group_IT_number 57
_symmetry_cell_setting 'orthorhombic'
loop_
_space_group_symop_operation_xyz
x,y,z
-x,-y,1/2+z
x,1/2-y,-z
-x,1/2+y,1/2-z
-x,-y,-z
x,y,1/2-z
-x,1/2+y,z
x,1/2-y,1/2+z
loop_
_atom_site_type_symbol
_atom_site_label
_atom_site_fract_x
_atom_site_fract_y
_atom_site_fract_z
Si Si1 0.905167 0.797802 0.574048
Si Si2 0.397754 0.956323 0.917766
Si Si3 0.279013 0.702355 0.074554
Si Si4 0.090570 0.704060 0.421313
Si Si5 0.400119 0.867863 0.424678
Si Si6 0.600471 0.870695 0.422175
Si Si7 0.263048 0.202752 0.574501
Si Si8 0.604453 0.542113 0.417105
O O1 0.908480 0.750000 0.500000
O O2 0.887314 0.794621 0.750000
O O3 0.823132 0.821246 0.494402
O O4 0.999409 0.821547 0.540188
O O5 0.362123 0.952201 0.750000
O O6 0.501000 0.958863 0.919433
O O7 0.366071 0.914302 0.011710
O O8 0.358592 0.000527 0.991082
O O9 0.296380 0.706985 0.250000
O O10 0.182796 0.680518 0.042398
O O11 0.286788 0.750000 0.000000
O O12 0.350371 0.671375 0.003653
O O13 0.090849 0.750000 0.500000
O O14 0.087678 0.716283 0.250000
O O15 0.381900 0.866818 0.250000
O O16 0.501020 0.860778 0.463539
O O17 0.609301 0.883046 0.250000
O O18 0.655235 0.827745 0.464797
O O19 0.637726 0.912455 0.511606
O O20 0.280200 0.250000 0.500000
O O21 0.251137 0.208814 0.750000
O O22 0.640521 0.538879 0.250000
#
# Coordination Sequence:
#
# PCOD8230682 Si02
#       8
#     8   8   8   8   8   8   8   8
#     4   9  15  25  41  60  79 101 130 167 210 251
#     4   9  16  27  43  62  83 107 134 168 212 255
#     4  10  19  31  44  60  83 112 144 176 210 248
#     4   8  15  26  41  59  79 102 130 166 209 253
#     4  10  19  31  44  60  83 112 146 180 209 241
#     4   9  19  32  43  57  82 114 145 176 209 245
#     4  10  19  30  42  58  81 111 144 176 209 244
#     4   9  16  26  43  64  82 103 134 172 212 251
#
# _framework density 15.238211
#
# number of rings (size 3 to 8) (size 9 to 14) (size 15 to 20)
#    0.000    2.750    0.000    3.000    0.000    6.000 
#    0.000    1.250    0.000    0.000    0.000    0.000 
#    0.000    1.000    0.000    3.000    0.000    5.125 
#
# Total GULP energy -792903.584905 kJ/mol
# GULP energy per Si atom -12389.118514 kJ/mol
# Density = 1.520353 g / cm^3
# Si number density = 15.238211 Si / 1000 Ang^3
#
#
#
# Elastic Constant Matrix: (Units=GPa)
#
#
# Indices 1 2 3 4 5 6 
#
# 1 80.0402 49.2237 46.3385 0.0000 0.0000 0.0000
# 2 49.2237 87.7849 51.2582 0.0000 0.0000 0.0000
# 3 46.3385 51.2582 97.8634 0.0000 0.0000 0.0000
# 4 0.0000 0.0000 0.0000 26.4199 0.0000 0.0000
# 5 0.0000 0.0000 0.0000 0.0000 17.7371 0.0000
# 6 0.0000 0.0000 0.0000 0.0000 0.0000 0.2904
#
#
#
# Elastic Compliance Matrix: (Units=1/GPa)
#
#
# Indices 1 2 3 4 5 6 
#
# 1 0.020885 -0.008552 -0.005410 0.000000 0.000000 0.000000
# 2 -0.008552 0.019912 -0.006380 0.000000 0.000000 0.000000
# 3 -0.005410 -0.006380 0.016122 0.000000 0.000000 0.000000
# 4 0.000000 0.000000 0.000000 0.037850 0.000000 0.000000
# 5 0.000000 0.000000 0.000000 0.000000 0.056379 0.000000
# 6 0.000000 0.000000 0.000000 0.000000 0.000000 3.443150
#
#
# Mechanical properties :
#
#
# Convention : Reuss Voigt Hill
#
# Bulk Modulus (GPa) = 61.59518 62.14771 61.87145
# Shear Modulus (GPa) = 1.37348 16.81404 9.09376
#
# Velocity S-wave (km/s) = 0.95042 3.32537 2.44554
# Velocity P-wave (km/s) = 6.45861 7.45767 6.97605
#
# Compressibility (1/GPa) = 0.01623504
#
# Stress axis : x y z
#
# Youngs Moduli (GPa) = 47.88099 50.22026 62.02870
#
# Poissons Ratio (x) = 0.42949 0.33556
# Poissons Ratio (y) = 0.40948 0.39575
# Poissons Ratio (z) = 0.25903 0.32041
#
# Static dielectric constant tensor:
#      x y z
#    x 3.318830 0.000000 0.000000 
#    y 0.000000 2.724280 0.000000 
#    z 0.000000 0.000000 3.119520 
# 
# 
# High freq. dielectric constant tensor:
#      x y z
#    x 1.564190 0.000000 0.000000 
#    y 0.000000 1.549480 0.000000 
#    z 0.000000 0.000000 1.604000 
# 
# From -- ./inp_files/7494.got.cif
#   From: 2010.03.12/outbox.cif.g09.slc.cpg/sg57_4_cif.got.tgz:7494.got - 2010.04.16 15:48:40.
