data_PCOD8230491
_publ_section_title
;
Structure prediction by ZEFSAII (Michael W. Deem and Ramdas Pophale) SiO2 
 PCOD8230491
Probable space group: P B C M
;
_chemical_formula_sum "Si O2"
_cell_formula_units_Z 48
_cell_length_a 10.283512
_cell_length_b 28.302868
_cell_length_c 8.630012
_cell_angle_alpha 90.000000
_cell_angle_beta 90.000000
_cell_angle_gamma 90.000000
_cell_volume 2511.789870
_symmetry_space_group_name_H-M "P B C M"
_symmetry_group_IT_number 57
_symmetry_cell_setting 'orthorhombic'
loop_
_space_group_symop_operation_xyz
x,y,z
-x,-y,1/2+z
x,1/2-y,-z
-x,1/2+y,1/2-z
-x,-y,-z
x,y,1/2-z
-x,1/2+y,z
x,1/2-y,1/2+z
loop_
_atom_site_type_symbol
_atom_site_label
_atom_site_fract_x
_atom_site_fract_y
_atom_site_fract_z
Si Si1 0.860612 0.299026 0.933552
Si Si2 0.000307 0.448202 0.933559
Si Si3 0.246665 0.397780 0.429578
Si Si4 0.257440 0.605737 0.432879
Si Si5 0.507177 0.947807 0.932596
Si Si6 0.856638 0.798102 0.069607
O O1 0.861975 0.296971 0.750000
O O2 0.766831 0.340991 0.994702
O O3 0.805381 0.250000 0.000000
O O4 0.006898 0.309095 0.987919
O O5 0.023278 0.447684 0.750000
O O6 0.862797 0.426570 0.982471
O O7 0.110249 0.418338 0.017221
O O8 0.000000 0.500000 0.000000
O O9 0.269210 0.409656 0.250000
O O10 0.359930 0.421575 0.527556
O O11 0.243150 0.341247 0.459082
O O12 0.269872 0.607249 0.250000
O O13 0.388943 0.583395 0.503466
O O14 0.494185 0.952460 0.750000
O O15 0.500000 0.000000 0.000000
O O16 0.884907 0.790756 0.250000
O O17 0.794495 0.750000 0.000000
#
# Coordination Sequence:
#
# PCOD8230491 Si02
#       6
#     8   8   8   8   8   8
#     4  10  18  33  56  84 115 147 184 231 286 347
#     4  11  21  36  58  85 114 148 189 243 297 346
#     4  11  23  39  57  85 119 153 196 242 288 349
#     4   9  20  37  57  81 113 148 188 232 285 347
#     4  11  23  41  62  84 114 157 197 240 296 351
#     4  10  20  34  56  85 117 150 189 239 289 343
#
# _framework density 19.109878999999999
#
# number of rings (size 3 to 8) (size 9 to 14) (size 15 to 20)
#    0.000    1.667    1.667    4.500    0.000    3.333 
#    0.000    6.667    0.000    4.000    0.000    0.000 
#    0.000    0.000    0.000    0.000    0.000    0.000 
#
# Total GULP energy -595202.706383 kJ/mol
# GULP energy per Si atom -12400.056383 kJ/mol
# Density = 1.906638 g / cm^3
# Si number density = 19.109879 Si / 1000 Ang^3
#
#
#
# Elastic Constant Matrix: (Units=GPa)
#
#
# Indices 1 2 3 4 5 6 
#
# 1 52.5638 30.9834 5.8516 0.0000 0.0000 0.0000
# 2 30.9834 149.6784 38.9742 0.0000 0.0000 0.0000
# 3 5.8516 38.9742 64.8949 0.0000 0.0000 0.0000
# 4 0.0000 0.0000 0.0000 31.5148 0.0000 0.0000
# 5 0.0000 0.0000 0.0000 0.0000 20.5340 0.0000
# 6 0.0000 0.0000 0.0000 0.0000 0.0000 34.7075
#
#
#
# Elastic Compliance Matrix: (Units=1/GPa)
#
#
# Indices 1 2 3 4 5 6 
#
# 1 0.021711 -0.004723 0.000879 0.000000 0.000000 0.000000
# 2 -0.004723 0.008947 -0.004947 0.000000 0.000000 0.000000
# 3 0.000879 -0.004947 0.018302 0.000000 0.000000 0.000000
# 4 0.000000 0.000000 0.000000 0.031731 0.000000 0.000000
# 5 0.000000 0.000000 0.000000 0.000000 0.048700 0.000000
# 6 0.000000 0.000000 0.000000 0.000000 0.000000 0.028812
#
#
# Mechanical properties :
#
#
# Convention : Reuss Voigt Hill
#
# Bulk Modulus (GPa) = 31.87150 46.52839 39.19994
# Shear Modulus (GPa) = 26.84655 30.10645 28.47650
#
# Velocity S-wave (km/s) = 3.75220 3.97349 3.86443
# Velocity P-wave (km/s) = 5.95703 6.74182 6.36154
#
# Compressibility (1/GPa) = 0.03137600
#
# Stress axis : x y z
#
# Youngs Moduli (GPa) = 46.06057 111.77106 54.64017
#
# Poissons Ratio (x) = 0.52788 -0.04802
# Poissons Ratio (y) = 0.21754 0.27033
# Poissons Ratio (z) = -0.04048 0.55297
#
# Static dielectric constant tensor:
#      x y z
#    x 3.540340 0.000000 0.000000 
#    y 0.000000 3.777120 0.000000 
#    z 0.000000 0.000000 3.497430 
# 
# 
# High freq. dielectric constant tensor:
#      x y z
#    x 1.725140 0.000000 0.000000 
#    y 0.000000 1.766460 0.000000 
#    z 0.000000 0.000000 1.743450 
# 
# From -- ./inp_files/2102.got.cif
#   From: 2010.03.12/outbox.cif.g09.slc.cpg/sg57_2_cif.got.tgz:2102.got - 2010.04.16 15:48:40.
