data_PCOD8230412
_publ_section_title
;
Structure prediction by ZEFSAII (Michael W. Deem and Ramdas Pophale) SiO2 
 PCOD8230412
Probable space group: P B C M
;
_chemical_formula_sum "Si O2"
_cell_formula_units_Z 48
_cell_length_a 18.334273
_cell_length_b 9.938302
_cell_length_c 13.885193
_cell_angle_alpha 90.000000
_cell_angle_beta 90.000000
_cell_angle_gamma 90.000000
_cell_volume 2530.042428
_symmetry_space_group_name_H-M "P B C M"
_symmetry_group_IT_number 57
_symmetry_cell_setting 'orthorhombic'
loop_
_space_group_symop_operation_xyz
x,y,z
-x,-y,1/2+z
x,1/2-y,-z
-x,1/2+y,1/2-z
-x,-y,-z
x,y,1/2-z
-x,1/2+y,z
x,1/2-y,1/2+z
loop_
_atom_site_type_symbol
_atom_site_label
_atom_site_fract_x
_atom_site_fract_y
_atom_site_fract_z
Si Si1 0.579167 0.963327 0.137260
Si Si2 0.965919 0.119592 0.938394
Si Si3 0.113196 0.167493 0.642024
Si Si4 0.839037 0.945976 0.945927
Si Si5 0.317486 0.097277 0.480836
Si Si6 0.454278 0.162944 0.362384
O O1 0.597095 0.968602 0.250000
O O2 0.541196 0.820258 0.107815
O O3 0.526868 0.084772 0.104009
O O4 0.655556 0.973381 0.079996
O O5 0.024602 0.158026 0.856268
O O6 0.886803 0.068230 0.901000
O O7 0.950276 0.250000 0.000000
O O8 0.000000 0.000000 0.000000
O O9 0.141185 0.131761 0.750000
O O10 0.145997 0.068276 0.561188
O O11 0.138079 0.316670 0.614911
O O12 0.752728 0.978409 0.936100
O O13 0.291702 0.250000 0.500000
O O14 0.384198 0.090790 0.407052
O O15 0.444695 0.145940 0.250000
#
# Coordination Sequence:
#
# PCOD8230412 Si02
#       6
#     8   8   8   8   8   8
#     4   9  18  32  52  76 103 137 178 218 256 308
#     4  10  18  37  57  74 106 139 175 222 268 313
#     4  10  19  33  55  78 101 139 177 215 269 320
#     4  10  20  36  51  80 114 136 173 232 269 315
#     4  10  18  32  51  75 108 137 174 213 263 315
#     4   9  18  32  51  76 102 136 176 217 257 304
#
# _framework density 18.972013
#
# number of rings (size 3 to 8) (size 9 to 14) (size 15 to 20)
#    0.000    2.333    5.000    0.500    0.000    2.000 
#    0.000    1.667    0.000    0.000    0.000    0.000 
#    0.000    0.000    0.000    0.000    0.000    0.000 
#
# Total GULP energy -594810.699970 kJ/mol
# GULP energy per Si atom -12391.889583 kJ/mol
# Density = 1.892883 g / cm^3
# Si number density = 18.972013 Si / 1000 Ang^3
#
#
#
# Elastic Constant Matrix: (Units=GPa)
#
#
# Indices 1 2 3 4 5 6 
#
# 1 127.6354 33.3167 17.8998 0.0000 0.0000 0.0000
# 2 33.3167 57.8390 5.8929 0.0000 0.0000 0.0000
# 3 17.8998 5.8929 47.3521 0.0000 0.0000 0.0000
# 4 0.0000 0.0000 0.0000 11.9946 0.0000 0.0000
# 5 0.0000 0.0000 0.0000 0.0000 7.7853 0.0000
# 6 0.0000 0.0000 0.0000 0.0000 0.0000 25.7468
#
#
#
# Elastic Compliance Matrix: (Units=1/GPa)
#
#
# Indices 1 2 3 4 5 6 
#
# 1 0.009621 -0.005238 -0.002985 0.000000 0.000000 0.000000
# 2 -0.005238 0.020363 -0.000554 0.000000 0.000000 0.000000
# 3 -0.002985 -0.000554 0.022316 0.000000 0.000000 0.000000
# 4 0.000000 0.000000 0.000000 0.083371 0.000000 0.000000
# 5 0.000000 0.000000 0.000000 0.000000 0.128447 0.000000
# 6 0.000000 0.000000 0.000000 0.000000 0.000000 0.038840
#
#
# Mechanical properties :
#
#
# Convention : Reuss Voigt Hill
#
# Bulk Modulus (GPa) = 28.78061 38.56060 33.67060
# Shear Modulus (GPa) = 15.05605 20.81980 17.93793
#
# Velocity S-wave (km/s) = 2.82013 3.31629 3.07822
# Velocity P-wave (km/s) = 5.08008 5.91885 5.51543
#
# Compressibility (1/GPa) = 0.03474562
#
# Stress axis : x y z
#
# Youngs Moduli (GPa) = 103.94371 49.10912 44.81150
#
# Poissons Ratio (x) = 0.25721 0.13376
# Poissons Ratio (y) = 0.54441 0.02484
# Poissons Ratio (z) = 0.31026 0.02722
#
# Static dielectric constant tensor:
#      x y z
#    x 3.747770 0.000000 0.000000 
#    y 0.000000 3.441510 0.000000 
#    z 0.000000 0.000000 3.377480 
# 
# 
# High freq. dielectric constant tensor:
#      x y z
#    x 1.735460 0.000000 0.000000 
#    y 0.000000 1.708060 0.000000 
#    z 0.000000 0.000000 1.726350 
# 
# From -- ./inp_files/19263.got.cif
#   From: 2010.03.12/outbox.cif.g09.slc.cpg/sg57_10_cif.got.tgz:19263.got - 2010.04.16 15:48:40.
