data_PCOD8230450
_publ_section_title
;
Structure prediction by ZEFSAII (Michael W. Deem and Ramdas Pophale) SiO2 
 PCOD8230450
Probable space group: P B C M
;
_chemical_formula_sum "Si O2"
_cell_formula_units_Z 36
_cell_length_a 7.717666
_cell_length_b 18.220653
_cell_length_c 13.681583
_cell_angle_alpha 90.000000
_cell_angle_beta 90.000000
_cell_angle_gamma 90.000000
_cell_volume 1923.916709
_symmetry_space_group_name_H-M "P B C M"
_symmetry_group_IT_number 57
_symmetry_cell_setting 'orthorhombic'
loop_
_space_group_symop_operation_xyz
x,y,z
-x,-y,1/2+z
x,1/2-y,-z
-x,1/2+y,1/2-z
-x,-y,-z
x,y,1/2-z
-x,1/2+y,z
x,1/2-y,1/2+z
loop_
_atom_site_type_symbol
_atom_site_label
_atom_site_fract_x
_atom_site_fract_y
_atom_site_fract_z
Si Si1 0.827256 0.333736 0.468659
Si Si2 0.815472 0.670273 0.046845
Si Si3 0.544072 0.853333 0.250000
Si Si4 0.509644 0.918624 0.459514
Si Si5 0.827937 0.770612 0.750000
Si Si6 0.173667 0.693176 0.750000
O O1 0.791107 0.250000 0.500000
O O2 0.660142 0.378759 0.501352
O O3 0.865753 0.347382 0.352797
O O4 0.994377 0.363247 0.526623
O O5 0.775624 0.679015 0.160217
O O6 0.799957 0.750000 0.000000
O O7 0.679514 0.614889 0.005087
O O8 0.527068 0.907990 0.342518
O O9 0.723680 0.807347 0.250000
O O10 0.383625 0.793566 0.250000
O O11 0.500000 0.000000 0.500000
O O12 0.038011 0.760689 0.750000
#
# Coordination Sequence:
#
# PCOD8230450 Si02
#       6
#     8   8   4   8   4   4
#     4  10  20  36  61  87 114 148 198 241 291 335
#     4  11  21  36  61  88 113 150 198 249 290 337
#     4  10  22  37  61  82 118 161 192 237 296 355
#     4  11  24  40  58  86 125 161 194 232 295 361
#     4  12  20  35  60  93 116 141 201 254 295 332
#     4  10  18  32  55  89 112 142 185 243 293 337
#
# _framework density 18.711829999999999
#
# number of rings (size 3 to 8) (size 9 to 14) (size 15 to 20)
#    0.000    1.333    6.667    0.667    3.111    1.778 
#    0.000    2.222    0.000    0.000    0.000    0.000 
#    0.000    0.000    0.000    0.000    0.000    0.000 
#
# Total GULP energy -446017.411807 kJ/mol
# GULP energy per Si atom -12389.372550 kJ/mol
# Density = 1.866924 g / cm^3
# Si number density = 18.711830 Si / 1000 Ang^3
#
#
#
# Elastic Constant Matrix: (Units=GPa)
#
#
# Indices 1 2 3 4 5 6 
#
# 1 144.8053 75.9484 44.8808 0.0000 0.0000 0.0000
# 2 75.9484 88.2479 40.6199 0.0000 0.0000 0.0000
# 3 44.8808 40.6199 132.2902 0.0000 0.0000 0.0000
# 4 0.0000 0.0000 0.0000 25.0401 0.0000 0.0000
# 5 0.0000 0.0000 0.0000 0.0000 50.1298 0.0000
# 6 0.0000 0.0000 0.0000 0.0000 0.0000 -15.6677
#
#
#
# Elastic Compliance Matrix: (Units=1/GPa)
#
#
# Indices 1 2 3 4 5 6 
#
# 1 0.012727 -0.010441 -0.001112 0.000000 0.000000 0.000000
# 2 -0.010441 0.021763 -0.003140 0.000000 0.000000 0.000000
# 3 -0.001112 -0.003140 0.008900 0.000000 0.000000 0.000000
# 4 0.000000 0.000000 0.000000 0.039936 0.000000 0.000000
# 5 0.000000 0.000000 0.000000 0.000000 0.019948 0.000000
# 6 0.000000 0.000000 0.000000 0.000000 0.000000 -0.063826
#
#
# Mechanical properties :
#
#
# Convention : Reuss Voigt Hill
#
# Bulk Modulus (GPa) = 71.40692 76.47130 73.93911
# Shear Modulus (GPa) = 68.02488 25.49340 46.75914
#
# Velocity S-wave (km/s) = 6.03596 3.69510 5.00433
# Velocity P-wave (km/s) = 9.31780 7.69166 8.54351
#
# Compressibility (1/GPa) = 0.01400425
#
# Stress axis : x y z
#
# Youngs Moduli (GPa) = 78.57540 45.94946 112.35382
#
# Poissons Ratio (x) = 0.47977 0.12490
# Poissons Ratio (y) = 0.82042 0.35280
# Poissons Ratio (z) = 0.08735 0.14429
#
# Static dielectric constant tensor:
#      x y z
#    x 3.988050 0.000000 0.000000 
#    y 0.000000 2.427950 0.000000 
#    z 0.000000 0.000000 3.985490 
# 
# 
# High freq. dielectric constant tensor:
#      x y z
#    x 1.752900 0.000000 0.000000 
#    y 0.000000 1.668960 0.000000 
#    z 0.000000 0.000000 1.745920 
# 
# From -- ./inp_files/16084.got.cif
#   From: 2010.03.12/outbox.cif.g09.slc.cpg/sg57_9_cif.got.tgz:16084.got - 2010.04.16 15:48:40.
