data_PCOD8230687
_publ_section_title
;
Structure prediction by ZEFSAII (Michael W. Deem and Ramdas Pophale) SiO2 
 PCOD8230687
Probable space group: P B C M
;
_chemical_formula_sum "Si O2"
_cell_formula_units_Z 64
_cell_length_a 21.497041
_cell_length_b 19.730848
_cell_length_c 9.218728
_cell_angle_alpha 90.000000
_cell_angle_beta 90.000000
_cell_angle_gamma 90.000000
_cell_volume 3910.168177
_symmetry_space_group_name_H-M "P B C M"
_symmetry_group_IT_number 57
_symmetry_cell_setting 'orthorhombic'
loop_
_space_group_symop_operation_xyz
x,y,z
-x,-y,1/2+z
x,1/2-y,-z
-x,1/2+y,1/2-z
-x,-y,-z
x,y,1/2-z
-x,1/2+y,z
x,1/2-y,1/2+z
loop_
_atom_site_type_symbol
_atom_site_label
_atom_site_fract_x
_atom_site_fract_y
_atom_site_fract_z
Si Si1 0.185009 0.808045 0.094438
Si Si2 0.044682 0.949579 0.918962
Si Si3 0.585439 0.535113 0.412935
Si Si4 0.959251 0.311493 0.411414
Si Si5 0.182096 0.935829 0.910180
Si Si6 0.379669 0.820027 0.577489
Si Si7 0.317404 0.539186 0.087602
Si Si8 0.513724 0.105516 0.585188
O O1 0.218195 0.806853 0.250000
O O2 0.112345 0.792496 0.110796
O O3 0.217927 0.750000 0.000000
O O4 0.195667 0.880546 0.028902
O O5 0.027127 0.946556 0.750000
O O6 0.116732 0.973906 0.942366
O O7 0.033112 0.877264 0.990364
O O8 0.000000 0.000000 0.000000
O O9 0.596406 0.561991 0.250000
O O10 0.651323 0.515632 0.483422
O O11 0.545230 0.467425 0.411231
O O12 0.552547 0.594903 0.505052
O O13 0.991921 0.250000 0.500000
O O14 0.989315 0.320995 0.250000
O O15 0.175849 0.901986 0.750000
O O16 0.244067 0.981291 0.916396
O O17 0.357345 0.750000 0.500000
O O18 0.387094 0.808154 0.750000
O O19 0.330605 0.881525 0.544609
O O20 0.445869 0.841267 0.507501
O O21 0.344151 0.529111 0.250000
O O22 0.504239 0.132551 0.750000
#
# Coordination Sequence:
#
# PCOD8230687 Si02
#       8
#     8   8   8   8   8   8   8   8
#     4   9  16  25  38  55  76 104 139 176 211 249
#     4  10  19  31  47  66  90 120 154 194 240 288
#     4   9  16  26  42  63  83 105 137 176 216 254
#     4   9  16  27  43  63  86 112 143 179 220 267
#     4   9  18  31  44  59  82 113 148 185 225 268
#     4  10  19  30  43  60  86 118 151 184 216 253
#     4   9  18  31  44  59  82 113 147 183 222 264
#     4   9  16  27  43  61  82 109 141 176 213 250
#
# _framework density 16.367583
#
# number of rings (size 3 to 8) (size 9 to 14) (size 15 to 20)
#    0.000    2.750    0.000    2.250    0.000    8.000 
#    0.000    1.250    0.000    0.000    0.000    0.000 
#    0.000    1.000    0.000    8.000    0.000    5.375 
#
# Total GULP energy -792971.377809 kJ/mol
# GULP energy per Si atom -12390.177778 kJ/mol
# Density = 1.633033 g / cm^3
# Si number density = 16.367583 Si / 1000 Ang^3
#
#
#
# Elastic Constant Matrix: (Units=GPa)
#
#
# Indices 1 2 3 4 5 6 
#
# 1 80.4964 33.6636 48.9005 0.0000 0.0000 0.0000
# 2 33.6636 37.5940 29.7525 0.0000 0.0000 0.0000
# 3 48.9005 29.7525 133.1549 0.0000 0.0000 0.0000
# 4 0.0000 0.0000 0.0000 25.9522 0.0000 0.0000
# 5 0.0000 0.0000 0.0000 0.0000 19.6548 0.0000
# 6 0.0000 0.0000 0.0000 0.0000 0.0000 13.0590
#
#
#
# Elastic Compliance Matrix: (Units=1/GPa)
#
#
# Indices 1 2 3 4 5 6 
#
# 1 0.021819 -0.016031 -0.004431 0.000000 0.000000 0.000000
# 2 -0.016031 0.044093 -0.003965 0.000000 0.000000 0.000000
# 3 -0.004431 -0.003965 0.010023 0.000000 0.000000 0.000000
# 4 0.000000 0.000000 0.000000 0.038532 0.000000 0.000000
# 5 0.000000 0.000000 0.000000 0.000000 0.050878 0.000000
# 6 0.000000 0.000000 0.000000 0.000000 0.000000 0.076575
#
#
# Mechanical properties :
#
#
# Convention : Reuss Voigt Hill
#
# Bulk Modulus (GPa) = 36.92584 52.87540 44.90062
# Shear Modulus (GPa) = 16.67773 20.99514 18.83643
#
# Velocity S-wave (km/s) = 3.19556 3.58540 3.39608
# Velocity P-wave (km/s) = 6.01870 7.03671 6.54752
#
# Compressibility (1/GPa) = 0.02708131
#
# Stress axis : x y z
#
# Youngs Moduli (GPa) = 45.83217 22.67941 99.76870
#
# Poissons Ratio (x) = 0.36357 0.44206
# Poissons Ratio (y) = 0.73473 0.39558
# Poissons Ratio (z) = 0.20307 0.08992
#
# Static dielectric constant tensor:
#      x y z
#    x 2.955010 0.000000 0.000000 
#    y 0.000000 2.534110 0.000000 
#    z 0.000000 0.000000 3.470260 
# 
# 
# High freq. dielectric constant tensor:
#      x y z
#    x 1.598940 0.000000 0.000000 
#    y 0.000000 1.580890 0.000000 
#    z 0.000000 0.000000 1.655820 
# 
# From -- ./inp_files/9589.got.cif
#   From: 2010.03.12/outbox.cif.g09.slc.cpg/sg57_5_cif.got.tgz:9589.got - 2010.04.16 15:48:40.
