data_PCOD8230543
_publ_section_title
;
Structure prediction by ZEFSAII (Michael W. Deem and Ramdas Pophale) SiO2 
 PCOD8230543
Probable space group: P B C M
;
_chemical_formula_sum "Si O2"
_cell_formula_units_Z 36
_cell_length_a 6.358892
_cell_length_b 13.936292
_cell_length_c 19.804413
_cell_angle_alpha 90.000000
_cell_angle_beta 90.000000
_cell_angle_gamma 90.000000
_cell_volume 1755.054716
_symmetry_space_group_name_H-M "P B C M"
_symmetry_group_IT_number 57
_symmetry_cell_setting 'orthorhombic'
loop_
_space_group_symop_operation_xyz
x,y,z
-x,-y,1/2+z
x,1/2-y,-z
-x,1/2+y,1/2-z
-x,-y,-z
x,y,1/2-z
-x,1/2+y,z
x,1/2-y,1/2+z
loop_
_atom_site_type_symbol
_atom_site_label
_atom_site_fract_x
_atom_site_fract_y
_atom_site_fract_z
Si Si1 0.986737 0.014384 0.919368
Si Si2 0.334909 0.250000 0.000000
Si Si3 0.357713 0.837047 0.097707
Si Si4 0.749387 0.646937 0.675525
Si Si5 0.980441 0.804580 0.888366
O O1 0.018146 0.917154 0.876148
O O2 0.162831 0.084651 0.887464
O O3 0.760934 0.061743 0.905271
O O4 0.000000 0.000000 0.000000
O O5 0.482307 0.328976 0.035235
O O6 0.183047 0.193936 0.050092
O O7 0.499595 0.836804 0.165620
O O8 0.201437 0.746247 0.094962
O O9 0.787483 0.601876 0.750000
O O10 0.870129 0.749823 0.674075
#
# Coordination Sequence:
#
# PCOD8230543 Si02
#       5
#     8   4   8   8   8
#     4  11  22  38  64  97 125 155 201 258 315 371
#     4  10  18  34  58  88 122 154 190 236 300 368
#     4  10  21  37  59  85 122 159 196 249 309 365
#     4  10  24  42  59  85 122 165 211 255 306 372
#     4  10  21  37  59  86 118 156 197 244 299 360
#
# _framework density 20.512180000000001
#
# number of rings (size 3 to 8) (size 9 to 14) (size 15 to 20)
#    0.000    1.778    0.000    6.000    0.000   11.556 
#    0.000    2.222    0.000    0.000    0.000    0.000 
#    0.000    0.000    0.000    0.000    0.000    0.000 
#
# Total GULP energy -446085.974075 kJ/mol
# GULP energy per Si atom -12391.277058 kJ/mol
# Density = 2.046549 g / cm^3
# Si number density = 20.512180 Si / 1000 Ang^3
#
#
#
# Elastic Constant Matrix: (Units=GPa)
#
#
# Indices 1 2 3 4 5 6 
#
# 1 140.1626 45.8056 47.1892 0.0000 0.0000 0.0000
# 2 45.8056 130.5053 30.8988 0.0000 0.0000 0.0000
# 3 47.1892 30.8988 115.0198 0.0000 0.0000 0.0000
# 4 0.0000 0.0000 0.0000 21.9519 0.0000 0.0000
# 5 0.0000 0.0000 0.0000 0.0000 -1.0910 0.0000
# 6 0.0000 0.0000 0.0000 0.0000 0.0000 22.5655
#
#
#
# Elastic Compliance Matrix: (Units=1/GPa)
#
#
# Indices 1 2 3 4 5 6 
#
# 1 0.008943 -0.002424 -0.003018 0.000000 0.000000 0.000000
# 2 -0.002424 0.008840 -0.001380 0.000000 0.000000 0.000000
# 3 -0.003018 -0.001380 0.010303 0.000000 0.000000 0.000000
# 4 0.000000 0.000000 0.000000 0.045554 0.000000 0.000000
# 5 0.000000 0.000000 0.000000 0.000000 -0.916555 0.000000
# 6 0.000000 0.000000 0.000000 0.000000 0.000000 0.044315
#
#
# Mechanical properties :
#
#
# Convention : Reuss Voigt Hill
#
# Bulk Modulus (GPa) = 69.24449 70.38610 69.81529
# Shear Modulus (GPa) = -6.40910 26.13821 9.86456
#
# Velocity S-wave (km/s) = -1.76955 3.57358 2.19535
# Velocity P-wave (km/s) = 5.44573 7.17050 6.36679
#
# Compressibility (1/GPa) = 0.01444158
#
# Stress axis : x y z
#
# Youngs Moduli (GPa) = 111.82141 113.11943 97.05908
#
# Poissons Ratio (x) = 0.27424 0.29290
# Poissons Ratio (y) = 0.27109 0.13396
# Poissons Ratio (z) = 0.33744 0.15613
#
# Static dielectric constant tensor:
#      x y z
#    x 4.027610 0.000000 0.000000 
#    y 0.000000 3.884070 0.000000 
#    z 0.000000 0.000000 3.508120 
# 
# 
# High freq. dielectric constant tensor:
#      x y z
#    x 1.820750 0.000000 0.000000 
#    y 0.000000 1.793840 0.000000 
#    z 0.000000 0.000000 1.778850 
# 
# From -- ./inp_files/23486.got.cif
#   From: 2010.03.12/outbox.cif.g09.slc.cpg/sg57_12_cif.got.tgz:23486.got - 2010.04.16 15:48:40.
