data_PCOD8230555
_publ_section_title
;
Structure prediction by ZEFSAII (Michael W. Deem and Ramdas Pophale) SiO2 
 PCOD8230555
Probable space group: P B C M
;
_chemical_formula_sum "Si O2"
_cell_formula_units_Z 48
_cell_length_a 9.747078
_cell_length_b 14.348415
_cell_length_c 15.306564
_cell_angle_alpha 90.000000
_cell_angle_beta 90.000000
_cell_angle_gamma 90.000000
_cell_volume 2140.701348
_symmetry_space_group_name_H-M "P B C M"
_symmetry_group_IT_number 57
_symmetry_cell_setting 'orthorhombic'
loop_
_space_group_symop_operation_xyz
x,y,z
-x,-y,1/2+z
x,1/2-y,-z
-x,1/2+y,1/2-z
-x,-y,-z
x,y,1/2-z
-x,1/2+y,z
x,1/2-y,1/2+z
loop_
_atom_site_type_symbol
_atom_site_label
_atom_site_fract_x
_atom_site_fract_y
_atom_site_fract_z
Si Si1 0.590990 0.498728 0.086475
Si Si2 0.291593 0.805391 0.146592
Si Si3 0.352006 0.895005 0.652604
Si Si4 0.116482 0.018181 0.850781
Si Si5 0.979050 0.710096 0.645804
Si Si6 0.152183 0.400569 0.648411
O O1 0.628229 0.391946 0.104774
O O2 0.492712 0.547512 0.157765
O O3 0.726367 0.563026 0.086038
O O4 0.500000 0.500000 0.000000
O O5 0.297881 0.821554 0.250000
O O6 0.366469 0.709770 0.113686
O O7 0.135353 0.797407 0.112311
O O8 0.295545 0.877277 0.750000
O O9 0.234389 0.955918 0.601895
O O10 0.158533 0.027999 0.750000
O O11 0.107461 0.122080 0.890919
O O12 0.968100 0.974370 0.861196
O O13 0.983176 0.712099 0.750000
O O14 0.902457 0.802194 0.611526
O O15 0.199747 0.394593 0.750000
#
# Coordination Sequence:
#
# PCOD8230555 Si02
#       6
#     8   8   8   8   8   8
#     4  12  26  40  57  87 136 182 208 245 312 404
#     4  10  19  37  66  92 119 161 214 271 329 374
#     4  10  21  38  62  92 121 157 211 273 322 375
#     4   9  16  30  58  94 124 147 199 273 327 373
#     4   9  16  29  60  98 122 150 201 273 336 373
#     4  10  18  34  62  94 123 159 214 271 318 373
#
# _framework density 22.422556
#
# number of rings (size 3 to 8) (size 9 to 14) (size 15 to 20)
#    0.000    2.000    3.333    1.500    0.000    2.000 
#    0.000    4.167    0.000    0.000    0.000    0.000 
#    0.000    0.000    0.000    0.000    0.000    0.000 
#
# Total GULP energy -594827.791692 kJ/mol
# GULP energy per Si atom -12392.245660 kJ/mol
# Density = 2.237152 g / cm^3
# Si number density = 22.422556 Si / 1000 Ang^3
#
#
#
# Elastic Constant Matrix: (Units=GPa)
#
#
# Indices 1 2 3 4 5 6 
#
# 1 130.5006 87.0901 22.0436 0.0000 0.0000 0.0000
# 2 87.0901 232.6448 37.1462 0.0000 0.0000 0.0000
# 3 22.0436 37.1462 23.3674 0.0000 0.0000 0.0000
# 4 0.0000 0.0000 0.0000 18.8076 0.0000 0.0000
# 5 0.0000 0.0000 0.0000 0.0000 19.6356 0.0000
# 6 0.0000 0.0000 0.0000 0.0000 0.0000 48.6485
#
#
#
# Elastic Compliance Matrix: (Units=1/GPa)
#
#
# Indices 1 2 3 4 5 6 
#
# 1 0.010627 -0.003186 -0.004960 0.000000 0.000000 0.000000
# 2 -0.003186 0.006716 -0.007670 0.000000 0.000000 0.000000
# 3 -0.004960 -0.007670 0.059667 0.000000 0.000000 0.000000
# 4 0.000000 0.000000 0.000000 0.053170 0.000000 0.000000
# 5 0.000000 0.000000 0.000000 0.000000 0.050928 0.000000
# 6 0.000000 0.000000 0.000000 0.000000 0.000000 0.020556
#
#
# Mechanical properties :
#
#
# Convention : Reuss Voigt Hill
#
# Bulk Modulus (GPa) = 22.03773 75.45251 48.74512
# Shear Modulus (GPa) = 20.12711 33.43386 26.78048
#
# Velocity S-wave (km/s) = 2.99929 3.86564 3.45969
# Velocity P-wave (km/s) = 4.67376 7.32445 6.14376
#
# Compressibility (1/GPa) = 0.04537672
#
# Stress axis : x y z
#
# Youngs Moduli (GPa) = 94.10036 148.90149 16.75980
#
# Poissons Ratio (x) = 0.47443 0.08313
# Poissons Ratio (y) = 0.29983 0.12855
# Poissons Ratio (z) = 0.46673 1.14210
#
# Static dielectric constant tensor:
#      x y z
#    x 4.101730 0.000000 0.000000 
#    y 0.000000 4.562750 0.000000 
#    z 0.000000 0.000000 3.548470 
# 
# 
# High freq. dielectric constant tensor:
#      x y z
#    x 1.878800 0.000000 0.000000 
#    y 0.000000 1.907930 0.000000 
#    z 0.000000 0.000000 1.838180 
# 
# From -- ./inp_files/20976.got.cif
#   From: 2010.03.12/outbox.cif.g09.slc.cpg/sg57_11_cif.got.tgz:20976.got - 2010.04.16 15:48:40.
