data_PCOD8230813
_publ_section_title
;
Structure prediction by ZEFSAII (Michael W. Deem and Ramdas Pophale) SiO2 
 PCOD8230813
Probable space group: P B C M
;
_chemical_formula_sum "Si O2"
_cell_formula_units_Z 64
_cell_length_a 17.318722
_cell_length_b 19.944300
_cell_length_c 9.582670
_cell_angle_alpha 90.000000
_cell_angle_beta 90.000000
_cell_angle_gamma 90.000000
_cell_volume 3309.948005
_symmetry_space_group_name_H-M "P B C M"
_symmetry_group_IT_number 57
_symmetry_cell_setting 'orthorhombic'
loop_
_space_group_symop_operation_xyz
x,y,z
-x,-y,1/2+z
x,1/2-y,-z
-x,1/2+y,1/2-z
-x,-y,-z
x,y,1/2-z
-x,1/2+y,z
x,1/2-y,1/2+z
loop_
_atom_site_type_symbol
_atom_site_label
_atom_site_fract_x
_atom_site_fract_y
_atom_site_fract_z
Si Si1 0.565841 0.963944 0.913558
Si Si2 0.391039 0.184838 0.089101
Si Si3 0.904829 0.873989 0.097837
Si Si4 0.723751 0.460726 0.412585
Si Si5 0.764991 0.310724 0.408069
Si Si6 0.212090 0.313052 0.910585
Si Si7 0.133388 0.980873 0.905653
Si Si8 0.073527 0.631911 0.591351
O O1 0.548013 0.970343 0.750000
O O2 0.567814 0.884683 0.955783
O O3 0.644119 0.002967 0.951248
O O4 0.500000 0.000000 0.000000
O O5 0.407936 0.202383 0.250000
O O6 0.301039 0.169391 0.065304
O O7 0.418276 0.250000 0.000000
O O8 0.872782 0.849162 0.250000
O O9 0.987457 0.837457 0.068608
O O10 0.919255 0.953312 0.105682
O O11 0.843131 0.869185 0.973494
O O12 0.744223 0.472435 0.250000
O O13 0.722242 0.380785 0.445803
O O14 0.788366 0.495018 0.507644
O O15 0.731023 0.250000 0.500000
O O16 0.746647 0.291216 0.250000
O O17 0.857448 0.315326 0.434652
O O18 0.192962 0.301242 0.750000
O O19 0.186060 0.250000 0.000000
O O20 0.155982 0.955785 0.750000
O O21 0.080798 0.926920 0.980968
O O22 0.081658 0.604470 0.750000
#
# Coordination Sequence:
#
# PCOD8230813 Si02
#       8
#     8   8   8   8   8   8   8   8
#     4  10  21  38  60  87 117 146 178 216 263 321
#     4   9  19  36  58  83 111 146 185 221 261 316
#     4  10  20  32  46  69 101 134 172 220 271 324
#     4   9  19  37  57  76 104 142 178 214 266 330
#     4   9  18  33  53  73  95 132 179 224 269 317
#     4  10  20  34  52  73  99 134 175 217 260 309
#     4  10  19  30  49  76 100 126 170 224 268 312
#     4   9  19  34  48  65  97 138 175 216 271 329
#
# _framework density 19.335650999999999
#
# number of rings (size 3 to 8) (size 9 to 14) (size 15 to 20)
#    0.000    2.500    0.000    2.625    0.000    6.500 
#    0.000    1.875    0.000    3.000    0.000    0.000 
#    0.000    0.000    0.000    0.000    0.000    0.000 
#
# Total GULP energy -793092.888365 kJ/mol
# GULP energy per Si atom -12392.076381 kJ/mol
# Density = 1.929164 g / cm^3
# Si number density = 19.335651 Si / 1000 Ang^3
#
#
#
# Elastic Constant Matrix: (Units=GPa)
#
#
# Indices 1 2 3 4 5 6 
#
# 1 66.9221 37.3562 42.0431 0.0000 0.0000 0.0000
# 2 37.3562 107.5227 49.1634 0.0000 0.0000 0.0000
# 3 42.0431 49.1634 99.3907 0.0000 0.0000 0.0000
# 4 0.0000 0.0000 0.0000 33.9016 0.0000 0.0000
# 5 0.0000 0.0000 0.0000 0.0000 29.0293 0.0000
# 6 0.0000 0.0000 0.0000 0.0000 0.0000 19.6152
#
#
#
# Elastic Compliance Matrix: (Units=1/GPa)
#
#
# Indices 1 2 3 4 5 6 
#
# 1 0.021814 -0.004342 -0.007080 0.000000 0.000000 0.000000
# 2 -0.004342 0.012883 -0.004536 0.000000 0.000000 0.000000
# 3 -0.007080 -0.004536 0.015300 0.000000 0.000000 0.000000
# 4 0.000000 0.000000 0.000000 0.029497 0.000000 0.000000
# 5 0.000000 0.000000 0.000000 0.000000 0.034448 0.000000
# 6 0.000000 0.000000 0.000000 0.000000 0.000000 0.050981
#
#
# Mechanical properties :
#
#
# Convention : Reuss Voigt Hill
#
# Bulk Modulus (GPa) = 55.30423 58.99568 57.14996
# Shear Modulus (GPa) = 24.64694 26.19408 25.42051
#
# Velocity S-wave (km/s) = 3.57415 3.68462 3.62981
# Velocity P-wave (km/s) = 6.75996 6.97707 6.86937
#
# Compressibility (1/GPa) = 0.01808180
#
# Stress axis : x y z
#
# Youngs Moduli (GPa) = 45.84171 77.62332 65.35990
#
# Poissons Ratio (x) = 0.33701 0.46275
# Poissons Ratio (y) = 0.19902 0.29647
# Poissons Ratio (z) = 0.32456 0.35209
#
# Static dielectric constant tensor:
#      x y z
#    x 3.330590 0.000000 0.000000 
#    y 0.000000 3.500610 0.000000 
#    z 0.000000 0.000000 3.614290 
# 
# 
# High freq. dielectric constant tensor:
#      x y z
#    x 1.729000 0.000000 0.000000 
#    y 0.000000 1.746780 0.000000 
#    z 0.000000 0.000000 1.757650 
# 
# From -- ./inp_files/7240.got.cif
#   From: 2010.03.12/outbox.cif.g09.slc.cpg/sg57_4_cif.got.tgz:7240.got - 2010.04.16 15:48:40.
