data_PCOD8230508
_publ_section_title
;
Structure prediction by ZEFSAII (Michael W. Deem and Ramdas Pophale) SiO2 
 PCOD8230508
Probable space group: P B C M
;
_chemical_formula_sum "Si O2"
_cell_formula_units_Z 64
_cell_length_a 9.491815
_cell_length_b 21.715388
_cell_length_c 14.577494
_cell_angle_alpha 90.000000
_cell_angle_beta 90.000000
_cell_angle_gamma 90.000000
_cell_volume 3004.690403
_symmetry_space_group_name_H-M "P B C M"
_symmetry_group_IT_number 57
_symmetry_cell_setting 'orthorhombic'
loop_
_space_group_symop_operation_xyz
x,y,z
-x,-y,1/2+z
x,1/2-y,-z
-x,1/2+y,1/2-z
-x,-y,-z
x,y,1/2-z
-x,1/2+y,z
x,1/2-y,1/2+z
loop_
_atom_site_type_symbol
_atom_site_label
_atom_site_fract_x
_atom_site_fract_y
_atom_site_fract_z
Si Si1 0.647657 0.566417 0.650021
Si Si2 0.266361 0.939878 0.895064
Si Si3 0.538618 0.336325 0.650128
Si Si4 0.018059 0.641107 0.046236
Si Si5 0.659297 0.469702 0.406090
Si Si6 0.799323 0.237387 0.355325
Si Si7 0.707604 0.890664 0.955454
Si Si8 0.119401 0.873411 0.350845
O O1 0.665043 0.599196 0.750000
O O2 0.750876 0.507046 0.649129
O O3 0.489056 0.541349 0.641858
O O4 0.690918 0.610287 0.566129
O O5 0.366612 0.897268 0.834788
O O6 0.109937 0.912407 0.906033
O O7 0.348810 0.943587 0.991595
O O8 0.478195 0.318060 0.750000
O O9 0.644563 0.284202 0.611569
O O10 0.409317 0.343931 0.581524
O O11 0.082222 0.707073 0.077674
O O12 0.856955 0.636533 0.077135
O O13 0.012644 0.627692 0.936284
O O14 0.692853 0.542261 0.409490
O O15 0.779528 0.432773 0.351598
O O16 0.828747 0.216420 0.250000
O O17 0.792014 0.310722 0.363434
O O18 0.043398 0.873059 0.250000
#
# Coordination Sequence:
#
# PCOD8230508 Si02
#       8
#     8   8   8   8   8   8   8   8
#     4  11  20  33  55  83 124 163 193 236 296 356
#     4   9  17  33  54  80 111 156 198 236 277 349
#     4  10  18  33  60  87 113 150 198 253 298 336
#     4  10  22  37  60  86 122 156 199 244 299 351
#     4  10  19  34  57  88 121 152 188 245 299 349
#     4   9  20  40  65  88 109 151 211 255 292 347
#     4  11  22  37  56  93 128 154 193 244 303 364
#     4  10  21  38  63  87 116 156 205 247 288 355
#
# _framework density 21.30003
#
# number of rings (size 3 to 8) (size 9 to 14) (size 15 to 20)
#    0.000    2.000    2.500    1.875    0.000    6.500 
#    0.000    0.000    5.500    0.000    0.000    0.000 
#    0.000    0.000    0.000    0.000    0.000    0.000 
#
# Total GULP energy -793226.220464 kJ/mol
# GULP energy per Si atom -12394.159695 kJ/mol
# Density = 2.125155 g / cm^3
# Si number density = 21.300030 Si / 1000 Ang^3
#
#
#
# Elastic Constant Matrix: (Units=GPa)
#
#
# Indices 1 2 3 4 5 6 
#
# 1 120.0305 24.3770 36.5595 0.0000 0.0000 0.0000
# 2 24.3770 47.2592 10.3888 0.0000 0.0000 0.0000
# 3 36.5595 10.3888 101.5388 0.0000 0.0000 0.0000
# 4 0.0000 0.0000 0.0000 20.1622 0.0000 0.0000
# 5 0.0000 0.0000 0.0000 0.0000 7.2523 0.0000
# 6 0.0000 0.0000 0.0000 0.0000 0.0000 9.1687
#
#
#
# Elastic Compliance Matrix: (Units=1/GPa)
#
#
# Indices 1 2 3 4 5 6 
#
# 1 0.010241 -0.004575 -0.003219 0.000000 0.000000 0.000000
# 2 -0.004575 0.023690 -0.000777 0.000000 0.000000 0.000000
# 3 -0.003219 -0.000777 0.011087 0.000000 0.000000 0.000000
# 4 0.000000 0.000000 0.000000 0.049598 0.000000 0.000000
# 5 0.000000 0.000000 0.000000 0.000000 0.137887 0.000000
# 6 0.000000 0.000000 0.000000 0.000000 0.000000 0.109067
#
#
# Mechanical properties :
#
#
# Convention : Reuss Voigt Hill
#
# Bulk Modulus (GPa) = 35.87189 45.71989 40.79589
# Shear Modulus (GPa) = 13.58683 20.48353 17.03518
#
# Velocity S-wave (km/s) = 2.52837 3.10444 2.83109
# Velocity P-wave (km/s) = 5.03997 5.86186 5.46638
#
# Compressibility (1/GPa) = 0.02787698
#
# Stress axis : x y z
#
# Youngs Moduli (GPa) = 97.64854 42.21128 90.19571
#
# Poissons Ratio (x) = 0.19310 0.29036
# Poissons Ratio (y) = 0.44671 0.07005
# Poissons Ratio (z) = 0.31435 0.03279
#
# Static dielectric constant tensor:
#      x y z
#    x 3.538220 0.000000 0.000000 
#    y 0.000000 3.703990 0.000000 
#    z 0.000000 0.000000 4.056630 
# 
# 
# High freq. dielectric constant tensor:
#      x y z
#    x 1.811030 0.000000 0.000000 
#    y 0.000000 1.812370 0.000000 
#    z 0.000000 0.000000 1.845730 
# 
# From -- ./inp_files/16926.got.cif
#   From: 2010.03.12/outbox.cif.g09.slc.cpg/sg57_9_cif.got.tgz:16926.got - 2010.04.16 15:48:40.
