data_PCOD8230821
_publ_section_title
;
Structure prediction by ZEFSAII (Michael W. Deem and Ramdas Pophale) SiO2 
 PCOD8230821
Probable space group: P B C M
;
_chemical_formula_sum "Si O2"
_cell_formula_units_Z 64
_cell_length_a 18.798883
_cell_length_b 23.205533
_cell_length_c 9.073991
_cell_angle_alpha 90.000000
_cell_angle_beta 90.000000
_cell_angle_gamma 90.000000
_cell_volume 3958.420592
_symmetry_space_group_name_H-M "P B C M"
_symmetry_group_IT_number 57
_symmetry_cell_setting 'orthorhombic'
loop_
_space_group_symop_operation_xyz
x,y,z
-x,-y,1/2+z
x,1/2-y,-z
-x,1/2+y,1/2-z
-x,-y,-z
x,y,1/2-z
-x,1/2+y,z
x,1/2-y,1/2+z
loop_
_atom_site_type_symbol
_atom_site_label
_atom_site_fract_x
_atom_site_fract_y
_atom_site_fract_z
Si Si1 0.752606 0.998334 0.923538
Si Si2 0.893202 0.026026 0.077956
Si Si3 0.111315 0.309010 0.422877
Si Si4 0.388456 0.984576 0.580285
Si Si5 0.015023 0.084209 0.580284
Si Si6 0.245123 0.135422 0.076553
Si Si7 0.473544 0.080442 0.081732
Si Si8 0.607160 0.808610 0.580311
O O1 0.754996 0.006787 0.750000
O O2 0.753863 0.931364 0.969145
O O3 0.818806 0.031487 0.994491
O O4 0.681580 0.028091 0.985683
O O5 0.880319 0.034864 0.250000
O O6 0.926368 0.963813 0.040261
O O7 0.945500 0.076126 0.020074
O O8 0.088304 0.250000 0.500000
O O9 0.122282 0.299132 0.250000
O O10 0.048206 0.353873 0.455167
O O11 0.184775 0.331555 0.488258
O O12 0.366872 0.992230 0.750000
O O13 0.442699 0.931112 0.557712
O O14 0.426585 0.042670 0.527767
O O15 0.992205 0.078116 0.750000
O O16 0.231334 0.142478 0.250000
O O17 0.319306 0.163177 0.025368
O O18 0.450789 0.064935 0.250000
O O19 0.457471 0.147240 0.049174
O O20 0.588580 0.750000 0.500000
O O21 0.614258 0.793398 0.750000
#
# Coordination Sequence:
#
# PCOD8230821 Si02
#       8
#     8   8   8   8   8   8   8   8
#     4  11  20  32  50  72 102 134 161 197 248 298
#     4  10  19  32  51  74  98 125 164 204 243 294
#     4  11  22  35  50  70  99 132 171 208 240 285
#     4  10  19  30  50  73  95 125 163 203 244 294
#     4   9  19  34  49  70  98 129 162 203 247 288
#     4  10  20  33  48  67  96 135 171 201 237 283
#     4   9  18  34  49  67  97 129 161 202 248 290
#     4  10  20  34  48  67  95 130 169 203 240 283
#
# _framework density 16.168064000000001
#
# number of rings (size 3 to 8) (size 9 to 14) (size 15 to 20)
#    0.000    2.000    2.500    1.875    0.000    4.500 
#    0.000    0.000    0.000    0.000    0.000    0.875 
#    0.000    4.000    0.000    0.000    0.000    0.000 
#
# Total GULP energy -793783.077294 kJ/mol
# GULP energy per Si atom -12402.860583 kJ/mol
# Density = 1.613127 g / cm^3
# Si number density = 16.168064 Si / 1000 Ang^3
#
#
#
# Elastic Constant Matrix: (Units=GPa)
#
#
# Indices 1 2 3 4 5 6 
#
# 1 115.2573 54.2888 57.4294 0.0000 0.0000 0.0000
# 2 54.2888 84.9920 42.6689 0.0000 0.0000 0.0000
# 3 57.4294 42.6689 75.6669 0.0000 0.0000 0.0000
# 4 0.0000 0.0000 0.0000 24.4515 0.0000 0.0000
# 5 0.0000 0.0000 0.0000 0.0000 30.9666 0.0000
# 6 0.0000 0.0000 0.0000 0.0000 0.0000 21.7713
#
#
#
# Elastic Compliance Matrix: (Units=1/GPa)
#
#
# Indices 1 2 3 4 5 6 
#
# 1 0.015675 -0.005635 -0.008719 0.000000 0.000000 0.000000
# 2 -0.005635 0.018438 -0.006120 0.000000 0.000000 0.000000
# 3 -0.008719 -0.006120 0.023285 0.000000 0.000000 0.000000
# 4 0.000000 0.000000 0.000000 0.040897 0.000000 0.000000
# 5 0.000000 0.000000 0.000000 0.000000 0.032293 0.000000
# 6 0.000000 0.000000 0.000000 0.000000 0.000000 0.045932
#
#
# Mechanical properties :
#
#
# Convention : Reuss Voigt Hill
#
# Bulk Modulus (GPa) = 60.79650 64.96560 62.88105
# Shear Modulus (GPa) = 22.42633 23.53983 22.98308
#
# Velocity S-wave (km/s) = 3.72839 3.81983 3.77438
# Velocity P-wave (km/s) = 7.49793 7.72809 7.61388
#
# Compressibility (1/GPa) = 0.01644831
#
# Stress axis : x y z
#
# Youngs Moduli (GPa) = 63.79539 54.23639 42.94638
#
# Poissons Ratio (x) = 0.30563 0.37447
# Poissons Ratio (y) = 0.35949 0.26284
# Poissons Ratio (z) = 0.55626 0.33194
#
# Static dielectric constant tensor:
#      x y z
#    x 3.074970 0.000000 0.000000 
#    y 0.000000 2.955940 0.000000 
#    z 0.000000 0.000000 3.125490 
# 
# 
# High freq. dielectric constant tensor:
#      x y z
#    x 1.617260 0.000000 0.000000 
#    y 0.000000 1.594540 0.000000 
#    z 0.000000 0.000000 1.632880 
# 
# From -- ./inp_files/7345.got.cif
#   From: 2010.03.12/outbox.cif.g09.slc.cpg/sg57_4_cif.got.tgz:7345.got - 2010.04.16 15:48:40.
