data_PCOD8230446
_publ_section_title
;
Structure prediction by ZEFSAII (Michael W. Deem and Ramdas Pophale) SiO2 
 PCOD8230446
Probable space group: P B C M
;
_chemical_formula_sum "Si O2"
_cell_formula_units_Z 56
_cell_length_a 8.482607
_cell_length_b 21.223470
_cell_length_c 15.353818
_cell_angle_alpha 90.000000
_cell_angle_beta 90.000000
_cell_angle_gamma 90.000000
_cell_volume 2764.153308
_symmetry_space_group_name_H-M "P B C M"
_symmetry_group_IT_number 57
_symmetry_cell_setting 'orthorhombic'
loop_
_space_group_symop_operation_xyz
x,y,z
-x,-y,1/2+z
x,1/2-y,-z
-x,1/2+y,1/2-z
-x,-y,-z
x,y,1/2-z
-x,1/2+y,z
x,1/2-y,1/2+z
loop_
_atom_site_type_symbol
_atom_site_label
_atom_site_fract_x
_atom_site_fract_y
_atom_site_fract_z
Si Si1 0.085328 0.153269 0.154959
Si Si2 0.677190 0.670101 0.018613
Si Si3 0.461566 0.739036 0.348330
Si Si4 0.026957 0.282690 0.415718
Si Si5 0.258063 0.881476 0.847518
Si Si6 0.743112 0.361523 0.149317
Si Si7 0.572895 0.068136 0.508007
O O1 0.142194 0.132876 0.250000
O O2 0.054897 0.228796 0.155808
O O3 0.925736 0.117415 0.129650
O O4 0.220105 0.131424 0.089100
O O5 0.589454 0.726535 0.074735
O O6 0.559514 0.620868 0.976461
O O7 0.798608 0.694117 0.945128
O O8 0.535870 0.735706 0.250000
O O9 0.320056 0.689620 0.356222
O O10 0.385420 0.806852 0.365446
O O11 0.944058 0.250000 0.500000
O O12 0.917522 0.338217 0.378785
O O13 0.289119 0.907256 0.750000
O O14 0.343498 0.926005 0.915281
O O15 0.748304 0.383089 0.250000
O O16 0.694261 0.421199 0.088680
O O17 0.500000 0.000000 0.500000
#
# Coordination Sequence:
#
# PCOD8230446 Si02
#       7
#     8   8   8   8   8   8   8
#     4  10  18  32  54  89 124 148 176 225 301 377
#     4  10  22  34  56  87 120 150 187 245 301 351
#     4   9  18  33  56  89 119 149 184 231 298 368
#     4  10  20  33  56  90 125 154 179 229 304 378
#     4   9  18  36  63  88 116 151 192 241 296 365
#     4  11  23  39  60  86 122 164 204 246 301 370
#     4  11  25  42  60  80 113 164 217 260 295 343
#
# _framework density 20.259367999999998
#
# number of rings (size 3 to 8) (size 9 to 14) (size 15 to 20)
#    0.000    2.000    1.429    2.571    8.000    1.143 
#    0.000    3.571    0.000    1.714    0.000    0.000 
#    0.000    0.000    0.000    0.000    0.000    0.000 
#
# Total GULP energy -693986.443702 kJ/mol
# GULP energy per Si atom -12392.615066 kJ/mol
# Density = 2.021326 g / cm^3
# Si number density = 20.259368 Si / 1000 Ang^3
#
#
#
# Elastic Constant Matrix: (Units=GPa)
#
#
# Indices 1 2 3 4 5 6 
#
# 1 83.3404 2.2418 37.6565 0.0000 0.0000 0.0000
# 2 2.2418 30.2112 12.9143 0.0000 0.0000 0.0000
# 3 37.6565 12.9143 100.4243 0.0000 0.0000 0.0000
# 4 0.0000 0.0000 0.0000 18.5698 0.0000 0.0000
# 5 0.0000 0.0000 0.0000 0.0000 35.8455 0.0000
# 6 0.0000 0.0000 0.0000 0.0000 0.0000 14.0751
#
#
#
# Elastic Compliance Matrix: (Units=1/GPa)
#
#
# Indices 1 2 3 4 5 6 
#
# 1 0.014496 0.001321 -0.005606 0.000000 0.000000 0.000000
# 2 0.001321 0.035146 -0.005015 0.000000 0.000000 0.000000
# 3 -0.005606 -0.005015 0.012705 0.000000 0.000000 0.000000
# 4 0.000000 0.000000 0.000000 0.053851 0.000000 0.000000
# 5 0.000000 0.000000 0.000000 0.000000 0.027897 0.000000
# 6 0.000000 0.000000 0.000000 0.000000 0.000000 0.071048
#
#
# Mechanical properties :
#
#
# Convention : Reuss Voigt Hill
#
# Bulk Modulus (GPa) = 22.85867 35.51123 29.18495
# Shear Modulus (GPa) = 20.13492 24.44231 22.28862
#
# Velocity S-wave (km/s) = 3.15597 3.47720 3.32047
# Velocity P-wave (km/s) = 4.95860 5.80410 5.39793
#
# Compressibility (1/GPa) = 0.04374708
#
# Stress axis : x y z
#
# Youngs Moduli (GPa) = 68.98330 28.45276 78.71181
#
# Poissons Ratio (x) = -0.03757 0.44122
# Poissons Ratio (y) = -0.09109 0.39473
# Poissons Ratio (z) = 0.38669 0.14269
#
# Static dielectric constant tensor:
#      x y z
#    x 3.799230 0.000000 0.000000 
#    y 0.000000 3.131290 0.000000 
#    z 0.000000 0.000000 4.052170 
# 
# 
# High freq. dielectric constant tensor:
#      x y z
#    x 1.804030 0.000000 0.000000 
#    y 0.000000 1.727830 0.000000 
#    z 0.000000 0.000000 1.808360 
# 
# From -- ./inp_files/21337.got.cif
#   From: 2010.03.12/outbox.cif.g09.slc.cpg/sg57_11_cif.got.tgz:21337.got - 2010.04.16 15:48:40.
