data_PCOD8230247
_publ_section_title
;
Structure prediction by ZEFSAII (Michael W. Deem and Ramdas Pophale) SiO2 
 PCOD8230247
Probable space group: P B C M
;
_chemical_formula_sum "Si O2"
_cell_formula_units_Z 48
_cell_length_a 15.144391
_cell_length_b 20.055257
_cell_length_c 9.033037
_cell_angle_alpha 90.000000
_cell_angle_beta 90.000000
_cell_angle_gamma 90.000000
_cell_volume 2743.556034
_symmetry_space_group_name_H-M "P B C M"
_symmetry_group_IT_number 57
_symmetry_cell_setting 'orthorhombic'
loop_
_space_group_symop_operation_xyz
x,y,z
-x,-y,1/2+z
x,1/2-y,-z
-x,1/2+y,1/2-z
-x,-y,-z
x,y,1/2-z
-x,1/2+y,z
x,1/2-y,1/2+z
loop_
_atom_site_type_symbol
_atom_site_label
_atom_site_fract_x
_atom_site_fract_y
_atom_site_fract_z
Si Si1 0.740190 0.893155 0.921538
Si Si2 0.398054 0.932095 0.582757
Si Si3 0.044076 0.563442 0.074766
Si Si4 0.776034 0.046946 0.577266
Si Si5 0.913466 0.681216 0.076527
Si Si6 0.432425 0.088781 0.916435
O O1 0.717726 0.883339 0.750000
O O2 0.817594 0.844473 0.976936
O O3 0.772657 0.968092 0.950865
O O4 0.652351 0.875152 0.012545
O O5 0.384912 0.906175 0.750000
O O6 0.310859 0.917166 0.487185
O O7 0.480119 0.892973 0.509426
O O8 0.417755 0.010129 0.581659
O O9 0.047722 0.551532 0.250000
O O10 0.987213 0.627844 0.032252
O O11 0.141036 0.576317 0.010472
O O12 0.000000 0.500000 0.000000
O O13 0.784297 0.063911 0.750000
O O14 0.911902 0.692837 0.250000
O O15 0.938033 0.750000 0.000000
O O16 0.444688 0.115266 0.750000
#
# Coordination Sequence:
#
# PCOD8230247 Si02
#       6
#     8   8   8   8   8   8
#     4   9  17  31  47  67  98 132 165 206 253 302
#     4   9  16  26  40  64  97 132 164 200 248 297
#     4  11  21  35  53  76 103 134 174 218 264 315
#     4  10  18  30  48  72 101 132 168 212 258 305
#     4  10  22  38  53  74 103 136 174 217 262 311
#     4   9  16  25  40  65  94 128 166 201 242 294
#
# _framework density 17.495543000000001
#
# number of rings (size 3 to 8) (size 9 to 14) (size 15 to 20)
#    0.000    2.333    1.667    2.000    0.000    6.667 
#    0.000    0.000    0.000    0.000    0.000    1.167 
#    0.000    0.000    0.000    0.000    0.000    0.000 
#
# Total GULP energy -595249.547075 kJ/mol
# GULP energy per Si atom -12401.032231 kJ/mol
# Density = 1.745572 g / cm^3
# Si number density = 17.495543 Si / 1000 Ang^3
#
#
#
# Elastic Constant Matrix: (Units=GPa)
#
#
# Indices 1 2 3 4 5 6 
#
# 1 157.8268 51.4592 73.2863 0.0000 0.0000 0.0000
# 2 51.4592 60.6445 42.5557 0.0000 0.0000 0.0000
# 3 73.2863 42.5557 110.2512 0.0000 0.0000 0.0000
# 4 0.0000 0.0000 0.0000 19.1488 0.0000 0.0000
# 5 0.0000 0.0000 0.0000 0.0000 39.3293 0.0000
# 6 0.0000 0.0000 0.0000 0.0000 0.0000 15.6780
#
#
#
# Elastic Compliance Matrix: (Units=1/GPa)
#
#
# Indices 1 2 3 4 5 6 
#
# 1 0.010313 -0.005404 -0.004769 0.000000 0.000000 0.000000
# 2 -0.005404 0.025447 -0.006230 0.000000 0.000000 0.000000
# 3 -0.004769 -0.006230 0.014645 0.000000 0.000000 0.000000
# 4 0.000000 0.000000 0.000000 0.052223 0.000000 0.000000
# 5 0.000000 0.000000 0.000000 0.000000 0.025426 0.000000
# 6 0.000000 0.000000 0.000000 0.000000 0.000000 0.063784
#
#
# Mechanical properties :
#
#
# Convention : Reuss Voigt Hill
#
# Bulk Modulus (GPa) = 56.82410 73.70275 65.26343
# Shear Modulus (GPa) = 21.69109 25.59263 23.64186
#
# Velocity S-wave (km/s) = 3.52491 3.82882 3.68000
# Velocity P-wave (km/s) = 7.00831 7.85904 7.44583
#
# Compressibility (1/GPa) = 0.01759817
#
# Stress axis : x y z
#
# Youngs Moduli (GPa) = 96.96936 39.29763 68.28263
#
# Poissons Ratio (x) = 0.21237 0.32564
# Poissons Ratio (y) = 0.52402 0.42540
# Poissons Ratio (z) = 0.46245 0.24482
#
# Static dielectric constant tensor:
#      x y z
#    x 3.584890 0.000000 0.000000 
#    y 0.000000 3.097420 0.000000 
#    z 0.000000 0.000000 3.372820 
# 
# 
# High freq. dielectric constant tensor:
#      x y z
#    x 1.694150 0.000000 0.000000 
#    y 0.000000 1.610210 0.000000 
#    z 0.000000 0.000000 1.688580 
# 
# From -- ./inp_files/4894.got.cif
#   From: 2010.03.12/outbox.cif.g09.slc.cpg/sg57_3_cif.got.tgz:4894.got - 2010.04.16 15:48:40.
