data_PCOD8230273
_publ_section_title
;
Structure prediction by ZEFSAII (Michael W. Deem and Ramdas Pophale) SiO2 
 PCOD8230273
Probable space group: P B C M
;
_chemical_formula_sum "Si O2"
_cell_formula_units_Z 64
_cell_length_a 9.990581
_cell_length_b 19.962865
_cell_length_c 19.084028
_cell_angle_alpha 90.000000
_cell_angle_beta 90.000000
_cell_angle_gamma 90.000000
_cell_volume 3806.130372
_symmetry_space_group_name_H-M "P B C M"
_symmetry_group_IT_number 57
_symmetry_cell_setting 'orthorhombic'
loop_
_space_group_symop_operation_xyz
x,y,z
-x,-y,1/2+z
x,1/2-y,-z
-x,1/2+y,1/2-z
-x,-y,-z
x,y,1/2-z
-x,1/2+y,z
x,1/2-y,1/2+z
loop_
_atom_site_type_symbol
_atom_site_label
_atom_site_fract_x
_atom_site_fract_y
_atom_site_fract_z
Si Si1 0.077342 0.311654 0.048099
Si Si2 0.486893 0.971653 0.325259
Si Si3 0.417715 0.682775 0.673880
Si Si4 0.616182 0.804579 0.443179
Si Si5 0.388051 0.457133 0.463409
Si Si6 0.107442 0.449113 0.527918
Si Si7 0.808874 0.502239 0.169915
Si Si8 0.125292 0.652058 0.831305
O O1 0.227607 0.301233 0.077274
O O2 0.986753 0.319142 0.116799
O O3 0.029717 0.250000 0.000000
O O4 0.070011 0.375203 0.996839
O O5 0.543339 0.996343 0.250000
O O6 0.444605 0.895277 0.319462
O O7 0.605018 0.979716 0.381782
O O8 0.350253 0.011242 0.343753
O O9 0.437195 0.716859 0.750000
O O10 0.523704 0.716541 0.622045
O O11 0.263241 0.690769 0.649719
O O12 0.579292 0.750000 0.500000
O O13 0.578959 0.878319 0.471723
O O14 0.500000 0.500000 0.500000
O O15 0.245180 0.475270 0.494166
O O16 0.117170 0.450496 0.612912
O O17 0.000000 0.500000 0.500000
O O18 0.844001 0.523932 0.250000
O O19 0.858511 0.426935 0.156090
O O20 0.085496 0.665458 0.750000
#
# Coordination Sequence:
#
# PCOD8230273 Si02
#       8
#     8   8   8   8   8   8   8   8
#     4  10  21  35  49  73 107 136 170 207 248 307
#     4   8  14  27  47  72  98 125 160 204 247 292
#     4   8  15  28  49  73  95 121 163 207 243 289
#     4   9  19  32  47  70 103 133 159 198 246 295
#     4  10  18  30  50  73  97 128 165 208 246 296
#     4  11  20  32  51  76 103 131 169 212 255 300
#     4   9  16  29  50  74 100 129 167 209 251 302
#     4   9  17  31  51  75  99 129 169 212 255 300
#
# _framework density 16.814979000000001
#
# number of rings (size 3 to 8) (size 9 to 14) (size 15 to 20)
#    0.000    2.750    2.500    1.500    0.000    1.000 
#    0.000    3.125    0.000    5.250    0.000    0.000 
#    0.000    0.000    0.000    0.000    0.000    0.000 
#
# Total GULP energy -793119.679927 kJ/mol
# GULP energy per Si atom -12392.494999 kJ/mol
# Density = 1.677671 g / cm^3
# Si number density = 16.814979 Si / 1000 Ang^3
#
#
#
# Elastic Constant Matrix: (Units=GPa)
#
#
# Indices 1 2 3 4 5 6 
#
# 1 94.1837 41.9466 76.9191 0.0000 0.0000 0.0000
# 2 41.9466 55.9929 47.6101 0.0000 0.0000 0.0000
# 3 76.9191 47.6101 147.4678 0.0000 0.0000 0.0000
# 4 0.0000 0.0000 0.0000 23.9554 0.0000 0.0000
# 5 0.0000 0.0000 0.0000 0.0000 31.5522 0.0000
# 6 0.0000 0.0000 0.0000 0.0000 0.0000 18.1819
#
#
#
# Elastic Compliance Matrix: (Units=1/GPa)
#
#
# Indices 1 2 3 4 5 6 
#
# 1 0.021343 -0.008991 -0.008230 0.000000 0.000000 0.000000
# 2 -0.008991 0.028405 -0.004481 0.000000 0.000000 0.000000
# 3 -0.008230 -0.004481 0.012520 0.000000 0.000000 0.000000
# 4 0.000000 0.000000 0.000000 0.041744 0.000000 0.000000
# 5 0.000000 0.000000 0.000000 0.000000 0.031694 0.000000
# 6 0.000000 0.000000 0.000000 0.000000 0.000000 0.055000
#
#
# Mechanical properties :
#
#
# Convention : Reuss Voigt Hill
#
# Bulk Modulus (GPa) = 53.00824 70.06624 61.53724
# Shear Modulus (GPa) = 20.79882 23.48247 22.14065
#
# Velocity S-wave (km/s) = 3.52081 3.74106 3.63260
# Velocity P-wave (km/s) = 6.93693 7.77304 7.36685
#
# Compressibility (1/GPa) = 0.01886499
#
# Stress axis : x y z
#
# Youngs Moduli (GPa) = 46.85336 35.20486 79.87010
#
# Poissons Ratio (x) = 0.31654 0.65731
# Poissons Ratio (y) = 0.42128 0.35787
# Poissons Ratio (z) = 0.38559 0.15774
#
# Static dielectric constant tensor:
#      x y z
#    x 3.588130 0.000000 0.000000 
#    y 0.000000 3.069540 0.000000 
#    z 0.000000 0.000000 3.834540 
# 
# 
# High freq. dielectric constant tensor:
#      x y z
#    x 1.643100 0.000000 0.000000 
#    y 0.000000 1.610240 0.000000 
#    z 0.000000 0.000000 1.659300 
# 
# From -- ./inp_files/24606.got.cif
#   From: 2010.03.12/outbox.cif.g09.slc.cpg/sg57_13_cif.got.tgz:24606.got - 2010.04.16 15:48:40.
