data_PCOD8230204
_publ_section_title
;
Structure prediction by ZEFSAII (Michael W. Deem and Ramdas Pophale) SiO2 
 PCOD8230204
Probable space group: P B C M
;
_chemical_formula_sum "Si O2"
_cell_formula_units_Z 64
_cell_length_a 16.616832
_cell_length_b 23.658038
_cell_length_c 8.976152
_cell_angle_alpha 90.000000
_cell_angle_beta 90.000000
_cell_angle_gamma 90.000000
_cell_volume 3528.719621
_symmetry_space_group_name_H-M "P B C M"
_symmetry_group_IT_number 57
_symmetry_cell_setting 'orthorhombic'
loop_
_space_group_symop_operation_xyz
x,y,z
-x,-y,1/2+z
x,1/2-y,-z
-x,1/2+y,1/2-z
-x,-y,-z
x,y,1/2-z
-x,1/2+y,z
x,1/2-y,1/2+z
loop_
_atom_site_type_symbol
_atom_site_label
_atom_site_fract_x
_atom_site_fract_y
_atom_site_fract_z
Si Si1 0.808876 0.471966 0.920733
Si Si2 0.034201 0.597200 0.425141
Si Si3 0.420088 0.811267 0.924540
Si Si4 0.230509 0.311440 0.573746
Si Si5 0.127393 0.690984 0.578523
Si Si6 0.868987 0.592133 0.923895
Si Si7 0.405031 0.191736 0.420437
Si Si8 0.286178 0.617808 0.919731
O O1 0.790012 0.457136 0.750000
O O2 0.896278 0.447539 0.964099
O O3 0.809323 0.539106 0.949249
O O4 0.738609 0.443960 0.019193
O O5 0.019357 0.603301 0.250000
O O6 0.057067 0.658030 0.492888
O O7 0.953996 0.575522 0.504612
O O8 0.403775 0.802664 0.750000
O O9 0.509573 0.838854 0.954657
O O10 0.408388 0.750000 0.000000
O O11 0.359663 0.857457 0.987420
O O12 0.220897 0.250000 0.500000
O O13 0.215131 0.306466 0.750000
O O14 0.165401 0.352800 0.503777
O O15 0.320011 0.338012 0.536651
O O16 0.139916 0.750000 0.500000
O O17 0.102267 0.698696 0.750000
O O18 0.211296 0.659111 0.562498
O O19 0.880701 0.604654 0.750000
O O20 0.410328 0.250000 0.500000
O O21 0.400147 0.207831 0.250000
O O22 0.313709 0.611115 0.750000
#
# Coordination Sequence:
#
# PCOD8230204 Si02
#       8
#     8   8   8   8   8   8   8   8
#     4   9  20  37  55  74 100 133 168 208 252 297
#     4  10  20  35  54  75  98 129 168 209 252 296
#     4  10  18  29  48  75 106 137 170 207 248 296
#     4  10  20  36  56  79 106 134 166 205 251 301
#     4  10  20  33  48  69 100 136 169 204 248 297
#     4  11  22  36  55  79 103 129 164 206 253 302
#     4   8  16  30  49  73 101 133 166 203 247 294
#     4  10  20  32  49  74 103 135 171 210 250 294
#
# _framework density 18.136890000000001
#
# number of rings (size 3 to 8) (size 9 to 14) (size 15 to 20)
#    0.000    2.250    0.000    3.000    0.000    5.500 
#    0.000    2.500    0.000    0.750    0.000    0.000 
#    0.000    0.000    0.000    0.000    0.000    0.000 
#
# Total GULP energy -793274.443150 kJ/mol
# GULP energy per Si atom -12394.913174 kJ/mol
# Density = 1.809561 g / cm^3
# Si number density = 18.136890 Si / 1000 Ang^3
#
#
#
# Elastic Constant Matrix: (Units=GPa)
#
#
# Indices 1 2 3 4 5 6 
#
# 1 73.1566 23.9175 39.1790 0.0000 0.0000 0.0000
# 2 23.9175 71.9696 38.0700 0.0000 0.0000 0.0000
# 3 39.1790 38.0700 99.6283 0.0000 0.0000 0.0000
# 4 0.0000 0.0000 0.0000 26.9235 0.0000 0.0000
# 5 0.0000 0.0000 0.0000 0.0000 26.2312 0.0000
# 6 0.0000 0.0000 0.0000 0.0000 0.0000 16.6625
#
#
#
# Elastic Compliance Matrix: (Units=1/GPa)
#
#
# Indices 1 2 3 4 5 6 
#
# 1 0.017744 -0.002765 -0.005922 0.000000 0.000000 0.000000
# 2 -0.002765 0.017846 -0.005732 0.000000 0.000000 0.000000
# 3 -0.005922 -0.005732 0.014556 0.000000 0.000000 0.000000
# 4 0.000000 0.000000 0.000000 0.037142 0.000000 0.000000
# 5 0.000000 0.000000 0.000000 0.000000 0.038122 0.000000
# 6 0.000000 0.000000 0.000000 0.000000 0.000000 0.060015
#
#
# Mechanical properties :
#
#
# Convention : Reuss Voigt Hill
#
# Bulk Modulus (GPa) = 46.92645 49.67638 48.30141
# Shear Modulus (GPa) = 22.58705 23.53599 23.06152
#
# Velocity S-wave (km/s) = 3.53280 3.60625 3.56971
# Velocity P-wave (km/s) = 6.52461 6.69247 6.60908
#
# Compressibility (1/GPa) = 0.02130994
#
# Stress axis : x y z
#
# Youngs Moduli (GPa) = 56.35556 56.03640 68.69884
#
# Poissons Ratio (x) = 0.15492 0.40681
# Poissons Ratio (y) = 0.15580 0.39378
# Poissons Ratio (z) = 0.33372 0.32120
#
# Static dielectric constant tensor:
#      x y z
#    x 3.759300 0.000000 0.000000 
#    y 0.000000 3.072590 0.000000 
#    z 0.000000 0.000000 3.509650 
# 
# 
# High freq. dielectric constant tensor:
#      x y z
#    x 1.702630 0.000000 0.000000 
#    y 0.000000 1.676700 0.000000 
#    z 0.000000 0.000000 1.719170 
# 
# From -- ./inp_files/5642.got.cif
#   From: 2010.03.12/outbox.cif.g09.slc.cpg/sg57_3_cif.got.tgz:5642.got - 2010.04.16 15:48:40.
