data_PCOD8230741
_publ_section_title
;
Structure prediction by ZEFSAII (Michael W. Deem and Ramdas Pophale) SiO2 
 PCOD8230741
Probable space group: P B C M
;
_chemical_formula_sum "Si O2"
_cell_formula_units_Z 64
_cell_length_a 19.672804
_cell_length_b 19.064012
_cell_length_c 9.590113
_cell_angle_alpha 90.000000
_cell_angle_beta 90.000000
_cell_angle_gamma 90.000000
_cell_volume 3596.700641
_symmetry_space_group_name_H-M "P B C M"
_symmetry_group_IT_number 57
_symmetry_cell_setting 'orthorhombic'
loop_
_space_group_symop_operation_xyz
x,y,z
-x,-y,1/2+z
x,1/2-y,-z
-x,1/2+y,1/2-z
-x,-y,-z
x,y,1/2-z
-x,1/2+y,z
x,1/2-y,1/2+z
loop_
_atom_site_type_symbol
_atom_site_label
_atom_site_fract_x
_atom_site_fract_y
_atom_site_fract_z
Si Si1 0.806476 0.467508 0.409987
Si Si2 0.302925 0.041035 0.591124
Si Si3 0.375805 0.316249 0.410212
Si Si4 0.532521 0.317500 0.412632
Si Si5 0.762207 0.169847 0.466718
Si Si6 0.374886 0.597338 0.399917
Si Si7 0.059862 0.536018 0.415999
Si Si8 0.911563 0.188860 0.397315
O O1 0.821597 0.488216 0.250000
O O2 0.750830 0.519523 0.474277
O O3 0.781916 0.385398 0.409329
O O4 0.870552 0.483982 0.507732
O O5 0.273075 0.041703 0.750000
O O6 0.330841 0.117131 0.548777
O O7 0.364772 0.985828 0.584242
O O8 0.351458 0.250000 0.500000
O O9 0.366253 0.295265 0.250000
O O10 0.454198 0.335296 0.440388
O O11 0.555401 0.250000 0.500000
O O12 0.548779 0.305948 0.250000
O O13 0.578831 0.380277 0.470424
O O14 0.741289 0.250000 0.500000
O O15 0.698345 0.135860 0.389663
O O16 0.831047 0.173853 0.377352
O O17 0.410716 0.612754 0.250000
O O18 0.061565 0.516477 0.250000
O O19 0.048402 0.618869 0.438050
O O20 0.000000 0.500000 0.500000
O O21 0.930287 0.250000 0.500000
O O22 0.938677 0.216162 0.250000
#
# Coordination Sequence:
#
# PCOD8230741 Si02
#       8
#     8   8   8   8   8   8   8   8
#     4  10  20  33  51  78 107 134 168 207 245 290
#     4   9  19  36  54  73 100 130 160 201 254 303
#     4   9  19  36  56  75  95 123 161 207 259 312
#     4  10  20  33  48  68  96 129 167 209 251 299
#     4   9  18  29  45  68  99 134 169 203 237 277
#     4  10  19  30  46  68  98 135 168 201 246 295
#     4  10  20  34  53  77 105 139 174 206 244 290
#     4   9  18  31  48  71  99 131 167 205 243 285
#
# _framework density 17.794087000000001
#
# number of rings (size 3 to 8) (size 9 to 14) (size 15 to 20)
#    0.000    2.500    0.000    1.875    0.000   12.000 
#    0.000    0.000    0.000    0.750    0.000    5.250 
#    0.000    0.000    0.000    0.000    0.000    0.000 
#
# Total GULP energy -792910.508472 kJ/mol
# GULP energy per Si atom -12389.226695 kJ/mol
# Density = 1.775359 g / cm^3
# Si number density = 17.794087 Si / 1000 Ang^3
#
#
#
# Elastic Constant Matrix: (Units=GPa)
#
#
# Indices 1 2 3 4 5 6 
#
# 1 57.9562 48.4231 50.2893 0.0000 0.0000 0.0000
# 2 48.4231 124.5674 65.2288 0.0000 0.0000 0.0000
# 3 50.2893 65.2288 141.0242 0.0000 0.0000 0.0000
# 4 0.0000 0.0000 0.0000 26.2788 0.0000 0.0000
# 5 0.0000 0.0000 0.0000 0.0000 21.8641 0.0000
# 6 0.0000 0.0000 0.0000 0.0000 0.0000 25.8891
#
#
#
# Elastic Compliance Matrix: (Units=1/GPa)
#
#
# Indices 1 2 3 4 5 6 
#
# 1 0.030016 -0.008001 -0.007003 0.000000 0.000000 0.000000
# 2 -0.008001 0.012726 -0.003033 0.000000 0.000000 0.000000
# 3 -0.007003 -0.003033 0.010991 0.000000 0.000000 0.000000
# 4 0.000000 0.000000 0.000000 0.038054 0.000000 0.000000
# 5 0.000000 0.000000 0.000000 0.000000 0.045737 0.000000
# 6 0.000000 0.000000 0.000000 0.000000 0.000000 0.038626
#
#
# Mechanical properties :
#
#
# Convention : Reuss Voigt Hill
#
# Bulk Modulus (GPa) = 56.62811 72.38115 64.50463
# Shear Modulus (GPa) = 22.92409 25.44683 24.18546
#
# Velocity S-wave (km/s) = 3.59318 3.78573 3.69071
# Velocity P-wave (km/s) = 7.00770 7.73786 7.38181
#
# Compressibility (1/GPa) = 0.01765907
#
# Stress axis : x y z
#
# Youngs Moduli (GPa) = 33.31566 78.57704 90.98190
#
# Poissons Ratio (x) = 0.62870 0.63714
# Poissons Ratio (y) = 0.26656 0.27597
# Poissons Ratio (z) = 0.23331 0.23834
#
# Static dielectric constant tensor:
#      x y z
#    x 3.072550 0.000000 0.000000 
#    y 0.000000 3.332220 0.000000 
#    z 0.000000 0.000000 3.027200 
# 
# 
# High freq. dielectric constant tensor:
#      x y z
#    x 1.661460 0.000000 0.000000 
#    y 0.000000 1.682790 0.000000 
#    z 0.000000 0.000000 1.695710 
# 
# From -- ./inp_files/8417.got.cif
#   From: 2010.03.12/outbox.cif.g09.slc.cpg/sg57_5_cif.got.tgz:8417.got - 2010.04.16 15:48:40.
