data_PCOD8230198
_publ_section_title
;
Structure prediction by ZEFSAII (Michael W. Deem and Ramdas Pophale) SiO2 
 PCOD8230198
Probable space group: P B C M
;
_chemical_formula_sum "Si O2"
_cell_formula_units_Z 64
_cell_length_a 19.926710
_cell_length_b 20.074050
_cell_length_c 8.893310
_cell_angle_alpha 90.000000
_cell_angle_beta 90.000000
_cell_angle_gamma 90.000000
_cell_volume 3557.410913
_symmetry_space_group_name_H-M "P B C M"
_symmetry_group_IT_number 57
_symmetry_cell_setting 'orthorhombic'
loop_
_space_group_symop_operation_xyz
x,y,z
-x,-y,1/2+z
x,1/2-y,-z
-x,1/2+y,1/2-z
-x,-y,-z
x,y,1/2-z
-x,1/2+y,z
x,1/2-y,1/2+z
loop_
_atom_site_type_symbol
_atom_site_label
_atom_site_fract_x
_atom_site_fract_y
_atom_site_fract_z
Si Si1 0.115994 0.819280 0.927582
Si Si2 0.261800 0.318301 0.575711
Si Si3 0.849917 0.582285 0.071875
Si Si4 0.383302 0.097692 0.424262
Si Si5 0.037433 0.181131 0.073154
Si Si6 0.335454 0.964069 0.573377
Si Si7 0.195231 0.939577 0.428575
Si Si8 0.523755 0.065975 0.422690
O O1 0.125731 0.814896 0.750000
O O2 0.039000 0.834002 0.972773
O O3 0.139931 0.750000 0.000000
O O4 0.160749 0.877556 0.993180
O O5 0.241974 0.250000 0.500000
O O6 0.247952 0.308715 0.750000
O O7 0.213885 0.376368 0.511618
O O8 0.338932 0.337291 0.540400
O O9 0.849064 0.579650 0.250000
O O10 0.842721 0.506527 0.012597
O O11 0.917845 0.618756 0.014565
O O12 0.372683 0.075751 0.250000
O O13 0.357326 0.038719 0.530642
O O14 0.462221 0.117843 0.453735
O O15 0.045772 0.190172 0.250000
O O16 0.062776 0.250000 0.000000
O O17 0.317345 0.960572 0.750000
O O18 0.272836 0.940206 0.475982
O O19 0.399605 0.915346 0.529777
O O20 0.190608 0.932235 0.250000
O O21 0.528461 0.047702 0.250000
O O22 0.500000 0.000000 0.500000
#
# Coordination Sequence:
#
# PCOD8230198 Si02
#       8
#     8   8   8   8   8   8   8   8
#     4  10  21  38  58  81 104 131 168 212 261 316
#     4  10  19  31  47  69 100 140 180 214 253 304
#     4   9  18  33  51  74 104 139 175 212 255 304
#     4   9  16  30  48  67  96 135 173 210 259 314
#     4   9  18  34  55  76 104 138 175 215 255 304
#     4  10  18  29  47  75 104 129 166 217 263 305
#     4  11  21  35  55  77 106 142 173 210 262 316
#     4   8  15  26  44  68  94 126 164 207 255 303
#
# _framework density 17.990611000000001
#
# number of rings (size 3 to 8) (size 9 to 14) (size 15 to 20)
#    0.000    2.500    1.250    1.500    0.000    2.000 
#    0.000    1.250    0.000    0.750    0.000    1.750 
#    0.000    0.000    0.000    0.000    0.000    0.000 
#
# Total GULP energy -792964.415311 kJ/mol
# GULP energy per Si atom -12390.068989 kJ/mol
# Density = 1.794966 g / cm^3
# Si number density = 17.990611 Si / 1000 Ang^3
#
#
#
# Elastic Constant Matrix: (Units=GPa)
#
#
# Indices 1 2 3 4 5 6 
#
# 1 119.6821 67.1545 28.2145 0.0000 0.0000 0.0000
# 2 67.1545 115.8586 30.3861 0.0000 0.0000 0.0000
# 3 28.2145 30.3861 42.0164 0.0000 0.0000 0.0000
# 4 0.0000 0.0000 0.0000 25.8087 0.0000 0.0000
# 5 0.0000 0.0000 0.0000 0.0000 23.3317 0.0000
# 6 0.0000 0.0000 0.0000 0.0000 0.0000 21.6617
#
#
#
# Elastic Compliance Matrix: (Units=1/GPa)
#
#
# Indices 1 2 3 4 5 6 
#
# 1 0.012911 -0.006429 -0.004020 0.000000 0.000000 0.000000
# 2 -0.006429 0.013853 -0.005701 0.000000 0.000000 0.000000
# 3 -0.004020 -0.005701 0.030623 0.000000 0.000000 0.000000
# 4 0.000000 0.000000 0.000000 0.038747 0.000000 0.000000
# 5 0.000000 0.000000 0.000000 0.000000 0.042860 0.000000
# 6 0.000000 0.000000 0.000000 0.000000 0.000000 0.046164
#
#
# Mechanical properties :
#
#
# Convention : Reuss Voigt Hill
#
# Bulk Modulus (GPa) = 39.86348 58.78525 49.32436
# Shear Modulus (GPa) = 22.14154 24.28056 23.21105
#
# Velocity S-wave (km/s) = 3.51198 3.67771 3.59580
# Velocity P-wave (km/s) = 6.21702 7.12604 6.68700
#
# Compressibility (1/GPa) = 0.02508562
#
# Stress axis : x y z
#
# Youngs Moduli (GPa) = 77.45626 72.18752 32.65527
#
# Poissons Ratio (x) = 0.46409 0.13128
# Poissons Ratio (y) = 0.49796 0.18618
# Poissons Ratio (z) = 0.31139 0.41156
#
# Static dielectric constant tensor:
#      x y z
#    x 3.877900 0.000000 0.000000 
#    y 0.000000 3.188290 0.000000 
#    z 0.000000 0.000000 3.225730 
# 
# 
# High freq. dielectric constant tensor:
#      x y z
#    x 1.714290 0.000000 0.000000 
#    y 0.000000 1.662530 0.000000 
#    z 0.000000 0.000000 1.688210 
# 
# From -- ./inp_files/7277.got.cif
#   From: 2010.03.12/outbox.cif.g09.slc.cpg/sg57_4_cif.got.tgz:7277.got - 2010.04.16 15:48:40.
