data_PCOD8230117
_publ_section_title
;
Structure prediction by ZEFSAII (Michael W. Deem and Ramdas Pophale) SiO2 
 PCOD8230117
Probable space group: P B C M
;
_chemical_formula_sum "Si O2"
_cell_formula_units_Z 64
_cell_length_a 16.779267
_cell_length_b 21.740867
_cell_length_c 9.144805
_cell_angle_alpha 90.000000
_cell_angle_beta 90.000000
_cell_angle_gamma 90.000000
_cell_volume 3335.986567
_symmetry_space_group_name_H-M "P B C M"
_symmetry_group_IT_number 57
_symmetry_cell_setting 'orthorhombic'
loop_
_space_group_symop_operation_xyz
x,y,z
-x,-y,1/2+z
x,1/2-y,-z
-x,1/2+y,1/2-z
-x,-y,-z
x,y,1/2-z
-x,1/2+y,z
x,1/2-y,1/2+z
loop_
_atom_site_type_symbol
_atom_site_label
_atom_site_fract_x
_atom_site_fract_y
_atom_site_fract_z
Si Si1 0.938416 0.093084 0.089719
Si Si2 0.626391 0.812603 0.580394
Si Si3 0.309067 0.874295 0.422496
Si Si4 0.071751 0.185419 0.076612
Si Si5 0.445032 0.684984 0.422096
Si Si6 0.184819 0.520609 0.577689
Si Si7 0.774426 0.613017 0.077627
Si Si8 0.187058 0.802306 0.909845
O O1 0.961844 0.065988 0.250000
O O2 0.866635 0.139415 0.111518
O O3 0.012745 0.130683 0.021362
O O4 0.902089 0.039918 0.986695
O O5 0.646808 0.750000 0.500000
O O6 0.641556 0.799830 0.750000
O O7 0.536592 0.834658 0.550637
O O8 0.687764 0.864615 0.522380
O O9 0.321505 0.868489 0.250000
O O10 0.394505 0.870578 0.504101
O O11 0.262638 0.815775 0.487048
O O12 0.259434 0.935585 0.464029
O O13 0.060136 0.194369 0.250000
O O14 0.160163 0.163832 0.032101
O O15 0.052199 0.250000 0.000000
O O16 0.427321 0.750000 0.500000
O O17 0.425899 0.690724 0.250000
O O18 0.172269 0.520338 0.750000
O O19 0.205620 0.453842 0.510591
O O20 0.774728 0.604460 0.250000
O O21 0.214885 0.778851 0.750000
O O22 0.138839 0.750000 0.000000
#
# Coordination Sequence:
#
# PCOD8230117 Si02
#       8
#     8   8   8   8   8   8   8   8
#     4   9  19  33  48  71 103 134 163 202 249 290
#     4   9  18  33  54  77 102 131 163 203 251 302
#     4  10  19  31  47  68  95 128 167 206 243 290
#     4  10  20  34  54  79 106 133 164 206 253 300
#     4  10  19  31  49  74 102 131 163 202 251 302
#     4   9  19  35  54  73  97 135 176 207 240 292
#     4   9  18  35  56  76 100 132 169 208 251 295
#     4  10  18  28  43  64  94 129 163 200 243 291
#
# _framework density 19.184729000000001
#
# number of rings (size 3 to 8) (size 9 to 14) (size 15 to 20)
#    0.000    2.500    0.000    2.250    0.000    2.500 
#    0.000    1.875    0.000    0.000    0.000    0.000 
#    0.000    0.000    0.000    0.000    0.000    0.000 
#
# Total GULP energy -793150.247305 kJ/mol
# GULP energy per Si atom -12392.972614 kJ/mol
# Density = 1.914106 g / cm^3
# Si number density = 19.184729 Si / 1000 Ang^3
#
#
#
# Elastic Constant Matrix: (Units=GPa)
#
#
# Indices 1 2 3 4 5 6 
#
# 1 99.1920 23.3293 27.9147 0.0000 0.0000 0.0000
# 2 23.3293 65.0354 27.5793 0.0000 0.0000 0.0000
# 3 27.9147 27.5793 64.9704 0.0000 0.0000 0.0000
# 4 0.0000 0.0000 0.0000 20.2473 0.0000 0.0000
# 5 0.0000 0.0000 0.0000 0.0000 27.9969 0.0000
# 6 0.0000 0.0000 0.0000 0.0000 0.0000 22.6536
#
#
#
# Elastic Compliance Matrix: (Units=1/GPa)
#
#
# Indices 1 2 3 4 5 6 
#
# 1 0.011803 -0.002541 -0.003993 0.000000 0.000000 0.000000
# 2 -0.002541 0.019299 -0.007100 0.000000 0.000000 0.000000
# 3 -0.003993 -0.007100 0.020121 0.000000 0.000000 0.000000
# 4 0.000000 0.000000 0.000000 0.049389 0.000000 0.000000
# 5 0.000000 0.000000 0.000000 0.000000 0.035718 0.000000
# 6 0.000000 0.000000 0.000000 0.000000 0.000000 0.044143
#
#
# Mechanical properties :
#
#
# Convention : Reuss Voigt Hill
#
# Bulk Modulus (GPa) = 41.74495 42.98271 42.36383
# Shear Modulus (GPa) = 23.17762 24.20454 23.69108
#
# Velocity S-wave (km/s) = 3.47959 3.55583 3.51792
# Velocity P-wave (km/s) = 6.16036 6.26992 6.21538
#
# Compressibility (1/GPa) = 0.02395500
#
# Stress axis : x y z
#
# Youngs Moduli (GPa) = 84.72719 51.81699 49.69907
#
# Poissons Ratio (x) = 0.13165 0.19842
# Poissons Ratio (y) = 0.21527 0.35289
# Poissons Ratio (z) = 0.33828 0.36793
#
# Static dielectric constant tensor:
#      x y z
#    x 3.680080 0.000000 0.000000 
#    y 0.000000 3.493650 0.000000 
#    z 0.000000 0.000000 3.089240 
# 
# 
# High freq. dielectric constant tensor:
#      x y z
#    x 1.751480 0.000000 0.000000 
#    y 0.000000 1.730570 0.000000 
#    z 0.000000 0.000000 1.733990 
# 
# From -- ./inp_files/7286.got.cif
#   From: 2010.03.12/outbox.cif.g09.slc.cpg/sg57_4_cif.got.tgz:7286.got - 2010.04.16 15:48:40.
