data_PCOD8230663
_publ_section_title
;
Structure prediction by ZEFSAII (Michael W. Deem and Ramdas Pophale) SiO2 
 PCOD8230663
Probable space group: P B C M
;
_chemical_formula_sum "Si O2"
_cell_formula_units_Z 64
_cell_length_a 23.064637
_cell_length_b 17.295922
_cell_length_c 8.970299
_cell_angle_alpha 90.000000
_cell_angle_beta 90.000000
_cell_angle_gamma 90.000000
_cell_volume 3578.469016
_symmetry_space_group_name_H-M "P B C M"
_symmetry_group_IT_number 57
_symmetry_cell_setting 'orthorhombic'
loop_
_space_group_symop_operation_xyz
x,y,z
-x,-y,1/2+z
x,1/2-y,-z
-x,1/2+y,1/2-z
-x,-y,-z
x,y,1/2-z
-x,1/2+y,z
x,1/2-y,1/2+z
loop_
_atom_site_type_symbol
_atom_site_label
_atom_site_fract_x
_atom_site_fract_y
_atom_site_fract_z
Si Si1 0.572349 0.400245 0.421303
Si Si2 0.632487 0.941747 0.575282
Si Si3 0.673906 0.325314 0.922429
Si Si4 0.450943 0.169293 0.923940
Si Si5 0.865430 0.024831 0.422828
Si Si6 0.029794 0.427733 0.075493
Si Si7 0.058318 0.669480 0.427995
Si Si8 0.736726 0.482565 0.574906
O O1 0.587558 0.383418 0.250000
O O2 0.590009 0.487218 0.464887
O O3 0.609091 0.340369 0.518855
O O4 0.504666 0.388303 0.454489
O O5 0.636720 0.926438 0.750000
O O6 0.606701 0.866324 0.496251
O O7 0.696789 0.956357 0.511832
O O8 0.669592 0.308280 0.750000
O O9 0.715620 0.396301 0.960289
O O10 0.701049 0.250000 0.000000
O O11 0.440034 0.182139 0.750000
O O12 0.465587 0.250000 0.000000
O O13 0.856770 0.041978 0.250000
O O14 0.898006 0.101750 0.484934
O O15 0.801786 0.012046 0.492323
O O16 0.901624 0.945097 0.448034
O O17 0.014359 0.422878 0.250000
O O18 0.000000 0.500000 0.000000
O O19 0.006299 0.351092 0.991753
O O20 0.079106 0.750000 0.500000
O O21 0.055466 0.676212 0.250000
O O22 0.733268 0.501711 0.750000
#
# Coordination Sequence:
#
# PCOD8230663 Si02
#       8
#     8   8   8   8   8   8   8   8
#     4   9  19  34  52  73  98 126 161 200 242 294
#     4  10  20  35  53  75 101 129 162 204 247 293
#     4  10  19  29  45  67  96 131 164 198 241 288
#     4  11  22  35  52  75  99 127 160 200 250 301
#     4   8  16  31  51  72  96 128 168 206 241 284
#     4   9  16  29  49  72  98 130 164 200 240 284
#     4  10  19  31  48  74 106 137 166 201 245 292
#     4   9  18  34  52  70  94 130 170 205 241 286
#
# _framework density 17.884743
#
# number of rings (size 3 to 8) (size 9 to 14) (size 15 to 20)
#    0.000    2.500    0.000    3.375    0.000    3.500 
#    0.000    3.750    0.000    0.750    0.000    3.500 
#    0.000    0.000    0.000    0.000    0.000    0.000 
#
# Total GULP energy -793415.028174 kJ/mol
# GULP energy per Si atom -12397.109815 kJ/mol
# Density = 1.784404 g / cm^3
# Si number density = 17.884743 Si / 1000 Ang^3
#
#
#
# Elastic Constant Matrix: (Units=GPa)
#
#
# Indices 1 2 3 4 5 6 
#
# 1 117.9228 34.8131 41.9878 0.0000 0.0000 0.0000
# 2 34.8131 46.5820 23.6598 0.0000 0.0000 0.0000
# 3 41.9878 23.6598 73.5825 0.0000 0.0000 0.0000
# 4 0.0000 0.0000 0.0000 32.1356 0.0000 0.0000
# 5 0.0000 0.0000 0.0000 0.0000 22.4601 0.0000
# 6 0.0000 0.0000 0.0000 0.0000 0.0000 16.7922
#
#
#
# Elastic Compliance Matrix: (Units=1/GPa)
#
#
# Indices 1 2 3 4 5 6 
#
# 1 0.012149 -0.006644 -0.004796 0.000000 0.000000 0.000000
# 2 -0.006644 0.029291 -0.005627 0.000000 0.000000 0.000000
# 3 -0.004796 -0.005627 0.018137 0.000000 0.000000 0.000000
# 4 0.000000 0.000000 0.000000 0.031118 0.000000 0.000000
# 5 0.000000 0.000000 0.000000 0.000000 0.044523 0.000000
# 6 0.000000 0.000000 0.000000 0.000000 0.000000 0.059551
#
#
# Mechanical properties :
#
#
# Convention : Reuss Voigt Hill
#
# Bulk Modulus (GPa) = 39.30498 48.77873 44.04185
# Shear Modulus (GPa) = 21.06287 23.45269 22.25778
#
# Velocity S-wave (km/s) = 3.43549 3.62515 3.53159
# Velocity P-wave (km/s) = 6.14502 6.69742 6.42716
#
# Compressibility (1/GPa) = 0.02544207
#
# Stress axis : x y z
#
# Youngs Moduli (GPa) = 82.30947 34.14054 55.13732
#
# Poissons Ratio (x) = 0.22681 0.26446
# Poissons Ratio (y) = 0.54683 0.31027
# Poissons Ratio (z) = 0.39479 0.19212
#
# Static dielectric constant tensor:
#      x y z
#    x 3.492610 0.000000 0.000000 
#    y 0.000000 3.247430 0.000000 
#    z 0.000000 0.000000 3.321220 
# 
# 
# High freq. dielectric constant tensor:
#      x y z
#    x 1.681460 0.000000 0.000000 
#    y 0.000000 1.674740 0.000000 
#    z 0.000000 0.000000 1.692790 
# 
# From -- ./inp_files/9544.got.cif
#   From: 2010.03.12/outbox.cif.g09.slc.cpg/sg57_5_cif.got.tgz:9544.got - 2010.04.16 15:48:40.
