data_PCOD8230832
_publ_section_title
;
Structure prediction by ZEFSAII (Michael W. Deem and Ramdas Pophale) SiO2 
 PCOD8230832
Probable space group: P B C M
;
_chemical_formula_sum "Si O2"
_cell_formula_units_Z 64
_cell_length_a 15.405537
_cell_length_b 30.411156
_cell_length_c 8.889130
_cell_angle_alpha 90.000000
_cell_angle_beta 90.000000
_cell_angle_gamma 90.000000
_cell_volume 4164.559085
_symmetry_space_group_name_H-M "P B C M"
_symmetry_group_IT_number 57
_symmetry_cell_setting 'orthorhombic'
loop_
_space_group_symop_operation_xyz
x,y,z
-x,-y,1/2+z
x,1/2-y,-z
-x,1/2+y,1/2-z
-x,-y,-z
x,y,1/2-z
-x,1/2+y,z
x,1/2-y,1/2+z
loop_
_atom_site_type_symbol
_atom_site_label
_atom_site_fract_x
_atom_site_fract_y
_atom_site_fract_z
Si Si1 0.756844 0.202503 0.072923
Si Si2 0.891512 0.460220 0.418647
Si Si3 0.383194 0.201997 0.427987
Si Si4 0.902396 0.953603 0.080800
Si Si5 0.568456 0.296392 0.575807
Si Si6 0.087343 0.364869 0.574447
Si Si7 0.114195 0.871658 0.574482
Si Si8 0.787058 0.798025 0.428632
O O1 0.768175 0.208841 0.250000
O O2 0.661065 0.181447 0.032857
O O3 0.828231 0.168508 0.010880
O O4 0.771666 0.250000 0.000000
O O5 0.855064 0.463703 0.250000
O O6 0.858736 0.502775 0.510764
O O7 0.854528 0.416063 0.493409
O O8 0.994866 0.459071 0.418836
O O9 0.387664 0.250000 0.500000
O O10 0.365147 0.204704 0.250000
O O11 0.477234 0.178140 0.463009
O O12 0.301420 0.178388 0.508745
O O13 0.867215 0.947020 0.250000
O O14 0.876033 0.911846 0.980048
O O15 0.566683 0.250000 0.500000
O O16 0.567542 0.286065 0.750000
O O17 0.108083 0.359328 0.750000
O O18 0.131277 0.326595 0.478920
O O19 0.985469 0.360785 0.539792
O O20 0.129987 0.879124 0.750000
O O21 0.797639 0.750000 0.500000
O O22 0.784014 0.794459 0.250000
#
# Coordination Sequence:
#
# PCOD8230832 Si02
#       8
#     8   8   8   8   8   8   8   8
#     4   9  17  29  42  59  83 112 144 175 207 243
#     4   9  16  26  42  62  82 105 135 172 212 251
#     4   9  15  25  41  60  79 101 130 167 210 251
#     4   9  16  27  43  62  82 105 134 170 213 255
#     4   8  14  24  40  59  79 102 130 166 208 250
#     4  10  19  31  44  60  83 112 145 178 209 243
#     4   9  18  30  43  59  83 114 145 176 208 243
#     4  11  21  32  44  59  81 111 144 177 211 247
#
# _framework density 15.367773
#
# number of rings (size 3 to 8) (size 9 to 14) (size 15 to 20)
#    0.000    2.750    0.000    3.375    0.000    5.000 
#    0.000    1.250    0.000    0.000    0.000    0.000 
#    0.000    1.000    0.000    2.750    0.000    4.500 
#
# Total GULP energy -792884.371373 kJ/mol
# GULP energy per Si atom -12388.818303 kJ/mol
# Density = 1.533280 g / cm^3
# Si number density = 15.367773 Si / 1000 Ang^3
#
#
#
# Elastic Constant Matrix: (Units=GPa)
#
#
# Indices 1 2 3 4 5 6 
#
# 1 71.7507 43.2392 37.5277 0.0000 0.0000 0.0000
# 2 43.2392 79.8455 37.8190 0.0000 0.0000 0.0000
# 3 37.5277 37.8190 85.2875 0.0000 0.0000 0.0000
# 4 0.0000 0.0000 0.0000 25.2514 0.0000 0.0000
# 5 0.0000 0.0000 0.0000 0.0000 16.5939 0.0000
# 6 0.0000 0.0000 0.0000 0.0000 0.0000 0.9735
#
#
#
# Elastic Compliance Matrix: (Units=1/GPa)
#
#
# Indices 1 2 3 4 5 6 
#
# 1 0.022716 -0.009579 -0.005748 0.000000 0.000000 0.000000
# 2 -0.009579 0.019893 -0.004606 0.000000 0.000000 0.000000
# 3 -0.005748 -0.004606 0.016297 0.000000 0.000000 0.000000
# 4 0.000000 0.000000 0.000000 0.039602 0.000000 0.000000
# 5 0.000000 0.000000 0.000000 0.000000 0.060263 0.000000
# 6 0.000000 0.000000 0.000000 0.000000 0.000000 1.027264
#
#
# Mechanical properties :
#
#
# Convention : Reuss Voigt Hill
#
# Bulk Modulus (GPa) = 52.52165 52.67282 52.59723
# Shear Modulus (GPa) = 4.05762 16.45027 10.25395
#
# Velocity S-wave (km/s) = 1.62668 3.27531 2.58590
# Velocity P-wave (km/s) = 6.14644 6.97515 6.57387
#
# Compressibility (1/GPa) = 0.01903977
#
# Stress axis : x y z
#
# Youngs Moduli (GPa) = 44.02172 50.26777 61.36203
#
# Poissons Ratio (x) = 0.48152 0.35269
# Poissons Ratio (y) = 0.42169 0.28266
# Poissons Ratio (z) = 0.25302 0.23155
#
# Static dielectric constant tensor:
#      x y z
#    x 3.403590 0.000000 0.000000 
#    y 0.000000 2.796130 0.000000 
#    z 0.000000 0.000000 3.018960 
# 
# 
# High freq. dielectric constant tensor:
#      x y z
#    x 1.569910 0.000000 0.000000 
#    y 0.000000 1.555110 0.000000 
#    z 0.000000 0.000000 1.603790 
# 
# From -- ./inp_files/6029.got.cif
#   From: 2010.03.12/outbox.cif.g09.slc.cpg/sg57_4_cif.got.tgz:6029.got - 2010.04.16 15:48:40.
