data_PCOD8230361
_publ_section_title
;
Structure prediction by ZEFSAII (Michael W. Deem and Ramdas Pophale) SiO2 
 PCOD8230361
Probable space group: P B C M
;
_chemical_formula_sum "Si O2"
_cell_formula_units_Z 64
_cell_length_a 19.057251
_cell_length_b 21.515889
_cell_length_c 9.191982
_cell_angle_alpha 90.000000
_cell_angle_beta 90.000000
_cell_angle_gamma 90.000000
_cell_volume 3769.022364
_symmetry_space_group_name_H-M "P B C M"
_symmetry_group_IT_number 57
_symmetry_cell_setting 'orthorhombic'
loop_
_space_group_symop_operation_xyz
x,y,z
-x,-y,1/2+z
x,1/2-y,-z
-x,1/2+y,1/2-z
-x,-y,-z
x,y,1/2-z
-x,1/2+y,z
x,1/2-y,1/2+z
loop_
_atom_site_type_symbol
_atom_site_label
_atom_site_fract_x
_atom_site_fract_y
_atom_site_fract_z
Si Si1 0.827571 0.880929 0.082222
Si Si2 0.033348 0.558604 0.918049
Si Si3 0.669686 0.491208 0.080211
Si Si4 0.825280 0.000979 0.581885
Si Si5 0.586904 0.610602 0.416249
Si Si6 0.529461 0.439400 0.420909
Si Si7 0.967936 0.686616 0.917560
Si Si8 0.285261 0.188286 0.416347
O O1 0.807178 0.889757 0.250000
O O2 0.885250 0.826960 0.063307
O O3 0.856260 0.945308 0.016547
O O4 0.758546 0.866683 0.989030
O O5 0.009026 0.553924 0.750000
O O6 0.118294 0.556494 0.932877
O O7 0.009382 0.626006 0.979948
O O8 0.000000 0.500000 0.000000
O O9 0.678563 0.500376 0.250000
O O10 0.748244 0.477962 0.019393
O O11 0.635694 0.555025 0.019828
O O12 0.613738 0.435225 0.047306
O O13 0.820326 0.979234 0.750000
O O14 0.565581 0.596605 0.250000
O O15 0.514994 0.617741 0.510215
O O16 0.631885 0.673589 0.428912
O O17 0.500000 0.500000 0.500000
O O18 0.514934 0.443203 0.250000
O O19 0.987839 0.697136 0.750000
O O20 0.988571 0.750000 0.000000
O O21 0.266476 0.250000 0.500000
O O22 0.261864 0.195673 0.250000
#
# Coordination Sequence:
#
# PCOD8230361 Si02
#       8
#     8   8   8   8   8   8   8   8
#     4  11  21  33  49  71 101 131 168 211 245 295
#     4  10  20  34  53  76 102 131 168 211 257 309
#     4   8  14  27  44  66  92 119 152 189 232 287
#     4  10  18  31  52  73  98 135 166 197 255 309
#     4   9  17  30  45  62  90 123 157 197 236 284
#     4   9  16  26  42  64  91 118 150 189 230 278
#     4  10  22  37  51  73 101 131 171 214 252 301
#     4  11  22  35  48  66  95 130 171 210 247 294
#
# _framework density 16.980530000000002
#
# number of rings (size 3 to 8) (size 9 to 14) (size 15 to 20)
#    0.000    2.250    2.500    2.250    0.000    3.500 
#    0.000    0.625    0.000    0.000    0.000    0.875 
#    0.000    4.000    0.000    0.000    0.000    0.000 
#
# Total GULP energy -792994.047314 kJ/mol
# GULP energy per Si atom -12390.531989 kJ/mol
# Density = 1.694188 g / cm^3
# Si number density = 16.980530 Si / 1000 Ang^3
#
#
#
# Elastic Constant Matrix: (Units=GPa)
#
#
# Indices 1 2 3 4 5 6 
#
# 1 92.6133 38.3358 37.6304 0.0000 0.0000 0.0000
# 2 38.3358 77.8869 38.7833 0.0000 0.0000 0.0000
# 3 37.6304 38.7833 83.3625 0.0000 0.0000 0.0000
# 4 0.0000 0.0000 0.0000 23.9984 0.0000 0.0000
# 5 0.0000 0.0000 0.0000 0.0000 21.2714 0.0000
# 6 0.0000 0.0000 0.0000 0.0000 0.0000 19.3583
#
#
#
# Elastic Compliance Matrix: (Units=1/GPa)
#
#
# Indices 1 2 3 4 5 6 
#
# 1 0.014625 -0.005090 -0.004234 0.000000 0.000000 0.000000
# 2 -0.005090 0.018482 -0.006301 0.000000 0.000000 0.000000
# 3 -0.004234 -0.006301 0.016838 0.000000 0.000000 0.000000
# 4 0.000000 0.000000 0.000000 0.041670 0.000000 0.000000
# 5 0.000000 0.000000 0.000000 0.000000 0.047011 0.000000
# 6 0.000000 0.000000 0.000000 0.000000 0.000000 0.051657
#
#
# Mechanical properties :
#
#
# Convention : Reuss Voigt Hill
#
# Bulk Modulus (GPa) = 53.48767 53.70685 53.59726
# Shear Modulus (GPa) = 21.95253 22.19983 22.07618
#
# Velocity S-wave (km/s) = 3.59946 3.61968 3.60958
# Velocity P-wave (km/s) = 6.98875 7.01189 7.00033
#
# Compressibility (1/GPa) = 0.01869590
#
# Stress axis : x y z
#
# Youngs Moduli (GPa) = 68.37708 54.10691 59.38883
#
# Poissons Ratio (x) = 0.27542 0.25143
# Poissons Ratio (y) = 0.34805 0.37419
# Poissons Ratio (z) = 0.28948 0.34091
#
# Static dielectric constant tensor:
#      x y z
#    x 3.609710 0.000000 0.000000 
#    y 0.000000 2.976320 0.000000 
#    z 0.000000 0.000000 3.178880 
# 
# 
# High freq. dielectric constant tensor:
#      x y z
#    x 1.659830 0.000000 0.000000 
#    y 0.000000 1.611330 0.000000 
#    z 0.000000 0.000000 1.649500 
# 
# From -- ./inp_files/7444.got.cif
#   From: 2010.03.12/outbox.cif.g09.slc.cpg/sg57_4_cif.got.tgz:7444.got - 2010.04.16 15:48:40.
