data_PCOD8230296
_publ_section_title
;
Structure prediction by ZEFSAII (Michael W. Deem and Ramdas Pophale) SiO2 
 PCOD8230296
Probable space group: P B C M
;
_chemical_formula_sum "Si O2"
_cell_formula_units_Z 64
_cell_length_a 18.614718
_cell_length_b 19.772447
_cell_length_c 8.683391
_cell_angle_alpha 90.000000
_cell_angle_beta 90.000000
_cell_angle_gamma 90.000000
_cell_volume 3195.996084
_symmetry_space_group_name_H-M "P B C M"
_symmetry_group_IT_number 57
_symmetry_cell_setting 'orthorhombic'
loop_
_space_group_symop_operation_xyz
x,y,z
-x,-y,1/2+z
x,1/2-y,-z
-x,1/2+y,1/2-z
-x,-y,-z
x,y,1/2-z
-x,1/2+y,z
x,1/2-y,1/2+z
loop_
_atom_site_type_symbol
_atom_site_label
_atom_site_fract_x
_atom_site_fract_y
_atom_site_fract_z
Si Si1 0.780450 0.415765 0.567424
Si Si2 0.720898 0.945775 0.428416
Si Si3 0.341967 0.820034 0.932209
Si Si4 0.058504 0.175322 0.566600
Si Si5 0.795356 0.824148 0.931632
Si Si6 0.495983 0.319986 0.568557
Si Si7 0.441919 0.049561 0.927519
Si Si8 0.912121 0.174913 0.433576
O O1 0.779186 0.412500 0.750000
O O2 0.775053 0.494304 0.515626
O O3 0.710198 0.377738 0.502339
O O4 0.851491 0.377480 0.507323
O O5 0.733784 0.927459 0.250000
O O6 0.733082 0.877792 0.527463
O O7 0.640051 0.974733 0.451584
O O8 0.338922 0.815283 0.750000
O O9 0.422847 0.835179 0.988245
O O10 0.313440 0.750000 0.000000
O O11 0.060009 0.250000 0.500000
O O12 0.056523 0.173910 0.750000
O O13 0.132065 0.142314 0.504195
O O14 0.986152 0.142033 0.498194
O O15 0.803648 0.816006 0.750000
O O16 0.777553 0.750000 0.000000
O O17 0.467436 0.250000 0.500000
O O18 0.490895 0.316735 0.750000
O O19 0.444684 0.377594 0.505689
O O20 0.461699 0.055483 0.750000
O O21 0.500000 0.000000 0.000000
O O22 0.897632 0.250000 0.500000
O O23 0.915122 0.180441 0.250000
#
# Coordination Sequence:
#
# PCOD8230296 Si02
#       8
#     8   8   8   8   8   8   8   8
#     4   9  18  33  53  75 107 147 185 224 271 320
#     4  10  22  41  60  81 109 145 185 228 278 332
#     4   9  17  31  51  77 107 145 185 224 269 321
#     4  10  18  32  55  82 112 146 182 223 268 320
#     4  11  22  39  63  89 113 141 179 227 279 334
#     4  10  20  35  56  81 111 142 181 230 282 337
#     4  11  23  39  61  84 111 147 188 231 280 337
#     4  10  18  30  51  81 113 147 185 225 265 313
#
# _framework density 20.025054999999998
#
# number of rings (size 3 to 8) (size 9 to 14) (size 15 to 20)
#    0.000    2.000    0.000    6.000    0.000    4.000 
#    0.000    3.125    0.000    0.000    0.000    0.000 
#    0.000    0.000    0.000    0.000    0.000    0.000 
#
# Total GULP energy -793395.601483 kJ/mol
# GULP energy per Si atom -12396.806273 kJ/mol
# Density = 1.997948 g / cm^3
# Si number density = 20.025055 Si / 1000 Ang^3
#
#
#
# Elastic Constant Matrix: (Units=GPa)
#
#
# Indices 1 2 3 4 5 6 
#
# 1 80.8750 43.1536 33.5865 0.0000 0.0000 0.0000
# 2 43.1536 106.6611 35.7733 0.0000 0.0000 0.0000
# 3 33.5865 35.7733 99.9329 0.0000 0.0000 0.0000
# 4 0.0000 0.0000 0.0000 30.0657 0.0000 0.0000
# 5 0.0000 0.0000 0.0000 0.0000 25.5257 0.0000
# 6 0.0000 0.0000 0.0000 0.0000 0.0000 32.3480
#
#
#
# Elastic Compliance Matrix: (Units=1/GPa)
#
#
# Indices 1 2 3 4 5 6 
#
# 1 0.016874 -0.005597 -0.003668 0.000000 0.000000 0.000000
# 2 -0.005597 0.012511 -0.002598 0.000000 0.000000 0.000000
# 3 -0.003668 -0.002598 0.012169 0.000000 0.000000 0.000000
# 4 0.000000 0.000000 0.000000 0.033260 0.000000 0.000000
# 5 0.000000 0.000000 0.000000 0.000000 0.039176 0.000000
# 6 0.000000 0.000000 0.000000 0.000000 0.000000 0.030914
#
#
# Mechanical properties :
#
#
# Convention : Reuss Voigt Hill
#
# Bulk Modulus (GPa) = 56.08462 56.94396 56.51429
# Shear Modulus (GPa) = 28.64127 29.25161 28.94644
#
# Velocity S-wave (km/s) = 3.78600 3.82612 3.80611
# Velocity P-wave (km/s) = 6.86875 6.92943 6.89916
#
# Compressibility (1/GPa) = 0.01783020
#
# Stress axis : x y z
#
# Youngs Moduli (GPa) = 59.26137 79.92866 82.17428
#
# Poissons Ratio (x) = 0.44736 0.30139
# Poissons Ratio (y) = 0.33169 0.21345
# Poissons Ratio (z) = 0.21736 0.20762
#
# Static dielectric constant tensor:
#      x y z
#    x 4.173480 0.000000 0.000000 
#    y 0.000000 3.452970 0.000000 
#    z 0.000000 0.000000 3.461260 
# 
# 
# High freq. dielectric constant tensor:
#      x y z
#    x 1.788030 0.000000 0.000000 
#    y 0.000000 1.768190 0.000000 
#    z 0.000000 0.000000 1.774130 
# 
# From -- ./inp_files/7198.got.cif
#   From: 2010.03.12/outbox.cif.g09.slc.cpg/sg57_4_cif.got.tgz:7198.got - 2010.04.16 15:48:40.
