data_PCOD8230348
_publ_section_title
;
Structure prediction by ZEFSAII (Michael W. Deem and Ramdas Pophale) SiO2 
 PCOD8230348
Probable space group: P B C M
;
_chemical_formula_sum "Si O2"
_cell_formula_units_Z 64
_cell_length_a 15.285336
_cell_length_b 24.064738
_cell_length_c 9.051748
_cell_angle_alpha 90.000000
_cell_angle_beta 90.000000
_cell_angle_gamma 90.000000
_cell_volume 3329.573315
_symmetry_space_group_name_H-M "P B C M"
_symmetry_group_IT_number 57
_symmetry_cell_setting 'orthorhombic'
loop_
_space_group_symop_operation_xyz
x,y,z
-x,-y,1/2+z
x,1/2-y,-z
-x,1/2+y,1/2-z
-x,-y,-z
x,y,1/2-z
-x,1/2+y,z
x,1/2-y,1/2+z
loop_
_atom_site_type_symbol
_atom_site_label
_atom_site_fract_x
_atom_site_fract_y
_atom_site_fract_z
Si Si1 0.045792 0.373540 0.075889
Si Si2 0.381334 0.378163 0.074872
Si Si3 0.670395 0.503774 0.925449
Si Si4 0.217061 0.307960 0.423656
Si Si5 0.305933 0.894168 0.422061
Si Si6 0.456014 0.691450 0.578362
Si Si7 0.877620 0.393117 0.921401
Si Si8 0.864690 0.517947 0.579981
O O1 0.027062 0.374917 0.250000
O O2 0.120438 0.329285 0.034079
O O3 0.076177 0.433517 0.010333
O O4 0.955399 0.356847 0.994141
O O5 0.383226 0.376493 0.250000
O O6 0.388639 0.443264 0.027312
O O7 0.290274 0.351368 0.018934
O O8 0.463638 0.344302 0.010145
O O9 0.668961 0.492287 0.750000
O O10 0.767282 0.518111 0.985215
O O11 0.642850 0.447302 0.008838
O O12 0.235688 0.250000 0.500000
O O13 0.225645 0.299607 0.250000
O O14 0.289411 0.905487 0.250000
O O15 0.366028 0.840813 0.448715
O O16 0.214377 0.880908 0.500966
O O17 0.449911 0.750000 0.500000
O O18 0.472958 0.702170 0.750000
O O19 0.867487 0.377755 0.750000
O O20 0.906074 0.457343 0.944528
O O21 0.855166 0.534202 0.750000
#
# Coordination Sequence:
#
# PCOD8230348 Si02
#       8
#     8   8   8   8   8   8   8   8
#     4  10  18  31  51  75 105 142 178 216 264 315
#     4   9  17  34  59  84 111 144 179 219 271 328
#     4   9  16  31  56  83 112 147 182 214 263 331
#     4  10  20  34  54  77 108 147 183 221 267 321
#     4  10  21  37  54  79 114 145 179 228 281 326
#     4  10  22  39  60  83 108 142 185 230 275 324
#     4  10  20  33  53  79 105 138 180 223 268 322
#     4   8  14  27  48  75 105 137 173 208 252 313
#
# _framework density 19.221682999999999
#
# number of rings (size 3 to 8) (size 9 to 14) (size 15 to 20)
#    0.000    2.500    1.250    2.250    0.000    2.000 
#    0.000    4.375    0.000    0.000    0.000    0.000 
#    0.000    0.000    0.000    0.000    0.000    0.000 
#
# Total GULP energy -793310.734974 kJ/mol
# GULP energy per Si atom -12395.480234 kJ/mol
# Density = 1.917793 g / cm^3
# Si number density = 19.221683 Si / 1000 Ang^3
#
#
#
# Elastic Constant Matrix: (Units=GPa)
#
#
# Indices 1 2 3 4 5 6 
#
# 1 87.2638 38.5192 40.6566 0.0000 0.0000 0.0000
# 2 38.5192 74.6043 32.1529 0.0000 0.0000 0.0000
# 3 40.6566 32.1529 59.6993 0.0000 0.0000 0.0000
# 4 0.0000 0.0000 0.0000 27.6674 0.0000 0.0000
# 5 0.0000 0.0000 0.0000 0.0000 21.3039 0.0000
# 6 0.0000 0.0000 0.0000 0.0000 0.0000 24.2200
#
#
#
# Elastic Compliance Matrix: (Units=1/GPa)
#
#
# Indices 1 2 3 4 5 6 
#
# 1 0.018264 -0.005299 -0.009584 0.000000 0.000000 0.000000
# 2 -0.005299 0.018994 -0.006621 0.000000 0.000000 0.000000
# 3 -0.009584 -0.006621 0.026843 0.000000 0.000000 0.000000
# 4 0.000000 0.000000 0.000000 0.036144 0.000000 0.000000
# 5 0.000000 0.000000 0.000000 0.000000 0.046940 0.000000
# 6 0.000000 0.000000 0.000000 0.000000 0.000000 0.041288
#
#
# Mechanical properties :
#
#
# Convention : Reuss Voigt Hill
#
# Bulk Modulus (GPa) = 47.40952 49.35832 48.38392
# Shear Modulus (GPa) = 20.96338 21.98750 21.47544
#
# Velocity S-wave (km/s) = 3.30602 3.38581 3.34616
# Velocity P-wave (km/s) = 6.26827 6.40462 6.33681
#
# Compressibility (1/GPa) = 0.02109281
#
# Stress axis : x y z
#
# Youngs Moduli (GPa) = 54.75262 52.64953 37.25336
#
# Poissons Ratio (x) = 0.27901 0.35704
# Poissons Ratio (y) = 0.29016 0.24664
# Poissons Ratio (z) = 0.52475 0.34857
#
# Static dielectric constant tensor:
#      x y z
#    x 3.555170 0.000000 0.000000 
#    y 0.000000 3.477620 0.000000 
#    z 0.000000 0.000000 3.208460 
# 
# 
# High freq. dielectric constant tensor:
#      x y z
#    x 1.751730 0.000000 0.000000 
#    y 0.000000 1.738830 0.000000 
#    z 0.000000 0.000000 1.717790 
# 
# From -- ./inp_files/5548.got.cif
#   From: 2010.03.12/outbox.cif.g09.slc.cpg/sg57_3_cif.got.tgz:5548.got - 2010.04.16 15:48:40.
