data_PCOD8230936
_publ_section_title
;
Structure prediction by ZEFSAII (Michael W. Deem and Ramdas Pophale) SiO2 
 PCOD8230936
Probable space group: P B C M
;
_chemical_formula_sum "Si O2"
_cell_formula_units_Z 48
_cell_length_a 23.547558
_cell_length_b 13.753210
_cell_length_c 8.727841
_cell_angle_alpha 90.000000
_cell_angle_beta 90.000000
_cell_angle_gamma 90.000000
_cell_volume 2826.550672
_symmetry_space_group_name_H-M "P B C M"
_symmetry_group_IT_number 57
_symmetry_cell_setting 'orthorhombic'
loop_
_space_group_symop_operation_xyz
x,y,z
-x,-y,1/2+z
x,1/2-y,-z
-x,1/2+y,1/2-z
-x,-y,-z
x,y,1/2-z
-x,1/2+y,z
x,1/2-y,1/2+z
loop_
_atom_site_type_symbol
_atom_site_label
_atom_site_fract_x
_atom_site_fract_y
_atom_site_fract_z
Si Si1 0.526614 0.855580 0.929542
Si Si2 0.412601 0.968130 0.928715
Si Si3 0.687898 0.354173 0.068842
Si Si4 0.974284 0.645839 0.070395
Si Si5 0.807136 0.352917 0.569191
Si Si6 0.083244 0.528302 0.429457
O O1 0.539681 0.853708 0.750000
O O2 0.463350 0.893291 0.963489
O O3 0.533646 0.750000 0.000000
O O4 0.571799 0.924957 0.012225
O O5 0.398179 0.972744 0.750000
O O6 0.357925 0.933867 0.021663
O O7 0.690814 0.344358 0.250000
O O8 0.670637 0.250000 0.000000
O O9 0.748523 0.389201 0.004803
O O10 0.971843 0.656776 0.250000
O O11 0.035297 0.604771 0.015168
O O12 0.962901 0.750000 0.000000
O O13 0.924517 0.573472 0.016139
O O14 0.825877 0.250000 0.500000
O O15 0.799213 0.340964 0.750000
O O16 0.855173 0.430799 0.526983
O O17 0.077018 0.509119 0.250000
#
# Coordination Sequence:
#
# PCOD8230936 Si02
#       6
#     8   8   8   8   8   8
#     4  10  20  33  51  75 102 132 165 202 244 290
#     4  10  20  34  52  74 101 132 166 203 244 289
#     4  11  21  33  50  73 101 131 165 202 244 292
#     4  10  19  31  49  72  99 129 161 199 241 287
#     4  10  19  32  50  72  99 129 162 200 243 289
#     4   9  19  33  49  71  98 129 163 199 240 287
#
# _framework density 16.981829000000001
#
# number of rings (size 3 to 8) (size 9 to 14) (size 15 to 20)
#    0.000    2.000    0.000    5.500    0.000    5.333 
#    0.000    0.000    0.000    1.000    0.000    2.333 
#    0.000    0.000    0.000    0.000    0.000    0.000 
#
# Total GULP energy -595382.137343 kJ/mol
# GULP energy per Si atom -12403.794528 kJ/mol
# Density = 1.694318 g / cm^3
# Si number density = 16.981829 Si / 1000 Ang^3
#
#
#
# Elastic Constant Matrix: (Units=GPa)
#
#
# Indices 1 2 3 4 5 6 
#
# 1 104.1685 67.5122 54.4377 0.0000 0.0000 0.0000
# 2 67.5122 134.9936 53.9563 0.0000 0.0000 0.0000
# 3 54.4377 53.9563 96.7097 0.0000 0.0000 0.0000
# 4 0.0000 0.0000 0.0000 32.7321 0.0000 0.0000
# 5 0.0000 0.0000 0.0000 0.0000 26.9367 0.0000
# 6 0.0000 0.0000 0.0000 0.0000 0.0000 74.9012
#
#
#
# Elastic Compliance Matrix: (Units=1/GPa)
#
#
# Indices 1 2 3 4 5 6 
#
# 1 0.016563 -0.005865 -0.006051 0.000000 0.000000 0.000000
# 2 -0.005865 0.011610 -0.003176 0.000000 0.000000 0.000000
# 3 -0.006051 -0.003176 0.015519 0.000000 0.000000 0.000000
# 4 0.000000 0.000000 0.000000 0.030551 0.000000 0.000000
# 5 0.000000 0.000000 0.000000 0.000000 0.037124 0.000000
# 6 0.000000 0.000000 0.000000 0.000000 0.000000 0.013351
#
#
# Mechanical properties :
#
#
# Convention : Reuss Voigt Hill
#
# Bulk Modulus (GPa) = 74.03415 76.40933 75.22174
# Shear Modulus (GPa) = 31.36649 37.57838 34.47244
#
# Velocity S-wave (km/s) = 4.30241 4.70921 4.51040
# Velocity P-wave (km/s) = 8.26872 8.64068 8.45674
#
# Compressibility (1/GPa) = 0.01350728
#
# Stress axis : x y z
#
# Youngs Moduli (GPa) = 60.37470 86.12944 64.43855
#
# Poissons Ratio (x) = 0.50513 0.38994
# Poissons Ratio (y) = 0.35409 0.20468
# Poissons Ratio (z) = 0.36535 0.27358
#
# Static dielectric constant tensor:
#      x y z
#    x 3.159510 0.000000 0.000000 
#    y 0.000000 2.575470 0.000000 
#    z 0.000000 0.000000 3.325590 
# 
# 
# High freq. dielectric constant tensor:
#      x y z
#    x 1.645420 0.000000 0.000000 
#    y 0.000000 1.646820 0.000000 
#    z 0.000000 0.000000 1.673020 
# 
# From -- ./inp_files/9104.got.cif
#   From: 2010.03.12/outbox.cif.g09.slc.cpg/sg57_5_cif.got.tgz:9104.got - 2010.04.16 15:48:40.
