data_PCOD8230144
_publ_section_title
;
Structure prediction by ZEFSAII (Michael W. Deem and Ramdas Pophale) SiO2 
 PCOD8230144
Probable space group: P B C M
;
_chemical_formula_sum "Si O2"
_cell_formula_units_Z 64
_cell_length_a 16.675270
_cell_length_b 23.685475
_cell_length_c 8.957667
_cell_angle_alpha 90.000000
_cell_angle_beta 90.000000
_cell_angle_gamma 90.000000
_cell_volume 3537.935303
_symmetry_space_group_name_H-M "P B C M"
_symmetry_group_IT_number 57
_symmetry_cell_setting 'orthorhombic'
loop_
_space_group_symop_operation_xyz
x,y,z
-x,-y,1/2+z
x,1/2-y,-z
-x,1/2+y,1/2-z
-x,-y,-z
x,y,1/2-z
-x,1/2+y,z
x,1/2-y,1/2+z
loop_
_atom_site_type_symbol
_atom_site_label
_atom_site_fract_x
_atom_site_fract_y
_atom_site_fract_z
Si Si1 0.181883 0.020677 0.079087
Si Si2 0.122371 0.192175 0.925491
Si Si3 0.150482 0.589248 0.077907
Si Si4 0.237352 0.689347 0.575869
Si Si5 0.265979 0.366386 0.576611
Si Si6 0.584915 0.189731 0.576097
Si Si7 0.966487 0.595908 0.420335
Si Si8 0.431227 0.310864 0.925324
O O1 0.192373 0.002297 0.250000
O O2 0.246892 0.068576 0.034896
O O3 0.092104 0.043334 0.048270
O O4 0.198476 0.965490 0.979902
O O5 0.125101 0.199698 0.750000
O O6 0.094835 0.250000 0.000000
O O7 0.210507 0.175144 0.981700
O O8 0.055840 0.146348 0.969037
O O9 0.171128 0.598528 0.250000
O O10 0.056985 0.577321 0.048691
O O11 0.174594 0.645545 0.990884
O O12 0.226262 0.750000 0.500000
O O13 0.220249 0.697704 0.750000
O O14 0.326974 0.663204 0.549717
O O15 0.245528 0.355917 0.750000
O O16 0.357831 0.352720 0.539192
O O17 0.586605 0.250000 0.500000
O O18 0.565320 0.195193 0.750000
O O19 0.510517 0.158088 0.494803
O O20 0.954761 0.616825 0.250000
O O21 0.442758 0.301933 0.750000
O O22 0.415426 0.250000 0.000000
#
# Coordination Sequence:
#
# PCOD8230144 Si02
#       8
#     8   8   8   8   8   8   8   8
#     4   9  18  35  55  73 100 134 167 207 252 296
#     4  11  21  32  49  71  99 136 172 207 250 300
#     4  11  22  35  55  80 102 128 166 209 251 301
#     4  10  21  37  56  78 105 135 165 203 253 303
#     4   9  19  34  50  72 103 137 171 208 250 294
#     4   9  17  30  49  73 101 132 165 202 246 295
#     4   9  20  37  53  72 100 132 167 210 256 299
#     4  10  18  28  47  75 105 136 169 204 245 294
#
# _framework density 18.089646999999999
#
# number of rings (size 3 to 8) (size 9 to 14) (size 15 to 20)
#    0.000    2.250    0.000    4.875    0.000    7.000 
#    0.000    0.000    0.000    0.750    0.000    0.000 
#    0.000    0.000    0.000    0.000    0.000    0.000 
#
# Total GULP energy -793454.486274 kJ/mol
# GULP energy per Si atom -12397.726348 kJ/mol
# Density = 1.804847 g / cm^3
# Si number density = 18.089647 Si / 1000 Ang^3
#
#
#
# Elastic Constant Matrix: (Units=GPa)
#
#
# Indices 1 2 3 4 5 6 
#
# 1 75.4907 29.5288 33.1595 0.0000 0.0000 0.0000
# 2 29.5288 86.8986 45.7362 0.0000 0.0000 0.0000
# 3 33.1595 45.7362 110.7963 0.0000 0.0000 0.0000
# 4 0.0000 0.0000 0.0000 29.2100 0.0000 0.0000
# 5 0.0000 0.0000 0.0000 0.0000 26.8433 0.0000
# 6 0.0000 0.0000 0.0000 0.0000 0.0000 18.1506
#
#
#
# Elastic Compliance Matrix: (Units=1/GPa)
#
#
# Indices 1 2 3 4 5 6 
#
# 1 0.016161 -0.003764 -0.003283 0.000000 0.000000 0.000000
# 2 -0.003764 0.015578 -0.005304 0.000000 0.000000 0.000000
# 3 -0.003283 -0.005304 0.012198 0.000000 0.000000 0.000000
# 4 0.000000 0.000000 0.000000 0.034235 0.000000 0.000000
# 5 0.000000 0.000000 0.000000 0.000000 0.037253 0.000000
# 6 0.000000 0.000000 0.000000 0.000000 0.000000 0.055095
#
#
# Mechanical properties :
#
#
# Convention : Reuss Voigt Hill
#
# Bulk Modulus (GPa) = 51.98867 54.44832 53.21850
# Shear Modulus (GPa) = 24.79749 25.82485 25.31117
#
# Velocity S-wave (km/s) = 3.70646 3.78246 3.74466
# Velocity P-wave (km/s) = 6.86433 7.01716 6.94117
#
# Compressibility (1/GPa) = 0.01923496
#
# Stress axis : x y z
#
# Youngs Moduli (GPa) = 61.87752 64.19180 81.98251
#
# Poissons Ratio (x) = 0.24160 0.26916
# Poissons Ratio (y) = 0.23289 0.43486
# Poissons Ratio (z) = 0.20315 0.34049
#
# Static dielectric constant tensor:
#      x y z
#    x 3.752260 0.000000 0.000000 
#    y 0.000000 3.073180 0.000000 
#    z 0.000000 0.000000 3.418490 
# 
# 
# High freq. dielectric constant tensor:
#      x y z
#    x 1.699270 0.000000 0.000000 
#    y 0.000000 1.675110 0.000000 
#    z 0.000000 0.000000 1.711120 
# 
# From -- ./inp_files/7346.got.cif
#   From: 2010.03.12/outbox.cif.g09.slc.cpg/sg57_4_cif.got.tgz:7346.got - 2010.04.16 15:48:40.
