data_PCOD8230659
_publ_section_title
;
Structure prediction by ZEFSAII (Michael W. Deem and Ramdas Pophale) SiO2 
 PCOD8230659
Probable space group: P B C M
;
_chemical_formula_sum "Si O2"
_cell_formula_units_Z 64
_cell_length_a 16.968741
_cell_length_b 23.167546
_cell_length_c 9.001286
_cell_angle_alpha 90.000000
_cell_angle_beta 90.000000
_cell_angle_gamma 90.000000
_cell_volume 3538.622347
_symmetry_space_group_name_H-M "P B C M"
_symmetry_group_IT_number 57
_symmetry_cell_setting 'orthorhombic'
loop_
_space_group_symop_operation_xyz
x,y,z
-x,-y,1/2+z
x,1/2-y,-z
-x,1/2+y,1/2-z
-x,-y,-z
x,y,1/2-z
-x,1/2+y,z
x,1/2-y,1/2+z
loop_
_atom_site_type_symbol
_atom_site_label
_atom_site_fract_x
_atom_site_fract_y
_atom_site_fract_z
Si Si1 0.729208 0.430686 0.422804
Si Si2 0.049973 0.691559 0.073380
Si Si3 0.067770 0.113888 0.584333
Si Si4 0.221415 0.192432 0.916377
Si Si5 0.817796 0.979385 0.076328
Si Si6 0.695232 0.898293 0.580142
Si Si7 0.217500 0.806582 0.423786
Si Si8 0.417917 0.495520 0.580201
O O1 0.742203 0.446180 0.250000
O O2 0.805048 0.455314 0.516044
O O3 0.725827 0.361645 0.446853
O O4 0.647333 0.458822 0.481914
O O5 0.053927 0.698476 0.250000
O O6 0.013893 0.750000 0.000000
O O7 0.135498 0.680644 0.005589
O O8 0.995275 0.636721 0.034005
O O9 0.031412 0.119065 0.750000
O O10 0.147586 0.150272 0.574236
O O11 0.093951 0.047116 0.551324
O O12 0.244521 0.208496 0.750000
O O13 0.197976 0.250000 0.000000
O O14 0.297827 0.161251 0.988654
O O15 0.795677 0.974943 0.250000
O O16 0.757938 0.944033 0.976255
O O17 0.713456 0.883457 0.750000
O O18 0.610613 0.929099 0.560911
O O19 0.256975 0.750000 0.500000
O O20 0.201851 0.794565 0.250000
O O21 0.500000 0.500000 0.500000
O O22 0.432752 0.511188 0.750000
#
# Coordination Sequence:
#
# PCOD8230659 Si02
#       8
#     8   8   8   8   8   8   8   8
#     4   9  19  35  54  76 103 132 161 197 244 295
#     4  11  21  32  48  69  94 127 168 213 258 301
#     4   9  18  31  45  66  96 128 165 209 253 294
#     4  10  19  29  44  67  94 128 169 207 244 287
#     4   9  17  29  48  72  97 127 164 204 245 291
#     4   9  17  30  46  66  97 130 161 197 235 280
#     4  10  20  36  56  75  98 128 163 206 251 294
#     4   9  18  32  52  79 104 126 154 189 233 284
#
# _framework density 18.086134999999999
#
# number of rings (size 3 to 8) (size 9 to 14) (size 15 to 20)
#    0.000    2.500    0.000    5.250    0.000    7.500 
#    0.000    0.625    0.000    0.750    0.000    3.500 
#    0.000    0.000    0.000    0.000    0.000    0.000 
#
# Total GULP energy -793125.865398 kJ/mol
# GULP energy per Si atom -12392.591647 kJ/mol
# Density = 1.804497 g / cm^3
# Si number density = 18.086135 Si / 1000 Ang^3
#
#
#
# Elastic Constant Matrix: (Units=GPa)
#
#
# Indices 1 2 3 4 5 6 
#
# 1 54.6092 28.2985 30.9696 0.0000 0.0000 0.0000
# 2 28.2985 81.9360 34.0555 0.0000 0.0000 0.0000
# 3 30.9696 34.0555 107.6509 0.0000 0.0000 0.0000
# 4 0.0000 0.0000 0.0000 31.5438 0.0000 0.0000
# 5 0.0000 0.0000 0.0000 0.0000 25.2909 0.0000
# 6 0.0000 0.0000 0.0000 0.0000 0.0000 19.9710
#
#
#
# Elastic Compliance Matrix: (Units=1/GPa)
#
#
# Indices 1 2 3 4 5 6 
#
# 1 0.024456 -0.006358 -0.005024 0.000000 0.000000 0.000000
# 2 -0.006358 0.015705 -0.003139 0.000000 0.000000 0.000000
# 3 -0.005024 -0.003139 0.011728 0.000000 0.000000 0.000000
# 4 0.000000 0.000000 0.000000 0.031702 0.000000 0.000000
# 5 0.000000 0.000000 0.000000 0.000000 0.039540 0.000000
# 6 0.000000 0.000000 0.000000 0.000000 0.000000 0.050073
#
#
# Mechanical properties :
#
#
# Convention : Reuss Voigt Hill
#
# Bulk Modulus (GPa) = 43.77160 47.87145 45.82152
# Shear Modulus (GPa) = 23.82514 25.41931 24.62223
#
# Velocity S-wave (km/s) = 3.63342 3.75301 3.69370
# Velocity P-wave (km/s) = 6.46967 6.73099 6.60162
#
# Compressibility (1/GPa) = 0.02284586
#
# Stress axis : x y z
#
# Youngs Moduli (GPa) = 40.88965 63.67236 85.26758
#
# Poissons Ratio (x) = 0.40484 0.42840
# Poissons Ratio (y) = 0.25999 0.26768
# Poissons Ratio (z) = 0.20544 0.19988
#
# Static dielectric constant tensor:
#      x y z
#    x 3.035990 0.000000 0.000000 
#    y 0.000000 3.727540 0.000000 
#    z 0.000000 0.000000 3.513440 
# 
# 
# High freq. dielectric constant tensor:
#      x y z
#    x 1.655960 0.000000 0.000000 
#    y 0.000000 1.700750 0.000000 
#    z 0.000000 0.000000 1.711750 
# 
# From -- ./inp_files/7364.got.cif
#   From: 2010.03.12/outbox.cif.g09.slc.cpg/sg57_4_cif.got.tgz:7364.got - 2010.04.16 15:48:40.
