data_PCOD8230155
_publ_section_title
;
Structure prediction by ZEFSAII (Michael W. Deem and Ramdas Pophale) SiO2 
 PCOD8230155
Probable space group: P B C M
;
_chemical_formula_sum "Si O2"
_cell_formula_units_Z 64
_cell_length_a 11.513085
_cell_length_b 31.500410
_cell_length_c 9.091768
_cell_angle_alpha 90.000000
_cell_angle_beta 90.000000
_cell_angle_gamma 90.000000
_cell_volume 3297.283297
_symmetry_space_group_name_H-M "P B C M"
_symmetry_group_IT_number 57
_symmetry_cell_setting 'orthorhombic'
loop_
_space_group_symop_operation_xyz
x,y,z
-x,-y,1/2+z
x,1/2-y,-z
-x,1/2+y,1/2-z
-x,-y,-z
x,y,1/2-z
-x,1/2+y,z
x,1/2-y,1/2+z
loop_
_atom_site_type_symbol
_atom_site_label
_atom_site_fract_x
_atom_site_fract_y
_atom_site_fract_z
Si Si1 0.354099 0.837648 0.582318
Si Si2 0.330062 0.975786 0.421450
Si Si3 0.001329 0.652257 0.422661
Si Si4 0.417819 0.149133 0.915544
Si Si5 0.806326 0.796302 0.422717
Si Si6 0.417112 0.053774 0.917667
Si Si7 0.178342 0.790588 0.421847
Si Si8 0.821689 0.414423 0.584952
O O1 0.348737 0.822331 0.750000
O O2 0.485966 0.845134 0.538637
O O3 0.308353 0.799289 0.479909
O O4 0.274974 0.878508 0.556239
O O5 0.314918 0.979844 0.250000
O O6 0.446842 0.949641 0.465550
O O7 0.212755 0.953130 0.479231
O O8 0.337112 0.023257 0.485210
O O9 0.006406 0.665630 0.250000
O O10 0.097999 0.672085 0.525432
O O11 0.044464 0.602875 0.437649
O O12 0.880196 0.667030 0.493556
O O13 0.469933 0.151967 0.750000
O O14 0.323326 0.185996 0.937475
O O15 0.368396 0.101503 0.938811
O O16 0.818210 0.750000 0.500000
O O17 0.842687 0.792382 0.250000
O O18 0.405948 0.038575 0.750000
O O19 0.123565 0.750000 0.500000
O O20 0.176646 0.784368 0.250000
O O21 0.809504 0.431484 0.750000
#
# Coordination Sequence:
#
# PCOD8230155 Si02
#       8
#     8   8   8   8   8   8   8   8
#     4  10  20  33  51  77 108 141 178 219 271 330
#     4  10  18  28  50  82 114 147 184 222 267 324
#     4  10  21  38  58  81 107 137 180 229 280 329
#     4  10  21  38  57  78 108 149 190 229 275 330
#     4  11  24  41  61  82 106 141 188 236 281 330
#     4   9  18  32  50  76 113 151 185 223 269 320
#     4  11  21  34  53  76 105 137 172 218 275 332
#     4   9  18  32  52  79 111 144 175 218 272 327
#
# _framework density 19.40992
#
# number of rings (size 3 to 8) (size 9 to 14) (size 15 to 20)
#    0.000    2.000    1.250    3.750    0.000    5.000 
#    0.000    1.250    0.000    0.750    0.000    0.000 
#    0.000    0.000    0.000    0.000    0.000    0.000 
#
# Total GULP energy -792972.458242 kJ/mol
# GULP energy per Si atom -12390.194660 kJ/mol
# Density = 1.936574 g / cm^3
# Si number density = 19.409920 Si / 1000 Ang^3
#
#
#
# Elastic Constant Matrix: (Units=GPa)
#
#
# Indices 1 2 3 4 5 6 
#
# 1 46.8794 8.6163 23.2648 0.0000 0.0000 0.0000
# 2 8.6163 47.2432 21.3800 0.0000 0.0000 0.0000
# 3 23.2648 21.3800 106.7330 0.0000 0.0000 0.0000
# 4 0.0000 0.0000 0.0000 30.2022 0.0000 0.0000
# 5 0.0000 0.0000 0.0000 0.0000 24.8051 0.0000
# 6 0.0000 0.0000 0.0000 0.0000 0.0000 27.4625
#
#
#
# Elastic Compliance Matrix: (Units=1/GPa)
#
#
# Indices 1 2 3 4 5 6 
#
# 1 0.024129 -0.002222 -0.004814 0.000000 0.000000 0.000000
# 2 -0.002222 0.023482 -0.004219 0.000000 0.000000 0.000000
# 3 -0.004814 -0.004219 0.011264 0.000000 0.000000 0.000000
# 4 0.000000 0.000000 0.000000 0.033110 0.000000 0.000000
# 5 0.000000 0.000000 0.000000 0.000000 0.040314 0.000000
# 6 0.000000 0.000000 0.000000 0.000000 0.000000 0.036413
#
#
# Mechanical properties :
#
#
# Convention : Reuss Voigt Hill
#
# Bulk Modulus (GPa) = 27.50037 34.15309 30.82673
# Shear Modulus (GPa) = 24.58881 26.33361 25.46121
#
# Velocity S-wave (km/s) = 3.56310 3.68735 3.62576
# Velocity P-wave (km/s) = 5.57911 5.98018 5.78313
#
# Compressibility (1/GPa) = 0.03636315
#
# Stress axis : x y z
#
# Youngs Moduli (GPa) = 41.44406 42.58618 88.78026
#
# Poissons Ratio (x) = 0.09462 0.42742
# Poissons Ratio (y) = 0.09209 0.37460
# Poissons Ratio (z) = 0.19953 0.17969
#
# Static dielectric constant tensor:
#      x y z
#    x 3.510070 0.000000 0.000000 
#    y 0.000000 3.622950 0.000000 
#    z 0.000000 0.000000 3.740580 
# 
# 
# High freq. dielectric constant tensor:
#      x y z
#    x 1.727650 0.000000 0.000000 
#    y 0.000000 1.744430 0.000000 
#    z 0.000000 0.000000 1.767160 
# 
# From -- ./inp_files/3753.got.cif
#   From: 2010.03.12/outbox.cif.g09.slc.cpg/sg57_2_cif.got.tgz:3753.got - 2010.04.16 15:48:40.
