data_PCOD8230872
_publ_section_title
;
Structure prediction by ZEFSAII (Michael W. Deem and Ramdas Pophale) SiO2 
 PCOD8230872
Probable space group: P B C M
;
_chemical_formula_sum "Si O2"
_cell_formula_units_Z 48
_cell_length_a 18.412834
_cell_length_b 17.149809
_cell_length_c 8.991222
_cell_angle_alpha 90.000000
_cell_angle_beta 90.000000
_cell_angle_gamma 90.000000
_cell_volume 2839.217389
_symmetry_space_group_name_H-M "P B C M"
_symmetry_group_IT_number 57
_symmetry_cell_setting 'orthorhombic'
loop_
_space_group_symop_operation_xyz
x,y,z
-x,-y,1/2+z
x,1/2-y,-z
-x,1/2+y,1/2-z
-x,-y,-z
x,y,1/2-z
-x,1/2+y,z
x,1/2-y,1/2+z
loop_
_atom_site_type_symbol
_atom_site_label
_atom_site_fract_x
_atom_site_fract_y
_atom_site_fract_z
Si Si1 0.830531 0.030698 0.077246
Si Si2 0.331274 0.523091 0.073291
Si Si3 0.551321 0.561748 0.423315
Si Si4 0.573067 0.169636 0.078696
Si Si5 0.066823 0.830133 0.572706
Si Si6 0.958756 0.570538 0.575434
O O1 0.820674 0.046579 0.250000
O O2 0.750353 0.026030 0.006792
O O3 0.876112 0.104514 0.015716
O O4 0.873155 0.948611 0.049995
O O5 0.333642 0.512547 0.250000
O O6 0.372664 0.601702 0.021568
O O7 0.369877 0.446628 0.000700
O O8 0.500000 0.500000 0.500000
O O9 0.558228 0.542568 0.250000
O O10 0.511658 0.645353 0.447846
O O11 0.588804 0.183695 0.250000
O O12 0.591526 0.250000 0.000000
O O13 0.093286 0.750000 0.500000
O O14 0.062026 0.823750 0.750000
O O15 0.986438 0.851218 0.507001
O O16 0.976947 0.575134 0.750000
O O17 0.000000 0.500000 0.500000
#
# Coordination Sequence:
#
# PCOD8230872 Si02
#       6
#     8   8   8   8   8   8
#     4   8  16  30  48  68  93 122 151 183 228 278
#     4   9  17  31  48  68  93 121 149 184 228 275
#     4   9  17  30  46  66  88 116 154 192 225 265
#     4   9  18  29  44  65  91 118 147 181 219 263
#     4  10  19  31  47  69  96 126 157 193 233 278
#     4   9  16  29  48  68  90 121 159 195 228 273
#
# _framework density 16.906067
#
# number of rings (size 3 to 8) (size 9 to 14) (size 15 to 20)
#    0.000    3.000    0.000    3.500    0.000    4.000 
#    0.000    5.000    0.000    1.000    0.000    2.333 
#    0.000    0.000    0.000    0.000    0.000    0.000 
#
# Total GULP energy -594652.873988 kJ/mol
# GULP energy per Si atom -12388.601541 kJ/mol
# Density = 1.686759 g / cm^3
# Si number density = 16.906067 Si / 1000 Ang^3
#
#
#
# Elastic Constant Matrix: (Units=GPa)
#
#
# Indices 1 2 3 4 5 6 
#
# 1 128.6612 38.5333 34.2591 0.0000 0.0000 0.0000
# 2 38.5333 23.8171 15.4807 0.0000 0.0000 0.0000
# 3 34.2591 15.4807 60.1764 0.0000 0.0000 0.0000
# 4 0.0000 0.0000 0.0000 29.6068 0.0000 0.0000
# 5 0.0000 0.0000 0.0000 0.0000 21.2986 0.0000
# 6 0.0000 0.0000 0.0000 0.0000 0.0000 18.9708
#
#
#
# Elastic Compliance Matrix: (Units=1/GPa)
#
#
# Indices 1 2 3 4 5 6 
#
# 1 0.015474 -0.023186 -0.002845 0.000000 0.000000 0.000000
# 2 -0.023186 0.085159 -0.008708 0.000000 0.000000 0.000000
# 3 -0.002845 -0.008708 0.020477 0.000000 0.000000 0.000000
# 4 0.000000 0.000000 0.000000 0.033776 0.000000 0.000000
# 5 0.000000 0.000000 0.000000 0.000000 0.046951 0.000000
# 6 0.000000 0.000000 0.000000 0.000000 0.000000 0.052713
#
#
# Mechanical properties :
#
#
# Convention : Reuss Voigt Hill
#
# Bulk Modulus (GPa) = 19.36724 43.24455 31.30590
# Shear Modulus (GPa) = 14.65253 22.26734 18.45994
#
# Velocity S-wave (km/s) = 2.94717 3.63315 3.30799
# Velocity P-wave (km/s) = 4.80227 6.57530 5.75745
#
# Compressibility (1/GPa) = 0.05163359
#
# Stress axis : x y z
#
# Youngs Moduli (GPa) = 64.62491 11.74276 48.83422
#
# Poissons Ratio (x) = 0.27227 0.13892
# Poissons Ratio (y) = 1.49839 0.42523
# Poissons Ratio (z) = 0.18384 0.10225
#
# Static dielectric constant tensor:
#      x y z
#    x 3.655070 0.000000 0.000000 
#    y 0.000000 3.137800 0.000000 
#    z 0.000000 0.000000 3.228820 
# 
# 
# High freq. dielectric constant tensor:
#      x y z
#    x 1.645560 0.000000 0.000000 
#    y 0.000000 1.625800 0.000000 
#    z 0.000000 0.000000 1.647060 
# 
# From -- ./inp_files/6668.got.cif
#   From: 2010.03.12/outbox.cif.g09.slc.cpg/sg57_4_cif.got.tgz:6668.got - 2010.04.16 15:48:40.
