data_PCOD8230313
_publ_section_title
;
Structure prediction by ZEFSAII (Michael W. Deem and Ramdas Pophale) SiO2 
 PCOD8230313
Probable space group: P B C M
;
_chemical_formula_sum "Si O2"
_cell_formula_units_Z 64
_cell_length_a 14.945838
_cell_length_b 29.743128
_cell_length_c 8.839884
_cell_angle_alpha 90.000000
_cell_angle_beta 90.000000
_cell_angle_gamma 90.000000
_cell_volume 3929.646433
_symmetry_space_group_name_H-M "P B C M"
_symmetry_group_IT_number 57
_symmetry_cell_setting 'orthorhombic'
loop_
_space_group_symop_operation_xyz
x,y,z
-x,-y,1/2+z
x,1/2-y,-z
-x,1/2+y,1/2-z
-x,-y,-z
x,y,1/2-z
-x,1/2+y,z
x,1/2-y,1/2+z
loop_
_atom_site_type_symbol
_atom_site_label
_atom_site_fract_x
_atom_site_fract_y
_atom_site_fract_z
Si Si1 0.675904 0.462915 0.926942
Si Si2 0.876912 0.024731 0.075407
Si Si3 0.359460 0.443427 0.929070
Si Si4 0.940042 0.564193 0.424097
Si Si5 0.484899 0.204379 0.429300
Si Si6 0.533931 0.392203 0.928984
Si Si7 0.794631 0.613156 0.575557
Si Si8 0.707646 0.705932 0.926759
O O1 0.660163 0.470924 0.750000
O O2 0.780376 0.454283 0.963143
O O3 0.621877 0.418969 0.984505
O O4 0.636522 0.505907 0.011570
O O5 0.881973 0.008557 0.250000
O O6 0.953362 0.062118 0.043925
O O7 0.893256 0.982592 0.967898
O O8 0.360142 0.444545 0.750000
O O9 0.444885 0.416240 0.994520
O O10 0.269536 0.419599 0.983144
O O11 0.919908 0.573898 0.250000
O O12 0.896465 0.604166 0.522453
O O13 0.527224 0.250000 0.500000
O O14 0.483782 0.209637 0.250000
O O15 0.540042 0.160023 0.481961
O O16 0.384715 0.196973 0.487570
O O17 0.526894 0.393123 0.750000
O O18 0.782666 0.600928 0.750000
O O19 0.774373 0.665007 0.543002
O O20 0.688194 0.713200 0.750000
O O21 0.753600 0.750000 0.000000
#
# Coordination Sequence:
#
# PCOD8230313 Si02
#       8
#     8   8   8   8   8   8   8   8
#     4  10  19  33  49  66  93 128 162 196 235 277
#     4   9  18  31  47  68  93 121 156 196 236 276
#     4  11  20  31  45  67  96 128 163 195 226 269
#     4  10  19  30  47  69  93 121 155 195 236 278
#     4  10  18  31  48  68  93 121 155 193 235 276
#     4   9  19  32  47  67  94 127 159 193 233 278
#     4  11  21  32  47  69  95 127 160 191 232 284
#     4  10  20  32  48  69  93 121 155 192 236 282
#
# _framework density 16.286451
#
# number of rings (size 3 to 8) (size 9 to 14) (size 15 to 20)
#    0.000    2.000    2.500    3.000    0.000    2.000 
#    0.000    1.875    0.000    0.000    0.000    0.875 
#    0.000    4.000    0.000    0.000    0.000    0.000 
#
# Total GULP energy -793471.874767 kJ/mol
# GULP energy per Si atom -12397.998043 kJ/mol
# Density = 1.624938 g / cm^3
# Si number density = 16.286451 Si / 1000 Ang^3
#
#
#
# Elastic Constant Matrix: (Units=GPa)
#
#
# Indices 1 2 3 4 5 6 
#
# 1 88.9116 61.3629 25.4218 0.0000 0.0000 0.0000
# 2 61.3629 136.3214 42.8894 0.0000 0.0000 0.0000
# 3 25.4218 42.8894 59.2827 0.0000 0.0000 0.0000
# 4 0.0000 0.0000 0.0000 24.5433 0.0000 0.0000
# 5 0.0000 0.0000 0.0000 0.0000 17.3931 0.0000
# 6 0.0000 0.0000 0.0000 0.0000 0.0000 23.2838
#
#
#
# Elastic Compliance Matrix: (Units=1/GPa)
#
#
# Indices 1 2 3 4 5 6 
#
# 1 0.016536 -0.006749 -0.002209 0.000000 0.000000 0.000000
# 2 -0.006749 0.012252 -0.005970 0.000000 0.000000 0.000000
# 3 -0.002209 -0.005970 0.022134 0.000000 0.000000 0.000000
# 4 0.000000 0.000000 0.000000 0.040744 0.000000 0.000000
# 5 0.000000 0.000000 0.000000 0.000000 0.057494 0.000000
# 6 0.000000 0.000000 0.000000 0.000000 0.000000 0.042948
#
#
# Mechanical properties :
#
#
# Convention : Reuss Voigt Hill
#
# Bulk Modulus (GPa) = 47.46497 60.42933 53.94715
# Shear Modulus (GPa) = 21.83543 23.36681 22.60112
#
# Velocity S-wave (km/s) = 3.66554 3.79190 3.72926
# Velocity P-wave (km/s) = 6.86455 7.50706 7.19298
#
# Compressibility (1/GPa) = 0.02106817
#
# Stress axis : x y z
#
# Youngs Moduli (GPa) = 60.47317 81.62204 45.17855
#
# Poissons Ratio (x) = 0.55084 0.09979
# Poissons Ratio (y) = 0.40811 0.26970
# Poissons Ratio (z) = 0.13357 0.48726
#
# Static dielectric constant tensor:
#      x y z
#    x 3.133560 0.000000 0.000000 
#    y 0.000000 3.425590 0.000000 
#    z 0.000000 0.000000 3.083530 
# 
# 
# High freq. dielectric constant tensor:
#      x y z
#    x 1.606690 0.000000 0.000000 
#    y 0.000000 1.615890 0.000000 
#    z 0.000000 0.000000 1.629500 
# 
# From -- ./inp_files/5991.got.cif
#   From: 2010.03.12/outbox.cif.g09.slc.cpg/sg57_3_cif.got.tgz:5991.got - 2010.04.16 15:48:40.
