data_PCOD8230189
_publ_section_title
;
Structure prediction by ZEFSAII (Michael W. Deem and Ramdas Pophale) SiO2 
 PCOD8230189
Probable space group: P B C M
;
_chemical_formula_sum "Si O2"
_cell_formula_units_Z 56
_cell_length_a 17.803431
_cell_length_b 20.040434
_cell_length_c 9.125541
_cell_angle_alpha 90.000000
_cell_angle_beta 90.000000
_cell_angle_gamma 90.000000
_cell_volume 3255.887938
_symmetry_space_group_name_H-M "P B C M"
_symmetry_group_IT_number 57
_symmetry_cell_setting 'orthorhombic'
loop_
_space_group_symop_operation_xyz
x,y,z
-x,-y,1/2+z
x,1/2-y,-z
-x,1/2+y,1/2-z
-x,-y,-z
x,y,1/2-z
-x,1/2+y,z
x,1/2-y,1/2+z
loop_
_atom_site_type_symbol
_atom_site_label
_atom_site_fract_x
_atom_site_fract_y
_atom_site_fract_z
Si Si1 0.802690 0.543021 0.081006
Si Si2 0.659127 0.935773 0.084838
Si Si3 0.969722 0.564353 0.079803
Si Si4 0.786846 0.388539 0.420612
Si Si5 0.644082 0.405696 0.587155
Si Si6 0.483268 0.431191 0.921471
Si Si7 0.920254 0.181753 0.423794
O O1 0.780862 0.551817 0.250000
O O2 0.882301 0.576534 0.041861
O O3 0.808130 0.464633 0.042462
O O4 0.739577 0.581100 0.986983
O O5 0.658355 0.908312 0.250000
O O6 0.647402 0.014616 0.078253
O O7 0.591558 0.899575 0.994954
O O8 0.980096 0.549607 0.250000
O O9 0.015953 0.628974 0.030575
O O10 0.000000 0.500000 0.000000
O O11 0.795437 0.371661 0.250000
O O12 0.700927 0.373642 0.469810
O O13 0.840199 0.340939 0.513862
O O14 0.668029 0.382305 0.750000
O O15 0.557255 0.384301 0.555443
O O16 0.468529 0.444030 0.750000
O O17 0.500000 0.500000 0.000000
O O18 0.944887 0.250000 0.500000
O O19 0.914098 0.190951 0.250000
#
# Coordination Sequence:
#
# PCOD8230189 Si02
#       7
#     8   8   8   8   8   8   8
#     4   9  17  29  45  67  93 121 157 199 243 293
#     4   9  16  24  36  57  86 120 155 191 235 282
#     4  10  20  34  53  75  97 126 163 207 253 300
#     4  10  18  29  47  68  92 122 159 199 241 289
#     4   8  15  25  37  56  84 118 156 192 230 278
#     4   9  15  23  35  53  81 118 156 192 232 278
#     4  11  23  37  53  72  99 131 164 204 251 300
#
# _framework density 17.19961
#
# number of rings (size 3 to 8) (size 9 to 14) (size 15 to 20)
#    0.000    2.571    1.429    2.571    0.000    5.714 
#    0.000    0.000    0.000    0.000    0.000    0.000 
#    0.000    1.143    0.000    7.714    0.000    7.429 
#
# Total GULP energy -694168.001830 kJ/mol
# GULP energy per Si atom -12395.857176 kJ/mol
# Density = 1.716046 g / cm^3
# Si number density = 17.199610 Si / 1000 Ang^3
#
#
#
# Elastic Constant Matrix: (Units=GPa)
#
#
# Indices 1 2 3 4 5 6 
#
# 1 143.5060 45.7005 66.6360 0.0000 0.0000 0.0000
# 2 45.7005 49.8568 37.0320 0.0000 0.0000 0.0000
# 3 66.6360 37.0320 102.4570 0.0000 0.0000 0.0000
# 4 0.0000 0.0000 0.0000 16.4463 0.0000 0.0000
# 5 0.0000 0.0000 0.0000 0.0000 32.1393 0.0000
# 6 0.0000 0.0000 0.0000 0.0000 0.0000 10.7740
#
#
#
# Elastic Compliance Matrix: (Units=1/GPa)
#
#
# Indices 1 2 3 4 5 6 
#
# 1 0.011447 -0.006784 -0.004993 0.000000 0.000000 0.000000
# 2 -0.006784 0.031439 -0.006951 0.000000 0.000000 0.000000
# 3 -0.004993 -0.006951 0.015520 0.000000 0.000000 0.000000
# 4 0.000000 0.000000 0.000000 0.060804 0.000000 0.000000
# 5 0.000000 0.000000 0.000000 0.000000 0.031115 0.000000
# 6 0.000000 0.000000 0.000000 0.000000 0.000000 0.092816
#
#
# Mechanical properties :
#
#
# Convention : Reuss Voigt Hill
#
# Bulk Modulus (GPa) = 47.73314 66.06185 56.89749
# Shear Modulus (GPa) = 17.38641 21.63532 19.51086
#
# Velocity S-wave (km/s) = 3.18285 3.55053 3.37171
# Velocity P-wave (km/s) = 6.42807 7.43644 6.95057
#
# Compressibility (1/GPa) = 0.02094980
#
# Stress axis : x y z
#
# Youngs Moduli (GPa) = 87.35647 31.80740 64.43358
#
# Poissons Ratio (x) = 0.21580 0.32171
# Poissons Ratio (y) = 0.59266 0.44787
# Poissons Ratio (z) = 0.43617 0.22109
#
# Static dielectric constant tensor:
#      x y z
#    x 3.880260 0.000000 0.000000 
#    y 0.000000 2.626650 0.000000 
#    z 0.000000 0.000000 3.351480 
# 
# 
# High freq. dielectric constant tensor:
#      x y z
#    x 1.685400 0.000000 0.000000 
#    y 0.000000 1.583920 0.000000 
#    z 0.000000 0.000000 1.676140 
# 
# From -- ./inp_files/7322.got.cif
#   From: 2010.03.12/outbox.cif.g09.slc.cpg/sg57_4_cif.got.tgz:7322.got - 2010.04.16 15:48:40.
