data_PCOD8230788
_publ_section_title
;
Structure prediction by ZEFSAII (Michael W. Deem and Ramdas Pophale) SiO2 
 PCOD8230788
Probable space group: P B C M
;
_chemical_formula_sum "Si O2"
_cell_formula_units_Z 64
_cell_length_a 15.420263
_cell_length_b 28.519479
_cell_length_c 8.810501
_cell_angle_alpha 90.000000
_cell_angle_beta 90.000000
_cell_angle_gamma 90.000000
_cell_volume 3874.663335
_symmetry_space_group_name_H-M "P B C M"
_symmetry_group_IT_number 57
_symmetry_cell_setting 'orthorhombic'
loop_
_space_group_symop_operation_xyz
x,y,z
-x,-y,1/2+z
x,1/2-y,-z
-x,1/2+y,1/2-z
-x,-y,-z
x,y,1/2-z
-x,1/2+y,z
x,1/2-y,1/2+z
loop_
_atom_site_type_symbol
_atom_site_label
_atom_site_fract_x
_atom_site_fract_y
_atom_site_fract_z
Si Si1 0.651205 0.643053 0.073037
Si Si2 0.601437 0.541866 0.425732
Si Si3 0.660269 0.150483 0.430472
Si Si4 0.500561 0.700554 0.570285
Si Si5 0.989639 0.699674 0.925593
Si Si6 0.594625 0.448987 0.928502
Si Si7 0.818582 0.301145 0.072684
Si Si8 0.179212 0.198795 0.428913
O O1 0.629957 0.652230 0.250000
O O2 0.660131 0.587438 0.040954
O O3 0.740624 0.666561 0.021568
O O4 0.572609 0.662738 0.974375
O O5 0.598625 0.529607 0.250000
O O6 0.504539 0.552717 0.486363
O O7 0.640731 0.496069 0.508559
O O8 0.653275 0.154891 0.250000
O O9 0.592395 0.186196 0.504321
O O10 0.642270 0.097640 0.488190
O O11 0.755743 0.163253 0.487174
O O12 0.529073 0.750000 0.500000
O O13 0.494290 0.704896 0.750000
O O14 0.966218 0.704571 0.750000
O O15 0.084558 0.676738 0.948812
O O16 0.995093 0.750000 0.000000
O O17 0.908965 0.673660 0.008305
O O18 0.599833 0.450243 0.750000
O O19 0.795028 0.297065 0.250000
O O20 0.810132 0.250000 0.000000
O O21 0.192556 0.250000 0.500000
O O22 0.173105 0.203691 0.250000
#
# Coordination Sequence:
#
# PCOD8230788 Si02
#       8
#     8   8   8   8   8   8   8   8
#     4  10  20  35  50  70  98 129 162 199 240 283
#     4   9  17  32  51  69  94 123 156 199 242 283
#     4  11  21  35  51  69  97 129 160 199 240 284
#     4  12  24  35  48  66  94 132 168 199 232 279
#     4   9  17  30  48  68  95 124 157 199 240 279
#     4   9  18  32  50  70  93 122 157 198 242 284
#     4  10  20  33  49  72  98 128 163 199 238 285
#     4  10  19  30  48  70  97 128 162 197 235 282
#
# _framework density 16.517564
#
# number of rings (size 3 to 8) (size 9 to 14) (size 15 to 20)
#    0.000    2.000    1.250    4.125    0.000    5.000 
#    0.000    0.000    0.000    0.000    0.000    0.875 
#    0.000    0.000    0.000    0.000    0.000    0.000 
#
# Total GULP energy -793447.754812 kJ/mol
# GULP energy per Si atom -12397.621169 kJ/mol
# Density = 1.647997 g / cm^3
# Si number density = 16.517564 Si / 1000 Ang^3
#
#
#
# Elastic Constant Matrix: (Units=GPa)
#
#
# Indices 1 2 3 4 5 6 
#
# 1 94.9850 33.1999 32.3931 0.0000 0.0000 0.0000
# 2 33.1999 87.2949 25.6939 0.0000 0.0000 0.0000
# 3 32.3931 25.6939 74.2627 0.0000 0.0000 0.0000
# 4 0.0000 0.0000 0.0000 25.8984 0.0000 0.0000
# 5 0.0000 0.0000 0.0000 0.0000 26.3792 0.0000
# 6 0.0000 0.0000 0.0000 0.0000 0.0000 9.0021
#
#
#
# Elastic Compliance Matrix: (Units=1/GPa)
#
#
# Indices 1 2 3 4 5 6 
#
# 1 0.013389 -0.003756 -0.004541 0.000000 0.000000 0.000000
# 2 -0.003756 0.013808 -0.003139 0.000000 0.000000 0.000000
# 3 -0.004541 -0.003139 0.016533 0.000000 0.000000 0.000000
# 4 0.000000 0.000000 0.000000 0.038612 0.000000 0.000000
# 5 0.000000 0.000000 0.000000 0.000000 0.037909 0.000000
# 6 0.000000 0.000000 0.000000 0.000000 0.000000 0.111085
#
#
# Mechanical properties :
#
#
# Convention : Reuss Voigt Hill
#
# Bulk Modulus (GPa) = 47.94283 48.79070 48.36677
# Shear Modulus (GPa) = 19.14538 23.27300 21.20919
#
# Velocity S-wave (km/s) = 3.40824 3.75772 3.58724
# Velocity P-wave (km/s) = 6.67656 6.95917 6.81933
#
# Compressibility (1/GPa) = 0.02085818
#
# Stress axis : x y z
#
# Youngs Moduli (GPa) = 74.68648 72.42333 60.48674
#
# Poissons Ratio (x) = 0.27200 0.27467
# Poissons Ratio (y) = 0.28050 0.18987
# Poissons Ratio (z) = 0.33915 0.22734
#
# Static dielectric constant tensor:
#      x y z
#    x 3.440960 0.000000 0.000000 
#    y 0.000000 3.075020 0.000000 
#    z 0.000000 0.000000 3.175980 
# 
# 
# High freq. dielectric constant tensor:
#      x y z
#    x 1.625680 0.000000 0.000000 
#    y 0.000000 1.613780 0.000000 
#    z 0.000000 0.000000 1.647070 
# 
# From -- ./inp_files/5978.got.cif
#   From: 2010.03.12/outbox.cif.g09.slc.cpg/sg57_3_cif.got.tgz:5978.got - 2010.04.16 15:48:40.
