data_PCOD8230758
_publ_section_title
;
Structure prediction by ZEFSAII (Michael W. Deem and Ramdas Pophale) SiO2 
 PCOD8230758
Probable space group: P B C M
;
_chemical_formula_sum "Si O2"
_cell_formula_units_Z 64
_cell_length_a 21.021398
_cell_length_b 19.100915
_cell_length_c 9.317764
_cell_angle_alpha 90.000000
_cell_angle_beta 90.000000
_cell_angle_gamma 90.000000
_cell_volume 3741.342551
_symmetry_space_group_name_H-M "P B C M"
_symmetry_group_IT_number 57
_symmetry_cell_setting 'orthorhombic'
loop_
_space_group_symop_operation_xyz
x,y,z
-x,-y,1/2+z
x,1/2-y,-z
-x,1/2+y,1/2-z
-x,-y,-z
x,y,1/2-z
-x,1/2+y,z
x,1/2-y,1/2+z
loop_
_atom_site_type_symbol
_atom_site_label
_atom_site_fract_x
_atom_site_fract_y
_atom_site_fract_z
Si Si1 0.806617 0.019980 0.907861
Si Si2 0.543825 0.679286 0.418911
Si Si3 0.603114 0.181010 0.416593
Si Si4 0.354607 0.098556 0.917770
Si Si5 0.759787 0.637327 0.091623
Si Si6 0.307704 0.556660 0.416162
Si Si7 0.896377 0.683320 0.081777
Si Si8 0.940232 0.968516 0.579678
O O1 0.806823 0.054716 0.750000
O O2 0.779088 0.942821 0.896764
O O3 0.878693 0.014384 0.967604
O O4 0.760990 0.065715 0.009070
O O5 0.564147 0.750000 0.500000
O O6 0.559317 0.685603 0.250000
O O7 0.470134 0.662439 0.446587
O O8 0.582487 0.616106 0.491596
O O9 0.624799 0.250000 0.500000
O O10 0.614852 0.195343 0.250000
O O11 0.644930 0.116353 0.473729
O O12 0.364704 0.114278 0.750000
O O13 0.340477 0.017481 0.948053
O O14 0.296572 0.146858 0.976037
O O15 0.736806 0.662463 0.250000
O O16 0.821602 0.680080 0.041062
O O17 0.293971 0.565955 0.250000
O O18 0.905482 0.694284 0.250000
O O19 0.931648 0.612360 0.032068
O O20 0.926485 0.750000 0.000000
O O21 0.949213 0.973015 0.750000
O O22 0.000000 0.000000 0.500000
#
# Coordination Sequence:
#
# PCOD8230758 Si02
#       8
#     8   8   8   8   8   8   8   8
#     4   8  15  29  48  70  95 121 152 189 228 273
#     4  10  20  34  49  64  88 123 160 198 241 289
#     4   9  19  35  52  70  92 120 157 201 247 294
#     4  10  19  30  46  70  98 126 157 193 235 284
#     4   8  15  29  45  62  90 125 156 188 227 272
#     4   9  18  32  50  73  99 123 152 196 243 284
#     4   9  18  31  47  69  97 127 161 200 236 274
#     4   9  18  32  50  74 102 131 163 197 234 279
#
# _framework density 17.106158000000001
#
# number of rings (size 3 to 8) (size 9 to 14) (size 15 to 20)
#    0.000    3.000    0.000    2.250    0.000    4.000 
#    0.000    3.750    0.000    0.750    0.000    0.000 
#    0.000    0.000    0.000    0.000    0.000    0.000 
#
# Total GULP energy -793357.347190 kJ/mol
# GULP energy per Si atom -12396.208550 kJ/mol
# Density = 1.706722 g / cm^3
# Si number density = 17.106158 Si / 1000 Ang^3
#
#
#
# Elastic Constant Matrix: (Units=GPa)
#
#
# Indices 1 2 3 4 5 6 
#
# 1 116.2896 61.7625 60.3926 0.0000 0.0000 0.0000
# 2 61.7625 82.9104 50.9879 0.0000 0.0000 0.0000
# 3 60.3926 50.9879 78.7862 0.0000 0.0000 0.0000
# 4 0.0000 0.0000 0.0000 26.3424 0.0000 0.0000
# 5 0.0000 0.0000 0.0000 0.0000 31.3171 0.0000
# 6 0.0000 0.0000 0.0000 0.0000 0.0000 20.2684
#
#
#
# Elastic Compliance Matrix: (Units=1/GPa)
#
#
# Indices 1 2 3 4 5 6 
#
# 1 0.016753 -0.007612 -0.007915 0.000000 0.000000 0.000000
# 2 -0.007612 0.023493 -0.009370 0.000000 0.000000 0.000000
# 3 -0.007915 -0.009370 0.024824 0.000000 0.000000 0.000000
# 4 0.000000 0.000000 0.000000 0.037962 0.000000 0.000000
# 5 0.000000 0.000000 0.000000 0.000000 0.031931 0.000000
# 6 0.000000 0.000000 0.000000 0.000000 0.000000 0.049338
#
#
# Mechanical properties :
#
#
# Convention : Reuss Voigt Hill
#
# Bulk Modulus (GPa) = 65.46052 69.36357 67.41204
# Shear Modulus (GPa) = 20.90420 22.57512 21.73966
#
# Velocity S-wave (km/s) = 3.49954 3.63672 3.56879
# Velocity P-wave (km/s) = 7.39455 7.63356 7.51500
#
# Compressibility (1/GPa) = 0.01527638
#
# Stress axis : x y z
#
# Youngs Moduli (GPa) = 59.69223 42.56503 40.28401
#
# Poissons Ratio (x) = 0.32399 0.31887
# Poissons Ratio (y) = 0.45436 0.37744
# Poissons Ratio (z) = 0.47249 0.39882
#
# Static dielectric constant tensor:
#      x y z
#    x 3.267040 0.000000 0.000000 
#    y 0.000000 3.073800 0.000000 
#    z 0.000000 0.000000 3.273720 
# 
# 
# High freq. dielectric constant tensor:
#      x y z
#    x 1.651210 0.000000 0.000000 
#    y 0.000000 1.637720 0.000000 
#    z 0.000000 0.000000 1.661740 
# 
# From -- ./inp_files/9541.got.cif
#   From: 2010.03.12/outbox.cif.g09.slc.cpg/sg57_5_cif.got.tgz:9541.got - 2010.04.16 15:48:40.
