data_PCOD8230157
_publ_section_title
;
Structure prediction by ZEFSAII (Michael W. Deem and Ramdas Pophale) SiO2 
 PCOD8230157
Probable space group: P B C M
;
_chemical_formula_sum "Si O2"
_cell_formula_units_Z 64
_cell_length_a 26.590080
_cell_length_b 18.409273
_cell_length_c 8.750497
_cell_angle_alpha 90.000000
_cell_angle_beta 90.000000
_cell_angle_gamma 90.000000
_cell_volume 4283.403649
_symmetry_space_group_name_H-M "P B C M"
_symmetry_group_IT_number 57
_symmetry_cell_setting 'orthorhombic'
loop_
_space_group_symop_operation_xyz
x,y,z
-x,-y,1/2+z
x,1/2-y,-z
-x,1/2+y,1/2-z
-x,-y,-z
x,y,1/2-z
-x,1/2+y,z
x,1/2-y,1/2+z
loop_
_atom_site_type_symbol
_atom_site_label
_atom_site_fract_x
_atom_site_fract_y
_atom_site_fract_z
Si Si1 0.547779 0.962828 0.572813
Si Si2 0.191464 0.825187 0.571365
Si Si3 0.604219 0.419405 0.569497
Si Si4 0.993784 0.170245 0.567150
Si Si5 0.953314 0.956059 0.932868
Si Si6 0.901975 0.418677 0.931133
Si Si7 0.509638 0.327102 0.926936
Si Si8 0.303866 0.826082 0.930599
O O1 0.548867 0.980635 0.750000
O O2 0.540460 0.876436 0.543572
O O3 0.500000 0.000000 0.500000
O O4 0.597468 0.998813 0.497571
O O5 0.172340 0.750000 0.500000
O O6 0.192157 0.811997 0.750000
O O7 0.153425 0.889548 0.527648
O O8 0.247464 0.845908 0.512544
O O9 0.601552 0.425762 0.750000
O O10 0.559770 0.366551 0.507424
O O11 0.657874 0.388454 0.513179
O O12 0.998714 0.250000 0.500000
O O13 0.994270 0.171367 0.750000
O O14 0.942247 0.134848 0.507967
O O15 0.041948 0.124913 0.502472
O O16 0.953591 0.953950 0.750000
O O17 0.904835 0.000092 0.996151
O O18 0.000000 0.000000 0.000000
O O19 0.911990 0.421247 0.750000
O O20 0.518688 0.314102 0.750000
O O21 0.499713 0.250000 0.000000
O O22 0.306176 0.818400 0.750000
O O23 0.321718 0.750000 0.000000
#
# Coordination Sequence:
#
# PCOD8230157 Si02
#       8
#     8   8   8   8   8   8   8   8
#     4   9  17  28  40  56  78 102 132 164 197 235
#     4   9  18  29  42  59  82 110 140 174 208 239
#     4   9  17  28  41  57  79 106 137 167 199 236
#     4  11  20  30  43  61  84 110 139 171 205 243
#     4  10  18  29  43  60  81 107 137 170 206 244
#     4  10  18  29  43  60  82 111 143 172 205 244
#     4   9  17  26  37  56  78 102 130 162 194 232
#     4   9  17  29  42  59  82 108 139 174 206 239
#
# _framework density 14.941388999999999
#
# number of rings (size 3 to 8) (size 9 to 14) (size 15 to 20)
#    0.000    2.500    0.000    6.000    0.000    5.000 
#    0.000    0.000    0.000    0.000    0.000    0.000 
#    0.000    1.000    0.000    4.250    0.000    3.875 
#
# Total GULP energy -793104.031615 kJ/mol
# GULP energy per Si atom -12392.250494 kJ/mol
# Density = 1.490738 g / cm^3
# Si number density = 14.941389 Si / 1000 Ang^3
#
#
#
# Elastic Constant Matrix: (Units=GPa)
#
#
# Indices 1 2 3 4 5 6 
#
# 1 78.2127 53.0077 32.0703 0.0000 0.0000 0.0000
# 2 53.0077 105.2964 44.0771 0.0000 0.0000 0.0000
# 3 32.0703 44.0771 72.7800 0.0000 0.0000 0.0000
# 4 0.0000 0.0000 0.0000 28.1720 0.0000 0.0000
# 5 0.0000 0.0000 0.0000 0.0000 16.3803 0.0000
# 6 0.0000 0.0000 0.0000 0.0000 0.0000 24.7904
#
#
#
# Elastic Compliance Matrix: (Units=1/GPa)
#
#
# Indices 1 2 3 4 5 6 
#
# 1 0.020108 -0.008592 -0.003657 0.000000 0.000000 0.000000
# 2 -0.008592 0.016393 -0.006142 0.000000 0.000000 0.000000
# 3 -0.003657 -0.006142 0.019071 0.000000 0.000000 0.000000
# 4 0.000000 0.000000 0.000000 0.035496 0.000000 0.000000
# 5 0.000000 0.000000 0.000000 0.000000 0.061049 0.000000
# 6 0.000000 0.000000 0.000000 0.000000 0.000000 0.040338
#
#
# Mechanical properties :
#
#
# Convention : Reuss Voigt Hill
#
# Bulk Modulus (GPa) = 53.21839 57.17769 55.19804
# Shear Modulus (GPa) = 21.23119 22.34414 21.78766
#
# Velocity S-wave (km/s) = 3.77366 3.87130 3.82279
# Velocity P-wave (km/s) = 7.39478 7.63765 7.51720
#
# Compressibility (1/GPa) = 0.01879050
#
# Stress axis : x y z
#
# Youngs Moduli (GPa) = 49.73066 61.00022 52.43441
#
# Poissons Ratio (x) = 0.52411 0.19177
# Poissons Ratio (y) = 0.42728 0.32206
# Poissons Ratio (z) = 0.18188 0.37467
#
# Static dielectric constant tensor:
#      x y z
#    x 3.049430 0.000000 0.000000 
#    y 0.000000 3.331380 0.000000 
#    z 0.000000 0.000000 2.987540 
# 
# 
# High freq. dielectric constant tensor:
#      x y z
#    x 1.538680 0.000000 0.000000 
#    y 0.000000 1.563140 0.000000 
#    z 0.000000 0.000000 1.583070 
# 
# From -- ./inp_files/9810.got.cif
#   From: 2010.03.12/outbox.cif.g09.slc.cpg/sg57_5_cif.got.tgz:9810.got - 2010.04.16 15:48:40.
