data_PCOD8230679
_publ_section_title
;
Structure prediction by ZEFSAII (Michael W. Deem and Ramdas Pophale) SiO2 
 PCOD8230679
Probable space group: P B C M
;
_chemical_formula_sum "Si O2"
_cell_formula_units_Z 64
_cell_length_a 14.817502
_cell_length_b 29.528412
_cell_length_c 8.673655
_cell_angle_alpha 90.000000
_cell_angle_beta 90.000000
_cell_angle_gamma 90.000000
_cell_volume 3795.047623
_symmetry_space_group_name_H-M "P B C M"
_symmetry_group_IT_number 57
_symmetry_cell_setting 'orthorhombic'
loop_
_space_group_symop_operation_xyz
x,y,z
-x,-y,1/2+z
x,1/2-y,-z
-x,1/2+y,1/2-z
-x,-y,-z
x,y,1/2-z
-x,1/2+y,z
x,1/2-y,1/2+z
loop_
_atom_site_type_symbol
_atom_site_label
_atom_site_fract_x
_atom_site_fract_y
_atom_site_fract_z
Si Si1 0.964455 0.111615 0.931644
Si Si2 0.207065 0.203851 0.930437
Si Si3 0.625733 0.025059 0.571303
Si Si4 0.130455 0.061928 0.428011
Si Si5 0.173710 0.537609 0.567827
Si Si6 0.699311 0.623049 0.075052
Si Si7 0.558608 0.565344 0.574064
Si Si8 0.011836 0.202424 0.432124
O O1 0.956461 0.118208 0.750000
O O2 0.886557 0.078551 0.998758
O O3 0.061324 0.090256 0.969583
O O4 0.950786 0.160650 0.010099
O O5 0.188618 0.209227 0.750000
O O6 0.247638 0.250000 0.000000
O O7 0.278153 0.164445 0.962658
O O8 0.113405 0.192335 0.014148
O O9 0.628813 0.008996 0.750000
O O10 0.722259 0.045015 0.518276
O O11 0.549564 0.063654 0.547653
O O12 0.602224 0.982768 0.465479
O O13 0.099401 0.064236 0.250000
O O14 0.229896 0.082478 0.448141
O O15 0.135196 0.010549 0.491955
O O16 0.165617 0.537084 0.750000
O O17 0.698957 0.640695 0.250000
O O18 0.600364 0.604655 0.031712
O O19 0.582144 0.576535 0.750000
O O20 0.975747 0.250000 0.500000
O O21 0.008613 0.205276 0.250000
#
# Coordination Sequence:
#
# PCOD8230679 Si02
#       8
#     8   8   8   8   8   8   8   8
#     4  11  21  32  49  72  98 130 169 208 246 291
#     4  11  21  34  52  74 100 127 164 203 245 295
#     4   9  17  33  50  67  96 131 166 206 250 293
#     4  10  19  32  48  66  96 137 174 202 238 287
#     4   9  18  33  50  68  95 135 174 207 247 292
#     4  11  20  32  51  71 100 136 168 201 246 296
#     4  10  19  29  48  74  97 125 165 209 249 292
#     4  11  21  35  52  71  97 127 162 202 249 294
#
# _framework density 16.864083000000001
#
# number of rings (size 3 to 8) (size 9 to 14) (size 15 to 20)
#    0.000    1.750    2.500    4.500    0.000    1.000 
#    0.000    1.875    0.000    0.000    0.000    0.875 
#    0.000    4.000    0.000    0.000    0.000    0.000 
#
# Total GULP energy -793666.492555 kJ/mol
# GULP energy per Si atom -12401.038946 kJ/mol
# Density = 1.682570 g / cm^3
# Si number density = 16.864083 Si / 1000 Ang^3
#
#
#
# Elastic Constant Matrix: (Units=GPa)
#
#
# Indices 1 2 3 4 5 6 
#
# 1 66.7044 38.5295 21.8590 0.0000 0.0000 0.0000
# 2 38.5295 120.4606 35.7377 0.0000 0.0000 0.0000
# 3 21.8590 35.7377 82.3770 0.0000 0.0000 0.0000
# 4 0.0000 0.0000 0.0000 26.7385 0.0000 0.0000
# 5 0.0000 0.0000 0.0000 0.0000 17.1504 0.0000
# 6 0.0000 0.0000 0.0000 0.0000 0.0000 21.2710
#
#
#
# Elastic Compliance Matrix: (Units=1/GPa)
#
#
# Indices 1 2 3 4 5 6 
#
# 1 0.018916 -0.005235 -0.002748 0.000000 0.000000 0.000000
# 2 -0.005235 0.010977 -0.003373 0.000000 0.000000 0.000000
# 3 -0.002748 -0.003373 0.014332 0.000000 0.000000 0.000000
# 4 0.000000 0.000000 0.000000 0.037399 0.000000 0.000000
# 5 0.000000 0.000000 0.000000 0.000000 0.058308 0.000000
# 6 0.000000 0.000000 0.000000 0.000000 0.000000 0.047012
#
#
# Mechanical properties :
#
#
# Convention : Reuss Voigt Hill
#
# Bulk Modulus (GPa) = 46.48555 51.31049 48.89802
# Shear Modulus (GPa) = 23.05993 24.59304 23.82649
#
# Velocity S-wave (km/s) = 3.70185 3.82292 3.76287
# Velocity P-wave (km/s) = 6.77468 7.06953 6.92367
#
# Compressibility (1/GPa) = 0.02151206
#
# Stress axis : x y z
#
# Youngs Moduli (GPa) = 52.86550 91.10367 69.77474
#
# Poissons Ratio (x) = 0.47692 0.19176
# Poissons Ratio (y) = 0.27675 0.23534
# Poissons Ratio (z) = 0.14529 0.30728
#
# Static dielectric constant tensor:
#      x y z
#    x 3.157420 0.000000 0.000000 
#    y 0.000000 3.023600 0.000000 
#    z 0.000000 0.000000 3.126500 
# 
# 
# High freq. dielectric constant tensor:
#      x y z
#    x 1.624880 0.000000 0.000000 
#    y 0.000000 1.641260 0.000000 
#    z 0.000000 0.000000 1.652450 
# 
# From -- ./inp_files/5963.got.cif
#   From: 2010.03.12/outbox.cif.g09.slc.cpg/sg57_3_cif.got.tgz:5963.got - 2010.04.16 15:48:40.
