data_PCOD8230864
_publ_section_title
;
Structure prediction by ZEFSAII (Michael W. Deem and Ramdas Pophale) SiO2 
 PCOD8230864
Probable space group: P B C M
;
_chemical_formula_sum "Si O2"
_cell_formula_units_Z 48
_cell_length_a 13.739635
_cell_length_b 23.825154
_cell_length_c 8.743903
_cell_angle_alpha 90.000000
_cell_angle_beta 90.000000
_cell_angle_gamma 90.000000
_cell_volume 2862.307202
_symmetry_space_group_name_H-M "P B C M"
_symmetry_group_IT_number 57
_symmetry_cell_setting 'orthorhombic'
loop_
_space_group_symop_operation_xyz
x,y,z
-x,-y,1/2+z
x,1/2-y,-z
-x,1/2+y,1/2-z
-x,-y,-z
x,y,1/2-z
-x,1/2+y,z
x,1/2-y,1/2+z
loop_
_atom_site_type_symbol
_atom_site_label
_atom_site_fract_x
_atom_site_fract_y
_atom_site_fract_z
Si Si1 0.642748 0.479235 0.428807
Si Si2 0.954915 0.586801 0.572248
Si Si3 0.651250 0.691742 0.568644
Si Si4 0.860406 0.808804 0.569004
Si Si5 0.140277 0.517615 0.572496
Si Si6 0.455288 0.082181 0.929949
O O1 0.629743 0.487602 0.250000
O O2 0.752113 0.459693 0.469540
O O3 0.623282 0.539288 0.503544
O O4 0.564530 0.433012 0.488535
O O5 0.940632 0.600447 0.750000
O O6 0.936209 0.642753 0.475471
O O7 0.880665 0.537575 0.526543
O O8 0.064767 0.567162 0.533795
O O9 0.612430 0.750000 0.500000
O O10 0.662287 0.696830 0.750000
O O11 0.755434 0.675548 0.499164
O O12 0.573001 0.644829 0.518344
O O13 0.898005 0.750000 0.500000
O O14 0.852570 0.803291 0.750000
O O15 0.132122 0.500291 0.750000
O O16 0.448573 0.077169 0.750000
#
# Coordination Sequence:
#
# PCOD8230864 Si02
#       6
#     8   8   8   8   8   8
#     4   9  17  30  47  67  91 120 153 185 221 267
#     4  10  19  31  47  69  96 123 153 190 231 272
#     4  10  19  31  47  68  93 120 150 184 225 269
#     4  11  21  33  49  69  93 121 153 188 229 274
#     4   9  18  31  48  69  93 124 157 189 227 271
#     4   9  18  30  45  67  93 120 149 185 226 266
#
# _framework density 16.769687999999999
#
# number of rings (size 3 to 8) (size 9 to 14) (size 15 to 20)
#    0.000    2.333    0.000    4.500    0.000    5.333 
#    0.000    0.000    0.000    1.000    0.000    2.333 
#    0.000    0.000    0.000    0.000    0.000    0.000 
#
# Total GULP energy -595162.642110 kJ/mol
# GULP energy per Si atom -12399.221711 kJ/mol
# Density = 1.673152 g / cm^3
# Si number density = 16.769688 Si / 1000 Ang^3
#
#
#
# Elastic Constant Matrix: (Units=GPa)
#
#
# Indices 1 2 3 4 5 6 
#
# 1 112.3517 71.9847 27.8162 0.0000 0.0000 0.0000
# 2 71.9847 130.3783 47.0600 0.0000 0.0000 0.0000
# 3 27.8162 47.0600 62.2312 0.0000 0.0000 0.0000
# 4 0.0000 0.0000 0.0000 29.2479 0.0000 0.0000
# 5 0.0000 0.0000 0.0000 0.0000 20.6601 0.0000
# 6 0.0000 0.0000 0.0000 0.0000 0.0000 24.4803
#
#
#
# Elastic Compliance Matrix: (Units=1/GPa)
#
#
# Indices 1 2 3 4 5 6 
#
# 1 0.013787 -0.007410 -0.000559 0.000000 0.000000 0.000000
# 2 -0.007410 0.014533 -0.007677 0.000000 0.000000 0.000000
# 3 -0.000559 -0.007677 0.022125 0.000000 0.000000 0.000000
# 4 0.000000 0.000000 0.000000 0.034191 0.000000 0.000000
# 5 0.000000 0.000000 0.000000 0.000000 0.048403 0.000000
# 6 0.000000 0.000000 0.000000 0.000000 0.000000 0.040849
#
#
# Mechanical properties :
#
#
# Convention : Reuss Voigt Hill
#
# Bulk Modulus (GPa) = 52.21631 66.52035 59.36833
# Shear Modulus (GPa) = 23.63365 25.41767 24.52566
#
# Velocity S-wave (km/s) = 3.75815 3.89741 3.82841
# Velocity P-wave (km/s) = 7.07365 7.74637 7.41764
#
# Compressibility (1/GPa) = 0.01915110
#
# Stress axis : x y z
#
# Youngs Moduli (GPa) = 72.53304 68.81094 45.19867
#
# Poissons Ratio (x) = 0.50991 0.02525
# Poissons Ratio (y) = 0.53750 0.34701
# Poissons Ratio (z) = 0.04052 0.52829
#
# Static dielectric constant tensor:
#      x y z
#    x 3.028780 0.000000 0.000000 
#    y 0.000000 3.119610 0.000000 
#    z 0.000000 0.000000 3.205510 
# 
# 
# High freq. dielectric constant tensor:
#      x y z
#    x 1.636900 0.000000 0.000000 
#    y 0.000000 1.636170 0.000000 
#    z 0.000000 0.000000 1.654330 
# 
# From -- ./inp_files/5334.got.cif
#   From: 2010.03.12/outbox.cif.g09.slc.cpg/sg57_3_cif.got.tgz:5334.got - 2010.04.16 15:48:40.
