data_PCOD8230579
_publ_section_title
;
Structure prediction by ZEFSAII (Michael W. Deem and Ramdas Pophale) SiO2 
 PCOD8230579
Probable space group: P B C M
;
_chemical_formula_sum "Si O2"
_cell_formula_units_Z 40
_cell_length_a 9.072121
_cell_length_b 15.952841
_cell_length_c 13.207798
_cell_angle_alpha 90.000000
_cell_angle_beta 90.000000
_cell_angle_gamma 90.000000
_cell_volume 1911.513145
_symmetry_space_group_name_H-M "P B C M"
_symmetry_group_IT_number 57
_symmetry_cell_setting 'orthorhombic'
loop_
_space_group_symop_operation_xyz
x,y,z
-x,-y,1/2+z
x,1/2-y,-z
-x,1/2+y,1/2-z
-x,-y,-z
x,y,1/2-z
-x,1/2+y,z
x,1/2-y,1/2+z
loop_
_atom_site_type_symbol
_atom_site_label
_atom_site_fract_x
_atom_site_fract_y
_atom_site_fract_z
Si Si1 0.154857 0.255017 0.750000
Si Si2 0.664027 0.992506 0.963021
Si Si3 0.893739 0.871817 0.425227
Si Si4 0.188333 0.839742 0.970846
Si Si5 0.853526 0.142747 0.250000
Si Si6 0.993844 0.519669 0.750000
Si Si7 0.288900 0.075218 0.250000
O O1 0.173706 0.201141 0.853863
O O2 0.286612 0.323213 0.750000
O O3 0.997122 0.298774 0.750000
O O4 0.636125 0.962397 0.848961
O O5 0.761621 0.924062 0.023881
O O6 0.500000 0.000000 0.000000
O O7 0.738337 0.084077 0.968125
O O8 0.996213 0.927132 0.351880
O O9 0.009055 0.841244 0.511639
O O10 0.233048 0.840304 0.853047
O O11 0.254598 0.750000 0.000000
O O12 0.855890 0.041694 0.250000
O O13 0.122305 0.453657 0.750000
#
# Coordination Sequence:
#
# PCOD8230579 Si02
#       7
#     4   8   8   8   4   4   4
#     4  10  22  37  70 112 130 173 229 304 342 409
#     4  12  28  47  69  97 148 194 226 277 348 431
#     4  11  21  40  70 103 134 173 232 289 346 397
#     4  12  24  42  68 104 132 172 234 297 344 394
#     4  11  20  35  63  98 136 160 224 290 354 389
#     4  10  18  35  71  96 128 169 230 286 346 391
#     4  11  24  43  70 100 136 180 241 278 350 413
#
# _framework density 20.925830000000001
#
# number of rings (size 3 to 8) (size 9 to 14) (size 15 to 20)
#    0.000    0.800    6.000    3.000    0.000    3.200 
#    3.600    0.000    0.000    0.000    0.000    0.000 
#    0.000    0.000    0.000    0.000    0.000    0.000 
#
# Total GULP energy -495599.100463 kJ/mol
# GULP energy per Si atom -12389.977512 kJ/mol
# Density = 2.087820 g / cm^3
# Si number density = 20.925830 Si / 1000 Ang^3
#
#
#
# Elastic Constant Matrix: (Units=GPa)
#
#
# Indices 1 2 3 4 5 6 
#
# 1 81.4857 37.7715 34.7315 0.0000 0.0000 0.0000
# 2 37.7715 159.9819 53.7544 0.0000 0.0000 0.0000
# 3 34.7315 53.7544 149.9725 0.0000 0.0000 0.0000
# 4 0.0000 0.0000 0.0000 4.5439 0.0000 0.0000
# 5 0.0000 0.0000 0.0000 0.0000 10.0039 0.0000
# 6 0.0000 0.0000 0.0000 0.0000 0.0000 13.9185
#
#
#
# Elastic Compliance Matrix: (Units=1/GPa)
#
#
# Indices 1 2 3 4 5 6 
#
# 1 0.014517 -0.002612 -0.002426 0.000000 0.000000 0.000000
# 2 -0.002612 0.007577 -0.002111 0.000000 0.000000 0.000000
# 3 -0.002426 -0.002111 0.007986 0.000000 0.000000 0.000000
# 4 0.000000 0.000000 0.000000 0.220077 0.000000 0.000000
# 5 0.000000 0.000000 0.000000 0.000000 0.099961 0.000000
# 6 0.000000 0.000000 0.000000 0.000000 0.000000 0.071847
#
#
# Mechanical properties :
#
#
# Convention : Reuss Voigt Hill
#
# Bulk Modulus (GPa) = 63.36175 71.55054 67.45615
# Shear Modulus (GPa) = 11.32446 23.37211 17.34828
#
# Velocity S-wave (km/s) = 2.32883 3.34563 2.88242
# Velocity P-wave (km/s) = 6.12994 7.01363 6.58663
#
# Compressibility (1/GPa) = 0.01578239
#
# Stress axis : x y z
#
# Youngs Moduli (GPa) = 68.88533 131.98360 125.21683
#
# Poissons Ratio (x) = 0.34480 0.30372
# Poissons Ratio (y) = 0.17996 0.26430
# Poissons Ratio (z) = 0.16708 0.27858
#
# Static dielectric constant tensor:
#      x y z
#    x 3.250000 0.000000 0.000000 
#    y 0.000000 4.226740 0.000000 
#    z 0.000000 0.000000 3.683340 
# 
# 
# High freq. dielectric constant tensor:
#      x y z
#    x 1.762270 0.000000 0.000000 
#    y 0.000000 1.843740 0.000000 
#    z 0.000000 0.000000 1.842050 
# 
# From -- ./inp_files/11622.got.cif
#   From: 2010.03.12/outbox.cif.g09.slc.cpg/sg57_6_cif.got.tgz:11622.got - 2010.04.16 15:48:40.
