data_PCOD8230786
_publ_section_title
;
Structure prediction by ZEFSAII (Michael W. Deem and Ramdas Pophale) SiO2 
 PCOD8230786
Probable space group: P B C M
;
_chemical_formula_sum "Si O2"
_cell_formula_units_Z 48
_cell_length_a 16.052231
_cell_length_b 18.598709
_cell_length_c 9.167738
_cell_angle_alpha 90.000000
_cell_angle_beta 90.000000
_cell_angle_gamma 90.000000
_cell_volume 2737.035268
_symmetry_space_group_name_H-M "P B C M"
_symmetry_group_IT_number 57
_symmetry_cell_setting 'orthorhombic'
loop_
_space_group_symop_operation_xyz
x,y,z
-x,-y,1/2+z
x,1/2-y,-z
-x,1/2+y,1/2-z
-x,-y,-z
x,y,1/2-z
-x,1/2+y,z
x,1/2-y,1/2+z
loop_
_atom_site_type_symbol
_atom_site_label
_atom_site_fract_x
_atom_site_fract_y
_atom_site_fract_z
Si Si1 0.836135 0.321536 0.920252
Si Si2 0.422656 0.467914 0.083543
Si Si3 0.667843 0.823666 0.424406
Si Si4 0.248110 0.966484 0.581520
Si Si5 0.814390 0.599396 0.079755
Si Si6 0.023049 0.319887 0.582519
O O1 0.831455 0.306028 0.750000
O O2 0.774573 0.385777 0.965131
O O3 0.930298 0.342625 0.969329
O O4 0.804744 0.250000 0.000000
O O5 0.449485 0.465843 0.250000
O O6 0.397455 0.387031 0.034094
O O7 0.345941 0.521822 0.056791
O O8 0.500000 0.500000 0.000000
O O9 0.636837 0.750000 0.500000
O O10 0.675381 0.814506 0.250000
O O11 0.757710 0.844923 0.488974
O O12 0.223901 0.981993 0.750000
O O13 0.196156 0.019057 0.478381
O O14 0.789980 0.604496 0.250000
O O15 0.911518 0.616641 0.053153
O O16 0.055423 0.250000 0.500000
O O17 0.020736 0.298145 0.750000
#
# Coordination Sequence:
#
# PCOD8230786 Si02
#       6
#     8   8   8   8   8   8
#     4   9  18  34  52  69  95 130 166 205 244 284
#     4   9  19  35  54  75  99 127 159 197 243 294
#     4  10  20  34  52  76 104 133 165 200 243 294
#     4   9  19  35  52  71  97 128 161 200 249 298
#     4  10  19  30  47  73 102 131 165 203 242 288
#     4   9  18  30  45  68  97 130 167 203 240 282
#
# _framework density 17.537223999999998
#
# number of rings (size 3 to 8) (size 9 to 14) (size 15 to 20)
#    0.000    2.667    0.000    2.500    0.000    7.333 
#    0.000    0.833    0.000    4.000    0.000    0.000 
#    0.000    0.000    0.000    0.000    0.000    0.000 
#
# Total GULP energy -595121.712165 kJ/mol
# GULP energy per Si atom -12398.369003 kJ/mol
# Density = 1.749731 g / cm^3
# Si number density = 17.537224 Si / 1000 Ang^3
#
#
#
# Elastic Constant Matrix: (Units=GPa)
#
#
# Indices 1 2 3 4 5 6 
#
# 1 86.9055 75.1553 44.4422 0.0000 0.0000 0.0000
# 2 75.1553 143.6161 58.6959 0.0000 0.0000 0.0000
# 3 44.4422 58.6959 68.1831 0.0000 0.0000 0.0000
# 4 0.0000 0.0000 0.0000 34.5971 0.0000 0.0000
# 5 0.0000 0.0000 0.0000 0.0000 26.3972 0.0000
# 6 0.0000 0.0000 0.0000 0.0000 0.0000 25.0945
#
#
#
# Elastic Compliance Matrix: (Units=1/GPa)
#
#
# Indices 1 2 3 4 5 6 
#
# 1 0.023088 -0.009151 -0.007171 0.000000 0.000000 0.000000
# 2 -0.009151 0.014370 -0.006406 0.000000 0.000000 0.000000
# 3 -0.007171 -0.006406 0.024855 0.000000 0.000000 0.000000
# 4 0.000000 0.000000 0.000000 0.028904 0.000000 0.000000
# 5 0.000000 0.000000 0.000000 0.000000 0.037883 0.000000
# 6 0.000000 0.000000 0.000000 0.000000 0.000000 0.039849
#
#
# Mechanical properties :
#
#
# Convention : Reuss Voigt Hill
#
# Bulk Modulus (GPa) = 59.32255 72.81016 66.06635
# Shear Modulus (GPa) = 22.72491 25.24519 23.98505
#
# Velocity S-wave (km/s) = 3.60364 3.79822 3.70221
# Velocity P-wave (km/s) = 7.15647 7.80019 7.48525
#
# Compressibility (1/GPa) = 0.01685700
#
# Stress axis : x y z
#
# Youngs Moduli (GPa) = 43.31297 69.59012 40.23388
#
# Poissons Ratio (x) = 0.63684 0.28851
# Poissons Ratio (y) = 0.39637 0.25772
# Poissons Ratio (z) = 0.31059 0.44576
#
# Static dielectric constant tensor:
#      x y z
#    x 3.175000 0.000000 0.000000 
#    y 0.000000 3.333320 0.000000 
#    z 0.000000 0.000000 3.317350 
# 
# 
# High freq. dielectric constant tensor:
#      x y z
#    x 1.664160 0.000000 0.000000 
#    y 0.000000 1.675070 0.000000 
#    z 0.000000 0.000000 1.681890 
# 
# From -- ./inp_files/4881.got.cif
#   From: 2010.03.12/outbox.cif.g09.slc.cpg/sg57_3_cif.got.tgz:4881.got - 2010.04.16 15:48:40.
