data_PCOD8230599
_publ_section_title
;
Structure prediction by ZEFSAII (Michael W. Deem and Ramdas Pophale) SiO2 
 PCOD8230599
Probable space group: P B C M
;
_chemical_formula_sum "Si O2"
_cell_formula_units_Z 44
_cell_length_a 8.537765
_cell_length_b 18.376078
_cell_length_c 13.765066
_cell_angle_alpha 90.000000
_cell_angle_beta 90.000000
_cell_angle_gamma 90.000000
_cell_volume 2159.609954
_symmetry_space_group_name_H-M "P B C M"
_symmetry_group_IT_number 57
_symmetry_cell_setting 'orthorhombic'
loop_
_space_group_symop_operation_xyz
x,y,z
-x,-y,1/2+z
x,1/2-y,-z
-x,1/2+y,1/2-z
-x,-y,-z
x,y,1/2-z
-x,1/2+y,z
x,1/2-y,1/2+z
loop_
_atom_site_type_symbol
_atom_site_label
_atom_site_fract_x
_atom_site_fract_y
_atom_site_fract_z
Si Si1 0.012124 0.350920 0.750000
Si Si2 0.028533 0.227117 0.903882
Si Si3 0.327520 0.443695 0.750000
Si Si4 0.683484 0.322069 0.453440
Si Si5 0.219747 0.521797 0.250000
Si Si6 0.559186 0.052474 0.416495
Si Si7 0.942584 0.875956 0.250000
Si Si8 0.693075 0.381585 0.250000
O O1 0.160954 0.404313 0.750000
O O2 0.002780 0.300461 0.843703
O O3 0.856038 0.399051 0.750000
O O4 0.867859 0.190915 0.941910
O O5 0.125940 0.165824 0.844725
O O6 0.126280 0.250000 0.000000
O O7 0.417546 0.418539 0.651894
O O8 0.316868 0.531319 0.750000
O O9 0.602670 0.250000 0.500000
O O10 0.654126 0.383206 0.533507
O O11 0.614008 0.346827 0.347426
O O12 0.322827 0.509124 0.154105
O O13 0.086338 0.460797 0.250000
O O14 0.500000 0.000000 0.500000
O O15 0.126328 0.857959 0.250000
#
# Coordination Sequence:
#
# PCOD8230599 Si02
#       8
#     4   8   4   8   4   8   4   4
#     4  11  22  41  67  94 124 163 220 273 316 388
#     4   9  19  37  61  91 123 157 204 267 315 369
#     4  11  23  41  62  92 138 168 203 276 339 364
#     4  10  20  38  66  92 121 170 219 257 313 383
#     4  11  22  37  64  92 118 163 220 257 313 391
#     4  11  24  41  61  93 130 170 214 261 323 395
#     4   9  19  34  56  93 121 153 206 259 323 359
#     4  10  18  37  63  91 129 163 203 277 321 360
#
# _framework density 20.37405
#
# number of rings (size 3 to 8) (size 9 to 14) (size 15 to 20)
#    0.000    1.818    2.727    2.727    0.000    2.909 
#    0.000    8.182    0.000    0.000    0.000    0.000 
#    0.000    0.000    0.000    0.000    0.000    0.000 
#
# Total GULP energy -545208.941104 kJ/mol
# GULP energy per Si atom -12391.112298 kJ/mol
# Density = 2.032768 g / cm^3
# Si number density = 20.374050 Si / 1000 Ang^3
#
#
#
# Elastic Constant Matrix: (Units=GPa)
#
#
# Indices 1 2 3 4 5 6 
#
# 1 55.5298 23.9443 29.5500 0.0000 0.0000 0.0000
# 2 23.9443 135.5973 67.7622 0.0000 0.0000 0.0000
# 3 29.5500 67.7622 182.7525 0.0000 0.0000 0.0000
# 4 0.0000 0.0000 0.0000 31.8494 0.0000 0.0000
# 5 0.0000 0.0000 0.0000 0.0000 15.5685 0.0000
# 6 0.0000 0.0000 0.0000 0.0000 0.0000 17.0253
#
#
#
# Elastic Compliance Matrix: (Units=1/GPa)
#
#
# Indices 1 2 3 4 5 6 
#
# 1 0.020315 -0.002388 -0.002399 0.000000 0.000000 0.000000
# 2 -0.002388 0.009333 -0.003074 0.000000 0.000000 0.000000
# 3 -0.002399 -0.003074 0.007000 0.000000 0.000000 0.000000
# 4 0.000000 0.000000 0.000000 0.031398 0.000000 0.000000
# 5 0.000000 0.000000 0.000000 0.000000 0.064232 0.000000
# 6 0.000000 0.000000 0.000000 0.000000 0.000000 0.058736
#
#
# Mechanical properties :
#
#
# Convention : Reuss Voigt Hill
#
# Bulk Modulus (GPa) = 47.79258 68.48809 58.14033
# Shear Modulus (GPa) = 23.39598 29.73018 26.56308
#
# Velocity S-wave (km/s) = 3.39237 3.82412 3.61469
# Velocity P-wave (km/s) = 6.23319 7.29293 6.78379
#
# Compressibility (1/GPa) = 0.02092375
#
# Stress axis : x y z
#
# Youngs Moduli (GPa) = 49.22489 107.14832 142.86236
#
# Poissons Ratio (x) = 0.25590 0.34276
# Poissons Ratio (y) = 0.11756 0.43921
# Poissons Ratio (z) = 0.11810 0.32941
#
# Static dielectric constant tensor:
#      x y z
#    x 3.313930 0.000000 0.000000 
#    y 0.000000 3.803720 0.000000 
#    z 0.000000 0.000000 4.518530 
# 
# 
# High freq. dielectric constant tensor:
#      x y z
#    x 1.751800 0.000000 0.000000 
#    y 0.000000 1.803020 0.000000 
#    z 0.000000 0.000000 1.826830 
# 
# From -- ./inp_files/16270.got.cif
#   From: 2010.03.12/outbox.cif.g09.slc.cpg/sg57_9_cif.got.tgz:16270.got - 2010.04.16 15:48:40.
