data_PCOD8230806
_publ_section_title
;
Structure prediction by ZEFSAII (Michael W. Deem and Ramdas Pophale) SiO2 
 PCOD8230806
Probable space group: P B C M
;
_chemical_formula_sum "Si O2"
_cell_formula_units_Z 64
_cell_length_a 12.063556
_cell_length_b 17.055037
_cell_length_c 14.361851
_cell_angle_alpha 90.000000
_cell_angle_beta 90.000000
_cell_angle_gamma 90.000000
_cell_volume 2954.870330
_symmetry_space_group_name_H-M "P B C M"
_symmetry_group_IT_number 57
_symmetry_cell_setting 'orthorhombic'
loop_
_space_group_symop_operation_xyz
x,y,z
-x,-y,1/2+z
x,1/2-y,-z
-x,1/2+y,1/2-z
-x,-y,-z
x,y,1/2-z
-x,1/2+y,z
x,1/2-y,1/2+z
loop_
_atom_site_type_symbol
_atom_site_label
_atom_site_fract_x
_atom_site_fract_y
_atom_site_fract_z
Si Si1 0.634083 0.650583 0.353169
Si Si2 0.804211 0.418068 0.529223
Si Si3 0.439244 0.890518 0.538486
Si Si4 0.827288 0.759881 0.107544
Si Si5 0.778244 0.568765 0.852468
Si Si6 0.998021 0.365023 0.853697
Si Si7 0.194451 0.482753 0.857529
Si Si8 0.527246 0.948932 0.143357
O O1 0.586517 0.635835 0.250000
O O2 0.530091 0.671509 0.422072
O O3 0.717732 0.723787 0.345426
O O4 0.702298 0.573109 0.388000
O O5 0.690345 0.372242 0.556156
O O6 0.816496 0.503374 0.575766
O O7 0.903250 0.363996 0.566900
O O8 0.807911 0.437542 0.418987
O O9 0.450275 0.899310 0.426782
O O10 0.472157 0.964180 0.602439
O O11 0.843942 0.850836 0.131421
O O12 0.937591 0.717045 0.142739
O O13 0.810134 0.750000 0.000000
O O14 0.805645 0.535922 0.750000
O O15 0.648726 0.588132 0.861760
O O16 0.946409 0.373731 0.750000
O O17 0.080915 0.436262 0.874380
O O18 0.206741 0.507535 0.750000
O O19 0.481194 0.947350 0.250000
#
# Coordination Sequence:
#
# PCOD8230806 Si02
#       8
#     8   8   8   8   8   8   8   8
#     4  10  19  33  53  80 114 150 187 225 276 342
#     4  11  21  34  55  85 118 149 186 231 282 340
#     4  10  19  30  48  78 112 146 179 213 265 335
#     4  11  21  36  59  83 109 145 190 241 288 332
#     4  10  19  32  53  84 116 143 181 236 287 323
#     4  10  21  37  55  79 113 151 189 230 285 350
#     4   9  18  32  51  75 106 145 188 237 287 330
#     4   9  17  29  47  75 112 145 175 220 274 322
#
# _framework density 21.659157
#
# number of rings (size 3 to 8) (size 9 to 14) (size 15 to 20)
#    0.000    2.000    0.000    7.500    0.000    3.000 
#    0.000    0.000    0.000    3.750    0.000    5.250 
#    0.000    8.000    0.000    0.000    0.000    0.000 
#
# Total GULP energy -793299.992258 kJ/mol
# GULP energy per Si atom -12395.312379 kJ/mol
# Density = 2.160986 g / cm^3
# Si number density = 21.659157 Si / 1000 Ang^3
#
#
#
# Elastic Constant Matrix: (Units=GPa)
#
#
# Indices 1 2 3 4 5 6 
#
# 1 115.0705 20.9704 37.9454 0.0000 0.0000 0.0000
# 2 20.9704 43.5927 9.4319 0.0000 0.0000 0.0000
# 3 37.9454 9.4319 127.4942 0.0000 0.0000 0.0000
# 4 0.0000 0.0000 0.0000 -4.2064 0.0000 0.0000
# 5 0.0000 0.0000 0.0000 0.0000 39.1216 0.0000
# 6 0.0000 0.0000 0.0000 0.0000 0.0000 13.8351
#
#
#
# Elastic Compliance Matrix: (Units=1/GPa)
#
#
# Indices 1 2 3 4 5 6 
#
# 1 0.010407 -0.004407 -0.002771 0.000000 0.000000 0.000000
# 2 -0.004407 0.025179 -0.000551 0.000000 0.000000 0.000000
# 3 -0.002771 -0.000551 0.008709 0.000000 0.000000 0.000000
# 4 0.000000 0.000000 0.000000 -0.237735 0.000000 0.000000
# 5 0.000000 0.000000 0.000000 0.000000 0.025561 0.000000
# 6 0.000000 0.000000 0.000000 0.000000 0.000000 0.072280
#
#
# Mechanical properties :
#
#
# Convention : Reuss Voigt Hill
#
# Bulk Modulus (GPa) = 34.67840 46.98365 40.83103
# Shear Modulus (GPa) = -70.89487 24.27071 -23.31208
#
# Velocity S-wave (km/s) = -5.72740 3.35113 -3.28428
# Velocity P-wave (km/s) = 5.26230 6.05911 2.12380
#
# Compressibility (1/GPa) = 0.02883639
#
# Stress axis : x y z
#
# Youngs Moduli (GPa) = 96.08608 39.71599 114.82219
#
# Poissons Ratio (x) = 0.17502 0.31823
# Poissons Ratio (y) = 0.42344 0.06328
# Poissons Ratio (z) = 0.26630 0.02189
#
# Static dielectric constant tensor:
#      x y z
#    x 3.928480 0.000000 0.000000 
#    y 0.000000 3.115630 0.000000 
#    z 0.000000 0.000000 4.126220 
# 
# 
# High freq. dielectric constant tensor:
#      x y z
#    x 1.842440 0.000000 0.000000 
#    y 0.000000 1.794670 0.000000 
#    z 0.000000 0.000000 1.870410 
# 
# From -- ./inp_files/18004.got.cif
#   From: 2010.03.12/outbox.cif.g09.slc.cpg/sg57_10_cif.got.tgz:18004.got - 2010.04.16 15:48:40.
