data_PCOD8230110
_publ_section_title
;
Structure prediction by ZEFSAII (Michael W. Deem and Ramdas Pophale) SiO2 
 PCOD8230110
Probable space group: P B C M
;
_chemical_formula_sum "Si O2"
_cell_formula_units_Z 64
_cell_length_a 18.455901
_cell_length_b 26.113589
_cell_length_c 8.978285
_cell_angle_alpha 90.000000
_cell_angle_beta 90.000000
_cell_angle_gamma 90.000000
_cell_volume 4327.082780
_symmetry_space_group_name_H-M "P B C M"
_symmetry_group_IT_number 57
_symmetry_cell_setting 'orthorhombic'
loop_
_space_group_symop_operation_xyz
x,y,z
-x,-y,1/2+z
x,1/2-y,-z
-x,1/2+y,1/2-z
-x,-y,-z
x,y,1/2-z
-x,1/2+y,z
x,1/2-y,1/2+z
loop_
_atom_site_type_symbol
_atom_site_label
_atom_site_fract_x
_atom_site_fract_y
_atom_site_fract_z
Si Si1 0.336457 0.697691 0.576462
Si Si2 0.543373 0.544564 0.422312
Si Si3 0.671288 0.997628 0.425372
Si Si4 0.098917 0.897970 0.925452
Si Si5 0.823789 0.005276 0.925629
Si Si6 0.036779 0.454162 0.580424
Si Si7 0.169869 0.802732 0.425414
Si Si8 0.406416 0.896055 0.919810
O O1 0.362672 0.750000 0.500000
O O2 0.347374 0.705429 0.750000
O O3 0.253368 0.685360 0.535627
O O4 0.385293 0.650648 0.524406
O O5 0.500000 0.500000 0.500000
O O6 0.555949 0.531089 0.250000
O O7 0.620844 0.547630 0.505356
O O8 0.493250 0.595181 0.438274
O O9 0.676466 0.989334 0.250000
O O10 0.748932 0.990953 0.498789
O O11 0.638470 0.053245 0.465903
O O12 0.117334 0.896455 0.750000
O O13 0.011296 0.903545 0.954729
O O14 0.143915 0.943847 0.999770
O O15 0.120136 0.845680 0.002965
O O16 0.812871 0.015434 0.750000
O O17 0.877059 0.955839 0.956410
O O18 0.026634 0.468417 0.750000
O O19 0.000000 0.500000 0.500000
O O20 0.145424 0.750000 0.500000
O O21 0.156545 0.799868 0.250000
O O22 0.387498 0.881799 0.750000
#
# Coordination Sequence:
#
# PCOD8230110 Si02
#       8
#     8   8   8   8   8   8   8   8
#     4  10  20  31  44  60  81 108 139 174 209 243
#     4   9  17  29  43  60  83 111 140 173 208 246
#     4  10  19  29  42  62  86 113 143 176 211 249
#     4  10  18  29  44  61  83 112 143 176 212 251
#     4  10  18  28  42  61  85 113 144 176 208 249
#     4   8  16  28  41  58  81 109 140 172 208 247
#     4  10  20  32  44  61  83 110 143 178 213 248
#     4   9  18  30  43  59  82 110 140 171 206 245
#
# _framework density 14.790566
#
# number of rings (size 3 to 8) (size 9 to 14) (size 15 to 20)
#    0.000    2.500    0.000    3.750    0.000    7.500 
#    0.000    0.000    0.000    0.000    0.000    0.000 
#    0.000    1.000    0.000    4.750    0.000    4.125 
#
# Total GULP energy -793032.595888 kJ/mol
# GULP energy per Si atom -12391.134311 kJ/mol
# Density = 1.475690 g / cm^3
# Si number density = 14.790566 Si / 1000 Ang^3
#
#
#
# Elastic Constant Matrix: (Units=GPa)
#
#
# Indices 1 2 3 4 5 6 
#
# 1 114.2558 52.2432 53.6245 0.0000 0.0000 0.0000
# 2 52.2432 71.2795 44.1710 0.0000 0.0000 0.0000
# 3 53.6245 44.1710 88.1857 0.0000 0.0000 0.0000
# 4 0.0000 0.0000 0.0000 24.6526 0.0000 0.0000
# 5 0.0000 0.0000 0.0000 0.0000 24.8661 0.0000
# 6 0.0000 0.0000 0.0000 0.0000 0.0000 21.8740
#
#
#
# Elastic Compliance Matrix: (Units=1/GPa)
#
#
# Indices 1 2 3 4 5 6 
#
# 1 0.014590 -0.007534 -0.005098 0.000000 0.000000 0.000000
# 2 -0.007534 0.024235 -0.007557 0.000000 0.000000 0.000000
# 3 -0.005098 -0.007557 0.018225 0.000000 0.000000 0.000000
# 4 0.000000 0.000000 0.000000 0.040564 0.000000 0.000000
# 5 0.000000 0.000000 0.000000 0.000000 0.040215 0.000000
# 6 0.000000 0.000000 0.000000 0.000000 0.000000 0.045716
#
#
# Mechanical properties :
#
#
# Convention : Reuss Voigt Hill
#
# Bulk Modulus (GPa) = 59.98687 63.75538 61.87113
# Shear Modulus (GPa) = 21.78823 22.52402 22.15613
#
# Velocity S-wave (km/s) = 3.84228 3.90662 3.87459
# Velocity P-wave (km/s) = 7.76722 7.97170 7.87012
#
# Compressibility (1/GPa) = 0.01667032
#
# Stress axis : x y z
#
# Youngs Moduli (GPa) = 68.53955 41.26337 54.86907
#
# Poissons Ratio (x) = 0.31089 0.27973
# Poissons Ratio (y) = 0.51640 0.41466
# Poissons Ratio (z) = 0.34943 0.31184
#
# Static dielectric constant tensor:
#      x y z
#    x 3.428600 0.000000 0.000000 
#    y 0.000000 2.767200 0.000000 
#    z 0.000000 0.000000 3.075990 
# 
# 
# High freq. dielectric constant tensor:
#      x y z
#    x 1.561530 0.000000 0.000000 
#    y 0.000000 1.527000 0.000000 
#    z 0.000000 0.000000 1.587260 
# 
# From -- ./inp_files/7374.got.cif
#   From: 2010.03.12/outbox.cif.g09.slc.cpg/sg57_4_cif.got.tgz:7374.got - 2010.04.16 15:48:40.
