data_PCOD8230973
_publ_section_title
;
Structure prediction by ZEFSAII (Michael W. Deem and Ramdas Pophale) SiO2 
 PCOD8230973
Probable space group: P B C M
;
_chemical_formula_sum "Si O2"
_cell_formula_units_Z 56
_cell_length_a 16.889332
_cell_length_b 22.038143
_cell_length_c 8.686222
_cell_angle_alpha 90.000000
_cell_angle_beta 90.000000
_cell_angle_gamma 90.000000
_cell_volume 3233.094467
_symmetry_space_group_name_H-M "P B C M"
_symmetry_group_IT_number 57
_symmetry_cell_setting 'orthorhombic'
loop_
_space_group_symop_operation_xyz
x,y,z
-x,-y,1/2+z
x,1/2-y,-z
-x,1/2+y,1/2-z
-x,-y,-z
x,y,1/2-z
-x,1/2+y,z
x,1/2-y,1/2+z
loop_
_atom_site_type_symbol
_atom_site_label
_atom_site_fract_x
_atom_site_fract_y
_atom_site_fract_z
Si Si1 0.079176 0.312710 0.069311
Si Si2 0.757062 0.662664 0.428406
Si Si3 0.512804 0.911229 0.577746
Si Si4 0.236751 0.463492 0.070872
Si Si5 0.598172 0.806412 0.072131
Si Si6 0.375422 0.527360 0.575529
Si Si7 0.055620 0.449179 0.427571
O O1 0.066014 0.309825 0.250000
O O2 0.046123 0.378984 0.006924
O O3 0.040282 0.250000 0.000000
O O4 0.172104 0.311341 0.032094
O O5 0.779666 0.669956 0.250000
O O6 0.738111 0.593299 0.468523
O O7 0.677678 0.697272 0.469776
O O8 0.510591 0.883678 0.750000
O O9 0.547477 0.866039 0.452304
O O10 0.422995 0.923540 0.524452
O O11 0.569981 0.968468 0.575207
O O12 0.255555 0.450998 0.250000
O O13 0.143730 0.475188 0.045910
O O14 0.290289 0.518465 0.007263
O O15 0.618874 0.799703 0.250000
O O16 0.548632 0.750000 0.000000
O O17 0.360834 0.549990 0.750000
O O18 0.034122 0.445626 0.250000
O O19 0.000000 0.500000 0.500000
#
# Coordination Sequence:
#
# PCOD8230973 Si02
#       7
#     8   8   8   8   8   8   8
#     4  10  20  34  50  73 101 134 172 209 249 301
#     4  11  20  31  46  68  97 131 169 205 243 292
#     4  10  20  33  48  69  97 126 164 206 247 289
#     4  10  19  32  50  73 101 132 166 207 251 298
#     4  12  23  34  47  64  93 130 168 208 249 295
#     4  10  19  31  50  73  97 127 163 202 247 293
#     4   9  20  35  52  76 106 137 171 210 257 308
#
# _framework density 17.320868000000001
#
# number of rings (size 3 to 8) (size 9 to 14) (size 15 to 20)
#    0.000    1.714    1.429    5.571    0.000    4.571 
#    0.000    0.000    0.000    0.000    0.000    1.000 
#    0.000    4.571    0.000    0.000    0.000    0.000 
#
# Total GULP energy -693945.974674 kJ/mol
# GULP energy per Si atom -12391.892405 kJ/mol
# Density = 1.728144 g / cm^3
# Si number density = 17.320868 Si / 1000 Ang^3
#
#
#
# Elastic Constant Matrix: (Units=GPa)
#
#
# Indices 1 2 3 4 5 6 
#
# 1 61.1389 37.8055 27.1364 0.0000 0.0000 0.0000
# 2 37.8055 83.4061 27.1603 0.0000 0.0000 0.0000
# 3 27.1364 27.1603 90.6423 0.0000 0.0000 0.0000
# 4 0.0000 0.0000 0.0000 29.7184 0.0000 0.0000
# 5 0.0000 0.0000 0.0000 0.0000 23.2027 0.0000
# 6 0.0000 0.0000 0.0000 0.0000 0.0000 -0.2948
#
#
#
# Elastic Compliance Matrix: (Units=1/GPa)
#
#
# Indices 1 2 3 4 5 6 
#
# 1 0.024204 -0.009542 -0.004387 0.000000 0.000000 0.000000
# 2 -0.009542 0.017048 -0.002252 0.000000 0.000000 0.000000
# 3 -0.004387 -0.002252 0.013020 0.000000 0.000000 0.000000
# 4 0.000000 0.000000 0.000000 0.033649 0.000000 0.000000
# 5 0.000000 0.000000 0.000000 0.000000 0.043098 0.000000
# 6 0.000000 0.000000 0.000000 0.000000 0.000000 -3.392568
#
#
# Mechanical properties :
#
#
# Convention : Reuss Voigt Hill
#
# Bulk Modulus (GPa) = 45.63968 46.59909 46.11938
# Shear Modulus (GPa) = -1.55189 20.06429 9.25620
#
# Velocity S-wave (km/s) = -0.94758 3.40720 2.31421
# Velocity P-wave (km/s) = 5.02091 6.51464 5.81593
#
# Compressibility (1/GPa) = 0.02191076
#
# Stress axis : x y z
#
# Youngs Moduli (GPa) = 41.31577 58.65798 76.80282
#
# Poissons Ratio (x) = 0.55974 0.33692
# Poissons Ratio (y) = 0.39425 0.17292
# Poissons Ratio (z) = 0.18125 0.13207
#
# Static dielectric constant tensor:
#      x y z
#    x 3.028310 0.000000 0.000000 
#    y 0.000000 4.243960 0.000000 
#    z 0.000000 0.000000 3.333380 
# 
# 
# High freq. dielectric constant tensor:
#      x y z
#    x 1.630260 0.000000 0.000000 
#    y 0.000000 1.656710 0.000000 
#    z 0.000000 0.000000 1.683600 
# 
# From -- ./inp_files/7057.got.cif
#   From: 2010.03.12/outbox.cif.g09.slc.cpg/sg57_4_cif.got.tgz:7057.got - 2010.04.16 15:48:40.
