data_PCOD8230015
_publ_section_title
;
Structure prediction by ZEFSAII (Michael W. Deem and Ramdas Pophale) SiO2 
 PCOD8230015
Probable space group: P B C M
;
_chemical_formula_sum "Si O2"
_cell_formula_units_Z 56
_cell_length_a 9.113224
_cell_length_b 16.519464
_cell_length_c 22.137012
_cell_angle_alpha 90.000000
_cell_angle_beta 90.000000
_cell_angle_gamma 90.000000
_cell_volume 3332.629218
_symmetry_space_group_name_H-M "P B C M"
_symmetry_group_IT_number 57
_symmetry_cell_setting 'orthorhombic'
loop_
_space_group_symop_operation_xyz
x,y,z
-x,-y,1/2+z
x,1/2-y,-z
-x,1/2+y,1/2-z
-x,-y,-z
x,y,1/2-z
-x,1/2+y,z
x,1/2-y,1/2+z
loop_
_atom_site_type_symbol
_atom_site_label
_atom_site_fract_x
_atom_site_fract_y
_atom_site_fract_z
Si Si1 0.589078 0.320833 0.887135
Si Si2 0.171291 0.764418 0.179786
Si Si3 0.641030 0.418891 0.318524
Si Si4 0.834516 0.749439 0.679558
Si Si5 0.679593 0.906796 0.858261
Si Si6 0.555683 0.912922 0.517934
Si Si7 0.407659 0.160269 0.606973
O O1 0.749680 0.307374 0.858716
O O2 0.484105 0.372710 0.841349
O O3 0.585730 0.364875 0.953042
O O4 0.517300 0.234143 0.895765
O O5 0.193490 0.743360 0.250000
O O6 0.237283 0.852310 0.163586
O O7 0.002109 0.766043 0.161794
O O8 0.592348 0.405464 0.250000
O O9 0.711303 0.507596 0.326861
O O10 0.493107 0.411778 0.358283
O O11 0.804027 0.733291 0.750000
O O12 0.800178 0.842696 0.663667
O O13 0.741138 0.685199 0.640868
O O14 0.684522 0.916818 0.931481
O O15 0.627365 0.868053 0.460819
O O16 0.500000 0.000000 0.500000
#
# Coordination Sequence:
#
# PCOD8230015 Si02
#       7
#     8   8   8   8   8   8   8
#     4   8  18  30  53  77  95 136 176 216 257 310
#     4   9  19  35  53  76 111 143 174 216 268 324
#     4  10  18  31  52  79 104 135 173 224 274 314
#     4  10  20  34  54  80 109 141 174 216 266 324
#     4   9  19  32  54  77 106 135 176 223 268 310
#     4  10  18  33  53  76 103 136 173 223 269 300
#     4  10  17  32  55  74 103 134 179 217 255 311
#
# _framework density 16.803549
#
# number of rings (size 3 to 8) (size 9 to 14) (size 15 to 20)
#    0.857    1.714    1.429    1.286    0.000    4.000 
#    0.000    2.857   12.571    5.143    0.000    0.000 
#    0.000    0.000    0.000    0.000    0.000    0.000 
#
# Total GULP energy -693890.842592 kJ/mol
# GULP energy per Si atom -12390.907903 kJ/mol
# Density = 1.676530 g / cm^3
# Si number density = 16.803549 Si / 1000 Ang^3
#
#
#
# Elastic Constant Matrix: (Units=GPa)
#
#
# Indices 1 2 3 4 5 6 
#
# 1 99.5768 42.5945 52.2380 0.0000 0.0000 0.0000
# 2 42.5945 85.8212 30.6408 0.0000 0.0000 0.0000
# 3 52.2380 30.6408 89.7051 0.0000 0.0000 0.0000
# 4 0.0000 0.0000 0.0000 30.4231 0.0000 0.0000
# 5 0.0000 0.0000 0.0000 0.0000 18.7736 0.0000
# 6 0.0000 0.0000 0.0000 0.0000 0.0000 15.7981
#
#
#
# Elastic Compliance Matrix: (Units=1/GPa)
#
#
# Indices 1 2 3 4 5 6 
#
# 1 0.016386 -0.005382 -0.007704 0.000000 0.000000 0.000000
# 2 -0.005382 0.015038 -0.002002 0.000000 0.000000 0.000000
# 3 -0.007704 -0.002002 0.016318 0.000000 0.000000 0.000000
# 4 0.000000 0.000000 0.000000 0.032870 0.000000 0.000000
# 5 0.000000 0.000000 0.000000 0.000000 0.053266 0.000000
# 6 0.000000 0.000000 0.000000 0.000000 0.000000 0.063299
#
#
# Mechanical properties :
#
#
# Convention : Reuss Voigt Hill
#
# Bulk Modulus (GPa) = 56.93008 58.44996 57.69002
# Shear Modulus (GPa) = 21.44001 22.97429 22.20715
#
# Velocity S-wave (km/s) = 3.57588 3.70162 3.63929
# Velocity P-wave (km/s) = 7.14161 7.28897 7.21567
#
# Compressibility (1/GPa) = 0.01756541
#
# Stress axis : x y z
#
# Youngs Moduli (GPa) = 61.02707 66.49659 61.28308
#
# Poissons Ratio (x) = 0.35790 0.47211
# Poissons Ratio (y) = 0.32846 0.12272
# Poissons Ratio (z) = 0.47014 0.13315
#
# Static dielectric constant tensor:
#      x y z
#    x 2.960840 0.000000 0.000000 
#    y 0.000000 3.207540 0.000000 
#    z 0.000000 0.000000 3.342020 
# 
# 
# High freq. dielectric constant tensor:
#      x y z
#    x 1.609990 0.000000 0.000000 
#    y 0.000000 1.654190 0.000000 
#    z 0.000000 0.000000 1.650980 
# 
# From -- ./inp_files/24439.got.cif
#   From: 2010.03.12/outbox.cif.g09.slc.cpg/sg57_13_cif.got.tgz:24439.got - 2010.04.16 15:48:40.
