data_PCOD8230316
_publ_section_title
;
Structure prediction by ZEFSAII (Michael W. Deem and Ramdas Pophale) SiO2 
 PCOD8230316
Probable space group: P B C M
;
_chemical_formula_sum "Si O2"
_cell_formula_units_Z 56
_cell_length_a 12.773257
_cell_length_b 21.706883
_cell_length_c 11.476449
_cell_angle_alpha 90.000000
_cell_angle_beta 90.000000
_cell_angle_gamma 90.000000
_cell_volume 3182.047416
_symmetry_space_group_name_H-M "P B C M"
_symmetry_group_IT_number 57
_symmetry_cell_setting 'orthorhombic'
loop_
_space_group_symop_operation_xyz
x,y,z
-x,-y,1/2+z
x,1/2-y,-z
-x,1/2+y,1/2-z
-x,-y,-z
x,y,1/2-z
-x,1/2+y,z
x,1/2-y,1/2+z
loop_
_atom_site_type_symbol
_atom_site_label
_atom_site_fract_x
_atom_site_fract_y
_atom_site_fract_z
Si Si1 0.855447 0.315756 0.959039
Si Si2 0.378085 0.459933 0.119292
Si Si3 0.004924 0.580552 0.378561
Si Si4 0.752338 0.410453 0.115432
Si Si5 0.447478 0.589175 0.033952
Si Si6 0.158670 0.483511 0.024752
Si Si7 0.370225 0.710506 0.119056
O O1 0.945854 0.351351 0.889345
O O2 0.751911 0.308135 0.880087
O O3 0.900041 0.250000 0.000000
O O4 0.827570 0.356183 0.071942
O O5 0.399696 0.436236 0.250000
O O6 0.418000 0.530249 0.111740
O O7 0.438887 0.418032 0.025363
O O8 0.254398 0.453865 0.095216
O O9 0.956125 0.574772 0.250000
O O10 0.094484 0.528544 0.390377
O O11 0.914609 0.570763 0.474764
O O12 0.744741 0.403604 0.250000
O O13 0.797985 0.477049 0.083388
O O14 0.636119 0.402154 0.068084
O O15 0.444271 0.650119 0.113793
O O16 0.391457 0.740594 0.250000
O O17 0.393474 0.750000 0.000000
#
# Coordination Sequence:
#
# PCOD8230316 Si02
#       7
#     8   8   8   8   8   8   8
#     4   9  19  30  46  72  97 125 163 202 245 294
#     4  10  18  31  50  71 101 132 159 198 245 294
#     4  10  18  31  49  66  93 128 161 201 247 295
#     4   9  16  28  44  66 100 129 154 196 243 293
#     4   9  19  30  47  76 100 127 163 195 238 294
#     4   9  19  30  45  72  94 122 165 200 241 294
#     4  10  20  34  52  75 104 135 167 203 245 296
#
# _framework density 17.598731999999998
#
# number of rings (size 3 to 8) (size 9 to 14) (size 15 to 20)
#    0.000    2.571    0.000    3.000    0.000    6.286 
#    0.000    2.857    0.000    0.857    0.000    0.000 
#    0.000    0.000    0.000    0.000    0.000    0.000 
#
# Total GULP energy -694088.636963 kJ/mol
# GULP energy per Si atom -12394.439946 kJ/mol
# Density = 1.755868 g / cm^3
# Si number density = 17.598732 Si / 1000 Ang^3
#
#
#
# Elastic Constant Matrix: (Units=GPa)
#
#
# Indices 1 2 3 4 5 6 
#
# 1 73.8357 20.5736 15.6770 0.0000 0.0000 0.0000
# 2 20.5736 71.7109 19.1580 0.0000 0.0000 0.0000
# 3 15.6770 19.1580 105.5191 0.0000 0.0000 0.0000
# 4 0.0000 0.0000 0.0000 15.4444 0.0000 0.0000
# 5 0.0000 0.0000 0.0000 0.0000 12.1823 0.0000
# 6 0.0000 0.0000 0.0000 0.0000 0.0000 24.8208
#
#
#
# Elastic Compliance Matrix: (Units=1/GPa)
#
#
# Indices 1 2 3 4 5 6 
#
# 1 0.014947 -0.003883 -0.001516 0.000000 0.000000 0.000000
# 2 -0.003883 0.015665 -0.002267 0.000000 0.000000 0.000000
# 3 -0.001516 -0.002267 0.010114 0.000000 0.000000 0.000000
# 4 0.000000 0.000000 0.000000 0.064748 0.000000 0.000000
# 5 0.000000 0.000000 0.000000 0.000000 0.082087 0.000000
# 6 0.000000 0.000000 0.000000 0.000000 0.000000 0.040289
#
#
# Mechanical properties :
#
#
# Convention : Reuss Voigt Hill
#
# Bulk Modulus (GPa) = 39.38022 40.20921 39.79471
# Shear Modulus (GPa) = 19.86914 23.53331 21.70123
#
# Velocity S-wave (km/s) = 3.36372 3.66076 3.51538
# Velocity P-wave (km/s) = 6.12466 6.38480 6.25608
#
# Compressibility (1/GPa) = 0.02539346
#
# Stress axis : x y z
#
# Youngs Moduli (GPa) = 66.90093 63.83777 98.87521
#
# Poissons Ratio (x) = 0.24791 0.14986
# Poissons Ratio (y) = 0.25981 0.22416
# Poissons Ratio (z) = 0.10140 0.14473
#
# Static dielectric constant tensor:
#      x y z
#    x 3.143840 0.000000 0.000000 
#    y 0.000000 3.192730 0.000000 
#    z 0.000000 0.000000 3.178970 
# 
# 
# High freq. dielectric constant tensor:
#      x y z
#    x 1.655180 0.000000 0.000000 
#    y 0.000000 1.656680 0.000000 
#    z 0.000000 0.000000 1.685300 
# 
# From -- ./inp_files/13080.got.cif
#   From: 2010.03.12/outbox.cif.g09.slc.cpg/sg57_7_cif.got.tgz:13080.got - 2010.04.16 15:48:40.
