data_PCOD8230536
_publ_section_title
;
Structure prediction by ZEFSAII (Michael W. Deem and Ramdas Pophale) SiO2 
 PCOD8230536
Probable space group: P B C M
;
_chemical_formula_sum "Si O2"
_cell_formula_units_Z 64
_cell_length_a 18.822523
_cell_length_b 9.961622
_cell_length_c 16.456586
_cell_angle_alpha 90.000000
_cell_angle_beta 90.000000
_cell_angle_gamma 90.000000
_cell_volume 3085.656928
_symmetry_space_group_name_H-M "P B C M"
_symmetry_group_IT_number 57
_symmetry_cell_setting 'orthorhombic'
loop_
_space_group_symop_operation_xyz
x,y,z
-x,-y,1/2+z
x,1/2-y,-z
-x,1/2+y,1/2-z
-x,-y,-z
x,y,1/2-z
-x,1/2+y,z
x,1/2-y,1/2+z
loop_
_atom_site_type_symbol
_atom_site_label
_atom_site_fract_x
_atom_site_fract_y
_atom_site_fract_z
Si Si1 0.046076 0.216050 0.846870
Si Si2 0.280093 0.860833 0.846858
Si Si3 0.927384 0.014241 0.846989
Si Si4 0.312426 0.319034 0.845589
Si Si5 0.538957 0.728532 0.907882
Si Si6 0.771143 0.078433 0.845977
Si Si7 0.565462 0.441087 0.843761
Si Si8 0.805439 0.888052 0.153611
O O1 0.047147 0.213027 0.750000
O O2 0.043402 0.369925 0.877910
O O3 0.116979 0.144768 0.882046
O O4 0.978537 0.132691 0.879793
O O5 0.283975 0.853029 0.750000
O O6 0.256763 0.717849 0.883731
O O7 0.357126 0.904923 0.880376
O O8 0.220499 0.966331 0.876270
O O9 0.925846 0.013470 0.750000
O O10 0.848297 0.039389 0.882102
O O11 0.327473 0.300258 0.750000
O O12 0.382387 0.284724 0.895086
O O13 0.288273 0.468974 0.867707
O O14 0.250401 0.222008 0.876831
O O15 0.533141 0.570720 0.888538
O O16 0.485174 0.812535 0.851974
O O17 0.515388 0.750000 0.000000
O O18 0.779964 0.090941 0.750000
O O19 0.572983 0.480655 0.750000
O O20 0.808884 0.882225 0.250000
#
# Coordination Sequence:
#
# PCOD8230536 Si02
#       8
#     8   8   8   8   8   8   8   8
#     4   9  16  23  34  56  92 139 179 219 279 343
#     4   9  18  30  49  75  99 130 181 239 275 316
#     4   9  16  24  34  57  97 142 182 220 277 344
#     4  10  18  34  57  76 102 146 194 235 275 336
#     4  12  26  42  60  88 123 153 185 239 305 354
#     4   9  17  28  45  72 102 136 186 238 279 329
#     4  11  23  42  64  87 113 152 201 238 281 355
#     4   9  15  27  45  66  94 135 185 232 274 325
#
# _framework density 20.741126000000001
#
# number of rings (size 3 to 8) (size 9 to 14) (size 15 to 20)
#    0.000    2.250    2.500    1.500    3.500    0.000 
#    0.000    0.000    0.000    0.000    0.000    0.000 
#    0.000    1.000    0.250    0.000    0.500    0.000 
#
# Total GULP energy -793555.662426 kJ/mol
# GULP energy per Si atom -12399.307225 kJ/mol
# Density = 2.069392 g / cm^3
# Si number density = 20.741126 Si / 1000 Ang^3
#
#
#
# Elastic Constant Matrix: (Units=GPa)
#
#
# Indices 1 2 3 4 5 6 
#
# 1 96.6233 45.3716 3.3781 0.0000 0.0000 0.0000
# 2 45.3716 165.2664 2.1060 0.0000 0.0000 0.0000
# 3 3.3781 2.1060 15.2654 0.0000 0.0000 0.0000
# 4 0.0000 0.0000 0.0000 11.3164 0.0000 0.0000
# 5 0.0000 0.0000 0.0000 0.0000 2.3282 0.0000
# 6 0.0000 0.0000 0.0000 0.0000 0.0000 42.0420
#
#
#
# Elastic Compliance Matrix: (Units=1/GPa)
#
#
# Indices 1 2 3 4 5 6 
#
# 1 0.011954 -0.003254 -0.002196 0.000000 0.000000 0.000000
# 2 -0.003254 0.006947 -0.000238 0.000000 0.000000 0.000000
# 3 -0.002196 -0.000238 0.066027 0.000000 0.000000 0.000000
# 4 0.000000 0.000000 0.000000 0.088367 0.000000 0.000000
# 5 0.000000 0.000000 0.000000 0.000000 0.429509 0.000000
# 6 0.000000 0.000000 0.000000 0.000000 0.000000 0.023786
#
#
# Mechanical properties :
#
#
# Convention : Reuss Voigt Hill
#
# Bulk Modulus (GPa) = 13.59607 42.09627 27.84617
# Shear Modulus (GPa) = 7.54734 26.22395 16.88565
#
# Velocity S-wave (km/s) = 1.90964 3.55962 2.85636
# Velocity P-wave (km/s) = 3.38107 6.10202 4.93286
#
# Compressibility (1/GPa) = 0.07355064
#
# Stress axis : x y z
#
# Youngs Moduli (GPa) = 83.65268 143.94333 15.14541
#
# Poissons Ratio (x) = 0.46837 0.03327
# Poissons Ratio (y) = 0.27219 0.00361
# Poissons Ratio (z) = 0.18374 0.03431
#
# Static dielectric constant tensor:
#      x y z
#    x 3.924240 0.000000 0.000000 
#    y 0.000000 4.015520 0.000000 
#    z 0.000000 0.000000 2.981770 
# 
# 
# High freq. dielectric constant tensor:
#      x y z
#    x 1.821040 0.000000 0.000000 
#    y 0.000000 1.828950 0.000000 
#    z 0.000000 0.000000 1.738090 
# 
# From -- ./inp_files/23069.got.cif
#   From: 2010.03.12/outbox.cif.g09.slc.cpg/sg57_12_cif.got.tgz:23069.got - 2010.04.16 15:48:40.
