data_PCOD8230725
_publ_section_title
;
Structure prediction by ZEFSAII (Michael W. Deem and Ramdas Pophale) SiO2 
 PCOD8230725
Probable space group: P B C M
;
_chemical_formula_sum "Si O2"
_cell_formula_units_Z 64
_cell_length_a 27.086348
_cell_length_b 14.682542
_cell_length_c 9.136474
_cell_angle_alpha 90.000000
_cell_angle_beta 90.000000
_cell_angle_gamma 90.000000
_cell_volume 3633.543203
_symmetry_space_group_name_H-M "P B C M"
_symmetry_group_IT_number 57
_symmetry_cell_setting 'orthorhombic'
loop_
_space_group_symop_operation_xyz
x,y,z
-x,-y,1/2+z
x,1/2-y,-z
-x,1/2+y,1/2-z
-x,-y,-z
x,y,1/2-z
-x,1/2+y,z
x,1/2-y,1/2+z
loop_
_atom_site_type_symbol
_atom_site_label
_atom_site_fract_x
_atom_site_fract_y
_atom_site_fract_z
Si Si1 0.534870 0.840946 0.077664
Si Si2 0.421738 0.837578 0.418363
Si Si3 0.608711 0.966981 0.579824
Si Si4 0.117120 0.465225 0.083267
Si Si5 0.923995 0.336336 0.923164
Si Si6 0.190994 0.157094 0.077715
Si Si7 0.011419 0.407817 0.080557
Si Si8 0.696608 0.839954 0.580483
O O1 0.542719 0.831447 0.250000
O O2 0.478038 0.857549 0.033863
O O3 0.555072 0.750000 0.000000
O O4 0.565559 0.925715 0.018304
O O5 0.399522 0.750000 0.500000
O O6 0.419804 0.812229 0.250000
O O7 0.388554 0.925555 0.455299
O O8 0.595459 0.950723 0.750000
O O9 0.661643 0.924424 0.538051
O O10 0.136219 0.464957 0.250000
O O11 0.103607 0.569169 0.037804
O O12 0.070589 0.395894 0.068290
O O13 0.159794 0.428992 0.977785
O O14 0.928076 0.322578 0.750000
O O15 0.896142 0.250000 0.000000
O O16 0.979194 0.333251 0.994357
O O17 0.183423 0.168782 0.250000
O O18 0.247590 0.135641 0.034762
O O19 0.173353 0.250000 0.000000
O O20 0.995022 0.411821 0.250000
O O21 0.000000 0.500000 0.000000
O O22 0.677226 0.750000 0.500000
O O23 0.693555 0.817029 0.750000
#
# Coordination Sequence:
#
# PCOD8230725 Si02
#       8
#     8   8   8   8   8   8   8   8
#     4  10  19  30  45  69  99 129 162 196 234 282
#     4   9  19  33  48  67  95 130 163 199 237 276
#     4  10  19  32  50  71  96 126 160 199 242 284
#     4   9  19  34  51  73 100 129 163 203 242 285
#     4  10  20  33  50  73 102 135 169 204 242 284
#     4  10  20  34  53  74  96 125 158 196 243 292
#     4   9  17  30  47  68  96 128 162 199 239 281
#     4   9  19  34  51  73  98 122 152 192 240 292
#
# _framework density 17.613662000000001
#
# number of rings (size 3 to 8) (size 9 to 14) (size 15 to 20)
#    0.000    2.500    0.000    3.000    0.000    6.500 
#    0.000    0.000    0.000    0.750    0.000    3.500 
#    0.000    0.000    0.000    0.000    0.000    0.000 
#
# Total GULP energy -793401.167322 kJ/mol
# GULP energy per Si atom -12396.893239 kJ/mol
# Density = 1.757357 g / cm^3
# Si number density = 17.613662 Si / 1000 Ang^3
#
#
#
# Elastic Constant Matrix: (Units=GPa)
#
#
# Indices 1 2 3 4 5 6 
#
# 1 72.8507 58.5492 41.8686 0.0000 0.0000 0.0000
# 2 58.5492 127.2142 56.8936 0.0000 0.0000 0.0000
# 3 41.8686 56.8936 82.7864 0.0000 0.0000 0.0000
# 4 0.0000 0.0000 0.0000 33.4397 0.0000 0.0000
# 5 0.0000 0.0000 0.0000 0.0000 19.4155 0.0000
# 6 0.0000 0.0000 0.0000 0.0000 0.0000 24.7645
#
#
#
# Elastic Compliance Matrix: (Units=1/GPa)
#
#
# Indices 1 2 3 4 5 6 
#
# 1 0.024030 -0.008120 -0.006573 0.000000 0.000000 0.000000
# 2 -0.008120 0.014093 -0.005578 0.000000 0.000000 0.000000
# 3 -0.006573 -0.005578 0.019237 0.000000 0.000000 0.000000
# 4 0.000000 0.000000 0.000000 0.029905 0.000000 0.000000
# 5 0.000000 0.000000 0.000000 0.000000 0.051505 0.000000
# 6 0.000000 0.000000 0.000000 0.000000 0.000000 0.040380
#
#
# Mechanical properties :
#
#
# Convention : Reuss Voigt Hill
#
# Bulk Modulus (GPa) = 59.46130 66.38600 62.92365
# Shear Modulus (GPa) = 22.19279 23.89325 23.04302
#
# Velocity S-wave (km/s) = 3.55347 3.68709 3.62089
# Velocity P-wave (km/s) = 7.11815 7.47650 7.29952
#
# Compressibility (1/GPa) = 0.01681766
#
# Stress axis : x y z
#
# Youngs Moduli (GPa) = 41.61426 70.95828 51.98339
#
# Poissons Ratio (x) = 0.57620 0.34167
# Poissons Ratio (y) = 0.33792 0.28998
# Poissons Ratio (z) = 0.27351 0.39583
#
# Static dielectric constant tensor:
#      x y z
#    x 3.233490 0.000000 0.000000 
#    y 0.000000 3.351780 0.000000 
#    z 0.000000 0.000000 3.484570 
# 
# 
# High freq. dielectric constant tensor:
#      x y z
#    x 1.653820 0.000000 0.000000 
#    y 0.000000 1.678940 0.000000 
#    z 0.000000 0.000000 1.689140 
# 
# From -- ./inp_files/10343.got.cif
#   From: 2010.03.12/outbox.cif.g09.slc.cpg/sg57_6_cif.got.tgz:10343.got - 2010.04.16 15:48:40.
