data_PCOD8230942
_publ_section_title
;
Structure prediction by ZEFSAII (Michael W. Deem and Ramdas Pophale) SiO2 
 PCOD8230942
Probable space group: P B C M
;
_chemical_formula_sum "Si O2"
_cell_formula_units_Z 56
_cell_length_a 18.937490
_cell_length_b 18.083843
_cell_length_c 9.011262
_cell_angle_alpha 90.000000
_cell_angle_beta 90.000000
_cell_angle_gamma 90.000000
_cell_volume 3086.020178
_symmetry_space_group_name_H-M "P B C M"
_symmetry_group_IT_number 57
_symmetry_cell_setting 'orthorhombic'
loop_
_space_group_symop_operation_xyz
x,y,z
-x,-y,1/2+z
x,1/2-y,-z
-x,1/2+y,1/2-z
-x,-y,-z
x,y,1/2-z
-x,1/2+y,z
x,1/2-y,1/2+z
loop_
_atom_site_type_symbol
_atom_site_label
_atom_site_fract_x
_atom_site_fract_y
_atom_site_fract_z
Si Si1 0.776365 0.596780 0.077516
Si Si2 0.364113 0.327005 0.573184
Si Si3 0.930041 0.581087 0.421112
Si Si4 0.803419 0.326433 0.576736
Si Si5 0.568415 0.966532 0.074876
Si Si6 0.713157 0.037178 0.080501
Si Si7 0.069718 0.591694 0.578196
O O1 0.769562 0.582741 0.250000
O O2 0.717459 0.656139 0.026875
O O3 0.856190 0.622599 0.038004
O O4 0.763224 0.517038 0.009015
O O5 0.386140 0.250000 0.500000
O O6 0.374545 0.324098 0.750000
O O7 0.414641 0.388901 0.503634
O O8 0.951100 0.593266 0.250000
O O9 0.918208 0.494477 0.453809
O O10 0.991277 0.614491 0.523613
O O11 0.784270 0.250000 0.500000
O O12 0.815123 0.313422 0.750000
O O13 0.736266 0.379256 0.544222
O O14 0.874786 0.360564 0.512565
O O15 0.556890 0.953872 0.250000
O O16 0.630966 0.025076 0.042049
O O17 0.500000 0.000000 0.000000
O O18 0.727555 0.017246 0.250000
O O19 0.077013 0.611911 0.750000
#
# Coordination Sequence:
#
# PCOD8230942 Si02
#       7
#     8   8   8   8   8   8   8
#     4   9  17  31  53  78 104 137 178 222 267 317
#     4  10  20  35  56  83 114 147 181 220 270 324
#     4   9  17  30  49  74 103 135 174 224 273 321
#     4  11  22  36  53  74 103 140 179 225 276 324
#     4  10  20  37  60  87 115 145 181 221 266 318
#     4   9  19  34  54  78 105 135 174 221 265 314
#     4  10  19  31  49  73 101 136 179 224 272 323
#
# _framework density 18.146349000000001
#
# number of rings (size 3 to 8) (size 9 to 14) (size 15 to 20)
#    0.000    2.286    1.429    1.714    0.000    2.857 
#    0.000    1.429    0.000    3.429    0.000    0.000 
#    0.000    0.000    0.000    0.000    0.000    0.000 
#
# Total GULP energy -694321.054874 kJ/mol
# GULP energy per Si atom -12398.590266 kJ/mol
# Density = 1.810505 g / cm^3
# Si number density = 18.146349 Si / 1000 Ang^3
#
#
#
# Elastic Constant Matrix: (Units=GPa)
#
#
# Indices 1 2 3 4 5 6 
#
# 1 121.5777 60.6602 52.6292 0.0000 0.0000 0.0000
# 2 60.6602 104.8264 54.6647 0.0000 0.0000 0.0000
# 3 52.6292 54.6647 87.7069 0.0000 0.0000 0.0000
# 4 0.0000 0.0000 0.0000 28.9387 0.0000 0.0000
# 5 0.0000 0.0000 0.0000 0.0000 28.0894 0.0000
# 6 0.0000 0.0000 0.0000 0.0000 0.0000 18.4427
#
#
#
# Elastic Compliance Matrix: (Units=1/GPa)
#
#
# Indices 1 2 3 4 5 6 
#
# 1 0.012654 -0.004982 -0.004488 0.000000 0.000000 0.000000
# 2 -0.004982 0.016095 -0.007042 0.000000 0.000000 0.000000
# 3 -0.004488 -0.007042 0.018483 0.000000 0.000000 0.000000
# 4 0.000000 0.000000 0.000000 0.034556 0.000000 0.000000
# 5 0.000000 0.000000 0.000000 0.000000 0.035601 0.000000
# 6 0.000000 0.000000 0.000000 0.000000 0.000000 0.054222
#
#
# Mechanical properties :
#
#
# Convention : Reuss Voigt Hill
#
# Bulk Modulus (GPa) = 70.37990 72.22435 71.30212
# Shear Modulus (GPa) = 23.88124 24.83796 24.35960
#
# Velocity S-wave (km/s) = 3.63166 3.70369 3.66785
# Velocity P-wave (km/s) = 7.51359 7.62740 7.57071
#
# Compressibility (1/GPa) = 0.01420860
#
# Stress axis : x y z
#
# Youngs Moduli (GPa) = 79.02868 62.13236 54.10254
#
# Poissons Ratio (x) = 0.30955 0.24280
# Poissons Ratio (y) = 0.39372 0.38098
# Poissons Ratio (z) = 0.35466 0.43752
#
# Static dielectric constant tensor:
#      x y z
#    x 3.543660 0.000000 0.000000 
#    y 0.000000 3.213820 0.000000 
#    z 0.000000 0.000000 3.433190 
# 
# 
# High freq. dielectric constant tensor:
#      x y z
#    x 1.704740 0.000000 0.000000 
#    y 0.000000 1.679050 0.000000 
#    z 0.000000 0.000000 1.713350 
# 
# From -- ./inp_files/8358.got.cif
#   From: 2010.03.12/outbox.cif.g09.slc.cpg/sg57_5_cif.got.tgz:8358.got - 2010.04.16 15:48:40.
