data_PCOD8230221
_publ_section_title
;
Structure prediction by ZEFSAII (Michael W. Deem and Ramdas Pophale) SiO2 
 PCOD8230221
Probable space group: P B C M
;
_chemical_formula_sum "Si O2"
_cell_formula_units_Z 64
_cell_length_a 19.747093
_cell_length_b 19.627699
_cell_length_c 8.978662
_cell_angle_alpha 90.000000
_cell_angle_beta 90.000000
_cell_angle_gamma 90.000000
_cell_volume 3480.039582
_symmetry_space_group_name_H-M "P B C M"
_symmetry_group_IT_number 57
_symmetry_cell_setting 'orthorhombic'
loop_
_space_group_symop_operation_xyz
x,y,z
-x,-y,1/2+z
x,1/2-y,-z
-x,1/2+y,1/2-z
-x,-y,-z
x,y,1/2-z
-x,1/2+y,z
x,1/2-y,1/2+z
loop_
_atom_site_type_symbol
_atom_site_label
_atom_site_fract_x
_atom_site_fract_y
_atom_site_fract_z
Si Si1 0.399920 0.571073 0.923629
Si Si2 0.481573 0.323134 0.075237
Si Si3 0.379192 0.416415 0.577758
Si Si4 0.838324 0.316398 0.081882
Si Si5 0.902470 0.555706 0.578434
Si Si6 0.262698 0.590183 0.074085
Si Si7 0.949995 0.073901 0.916244
Si Si8 0.228519 0.451719 0.924080
O O1 0.379962 0.576441 0.750000
O O2 0.462984 0.619121 0.964006
O O3 0.411202 0.490770 0.962952
O O4 0.339925 0.599171 0.024484
O O5 0.476842 0.309987 0.250000
O O6 0.497378 0.250000 0.000000
O O7 0.411516 0.355557 0.017886
O O8 0.392689 0.400329 0.750000
O O9 0.298902 0.413400 0.540637
O O10 0.812429 0.304176 0.250000
O O11 0.905973 0.359527 0.080610
O O12 0.863152 0.250000 0.000000
O O13 0.776610 0.344798 0.985288
O O14 0.881454 0.559059 0.750000
O O15 0.917955 0.477864 0.533779
O O16 0.838335 0.586945 0.486429
O O17 0.972437 0.595732 0.543475
O O18 0.258462 0.584713 0.250000
O O19 0.228103 0.524638 0.002046
O O20 0.949781 0.040687 0.750000
O O21 0.220698 0.464281 0.750000
#
# Coordination Sequence:
#
# PCOD8230221 Si02
#       8
#     8   8   8   8   8   8   8   8
#     4   9  20  38  58  81 111 147 181 224 277 328
#     4  11  23  38  58  82 111 145 183 225 275 331
#     4   9  19  36  58  82 110 143 183 228 278 329
#     4  11  22  36  52  70 102 144 181 218 262 314
#     4  10  18  29  51  80 105 132 173 219 264 315
#     4  11  21  33  52  79 106 137 178 219 259 313
#     4   9  19  33  49  72 104 139 172 215 267 310
#     4  10  19  33  53  79 111 142 170 215 274 321
#
# _framework density 18.390595000000001
#
# number of rings (size 3 to 8) (size 9 to 14) (size 15 to 20)
#    0.000    2.000    1.250    3.750    0.000    5.000 
#    0.000    1.250    0.000    0.750    0.000    3.500 
#    0.000    0.000    0.000    0.000    0.000    0.000 
#
# Total GULP energy -793363.394873 kJ/mol
# GULP energy per Si atom -12396.303045 kJ/mol
# Density = 1.834874 g / cm^3
# Si number density = 18.390595 Si / 1000 Ang^3
#
#
#
# Elastic Constant Matrix: (Units=GPa)
#
#
# Indices 1 2 3 4 5 6 
#
# 1 106.8625 28.1385 49.1282 0.0000 0.0000 0.0000
# 2 28.1385 58.2853 28.9228 0.0000 0.0000 0.0000
# 3 49.1282 28.9228 99.5167 0.0000 0.0000 0.0000
# 4 0.0000 0.0000 0.0000 27.1910 0.0000 0.0000
# 5 0.0000 0.0000 0.0000 0.0000 32.9203 0.0000
# 6 0.0000 0.0000 0.0000 0.0000 0.0000 31.3172
#
#
#
# Elastic Compliance Matrix: (Units=1/GPa)
#
#
# Indices 1 2 3 4 5 6 
#
# 1 0.012697 -0.003528 -0.005243 0.000000 0.000000 0.000000
# 2 -0.003528 0.021029 -0.004370 0.000000 0.000000 0.000000
# 3 -0.005243 -0.004370 0.013907 0.000000 0.000000 0.000000
# 4 0.000000 0.000000 0.000000 0.036777 0.000000 0.000000
# 5 0.000000 0.000000 0.000000 0.000000 0.030376 0.000000
# 6 0.000000 0.000000 0.000000 0.000000 0.000000 0.031931
#
#
# Mechanical properties :
#
#
# Convention : Reuss Voigt Hill
#
# Bulk Modulus (GPa) = 46.83628 53.00483 49.92056
# Shear Modulus (GPa) = 27.75990 28.85070 28.30530
#
# Velocity S-wave (km/s) = 3.88939 3.96507 3.92742
# Velocity P-wave (km/s) = 6.75963 7.06022 6.91156
#
# Compressibility (1/GPa) = 0.02135097
#
# Stress axis : x y z
#
# Youngs Moduli (GPa) = 78.75810 47.55392 71.90743
#
# Poissons Ratio (x) = 0.16778 0.37699
# Poissons Ratio (y) = 0.27787 0.31423
# Poissons Ratio (z) = 0.41291 0.20781
#
# Static dielectric constant tensor:
#      x y z
#    x 3.630340 0.000000 0.000000 
#    y 0.000000 3.029350 0.000000 
#    z 0.000000 0.000000 3.503230 
# 
# 
# High freq. dielectric constant tensor:
#      x y z
#    x 1.728690 0.000000 0.000000 
#    y 0.000000 1.671260 0.000000 
#    z 0.000000 0.000000 1.724030 
# 
# From -- ./inp_files/8764.got.cif
#   From: 2010.03.12/outbox.cif.g09.slc.cpg/sg57_5_cif.got.tgz:8764.got - 2010.04.16 15:48:40.
