data_PCOD8230339
_publ_section_title
;
Structure prediction by ZEFSAII (Michael W. Deem and Ramdas Pophale) SiO2 
 PCOD8230339
Probable space group: P B C M
;
_chemical_formula_sum "Si O2"
_cell_formula_units_Z 64
_cell_length_a 19.819501
_cell_length_b 19.769111
_cell_length_c 8.725523
_cell_angle_alpha 90.000000
_cell_angle_beta 90.000000
_cell_angle_gamma 90.000000
_cell_volume 3418.781329
_symmetry_space_group_name_H-M "P B C M"
_symmetry_group_IT_number 57
_symmetry_cell_setting 'orthorhombic'
loop_
_space_group_symop_operation_xyz
x,y,z
-x,-y,1/2+z
x,1/2-y,-z
-x,1/2+y,1/2-z
-x,-y,-z
x,y,1/2-z
-x,1/2+y,z
x,1/2-y,1/2+z
loop_
_atom_site_type_symbol
_atom_site_label
_atom_site_fract_x
_atom_site_fract_y
_atom_site_fract_z
Si Si1 0.477516 0.931451 0.426744
Si Si2 0.663675 0.036232 0.930208
Si Si3 0.852181 0.583231 0.427626
Si Si4 0.194597 0.552477 0.428367
Si Si5 0.731537 0.817751 0.572303
Si Si6 0.618840 0.895717 0.429469
Si Si7 0.960003 0.821168 0.069113
Si Si8 0.895839 0.319885 0.929740
O O1 0.472732 0.947473 0.250000
O O2 0.538694 0.878827 0.461312
O O3 0.500000 0.000000 0.500000
O O4 0.400179 0.914257 0.477143
O O5 0.680698 0.038319 0.750000
O O6 0.644708 0.959876 0.974724
O O7 0.728092 0.061950 0.022510
O O8 0.872334 0.586175 0.250000
O O9 0.843346 0.506155 0.478806
O O10 0.781905 0.620721 0.459418
O O11 0.910836 0.618020 0.524487
O O12 0.190829 0.534303 0.250000
O O13 0.158000 0.622450 0.467027
O O14 0.763344 0.750000 0.500000
O O15 0.717929 0.806444 0.750000
O O16 0.660842 0.831467 0.486660
O O17 0.631299 0.909386 0.250000
O O18 0.962477 0.813541 0.250000
O O19 0.933952 0.750000 0.000000
O O20 0.033556 0.839782 0.006644
O O21 0.907901 0.310513 0.750000
O O22 0.867809 0.250000 0.000000
#
# Coordination Sequence:
#
# PCOD8230339 Si02
#       8
#     8   8   8   8   8   8   8   8
#     4   8  16  28  46  73 102 136 175 218 267 316
#     4  10  18  31  51  78 111 143 179 222 273 329
#     4  11  23  38  57  82 114 148 187 232 278 329
#     4  11  23  37  57  85 116 147 183 229 282 333
#     4  11  23  36  52  76 107 149 193 232 278 333
#     4  10  18  31  51  74 105 141 182 231 274 321
#     4  11  22  38  61  85 113 149 189 231 274 327
#     4  10  22  41  63  86 111 142 182 227 277 338
#
# _framework density 18.720122
#
# number of rings (size 3 to 8) (size 9 to 14) (size 15 to 20)
#    0.000    1.750    1.250    4.500    0.000    6.000 
#    0.000    0.000    0.000    0.750    0.000    1.750 
#    0.000    0.000    0.000    0.000    0.000    0.000 
#
# Total GULP energy -793343.973911 kJ/mol
# GULP energy per Si atom -12395.999592 kJ/mol
# Density = 1.867751 g / cm^3
# Si number density = 18.720122 Si / 1000 Ang^3
#
#
#
# Elastic Constant Matrix: (Units=GPa)
#
#
# Indices 1 2 3 4 5 6 
#
# 1 120.1341 54.7548 47.9213 0.0000 0.0000 0.0000
# 2 54.7548 83.2656 41.5221 0.0000 0.0000 0.0000
# 3 47.9213 41.5221 82.9835 0.0000 0.0000 0.0000
# 4 0.0000 0.0000 0.0000 27.6448 0.0000 0.0000
# 5 0.0000 0.0000 0.0000 0.0000 30.6298 0.0000
# 6 0.0000 0.0000 0.0000 0.0000 0.0000 18.0315
#
#
#
# Elastic Compliance Matrix: (Units=1/GPa)
#
#
# Indices 1 2 3 4 5 6 
#
# 1 0.012936 -0.006371 -0.004282 0.000000 0.000000 0.000000
# 2 -0.006371 0.019141 -0.005898 0.000000 0.000000 0.000000
# 3 -0.004282 -0.005898 0.017475 0.000000 0.000000 0.000000
# 4 0.000000 0.000000 0.000000 0.036173 0.000000 0.000000
# 5 0.000000 0.000000 0.000000 0.000000 0.032648 0.000000
# 6 0.000000 0.000000 0.000000 0.000000 0.000000 0.055458
#
#
# Mechanical properties :
#
#
# Convention : Reuss Voigt Hill
#
# Bulk Modulus (GPa) = 60.79708 63.86441 62.33075
# Shear Modulus (GPa) = 23.53859 24.74023 24.13941
#
# Velocity S-wave (km/s) = 3.54982 3.63930 3.59484
# Velocity P-wave (km/s) = 7.02489 7.20061 7.11329
#
# Compressibility (1/GPa) = 0.01644816
#
# Stress axis : x y z
#
# Youngs Moduli (GPa) = 77.30268 52.24498 57.22529
#
# Poissons Ratio (x) = 0.33286 0.24506
# Poissons Ratio (y) = 0.49251 0.33752
# Poissons Ratio (z) = 0.33104 0.30814
#
# Static dielectric constant tensor:
#      x y z
#    x 3.880780 0.000000 0.000000 
#    y 0.000000 3.198700 0.000000 
#    z 0.000000 0.000000 3.527030 
# 
# 
# High freq. dielectric constant tensor:
#      x y z
#    x 1.740430 0.000000 0.000000 
#    y 0.000000 1.692660 0.000000 
#    z 0.000000 0.000000 1.743500 
# 
# From -- ./inp_files/8738.got.cif
#   From: 2010.03.12/outbox.cif.g09.slc.cpg/sg57_5_cif.got.tgz:8738.got - 2010.04.16 15:48:40.
