data_PCOD8230357
_publ_section_title
;
Structure prediction by ZEFSAII (Michael W. Deem and Ramdas Pophale) SiO2 
 PCOD8230357
Probable space group: P B C M
;
_chemical_formula_sum "Si O2"
_cell_formula_units_Z 64
_cell_length_a 24.717561
_cell_length_b 14.588279
_cell_length_c 8.806526
_cell_angle_alpha 90.000000
_cell_angle_beta 90.000000
_cell_angle_gamma 90.000000
_cell_volume 3175.515938
_symmetry_space_group_name_H-M "P B C M"
_symmetry_group_IT_number 57
_symmetry_cell_setting 'orthorhombic'
loop_
_space_group_symop_operation_xyz
x,y,z
-x,-y,1/2+z
x,1/2-y,-z
-x,1/2+y,1/2-z
-x,-y,-z
x,y,1/2-z
-x,1/2+y,z
x,1/2-y,1/2+z
loop_
_atom_site_type_symbol
_atom_site_label
_atom_site_fract_x
_atom_site_fract_y
_atom_site_fract_z
Si Si1 0.413710 0.334849 0.423655
Si Si2 0.318912 0.031950 0.576671
Si Si3 0.515744 0.404328 0.570913
Si Si4 0.873756 0.962216 0.571282
Si Si5 0.367159 0.844343 0.928809
Si Si6 0.228024 0.350469 0.570771
Si Si7 0.026223 0.344290 0.930645
Si Si8 0.909974 0.344450 0.429950
O O1 0.380527 0.250000 0.500000
O O2 0.427511 0.314264 0.250000
O O3 0.379176 0.427125 0.438820
O O4 0.468877 0.335858 0.519989
O O5 0.298348 0.042389 0.750000
O O6 0.279085 0.085961 0.466535
O O7 0.324745 0.925451 0.528596
O O8 0.500000 0.500000 0.500000
O O9 0.518745 0.415946 0.750000
O O10 0.573138 0.367862 0.507109
O O11 0.869190 0.953328 0.750000
O O12 0.824290 0.903700 0.501569
O O13 0.931300 0.921764 0.518325
O O14 0.871240 0.069970 0.524701
O O15 0.369818 0.832338 0.750000
O O16 0.345377 0.750000 0.000000
O O17 0.233191 0.250000 0.500000
O O18 0.224228 0.337875 0.750000
O O19 0.020065 0.336124 0.750000
O O20 0.048801 0.250000 0.000000
O O21 0.968736 0.367442 0.003860
O O22 0.886433 0.250000 0.500000
O O23 0.914797 0.333046 0.250000
#
# Coordination Sequence:
#
# PCOD8230357 Si02
#       8
#     8   8   8   8   8   8   8   8
#     4  11  22  37  56  82 115 149 186 230 279 337
#     4  10  22  42  61  82 114 147 187 236 284 333
#     4  11  21  36  57  84 117 154 189 230 279 335
#     4   9  20  36  55  79 112 148 186 232 281 334
#     4  10  22  40  60  85 116 150 188 233 281 332
#     4  11  23  41  63  88 113 144 185 231 287 342
#     4  10  18  31  51  79 113 150 186 227 277 332
#     4  10  19  34  53  78 112 150 188 231 275 325
#
# _framework density 20.154205000000001
#
# number of rings (size 3 to 8) (size 9 to 14) (size 15 to 20)
#    0.000    1.750    1.250    4.125    0.000    4.500 
#    0.000    6.875    0.000    3.000    0.000    0.000 
#    0.000    0.000    0.000    0.000    0.000    0.000 
#
# Total GULP energy -793458.625279 kJ/mol
# GULP energy per Si atom -12397.791020 kJ/mol
# Density = 2.010833 g / cm^3
# Si number density = 20.154205 Si / 1000 Ang^3
#
#
#
# Elastic Constant Matrix: (Units=GPa)
#
#
# Indices 1 2 3 4 5 6 
#
# 1 72.3939 53.2718 27.8377 0.0000 0.0000 0.0000
# 2 53.2718 170.6916 46.5886 0.0000 0.0000 0.0000
# 3 27.8377 46.5886 75.5933 0.0000 0.0000 0.0000
# 4 0.0000 0.0000 0.0000 33.2885 0.0000 0.0000
# 5 0.0000 0.0000 0.0000 0.0000 20.5190 0.0000
# 6 0.0000 0.0000 0.0000 0.0000 0.0000 28.8305
#
#
#
# Elastic Compliance Matrix: (Units=1/GPa)
#
#
# Indices 1 2 3 4 5 6 
#
# 1 0.018884 -0.004803 -0.003994 0.000000 0.000000 0.000000
# 2 -0.004803 0.008265 -0.003325 0.000000 0.000000 0.000000
# 3 -0.003994 -0.003325 0.016749 0.000000 0.000000 0.000000
# 4 0.000000 0.000000 0.000000 0.030040 0.000000 0.000000
# 5 0.000000 0.000000 0.000000 0.000000 0.048735 0.000000
# 6 0.000000 0.000000 0.000000 0.000000 0.000000 0.034685
#
#
# Mechanical properties :
#
#
# Convention : Reuss Voigt Hill
#
# Bulk Modulus (GPa) = 50.88208 63.78612 57.33410
# Shear Modulus (GPa) = 26.57400 29.25964 27.91682
#
# Velocity S-wave (km/s) = 3.63510 3.81437 3.72581
# Velocity P-wave (km/s) = 6.55132 7.14961 6.85699
#
# Compressibility (1/GPa) = 0.01965329
#
# Stress axis : x y z
#
# Youngs Moduli (GPa) = 52.95576 120.98966 59.70657
#
# Poissons Ratio (x) = 0.58117 0.23845
# Poissons Ratio (y) = 0.25437 0.19852
# Poissons Ratio (z) = 0.21149 0.40229
#
# Static dielectric constant tensor:
#      x y z
#    x 4.245430 0.000000 0.000000 
#    y 0.000000 3.975650 0.000000 
#    z 0.000000 0.000000 3.630050 
# 
# 
# High freq. dielectric constant tensor:
#      x y z
#    x 1.763860 0.000000 0.000000 
#    y 0.000000 1.808590 0.000000 
#    z 0.000000 0.000000 1.778110 
# 
# From -- ./inp_files/9460.got.cif
#   From: 2010.03.12/outbox.cif.g09.slc.cpg/sg57_5_cif.got.tgz:9460.got - 2010.04.16 15:48:40.
