data_PCOD8230042
_publ_section_title
;
Structure prediction by ZEFSAII (Michael W. Deem and Ramdas Pophale) SiO2 
 PCOD8230042
Probable space group: P B C M
;
_chemical_formula_sum "Si O2"
_cell_formula_units_Z 32
_cell_length_a 10.174235
_cell_length_b 14.040269
_cell_length_c 10.072998
_cell_angle_alpha 90.000000
_cell_angle_beta 90.000000
_cell_angle_gamma 90.000000
_cell_volume 1438.917654
_symmetry_space_group_name_H-M "P B C M"
_symmetry_group_IT_number 57
_symmetry_cell_setting 'orthorhombic'
loop_
_space_group_symop_operation_xyz
x,y,z
-x,-y,1/2+z
x,1/2-y,-z
-x,1/2+y,1/2-z
-x,-y,-z
x,y,1/2-z
-x,1/2+y,z
x,1/2-y,1/2+z
loop_
_atom_site_type_symbol
_atom_site_label
_atom_site_fract_x
_atom_site_fract_y
_atom_site_fract_z
Si Si1 0.400416 0.250000 0.000000
Si Si2 0.988749 0.661056 0.250000
Si Si3 0.847455 0.363611 0.515618
Si Si4 0.562502 0.423593 0.902764
Si Si5 0.962684 0.130553 0.750000
Si Si6 0.764863 0.792974 0.250000
O O1 0.490098 0.323780 0.921686
O O2 0.315792 0.196182 0.886544
O O3 0.035387 0.606966 0.117643
O O4 0.074780 0.757911 0.250000
O O5 0.833431 0.687105 0.250000
O O6 0.831478 0.250000 0.500000
O O7 0.714532 0.411931 0.563185
O O8 0.894196 0.414466 0.379286
O O9 0.547157 0.456987 0.750000
O O10 0.500000 0.500000 0.000000
O O11 0.123018 0.124183 0.750000
#
# Coordination Sequence:
#
# PCOD8230042 Si02
#       6
#     4   4   8   8   4   4
#     4  12  24  42  70  96 136 182 212 264 346 408
#     4   8  16  31  58  94 121 160 216 266 307 380
#     4  10  17  35  64  94 120 162 221 268 317 370
#     4  12  28  44  66  98 136 177 225 278 328 394
#     4   8  18  29  60 100 119 156 212 272 313 384
#     4  10  20  36  64 104 132 166 220 260 342 406
#
# _framework density 22.238937
#
# number of rings (size 3 to 8) (size 9 to 14) (size 15 to 20)
#    0.750    1.000    3.750    1.500    3.500    0.000 
#    0.000    0.000    0.000    9.000    0.000    0.000 
#    0.000    0.000    0.000    0.000    0.000    0.000 
#
# Total GULP energy -396524.597466 kJ/mol
# GULP energy per Si atom -12391.393671 kJ/mol
# Density = 2.218832 g / cm^3
# Si number density = 22.238937 Si / 1000 Ang^3
#
#
#
# Elastic Constant Matrix: (Units=GPa)
#
#
# Indices 1 2 3 4 5 6 
#
# 1 84.4593 -5.7736 33.1470 0.0000 0.0000 0.0000
# 2 -5.7736 29.7315 0.3934 0.0000 0.0000 0.0000
# 3 33.1470 0.3934 183.8119 0.0000 0.0000 0.0000
# 4 0.0000 0.0000 0.0000 17.9528 0.0000 0.0000
# 5 0.0000 0.0000 0.0000 0.0000 33.6865 0.0000
# 6 0.0000 0.0000 0.0000 0.0000 0.0000 4.7108
#
#
#
# Elastic Compliance Matrix: (Units=1/GPa)
#
#
# Indices 1 2 3 4 5 6 
#
# 1 0.012931 0.002542 -0.002337 0.000000 0.000000 0.000000
# 2 0.002542 0.034135 -0.000531 0.000000 0.000000 0.000000
# 3 -0.002337 -0.000531 0.005863 0.000000 0.000000 0.000000
# 4 0.000000 0.000000 0.000000 0.055702 0.000000 0.000000
# 5 0.000000 0.000000 0.000000 0.000000 0.029685 0.000000
# 6 0.000000 0.000000 0.000000 0.000000 0.000000 0.212277
#
#
# Mechanical properties :
#
#
# Convention : Reuss Voigt Hill
#
# Bulk Modulus (GPa) = 19.12940 39.28183 29.20561
# Shear Modulus (GPa) = 13.56219 29.28575 21.42397
#
# Velocity S-wave (km/s) = 2.47217 3.63280 3.10716
# Velocity P-wave (km/s) = 4.09503 5.94123 5.10233
#
# Compressibility (1/GPa) = 0.05227556
#
# Stress axis : x y z
#
# Youngs Moduli (GPa) = 77.33291 29.29544 170.56192
#
# Poissons Ratio (x) = -0.07447 0.39866
# Poissons Ratio (y) = -0.19658 0.09065
# Poissons Ratio (z) = 0.18075 0.01557
#
# Static dielectric constant tensor:
#      x y z
#    x 3.936750 0.000000 0.000000 
#    y 0.000000 3.451310 0.000000 
#    z 0.000000 0.000000 4.347330 
# 
# 
# High freq. dielectric constant tensor:
#      x y z
#    x 1.875440 0.000000 0.000000 
#    y 0.000000 1.831470 0.000000 
#    z 0.000000 0.000000 1.900920 
# 
# From -- ./inp_files/2452.got.cif
#   From: 2010.03.12/outbox.cif.g09.slc.cpg/sg57_2_cif.got.tgz:2452.got - 2010.04.16 15:48:40.
