data_PCOD8230133
_publ_section_title
;
Structure prediction by ZEFSAII (Michael W. Deem and Ramdas Pophale) SiO2 
 PCOD8230133
Probable space group: P B C M
;
_chemical_formula_sum "Si O2"
_cell_formula_units_Z 64
_cell_length_a 17.065924
_cell_length_b 24.198986
_cell_length_c 8.699938
_cell_angle_alpha 90.000000
_cell_angle_beta 90.000000
_cell_angle_gamma 90.000000
_cell_volume 3592.883482
_symmetry_space_group_name_H-M "P B C M"
_symmetry_group_IT_number 57
_symmetry_cell_setting 'orthorhombic'
loop_
_space_group_symop_operation_xyz
x,y,z
-x,-y,1/2+z
x,1/2-y,-z
-x,1/2+y,1/2-z
-x,-y,-z
x,y,1/2-z
-x,1/2+y,z
x,1/2-y,1/2+z
loop_
_atom_site_type_symbol
_atom_site_label
_atom_site_fract_x
_atom_site_fract_y
_atom_site_fract_z
Si Si1 0.755102 0.810532 0.567863
Si Si2 0.728495 0.130116 0.567342
Si Si3 0.870954 0.192358 0.431083
Si Si4 0.584747 0.188811 0.069288
Si Si5 0.584903 0.808633 0.928497
Si Si6 0.968750 0.400742 0.430325
Si Si7 0.176494 0.528279 0.929466
Si Si8 0.862993 0.909889 0.567082
O O1 0.773595 0.750000 0.500000
O O2 0.761054 0.805749 0.750000
O O3 0.668476 0.833454 0.514305
O O4 0.817372 0.855540 0.507884
O O5 0.724220 0.131388 0.750000
O O6 0.790008 0.175785 0.512229
O O7 0.643845 0.144225 0.500251
O O8 0.757537 0.070039 0.501921
O O9 0.898345 0.250000 0.500000
O O10 0.857804 0.195527 0.250000
O O11 0.941614 0.151555 0.471278
O O12 0.598711 0.194483 0.250000
O O13 0.498041 0.161657 0.033097
O O14 0.596750 0.250000 0.000000
O O15 0.593614 0.799984 0.750000
O O16 0.573797 0.750000 0.000000
O O17 0.964854 0.386681 0.250000
O O18 0.911126 0.451467 0.472615
O O19 0.055748 0.415516 0.479681
O O20 0.188076 0.532266 0.750000
O O21 0.186705 0.464635 0.982084
O O22 0.876734 0.908752 0.750000
#
# Coordination Sequence:
#
# PCOD8230133 Si02
#       8
#     8   8   8   8   8   8   8   8
#     4   9  18  32  51  73  98 125 154 192 238 287
#     4  10  19  32  48  69  97 127 160 198 238 280
#     4  11  21  34  50  69  96 130 163 195 236 285
#     4  10  18  28  45  70  98 127 160 195 232 279
#     4   8  15  28  45  67  94 124 156 191 232 276
#     4  10  20  34  50  71  97 125 159 201 245 285
#     4   8  17  33  51  69  92 123 161 202 239 280
#     4  10  19  33  53  74  93 121 162 202 242 287
#
# _framework density 17.812992000000001
#
# number of rings (size 3 to 8) (size 9 to 14) (size 15 to 20)
#    0.000    2.500    0.000    3.750    0.000    1.500 
#    0.000    4.375    0.000    0.750    0.000    0.000 
#    0.000    0.000    0.000    0.000    0.000    1.125 
#
# Total GULP energy -792887.890443 kJ/mol
# GULP energy per Si atom -12388.873288 kJ/mol
# Density = 1.777245 g / cm^3
# Si number density = 17.812992 Si / 1000 Ang^3
#
#
#
# Elastic Constant Matrix: (Units=GPa)
#
#
# Indices 1 2 3 4 5 6 
#
# 1 103.0662 53.4693 28.6673 0.0000 0.0000 0.0000
# 2 53.4693 108.6270 23.4206 0.0000 0.0000 0.0000
# 3 28.6673 23.4206 50.2517 0.0000 0.0000 0.0000
# 4 0.0000 0.0000 0.0000 18.7673 0.0000 0.0000
# 5 0.0000 0.0000 0.0000 0.0000 13.5479 0.0000
# 6 0.0000 0.0000 0.0000 0.0000 0.0000 18.3911
#
#
#
# Elastic Compliance Matrix: (Units=1/GPa)
#
#
# Indices 1 2 3 4 5 6 
#
# 1 0.014235 -0.005843 -0.005397 0.000000 0.000000 0.000000
# 2 -0.005843 0.012633 -0.002554 0.000000 0.000000 0.000000
# 3 -0.005397 -0.002554 0.024169 0.000000 0.000000 0.000000
# 4 0.000000 0.000000 0.000000 0.053284 0.000000 0.000000
# 5 0.000000 0.000000 0.000000 0.000000 0.073812 0.000000
# 6 0.000000 0.000000 0.000000 0.000000 0.000000 0.054374
#
#
# Mechanical properties :
#
#
# Convention : Reuss Voigt Hill
#
# Bulk Modulus (GPa) = 42.64874 52.56214 47.60544
# Shear Modulus (GPa) = 18.66274 20.56711 19.61493
#
# Velocity S-wave (km/s) = 3.24034 3.40165 3.32197
# Velocity P-wave (km/s) = 6.16394 6.70821 6.44183
#
# Compressibility (1/GPa) = 0.02344735
#
# Stress axis : x y z
#
# Youngs Moduli (GPa) = 70.24852 79.15942 41.37465
#
# Poissons Ratio (x) = 0.46255 0.22332
# Poissons Ratio (y) = 0.41048 0.10568
# Poissons Ratio (z) = 0.37916 0.20219
#
# Static dielectric constant tensor:
#      x y z
#    x 3.671700 0.000000 0.000000 
#    y 0.000000 3.389120 0.000000 
#    z 0.000000 0.000000 3.173910 
# 
# 
# High freq. dielectric constant tensor:
#      x y z
#    x 1.692600 0.000000 0.000000 
#    y 0.000000 1.668350 0.000000 
#    z 0.000000 0.000000 1.684220 
# 
# From -- ./inp_files/7413.got.cif
#   From: 2010.03.12/outbox.cif.g09.slc.cpg/sg57_4_cif.got.tgz:7413.got - 2010.04.16 15:48:40.
