data_PCOD8230932
_publ_section_title
;
Structure prediction by ZEFSAII (Michael W. Deem and Ramdas Pophale) SiO2 
 PCOD8230932
Probable space group: P B C M
;
_chemical_formula_sum "Si O2"
_cell_formula_units_Z 64
_cell_length_a 20.507617
_cell_length_b 19.047380
_cell_length_c 9.237543
_cell_angle_alpha 90.000000
_cell_angle_beta 90.000000
_cell_angle_gamma 90.000000
_cell_volume 3608.335550
_symmetry_space_group_name_H-M "P B C M"
_symmetry_group_IT_number 57
_symmetry_cell_setting 'orthorhombic'
loop_
_space_group_symop_operation_xyz
x,y,z
-x,-y,1/2+z
x,1/2-y,-z
-x,1/2+y,1/2-z
-x,-y,-z
x,y,1/2-z
-x,1/2+y,z
x,1/2-y,1/2+z
loop_
_atom_site_type_symbol
_atom_site_label
_atom_site_fract_x
_atom_site_fract_y
_atom_site_fract_z
Si Si1 0.132545 0.676613 0.419512
Si Si2 0.605150 0.933431 0.081286
Si Si3 0.149167 0.176337 0.419277
Si Si4 0.380053 0.924699 0.419526
Si Si5 0.502352 0.176820 0.918162
Si Si6 0.249377 0.919952 0.583003
Si Si7 0.991861 0.679043 0.084364
Si Si8 0.246423 0.418254 0.413065
O O1 0.140433 0.750000 0.500000
O O2 0.141210 0.690872 0.250000
O O3 0.188126 0.624248 0.475543
O O4 0.060884 0.640371 0.451538
O O5 0.594381 0.951896 0.250000
O O6 0.555671 0.873809 0.027001
O O7 0.677692 0.904332 0.054186
O O8 0.592626 0.004479 0.992235
O O9 0.155905 0.250000 0.500000
O O10 0.160151 0.189546 0.250000
O O11 0.204252 0.124230 0.473252
O O12 0.077234 0.140541 0.450319
O O13 0.371360 0.939293 0.250000
O O14 0.429538 0.861395 0.449814
O O15 0.311721 0.900364 0.487256
O O16 0.493244 0.193167 0.750000
O O17 0.499390 0.250000 0.000000
O O18 0.266288 0.903430 0.750000
O O19 0.229968 0.000538 0.564261
O O20 0.991848 0.701201 0.250000
O O21 0.992185 0.750000 0.000000
O O22 0.228963 0.394531 0.250000
#
# Coordination Sequence:
#
# PCOD8230932 Si02
#       8
#     8   8   8   8   8   8   8   8
#     4   9  17  31  51  73  97 128 166 205 246 291
#     4   9  19  37  57  75  98 131 169 203 241 294
#     4  10  19  31  49  72  98 128 162 203 248 293
#     4  10  20  34  54  78 101 129 167 206 243 290
#     4  10  22  37  53  77 106 133 164 204 247 290
#     4   9  19  35  53  72  99 135 167 199 244 295
#     4   8  15  28  46  68  94 125 162 201 241 289
#     4   9  18  33  51  71  97 129 164 201 241 290
#
# _framework density 17.736709999999999
#
# number of rings (size 3 to 8) (size 9 to 14) (size 15 to 20)
#    0.000    2.750    0.000    1.875    0.000    5.500 
#    0.000    4.375    0.000    0.000    0.000    0.000 
#    0.000    0.000    0.000    0.000    0.000    0.000 
#
# Total GULP energy -793165.947550 kJ/mol
# GULP energy per Si atom -12393.217930 kJ/mol
# Density = 1.769634 g / cm^3
# Si number density = 17.736710 Si / 1000 Ang^3
#
#
#
# Elastic Constant Matrix: (Units=GPa)
#
#
# Indices 1 2 3 4 5 6 
#
# 1 106.5033 51.5682 46.0526 0.0000 0.0000 0.0000
# 2 51.5682 69.9080 37.6877 0.0000 0.0000 0.0000
# 3 46.0526 37.6877 66.5035 0.0000 0.0000 0.0000
# 4 0.0000 0.0000 0.0000 30.0597 0.0000 0.0000
# 5 0.0000 0.0000 0.0000 0.0000 31.3683 0.0000
# 6 0.0000 0.0000 0.0000 0.0000 0.0000 23.9837
#
#
#
# Elastic Compliance Matrix: (Units=1/GPa)
#
#
# Indices 1 2 3 4 5 6 
#
# 1 0.016326 -0.008565 -0.006452 0.000000 0.000000 0.000000
# 2 -0.008565 0.025091 -0.008288 0.000000 0.000000 0.000000
# 3 -0.006452 -0.008288 0.024201 0.000000 0.000000 0.000000
# 4 0.000000 0.000000 0.000000 0.033267 0.000000 0.000000
# 5 0.000000 0.000000 0.000000 0.000000 0.031879 0.000000
# 6 0.000000 0.000000 0.000000 0.000000 0.000000 0.041695
#
#
# Mechanical properties :
#
#
# Convention : Reuss Voigt Hill
#
# Bulk Modulus (GPa) = 52.60699 57.05910 54.83304
# Shear Modulus (GPa) = 22.18227 24.25609 23.21918
#
# Velocity S-wave (km/s) = 3.54028 3.70207 3.62208
# Velocity P-wave (km/s) = 6.81438 7.10730 6.96238
#
# Compressibility (1/GPa) = 0.01900888
#
# Stress axis : x y z
#
# Youngs Moduli (GPa) = 61.25070 39.85572 41.32003
#
# Poissons Ratio (x) = 0.34136 0.26659
# Poissons Ratio (y) = 0.52461 0.34245
# Poissons Ratio (z) = 0.39518 0.33031
#
# Static dielectric constant tensor:
#      x y z
#    x 3.798000 0.000000 0.000000 
#    y 0.000000 2.989760 0.000000 
#    z 0.000000 0.000000 3.281130 
# 
# 
# High freq. dielectric constant tensor:
#      x y z
#    x 1.706980 0.000000 0.000000 
#    y 0.000000 1.658150 0.000000 
#    z 0.000000 0.000000 1.687930 
# 
# From -- ./inp_files/8696.got.cif
#   From: 2010.03.12/outbox.cif.g09.slc.cpg/sg57_5_cif.got.tgz:8696.got - 2010.04.16 15:48:40.
