data_PCOD8230168
_publ_section_title
;
Structure prediction by ZEFSAII (Michael W. Deem and Ramdas Pophale) SiO2 
 PCOD8230168
Probable space group: P B C M
;
_chemical_formula_sum "Si O2"
_cell_formula_units_Z 56
_cell_length_a 13.507727
_cell_length_b 28.095847
_cell_length_c 8.858338
_cell_angle_alpha 90.000000
_cell_angle_beta 90.000000
_cell_angle_gamma 90.000000
_cell_volume 3361.836988
_symmetry_space_group_name_H-M "P B C M"
_symmetry_group_IT_number 57
_symmetry_cell_setting 'orthorhombic'
loop_
_space_group_symop_operation_xyz
x,y,z
-x,-y,1/2+z
x,1/2-y,-z
-x,1/2+y,1/2-z
-x,-y,-z
x,y,1/2-z
-x,1/2+y,z
x,1/2-y,1/2+z
loop_
_atom_site_type_symbol
_atom_site_label
_atom_site_fract_x
_atom_site_fract_y
_atom_site_fract_z
Si Si1 0.512979 0.797606 0.573922
Si Si2 0.900924 0.518820 0.072869
Si Si3 0.704838 0.034929 0.572420
Si Si4 0.602482 0.549079 0.923078
Si Si5 0.574804 0.396518 0.925334
Si Si6 0.804401 0.896958 0.421298
Si Si7 0.724734 0.798505 0.071228
O O1 0.467107 0.750000 0.500000
O O2 0.532010 0.788990 0.750000
O O3 0.435047 0.840101 0.545975
O O4 0.617648 0.809992 0.498148
O O5 0.912934 0.517421 0.250000
O O6 0.811292 0.484756 0.018290
O O7 0.880117 0.573369 0.024689
O O8 0.000000 0.500000 0.000000
O O9 0.702481 0.043028 0.750000
O O10 0.681219 0.084831 0.487232
O O11 0.619645 0.997623 0.524515
O O12 0.588503 0.533278 0.750000
O O13 0.693597 0.584640 0.942252
O O14 0.506931 0.576279 0.979001
O O15 0.562180 0.408607 0.750000
O O16 0.841026 0.903138 0.250000
O O17 0.801148 0.841246 0.468067
O O18 0.712355 0.793161 0.250000
O O19 0.768496 0.750000 0.000000
#
# Coordination Sequence:
#
# PCOD8230168 Si02
#       7
#     8   8   8   8   8   8   8
#     4  10  20  31  45  65  93 129 169 205 238 279
#     4  10  21  36  55  75  96 122 156 198 247 297
#     4  10  21  34  48  69  94 123 159 195 233 284
#     4  10  18  30  46  65  95 131 163 196 233 275
#     4  11  21  31  45  67  95 129 164 199 236 277
#     4   9  18  31  48  70  97 130 165 198 238 285
#     4  10  18  29  45  68  97 131 167 201 238 280
#
# _framework density 16.657558999999999
#
# number of rings (size 3 to 8) (size 9 to 14) (size 15 to 20)
#    0.000    2.000    1.429    3.857    0.000    5.143 
#    0.000    0.000    0.000    0.000    0.000    1.000 
#    0.000    6.857    0.000    0.000    0.000    0.000 
#
# Total GULP energy -694341.473142 kJ/mol
# GULP energy per Si atom -12398.954878 kJ/mol
# Density = 1.661965 g / cm^3
# Si number density = 16.657559 Si / 1000 Ang^3
#
#
#
# Elastic Constant Matrix: (Units=GPa)
#
#
# Indices 1 2 3 4 5 6 
#
# 1 59.9546 51.9398 32.8970 0.0000 0.0000 0.0000
# 2 51.9398 128.6989 51.9415 0.0000 0.0000 0.0000
# 3 32.8970 51.9415 77.3268 0.0000 0.0000 0.0000
# 4 0.0000 0.0000 0.0000 30.3919 0.0000 0.0000
# 5 0.0000 0.0000 0.0000 0.0000 23.5894 0.0000
# 6 0.0000 0.0000 0.0000 0.0000 0.0000 18.6357
#
#
#
# Elastic Compliance Matrix: (Units=1/GPa)
#
#
# Indices 1 2 3 4 5 6 
#
# 1 0.027423 -0.008724 -0.005807 0.000000 0.000000 0.000000
# 2 -0.008724 0.013435 -0.005313 0.000000 0.000000 0.000000
# 3 -0.005807 -0.005313 0.018971 0.000000 0.000000 0.000000
# 4 0.000000 0.000000 0.000000 0.032903 0.000000 0.000000
# 5 0.000000 0.000000 0.000000 0.000000 0.042392 0.000000
# 6 0.000000 0.000000 0.000000 0.000000 0.000000 0.053660
#
#
# Mechanical properties :
#
#
# Convention : Reuss Voigt Hill
#
# Bulk Modulus (GPa) = 49.64688 59.94855 54.79771
# Shear Modulus (GPa) = 21.25972 23.13688 22.19830
#
# Velocity S-wave (km/s) = 3.57638 3.73093 3.65448
# Velocity P-wave (km/s) = 6.85005 7.39099 7.12565
#
# Compressibility (1/GPa) = 0.02014225
#
# Stress axis : x y z
#
# Youngs Moduli (GPa) = 36.46583 74.43160 52.71085
#
# Poissons Ratio (x) = 0.64932 0.30607
# Poissons Ratio (y) = 0.31812 0.28007
# Poissons Ratio (z) = 0.21174 0.39547
#
# Static dielectric constant tensor:
#      x y z
#    x 2.864970 0.000000 0.000000 
#    y 0.000000 3.520840 0.000000 
#    z 0.000000 0.000000 3.284230 
# 
# 
# High freq. dielectric constant tensor:
#      x y z
#    x 1.593570 0.000000 0.000000 
#    y 0.000000 1.645980 0.000000 
#    z 0.000000 0.000000 1.658640 
# 
# From -- ./inp_files/5917.got.cif
#   From: 2010.03.12/outbox.cif.g09.slc.cpg/sg57_3_cif.got.tgz:5917.got - 2010.04.16 15:48:40.
