data_PCOD8230087
_publ_section_title
;
Structure prediction by ZEFSAII (Michael W. Deem and Ramdas Pophale) SiO2 
 PCOD8230087
Probable space group: P B C M
;
_chemical_formula_sum "Si O2"
_cell_formula_units_Z 64
_cell_length_a 17.612800
_cell_length_b 23.074991
_cell_length_c 9.386263
_cell_angle_alpha 90.000000
_cell_angle_beta 90.000000
_cell_angle_gamma 90.000000
_cell_volume 3814.719968
_symmetry_space_group_name_H-M "P B C M"
_symmetry_group_IT_number 57
_symmetry_cell_setting 'orthorhombic'
loop_
_space_group_symop_operation_xyz
x,y,z
-x,-y,1/2+z
x,1/2-y,-z
-x,1/2+y,1/2-z
-x,-y,-z
x,y,1/2-z
-x,1/2+y,z
x,1/2-y,1/2+z
loop_
_atom_site_type_symbol
_atom_site_label
_atom_site_fract_x
_atom_site_fract_y
_atom_site_fract_z
Si Si1 0.276937 0.565396 0.583046
Si Si2 0.856212 0.389741 0.907209
Si Si3 0.431877 0.429824 0.089711
Si Si4 0.710695 0.568695 0.409065
Si Si5 0.995459 0.191306 0.415754
Si Si6 0.426716 0.567244 0.411441
Si Si7 0.070514 0.488252 0.095547
Si Si8 0.130122 0.390647 0.590282
O O1 0.285931 0.578750 0.750000
O O2 0.211493 0.608176 0.521980
O O3 0.259913 0.496952 0.556687
O O4 0.352621 0.584446 0.500486
O O5 0.829469 0.367082 0.750000
O O6 0.927755 0.352024 0.963392
O O7 0.880568 0.455139 0.887003
O O8 0.436879 0.404387 0.250000
O O9 0.435709 0.498665 0.094810
O O10 0.352595 0.410064 0.019639
O O11 0.501034 0.405543 0.994068
O O12 0.675071 0.567515 0.250000
O O13 0.778501 0.616776 0.413691
O O14 0.985227 0.250000 0.500000
O O15 0.989171 0.205378 0.250000
O O16 0.078957 0.164808 0.451639
O O17 0.422053 0.592093 0.250000
O O18 0.042961 0.466368 0.250000
O O19 0.120602 0.439543 0.025395
O O20 0.000000 0.500000 0.000000
O O21 0.104794 0.410562 0.750000
#
# Coordination Sequence:
#
# PCOD8230087 Si02
#       8
#     8   8   8   8   8   8   8   8
#     4  10  18  27  43  67  93 121 157 194 231 279
#     4  10  20  33  48  67  95 124 153 195 242 284
#     4   9  16  25  38  57  86 123 162 195 223 264
#     4   9  17  27  42  64  92 123 154 189 234 280
#     4  10  22  39  54  68  91 123 161 202 243 287
#     4   9  16  26  39  56  86 126 162 191 226 270
#     4  11  20  30  47  70  95 121 152 191 239 290
#     4  10  19  34  50  69  96 124 156 199 242 284
#
# _framework density 16.777114999999998
#
# number of rings (size 3 to 8) (size 9 to 14) (size 15 to 20)
#    0.000    2.250    2.500    1.500    0.000    5.500 
#    0.000    0.000    0.000    0.000    0.000    0.000 
#    0.000    1.000    0.000    6.250    0.000    4.750 
#
# Total GULP energy -793065.433358 kJ/mol
# GULP energy per Si atom -12391.647396 kJ/mol
# Density = 1.673893 g / cm^3
# Si number density = 16.777115 Si / 1000 Ang^3
#
#
#
# Elastic Constant Matrix: (Units=GPa)
#
#
# Indices 1 2 3 4 5 6 
#
# 1 114.4212 22.3366 69.6141 0.0000 0.0000 0.0000
# 2 22.3366 44.7348 28.6674 0.0000 0.0000 0.0000
# 3 69.6141 28.6674 126.3190 0.0000 0.0000 0.0000
# 4 0.0000 0.0000 0.0000 11.9602 0.0000 0.0000
# 5 0.0000 0.0000 0.0000 0.0000 30.6763 0.0000
# 6 0.0000 0.0000 0.0000 0.0000 0.0000 6.1879
#
#
#
# Elastic Compliance Matrix: (Units=1/GPa)
#
#
# Indices 1 2 3 4 5 6 
#
# 1 0.013344 -0.002282 -0.006836 0.000000 0.000000 0.000000
# 2 -0.002282 0.026549 -0.004767 0.000000 0.000000 0.000000
# 3 -0.006836 -0.004767 0.012766 0.000000 0.000000 0.000000
# 4 0.000000 0.000000 0.000000 0.083611 0.000000 0.000000
# 5 0.000000 0.000000 0.000000 0.000000 0.032598 0.000000
# 6 0.000000 0.000000 0.000000 0.000000 0.000000 0.161605
#
#
# Mechanical properties :
#
#
# Convention : Reuss Voigt Hill
#
# Bulk Modulus (GPa) = 40.18106 58.52346 49.35226
# Shear Modulus (GPa) = 13.64109 20.75535 17.19822
#
# Velocity S-wave (km/s) = 2.85454 3.52109 3.20519
# Velocity P-wave (km/s) = 5.90478 7.17561 6.57099
#
# Compressibility (1/GPa) = 0.02488735
#
# Stress axis : x y z
#
# Youngs Moduli (GPa) = 74.93883 37.66686 78.33491
#
# Poissons Ratio (x) = 0.08596 0.53550
# Poissons Ratio (y) = 0.17103 0.37345
# Poissons Ratio (z) = 0.51228 0.17957
#
# Static dielectric constant tensor:
#      x y z
#    x 3.212310 0.000000 0.000000 
#    y 0.000000 2.475810 0.000000 
#    z 0.000000 0.000000 3.426700 
# 
# 
# High freq. dielectric constant tensor:
#      x y z
#    x 1.654660 0.000000 0.000000 
#    y 0.000000 1.566360 0.000000 
#    z 0.000000 0.000000 1.665050 
# 
# From -- ./inp_files/7369.got.cif
#   From: 2010.03.12/outbox.cif.g09.slc.cpg/sg57_4_cif.got.tgz:7369.got - 2010.04.16 15:48:40.
