data_PCOD8230401
_publ_section_title
;
Structure prediction by ZEFSAII (Michael W. Deem and Ramdas Pophale) SiO2 
 PCOD8230401
Probable space group: P B C M
;
_chemical_formula_sum "Si O2"
_cell_formula_units_Z 28
_cell_length_a 12.832638
_cell_length_b 21.566617
_cell_length_c 5.275807
_cell_angle_alpha 90.000000
_cell_angle_beta 90.000000
_cell_angle_gamma 90.000000
_cell_volume 1460.114349
_symmetry_space_group_name_H-M "P B C M"
_symmetry_group_IT_number 57
_symmetry_cell_setting 'orthorhombic'
loop_
_space_group_symop_operation_xyz
x,y,z
-x,-y,1/2+z
x,1/2-y,-z
-x,1/2+y,1/2-z
-x,-y,-z
x,y,1/2-z
-x,1/2+y,z
x,1/2-y,1/2+z
loop_
_atom_site_type_symbol
_atom_site_label
_atom_site_fract_x
_atom_site_fract_y
_atom_site_fract_z
Si Si1 0.546413 0.422871 0.250000
Si Si2 0.044544 0.424670 0.750000
Si Si3 0.698446 0.809148 0.750000
Si Si4 0.631646 0.024531 0.250000
Si Si5 0.386806 0.324566 0.250000
Si Si6 0.939855 0.784599 0.750000
Si Si7 0.864961 0.977752 0.250000
O O1 0.615230 0.433636 0.500120
O O2 0.445505 0.466578 0.250000
O O3 0.504048 0.351830 0.250000
O O4 0.012911 0.353036 0.750000
O O5 0.113376 0.437708 0.501080
O O6 0.937575 0.461886 0.750000
O O7 0.618700 0.750328 0.750000
O O8 0.674062 0.849905 0.500306
O O9 0.814865 0.784453 0.750000
O O10 0.747394 0.999346 0.250000
O O11 0.981341 0.750000 0.500000
#
# Coordination Sequence:
#
# PCOD8230401 Si02
#       7
#     4   4   4   4   4   4   4
#     4  10  21  33  50  80 104 148 181 221 276 325
#     4  10  23  36  61  88 112 152 191 232 292 349
#     4  10  19  30  47  77 104 140 173 209 281 332
#     4  10  21  35  51  78 112 139 190 225 267 326
#     4  10  18  32  47  70 108 137 175 215 262 337
#     4  12  21  35  52  87 120 140 185 226 288 360
#     4  10  21  41  58  84 116 150 195 236 284 341
#
# _framework density 19.176580999999999
#
# number of rings (size 3 to 8) (size 9 to 14) (size 15 to 20)
#    0.000    1.714    2.857    2.571    4.000    0.000 
#    0.000    0.000    0.000    0.000   22.286    0.000 
#    0.000    0.000    0.000    0.000    0.000    0.000 
#
# Total GULP energy -347136.479847 kJ/mol
# GULP energy per Si atom -12397.731423 kJ/mol
# Density = 1.913293 g / cm^3
# Si number density = 19.176581 Si / 1000 Ang^3
#
#
#
# Elastic Constant Matrix: (Units=GPa)
#
#
# Indices 1 2 3 4 5 6 
#
# 1 50.4769 9.8251 21.4346 0.0000 0.0000 0.0000
# 2 9.8251 79.8774 25.0603 0.0000 0.0000 0.0000
# 3 21.4346 25.0603 196.4806 0.0000 0.0000 0.0000
# 4 0.0000 0.0000 0.0000 20.0557 0.0000 0.0000
# 5 0.0000 0.0000 0.0000 0.0000 0.6373 0.0000
# 6 0.0000 0.0000 0.0000 0.0000 0.0000 18.1192
#
#
#
# Elastic Compliance Matrix: (Units=1/GPa)
#
#
# Indices 1 2 3 4 5 6 
#
# 1 0.021060 -0.001948 -0.002049 0.000000 0.000000 0.000000
# 2 -0.001948 0.013221 -0.001474 0.000000 0.000000 0.000000
# 3 -0.002049 -0.001474 0.005501 0.000000 0.000000 0.000000
# 4 0.000000 0.000000 0.000000 0.049861 0.000000 0.000000
# 5 0.000000 0.000000 0.000000 0.000000 1.569171 0.000000
# 6 0.000000 0.000000 0.000000 0.000000 0.000000 0.055190
#
#
# Mechanical properties :
#
#
# Convention : Reuss Voigt Hill
#
# Bulk Modulus (GPa) = 34.67231 48.83051 41.75141
# Shear Modulus (GPa) = 2.88258 25.79675 14.33966
#
# Velocity S-wave (km/s) = 1.22737 3.67171 2.73750
# Velocity P-wave (km/s) = 4.48647 6.59501 5.64015
#
# Compressibility (1/GPa) = 0.02884146
#
# Stress axis : x y z
#
# Youngs Moduli (GPa) = 47.48274 75.63644 181.78224
#
# Poissons Ratio (x) = 0.14731 0.37249
# Poissons Ratio (y) = 0.09248 0.26792
# Poissons Ratio (z) = 0.09730 0.11148
#
# Static dielectric constant tensor:
#      x y z
#    x 3.122010 0.000000 0.000000 
#    y 0.000000 3.361620 0.000000 
#    z 0.000000 0.000000 6.215510 
# 
# 
# High freq. dielectric constant tensor:
#      x y z
#    x 1.704010 0.000000 0.000000 
#    y 0.000000 1.729890 0.000000 
#    z 0.000000 0.000000 1.785420 
# 
# From -- ./inp_files/333.got.cif
#   From: 2010.03.12/outbox.cif.g09.slc.cpg/sg57_1_cif.got.tgz:333.got - 2010.04.16 15:48:40.
