data_PCOD8230085
_publ_section_title
;
Structure prediction by ZEFSAII (Michael W. Deem and Ramdas Pophale) SiO2 
 PCOD8230085
Probable space group: P B C M
;
_chemical_formula_sum "Si O2"
_cell_formula_units_Z 64
_cell_length_a 22.302333
_cell_length_b 18.713819
_cell_length_c 9.118957
_cell_angle_alpha 90.000000
_cell_angle_beta 90.000000
_cell_angle_gamma 90.000000
_cell_volume 3805.904518
_symmetry_space_group_name_H-M "P B C M"
_symmetry_group_IT_number 57
_symmetry_cell_setting 'orthorhombic'
loop_
_space_group_symop_operation_xyz
x,y,z
-x,-y,1/2+z
x,1/2-y,-z
-x,1/2+y,1/2-z
-x,-y,-z
x,y,1/2-z
-x,1/2+y,z
x,1/2-y,1/2+z
loop_
_atom_site_type_symbol
_atom_site_label
_atom_site_fract_x
_atom_site_fract_y
_atom_site_fract_z
Si Si1 0.228978 0.675393 0.923278
Si Si2 0.901294 0.381774 0.419383
Si Si3 0.582348 0.188337 0.409806
Si Si4 0.982332 0.677067 0.076965
Si Si5 0.056463 0.471083 0.581889
Si Si6 0.594867 0.517059 0.415656
Si Si7 0.505241 0.605162 0.585557
Si Si8 0.317861 0.572233 0.414230
O O1 0.242870 0.680502 0.750000
O O2 0.160112 0.657765 0.956318
O O3 0.245837 0.750000 0.000000
O O4 0.266535 0.611260 0.993893
O O5 0.919508 0.369576 0.250000
O O6 0.952007 0.346361 0.520464
O O7 0.892323 0.468478 0.448298
O O8 0.617080 0.250000 0.500000
O O9 0.564937 0.217432 0.250000
O O10 0.521067 0.171744 0.496141
O O11 0.624709 0.121413 0.394952
O O12 0.986370 0.691327 0.250000
O O13 0.933938 0.612909 0.037834
O O14 0.960497 0.750000 0.000000
O O15 0.038491 0.470065 0.750000
O O16 0.000000 0.500000 0.500000
O O17 0.610077 0.541083 0.250000
O O18 0.566454 0.581952 0.506463
O O19 0.545740 0.454984 0.412672
O O20 0.657596 0.495521 0.494334
O O21 0.521788 0.628156 0.750000
O O22 0.294894 0.550992 0.250000
#
# Coordination Sequence:
#
# PCOD8230085 Si02
#       8
#     8   8   8   8   8   8   8   8
#     4  11  22  33  45  61  83 113 148 185 220 254
#     4   9  18  32  47  62  84 115 151 187 221 259
#     4  10  19  29  41  58  81 110 141 172 209 251
#     4  10  18  27  43  66  91 117 145 178 218 263
#     4   8  15  28  44  62  84 112 144 178 217 260
#     4   9  16  27  43  61  81 104 133 169 208 250
#     4   9  16  26  41  60  81 105 133 166 205 249
#     4  10  20  32  45  60  81 110 144 180 215 252
#
# _framework density 16.815975999999999
#
# number of rings (size 3 to 8) (size 9 to 14) (size 15 to 20)
#    0.000    2.500    0.000    3.000    0.000    8.000 
#    0.000    0.000    0.000    0.000    0.000    0.000 
#    0.000    1.000    0.000    7.000    0.000    3.500 
#
# Total GULP energy -792853.134965 kJ/mol
# GULP energy per Si atom -12388.330234 kJ/mol
# Density = 1.677770 g / cm^3
# Si number density = 16.815976 Si / 1000 Ang^3
#
#
#
# Elastic Constant Matrix: (Units=GPa)
#
#
# Indices 1 2 3 4 5 6 
#
# 1 25.9330 3.4230 15.4582 0.0000 0.0000 0.0000
# 2 3.4230 54.8072 20.7622 0.0000 0.0000 0.0000
# 3 15.4582 20.7622 113.0515 0.0000 0.0000 0.0000
# 4 0.0000 0.0000 0.0000 25.6025 0.0000 0.0000
# 5 0.0000 0.0000 0.0000 0.0000 15.4399 0.0000
# 6 0.0000 0.0000 0.0000 0.0000 0.0000 19.6208
#
#
#
# Elastic Compliance Matrix: (Units=1/GPa)
#
#
# Indices 1 2 3 4 5 6 
#
# 1 0.041995 -0.000481 -0.005654 0.000000 0.000000 0.000000
# 2 -0.000481 0.019616 -0.003537 0.000000 0.000000 0.000000
# 3 -0.005654 -0.003537 0.010268 0.000000 0.000000 0.000000
# 4 0.000000 0.000000 0.000000 0.039059 0.000000 0.000000
# 5 0.000000 0.000000 0.000000 0.000000 0.064767 0.000000
# 6 0.000000 0.000000 0.000000 0.000000 0.000000 0.050966
#
#
# Mechanical properties :
#
#
# Convention : Reuss Voigt Hill
#
# Bulk Modulus (GPa) = 19.03481 30.34206 24.68843
# Shear Modulus (GPa) = 18.97350 22.40918 20.69134
#
# Velocity S-wave (km/s) = 3.36266 3.65446 3.51159
# Velocity P-wave (km/s) = 5.14011 5.99078 5.58168
#
# Compressibility (1/GPa) = 0.05253532
#
# Stress axis : x y z
#
# Youngs Moduli (GPa) = 23.81260 50.97979 97.38871
#
# Poissons Ratio (x) = 0.02452 0.55062
# Poissons Ratio (y) = 0.01145 0.34443
# Poissons Ratio (z) = 0.13463 0.18030
#
# Static dielectric constant tensor:
#      x y z
#    x 2.857170 0.000000 0.000000 
#    y 0.000000 3.463390 0.000000 
#    z 0.000000 0.000000 3.459470 
# 
# 
# High freq. dielectric constant tensor:
#      x y z
#    x 1.595750 0.000000 0.000000 
#    y 0.000000 1.633580 0.000000 
#    z 0.000000 0.000000 1.671210 
# 
# From -- ./inp_files/8752.got.cif
#   From: 2010.03.12/outbox.cif.g09.slc.cpg/sg57_5_cif.got.tgz:8752.got - 2010.04.16 15:48:40.
