data_PCOD8230005
_publ_section_title
;
Structure prediction by ZEFSAII (Michael W. Deem and Ramdas Pophale) SiO2 
 PCOD8230005
Probable space group: P B C M
;
_chemical_formula_sum "Si O2"
_cell_formula_units_Z 48
_cell_length_a 19.142613
_cell_length_b 5.013080
_cell_length_c 25.188403
_cell_angle_alpha 90.000000
_cell_angle_beta 90.000000
_cell_angle_gamma 90.000000
_cell_volume 2417.166061
_symmetry_space_group_name_H-M "P B C M"
_symmetry_group_IT_number 57
_symmetry_cell_setting 'orthorhombic'
loop_
_space_group_symop_operation_xyz
x,y,z
-x,-y,1/2+z
x,1/2-y,-z
-x,1/2+y,1/2-z
-x,-y,-z
x,y,1/2-z
-x,1/2+y,z
x,1/2-y,1/2+z
loop_
_atom_site_type_symbol
_atom_site_label
_atom_site_fract_x
_atom_site_fract_y
_atom_site_fract_z
Si Si1 0.046648 0.259147 0.250000
Si Si2 0.245021 0.731957 0.192732
Si Si3 0.771397 0.714705 0.558032
Si Si4 0.547159 0.185281 0.134313
Si Si5 0.455918 0.780335 0.250000
Si Si6 0.162882 0.274238 0.667061
Si Si7 0.686349 0.205772 0.912265
O O1 0.090235 0.305672 0.304806
O O2 0.982682 0.461380 0.250000
O O3 0.279727 0.776923 0.250000
O O4 0.222358 0.424940 0.188027
O O5 0.301530 0.814818 0.150341
O O6 0.177757 0.924324 0.185561
O O7 0.806642 0.750000 0.500000
O O8 0.832858 0.755423 0.602229
O O9 0.735702 0.426339 0.561208
O O10 0.707318 0.924133 0.562414
O O11 0.483292 0.389924 0.127180
O O12 0.582261 0.212155 0.193735
O O13 0.603620 0.231966 0.086611
O O14 0.525584 0.593664 0.250000
#
# Coordination Sequence:
#
# PCOD8230005 Si02
#       7
#     4   8   8   8   4   8   8
#     4  12  22  34  56  86 128 158 176 210 252 320
#     4  10  17  31  52  76 112 138 174 231 268 320
#     4  10  21  39  60  80 105 138 185 244 281 310
#     4  10  19  33  49  70 108 144 176 219 276 349
#     4   8  16  28  42  62  90 134 170 194 242 316
#     4  10  20  35  54  82 112 150 183 210 271 316
#     4  10  21  32  55  83  99 140 182 230 288 333
#
# _framework density 19.857963999999999
#
# number of rings (size 3 to 8) (size 9 to 14) (size 15 to 20)
#    0.000    2.000    1.667    2.500    1.167    0.000 
#    0.000    0.000    0.000   11.000    0.000    0.000 
#    0.000    0.000    0.000    0.000    0.000    0.000 
#
# Total GULP energy -594713.535939 kJ/mol
# GULP energy per Si atom -12389.865332 kJ/mol
# Density = 1.981277 g / cm^3
# Si number density = 19.857964 Si / 1000 Ang^3
#
#
#
# Elastic Constant Matrix: (Units=GPa)
#
#
# Indices 1 2 3 4 5 6 
#
# 1 37.9455 -2.0868 25.7563 0.0000 0.0000 0.0000
# 2 -2.0868 78.4931 6.4482 0.0000 0.0000 0.0000
# 3 25.7563 6.4482 128.1187 0.0000 0.0000 0.0000
# 4 0.0000 0.0000 0.0000 11.0641 0.0000 0.0000
# 5 0.0000 0.0000 0.0000 0.0000 16.5519 0.0000
# 6 0.0000 0.0000 0.0000 0.0000 0.0000 16.9028
#
#
#
# Elastic Compliance Matrix: (Units=1/GPa)
#
#
# Indices 1 2 3 4 5 6 
#
# 1 0.030655 0.001327 -0.006229 0.000000 0.000000 0.000000
# 2 0.001327 0.012850 -0.000913 0.000000 0.000000 0.000000
# 3 -0.006229 -0.000913 0.009104 0.000000 0.000000 0.000000
# 4 0.000000 0.000000 0.000000 0.090382 0.000000 0.000000
# 5 0.000000 0.000000 0.000000 0.000000 0.060416 0.000000
# 6 0.000000 0.000000 0.000000 0.000000 0.000000 0.059162
#
#
# Mechanical properties :
#
#
# Convention : Reuss Voigt Hill
#
# Bulk Modulus (GPa) = 24.40427 33.86583 29.13505
# Shear Modulus (GPa) = 17.36957 23.19975 20.28466
#
# Velocity S-wave (km/s) = 2.96072 3.42173 3.19954
# Velocity P-wave (km/s) = 4.89938 5.71857 5.32475
#
# Compressibility (1/GPa) = 0.04097643
#
# Stress axis : x y z
#
# Youngs Moduli (GPa) = 32.62112 77.81925 109.84682
#
# Poissons Ratio (x) = -0.10325 0.68429
# Poissons Ratio (y) = -0.04328 0.10034
# Poissons Ratio (z) = 0.20321 0.07109
#
# Static dielectric constant tensor:
#      x y z
#    x 3.171110 0.000000 0.000000 
#    y 0.000000 3.720140 0.000000 
#    z 0.000000 0.000000 3.886180 
# 
# 
# High freq. dielectric constant tensor:
#      x y z
#    x 1.720920 0.000000 0.000000 
#    y 0.000000 1.794620 0.000000 
#    z 0.000000 0.000000 1.769750 
# 
# From -- ./inp_files/27570.got.cif
#   From: 2010.03.12/outbox.cif.g09.slc.cpg/sg57_14_cif.got.tgz:27570.got - 2010.04.16 15:48:40.
