data_PCOD8230640
_publ_section_title
;
Structure prediction by ZEFSAII (Michael W. Deem and Ramdas Pophale) SiO2 
 PCOD8230640
Probable space group: P B C M
;
_chemical_formula_sum "Si O2"
_cell_formula_units_Z 64
_cell_length_a 12.212020
_cell_length_b 31.695029
_cell_length_c 8.965453
_cell_angle_alpha 90.000000
_cell_angle_beta 90.000000
_cell_angle_gamma 90.000000
_cell_volume 3470.171179
_symmetry_space_group_name_H-M "P B C M"
_symmetry_group_IT_number 57
_symmetry_cell_setting 'orthorhombic'
loop_
_space_group_symop_operation_xyz
x,y,z
-x,-y,1/2+z
x,1/2-y,-z
-x,1/2+y,1/2-z
-x,-y,-z
x,y,1/2-z
-x,1/2+y,z
x,1/2-y,1/2+z
loop_
_atom_site_type_symbol
_atom_site_label
_atom_site_fract_x
_atom_site_fract_y
_atom_site_fract_z
Si Si1 0.786359 0.984848 0.087178
Si Si2 0.426512 0.121004 0.425379
Si Si3 0.187226 0.097364 0.422456
Si Si4 0.787678 0.426163 0.423731
Si Si5 0.370510 0.849992 0.425389
Si Si6 0.457630 0.460611 0.413906
Si Si7 0.193344 0.706105 0.424430
Si Si8 0.043411 0.870352 0.579496
O O1 0.842604 0.991944 0.250000
O O2 0.668974 0.965313 0.115045
O O3 0.846898 0.947489 0.996769
O O4 0.775708 0.028790 0.001828
O O5 0.437330 0.128521 0.250000
O O6 0.299002 0.120667 0.479457
O O7 0.504899 0.154282 0.511109
O O8 0.482185 0.077341 0.474479
O O9 0.206071 0.086701 0.250000
O O10 0.087101 0.129505 0.450407
O O11 0.795080 0.434934 0.250000
O O12 0.685987 0.395305 0.463646
O O13 0.900337 0.404882 0.475046
O O14 0.372343 0.841817 0.250000
O O15 0.302194 0.812988 0.502692
O O16 0.500000 0.500000 0.500000
O O17 0.515129 0.454100 0.250000
O O18 0.163295 0.750000 0.500000
O O19 0.214717 0.712435 0.250000
O O20 0.089115 0.676056 0.455998
O O21 0.069566 0.882849 0.750000
#
# Coordination Sequence:
#
# PCOD8230640 Si02
#       8
#     8   8   8   8   8   8   8   8
#     4  10  20  31  44  65  95 133 176 220 262 304
#     4  10  19  31  49  72  99 133 171 209 252 300
#     4   9  19  35  52  71  98 136 180 219 255 299
#     4  10  20  32  48  71  99 133 173 219 266 309
#     4  10  20  34  53  78 107 136 169 208 253 305
#     4  10  19  29  42  62  90 127 172 218 260 301
#     4  10  20  36  60  87 111 132 158 197 249 306
#     4   9  19  36  56  76 100 132 169 210 255 304
#
# _framework density 18.442893000000002
#
# number of rings (size 3 to 8) (size 9 to 14) (size 15 to 20)
#    0.000    2.250    0.000    3.000    0.000    7.000 
#    0.000    0.000    0.000    0.750    0.000    1.750 
#    0.000    0.000    0.000    0.000    0.000    0.000 
#
# Total GULP energy -793139.781624 kJ/mol
# GULP energy per Si atom -12392.809088 kJ/mol
# Density = 1.840092 g / cm^3
# Si number density = 18.442893 Si / 1000 Ang^3
#
#
#
# Elastic Constant Matrix: (Units=GPa)
#
#
# Indices 1 2 3 4 5 6 
#
# 1 94.7968 34.4170 40.4110 0.0000 0.0000 0.0000
# 2 34.4170 85.2191 41.1610 0.0000 0.0000 0.0000
# 3 40.4110 41.1610 97.7372 0.0000 0.0000 0.0000
# 4 0.0000 0.0000 0.0000 30.0211 0.0000 0.0000
# 5 0.0000 0.0000 0.0000 0.0000 22.4225 0.0000
# 6 0.0000 0.0000 0.0000 0.0000 0.0000 14.3619
#
#
#
# Elastic Compliance Matrix: (Units=1/GPa)
#
#
# Indices 1 2 3 4 5 6 
#
# 1 0.013582 -0.003481 -0.004150 0.000000 0.000000 0.000000
# 2 -0.003481 0.015623 -0.005140 0.000000 0.000000 0.000000
# 3 -0.004150 -0.005140 0.014112 0.000000 0.000000 0.000000
# 4 0.000000 0.000000 0.000000 0.033310 0.000000 0.000000
# 5 0.000000 0.000000 0.000000 0.000000 0.044598 0.000000
# 6 0.000000 0.000000 0.000000 0.000000 0.000000 0.069628
#
#
# Mechanical properties :
#
#
# Convention : Reuss Voigt Hill
#
# Bulk Modulus (GPa) = 56.25824 56.63680 56.44752
# Shear Modulus (GPa) = 22.49015 24.14538 23.31777
#
# Velocity S-wave (km/s) = 3.49585 3.62221 3.55959
# Velocity P-wave (km/s) = 6.84579 6.94765 6.89691
#
# Compressibility (1/GPa) = 0.01777517
#
# Stress axis : x y z
#
# Youngs Moduli (GPa) = 73.62918 64.00811 70.86165
#
# Poissons Ratio (x) = 0.22280 0.29405
# Poissons Ratio (y) = 0.25629 0.36425
# Poissons Ratio (z) = 0.30553 0.32902
#
# Static dielectric constant tensor:
#      x y z
#    x 3.931460 0.000000 0.000000 
#    y 0.000000 3.146480 0.000000 
#    z 0.000000 0.000000 3.637620 
# 
# 
# High freq. dielectric constant tensor:
#      x y z
#    x 1.712050 0.000000 0.000000 
#    y 0.000000 1.682110 0.000000 
#    z 0.000000 0.000000 1.729070 
# 
# From -- ./inp_files/3744.got.cif
#   From: 2010.03.12/outbox.cif.g09.slc.cpg/sg57_2_cif.got.tgz:3744.got - 2010.04.16 15:48:40.
