data_PCOD8230565
_publ_section_title
;
Structure prediction by ZEFSAII (Michael W. Deem and Ramdas Pophale) SiO2 
 PCOD8230565
Probable space group: P B C M
;
_chemical_formula_sum "Si O2"
_cell_formula_units_Z 64
_cell_length_a 12.259014
_cell_length_b 15.375241
_cell_length_c 16.733419
_cell_angle_alpha 90.000000
_cell_angle_beta 90.000000
_cell_angle_gamma 90.000000
_cell_volume 3154.003411
_symmetry_space_group_name_H-M "P B C M"
_symmetry_group_IT_number 57
_symmetry_cell_setting 'orthorhombic'
loop_
_space_group_symop_operation_xyz
x,y,z
-x,-y,1/2+z
x,1/2-y,-z
-x,1/2+y,1/2-z
-x,-y,-z
x,y,1/2-z
-x,1/2+y,z
x,1/2-y,1/2+z
loop_
_atom_site_type_symbol
_atom_site_label
_atom_site_fract_x
_atom_site_fract_y
_atom_site_fract_z
Si Si1 0.233204 0.325647 0.660668
Si Si2 0.014038 0.573060 0.655441
Si Si3 0.534438 0.767374 0.845166
Si Si4 0.477094 0.923048 0.345646
Si Si5 0.377177 0.918476 0.845291
Si Si6 0.245684 0.529519 0.838753
Si Si7 0.982188 0.738824 0.408297
Si Si8 0.870018 0.412769 0.655200
O O1 0.209904 0.287537 0.750000
O O2 0.344870 0.289100 0.623404
O O3 0.245066 0.427292 0.667592
O O4 0.135912 0.304053 0.600753
O O5 0.020157 0.560245 0.750000
O O6 0.135491 0.562198 0.617222
O O7 0.972033 0.668092 0.634183
O O8 0.934796 0.497188 0.620894
O O9 0.534394 0.771640 0.750000
O O10 0.509327 0.671516 0.877471
O O11 0.444754 0.835388 0.878157
O O12 0.473106 0.928194 0.250000
O O13 0.564125 0.993875 0.377148
O O14 0.356859 0.941238 0.382718
O O15 0.375852 0.917570 0.750000
O O16 0.253586 0.915174 0.878628
O O17 0.246797 0.570853 0.750000
O O18 0.012505 0.750000 0.500000
O O19 0.073890 0.677594 0.369603
O O20 0.868456 0.416378 0.750000
#
# Coordination Sequence:
#
# PCOD8230565 Si02
#       8
#     8   8   8   8   8   8   8   8
#     4  10  18  35  58  80 108 144 188 238 282 329
#     4  10  21  37  61  88 110 146 192 236 283 334
#     4   9  17  27  48  81 115 143 172 222 284 335
#     4   9  16  26  44  79 115 140 170 218 282 339
#     4   9  17  29  47  79 117 144 171 221 285 336
#     4   9  16  30  53  81 114 143 179 230 280 331
#     4  12  26  40  56  81 115 155 193 237 287 341
#     4  10  21  38  59  85 118 150 188 238 284 333
#
# _framework density 20.291671000000001
#
# number of rings (size 3 to 8) (size 9 to 14) (size 15 to 20)
#    0.000    2.250    2.500    1.125    3.500    0.500 
#    0.000    0.000    0.000    0.750    0.000    2.625 
#    0.000    0.000    0.000    0.000    0.000    0.000 
#
# Total GULP energy -793372.917126 kJ/mol
# GULP energy per Si atom -12396.451830 kJ/mol
# Density = 2.024549 g / cm^3
# Si number density = 20.291671 Si / 1000 Ang^3
#
#
#
# Elastic Constant Matrix: (Units=GPa)
#
#
# Indices 1 2 3 4 5 6 
#
# 1 176.8723 58.4722 9.5314 0.0000 0.0000 0.0000
# 2 58.4722 130.6689 4.7712 0.0000 0.0000 0.0000
# 3 9.5314 4.7712 6.7003 0.0000 0.0000 0.0000
# 4 0.0000 0.0000 0.0000 3.5943 0.0000 0.0000
# 5 0.0000 0.0000 0.0000 0.0000 7.2175 0.0000
# 6 0.0000 0.0000 0.0000 0.0000 0.0000 35.5899
#
#
#
# Elastic Compliance Matrix: (Units=1/GPa)
#
#
# Indices 1 2 3 4 5 6 
#
# 1 0.007026 -0.002853 -0.007963 0.000000 0.000000 0.000000
# 2 -0.002853 0.009016 -0.002361 0.000000 0.000000 0.000000
# 3 -0.007963 -0.002361 0.162256 0.000000 0.000000 0.000000
# 4 0.000000 0.000000 0.000000 0.278220 0.000000 0.000000
# 5 0.000000 0.000000 0.000000 0.000000 0.138552 0.000000
# 6 0.000000 0.000000 0.000000 0.000000 0.000000 0.028098
#
#
# Mechanical properties :
#
#
# Convention : Reuss Voigt Hill
#
# Bulk Modulus (GPa) = 6.58142 51.08789 28.83465
# Shear Modulus (GPa) = 7.14111 25.37812 16.25961
#
# Velocity S-wave (km/s) = 1.87800 3.54031 2.83379
# Velocity P-wave (km/s) = 2.82010 6.47636 4.99480
#
# Compressibility (1/GPa) = 0.15194291
#
# Stress axis : x y z
#
# Youngs Moduli (GPa) = 142.32436 110.91431 6.16310
#
# Poissons Ratio (x) = 0.31648 0.04908
# Poissons Ratio (y) = 0.40610 0.01455
# Poissons Ratio (z) = 1.13335 0.26189
#
# Static dielectric constant tensor:
#      x y z
#    x 3.831890 0.000000 0.000000 
#    y 0.000000 3.792650 0.000000 
#    z 0.000000 0.000000 2.961770 
# 
# 
# High freq. dielectric constant tensor:
#      x y z
#    x 1.813810 0.000000 0.000000 
#    y 0.000000 1.802260 0.000000 
#    z 0.000000 0.000000 1.718260 
# 
# From -- ./inp_files/22053.got.cif
#   From: 2010.03.12/outbox.cif.g09.slc.cpg/sg57_12_cif.got.tgz:22053.got - 2010.04.16 15:48:40.
