data_PCOD8230843
_publ_section_title
;
Structure prediction by ZEFSAII (Michael W. Deem and Ramdas Pophale) SiO2 
 PCOD8230843
Probable space group: P B C M
;
_chemical_formula_sum "Si O2"
_cell_formula_units_Z 64
_cell_length_a 21.456289
_cell_length_b 19.549236
_cell_length_c 9.158577
_cell_angle_alpha 90.000000
_cell_angle_beta 90.000000
_cell_angle_gamma 90.000000
_cell_volume 3841.602282
_symmetry_space_group_name_H-M "P B C M"
_symmetry_group_IT_number 57
_symmetry_cell_setting 'orthorhombic'
loop_
_space_group_symop_operation_xyz
x,y,z
-x,-y,1/2+z
x,1/2-y,-z
-x,1/2+y,1/2-z
-x,-y,-z
x,y,1/2-z
-x,1/2+y,z
x,1/2-y,1/2+z
loop_
_atom_site_type_symbol
_atom_site_label
_atom_site_fract_x
_atom_site_fract_y
_atom_site_fract_z
Si Si1 0.988742 0.105263 0.084729
Si Si2 0.443535 0.036567 0.079801
Si Si3 0.330031 0.942658 0.082998
Si Si4 0.812801 0.456399 0.083456
Si Si5 0.476652 0.183861 0.419361
Si Si6 0.116881 0.680455 0.922910
Si Si7 0.379817 0.683191 0.420618
Si Si8 0.088469 0.466613 0.413992
O O1 0.998604 0.132567 0.250000
O O2 0.953780 0.033534 0.087749
O O3 0.949918 0.160207 0.991171
O O4 0.055402 0.093576 0.006616
O O5 0.459281 0.031620 0.250000
O O6 0.439230 0.116106 0.032427
O O7 0.377370 0.003259 0.040070
O O8 0.500000 0.000000 0.000000
O O9 0.341241 0.919042 0.250000
O O10 0.260198 0.968594 0.060018
O O11 0.339941 0.880190 0.974987
O O12 0.833150 0.469355 0.250000
O O13 0.832809 0.378938 0.040849
O O14 0.845714 0.513790 0.985652
O O15 0.448578 0.250000 0.500000
O O16 0.470106 0.199268 0.250000
O O17 0.548378 0.171476 0.463996
O O18 0.109702 0.692103 0.750000
O O19 0.140626 0.750000 0.000000
O O20 0.353229 0.750000 0.500000
O O21 0.370039 0.692316 0.250000
O O22 0.099856 0.439742 0.250000
#
# Coordination Sequence:
#
# PCOD8230843 Si02
#       8
#     8   8   8   8   8   8   8   8
#     4   9  16  27  45  68  92 118 150 188 232 274
#     4  10  19  32  50  72  97 123 157 202 255 305
#     4  10  20  33  49  69  95 128 165 207 254 302
#     4   9  19  33  46  64  92 127 164 199 238 287
#     4   9  18  31  47  69  93 119 151 190 239 296
#     4  10  19  31  46  65  94 128 164 199 230 273
#     4  10  19  31  46  65  92 123 160 199 240 293
#     4   9  16  27  45  68  91 117 150 190 234 273
#
# _framework density 16.659716
#
# number of rings (size 3 to 8) (size 9 to 14) (size 15 to 20)
#    0.000    2.500    1.250    1.500    0.000    5.500 
#    0.000    1.250    0.000    0.000    0.000    0.875 
#    0.000    4.000    0.000    0.000    0.000    0.000 
#
# Total GULP energy -793589.306403 kJ/mol
# GULP energy per Si atom -12399.832913 kJ/mol
# Density = 1.662180 g / cm^3
# Si number density = 16.659716 Si / 1000 Ang^3
#
#
#
# Elastic Constant Matrix: (Units=GPa)
#
#
# Indices 1 2 3 4 5 6 
#
# 1 90.2140 43.2701 44.0077 0.0000 0.0000 0.0000
# 2 43.2701 67.2086 33.0799 0.0000 0.0000 0.0000
# 3 44.0077 33.0799 84.9198 0.0000 0.0000 0.0000
# 4 0.0000 0.0000 0.0000 28.3147 0.0000 0.0000
# 5 0.0000 0.0000 0.0000 0.0000 20.2300 0.0000
# 6 0.0000 0.0000 0.0000 0.0000 0.0000 16.7931
#
#
#
# Elastic Compliance Matrix: (Units=1/GPa)
#
#
# Indices 1 2 3 4 5 6 
#
# 1 0.018234 -0.008770 -0.006033 0.000000 0.000000 0.000000
# 2 -0.008770 0.022627 -0.004269 0.000000 0.000000 0.000000
# 3 -0.006033 -0.004269 0.016565 0.000000 0.000000 0.000000
# 4 0.000000 0.000000 0.000000 0.035317 0.000000 0.000000
# 5 0.000000 0.000000 0.000000 0.000000 0.049431 0.000000
# 6 0.000000 0.000000 0.000000 0.000000 0.000000 0.059548
#
#
# Mechanical properties :
#
#
# Convention : Reuss Voigt Hill
#
# Bulk Modulus (GPa) = 51.86313 53.67307 52.76810
# Shear Modulus (GPa) = 20.30084 21.19988 20.75036
#
# Velocity S-wave (km/s) = 3.49457 3.57111 3.53305
# Velocity P-wave (km/s) = 6.89066 7.02076 6.95601
#
# Compressibility (1/GPa) = 0.01928152
#
# Stress axis : x y z
#
# Youngs Moduli (GPa) = 54.84184 44.19573 60.36685
#
# Poissons Ratio (x) = 0.38760 0.36420
# Poissons Ratio (y) = 0.48096 0.25772
# Poissons Ratio (z) = 0.33087 0.18868
#
# Static dielectric constant tensor:
#      x y z
#    x 2.970510 0.000000 0.000000 
#    y 0.000000 3.095750 0.000000 
#    z 0.000000 0.000000 3.263580 
# 
# 
# High freq. dielectric constant tensor:
#      x y z
#    x 1.616350 0.000000 0.000000 
#    y 0.000000 1.621260 0.000000 
#    z 0.000000 0.000000 1.652630 
# 
# From -- ./inp_files/7178.got.cif
#   From: 2010.03.12/outbox.cif.g09.slc.cpg/sg57_4_cif.got.tgz:7178.got - 2010.04.16 15:48:40.
