data_PCOD8230753
_publ_section_title
;
Structure prediction by ZEFSAII (Michael W. Deem and Ramdas Pophale) SiO2 
 PCOD8230753
Probable space group: P B C M
;
_chemical_formula_sum "Si O2"
_cell_formula_units_Z 64
_cell_length_a 15.876420
_cell_length_b 9.501741
_cell_length_c 25.328674
_cell_angle_alpha 90.000000
_cell_angle_beta 90.000000
_cell_angle_gamma 90.000000
_cell_volume 3820.922437
_symmetry_space_group_name_H-M "P B C M"
_symmetry_group_IT_number 57
_symmetry_cell_setting 'orthorhombic'
loop_
_space_group_symop_operation_xyz
x,y,z
-x,-y,1/2+z
x,1/2-y,-z
-x,1/2+y,1/2-z
-x,-y,-z
x,y,1/2-z
-x,1/2+y,z
x,1/2-y,1/2+z
loop_
_atom_site_type_symbol
_atom_site_label
_atom_site_fract_x
_atom_site_fract_y
_atom_site_fract_z
Si Si1 0.339162 0.185904 0.309631
Si Si2 0.394811 0.015025 0.691846
Si Si3 0.894087 0.403865 0.688256
Si Si4 0.532938 0.958473 0.611368
Si Si5 0.723146 0.297574 0.853338
Si Si6 0.593676 0.243262 0.938559
Si Si7 0.204506 0.974263 0.310659
Si Si8 0.028822 0.889154 0.189134
O O1 0.370549 0.146496 0.250000
O O2 0.331969 0.353283 0.316197
O O3 0.399064 0.122395 0.353762
O O4 0.244168 0.128303 0.317887
O O5 0.435136 0.015972 0.750000
O O6 0.469243 0.035114 0.650716
O O7 0.342986 0.871797 0.685581
O O8 0.865317 0.412201 0.750000
O O9 0.813243 0.376988 0.650843
O O10 0.962477 0.277790 0.680909
O O11 0.941837 0.544001 0.666384
O O12 0.485075 0.844686 0.574977
O O13 0.574709 0.081246 0.576620
O O14 0.680050 0.299324 0.911165
O O15 0.731541 0.135936 0.836940
O O16 0.611766 0.250000 0.000000
O O17 0.195658 0.927243 0.250000
O O18 0.111469 0.965240 0.336343
O O19 0.024304 0.932266 0.250000
#
# Coordination Sequence:
#
# PCOD8230753 Si02
#       8
#     8   8   8   8   8   8   8   8
#     4  10  19  30  46  70 101 132 160 190 238 295
#     4  10  20  31  45  71 101 130 158 189 235 295
#     4   9  16  28  45  71 100 132 160 187 229 282
#     4  11  20  37  50  70  97 122 163 205 251 297
#     4  10  19  32  50  68  98 126 166 205 244 289
#     4  11  23  37  55  71  90 124 169 220 263 292
#     4   9  16  28  46  69  95 130 162 192 231 282
#     4   8  15  25  40  64  96 126 159 185 217 275
#
# _framework density 16.749881999999999
#
# number of rings (size 3 to 8) (size 9 to 14) (size 15 to 20)
#    0.000    2.250    2.500    2.625    0.000    1.000 
#    0.000    3.750    0.000    0.000    0.000    3.500 
#    0.000    0.000    0.000    0.000    0.000    0.000 
#
# Total GULP energy -793066.741962 kJ/mol
# GULP energy per Si atom -12391.667843 kJ/mol
# Density = 1.671176 g / cm^3
# Si number density = 16.749882 Si / 1000 Ang^3
#
#
#
# Elastic Constant Matrix: (Units=GPa)
#
#
# Indices 1 2 3 4 5 6 
#
# 1 63.8952 16.4678 26.0921 0.0000 0.0000 0.0000
# 2 16.4678 49.7171 24.3848 0.0000 0.0000 0.0000
# 3 26.0921 24.3848 74.8706 0.0000 0.0000 0.0000
# 4 0.0000 0.0000 0.0000 15.8303 0.0000 0.0000
# 5 0.0000 0.0000 0.0000 0.0000 13.7717 0.0000
# 6 0.0000 0.0000 0.0000 0.0000 0.0000 33.9553
#
#
#
# Elastic Compliance Matrix: (Units=1/GPa)
#
#
# Indices 1 2 3 4 5 6 
#
# 1 0.018768 -0.003581 -0.005374 0.000000 0.000000 0.000000
# 2 -0.003581 0.024621 -0.006771 0.000000 0.000000 0.000000
# 3 -0.005374 -0.006771 0.017435 0.000000 0.000000 0.000000
# 4 0.000000 0.000000 0.000000 0.063170 0.000000 0.000000
# 5 0.000000 0.000000 0.000000 0.000000 0.072612 0.000000
# 6 0.000000 0.000000 0.000000 0.000000 0.000000 0.029450
#
#
# Mechanical properties :
#
#
# Convention : Reuss Voigt Hill
#
# Bulk Modulus (GPa) = 34.04659 35.81914 34.93287
# Shear Modulus (GPa) = 18.70565 20.81402 19.75984
#
# Velocity S-wave (km/s) = 3.34543 3.52893 3.43840
# Velocity P-wave (km/s) = 5.94080 6.16730 6.05511
#
# Compressibility (1/GPa) = 0.02937151
#
# Stress axis : x y z
#
# Youngs Moduli (GPa) = 53.28181 40.61615 57.35719
#
# Poissons Ratio (x) = 0.14543 0.30826
# Poissons Ratio (y) = 0.19078 0.38836
# Poissons Ratio (z) = 0.28636 0.27501
#
# Static dielectric constant tensor:
#      x y z
#    x 3.238650 0.000000 0.000000 
#    y 0.000000 3.243320 0.000000 
#    z 0.000000 0.000000 2.768100 
# 
# 
# High freq. dielectric constant tensor:
#      x y z
#    x 1.644460 0.000000 0.000000 
#    y 0.000000 1.657860 0.000000 
#    z 0.000000 0.000000 1.589870 
# 
# From -- ./inp_files/27496.got.cif
#   From: 2010.03.12/outbox.cif.g09.slc.cpg/sg57_14_cif.got.tgz:27496.got - 2010.04.16 15:48:40.
