data_PCOD8230790
_publ_section_title
;
Structure prediction by ZEFSAII (Michael W. Deem and Ramdas Pophale) SiO2 
 PCOD8230790
Probable space group: P B C M
;
_chemical_formula_sum "Si O2"
_cell_formula_units_Z 64
_cell_length_a 16.790362
_cell_length_b 21.978382
_cell_length_c 9.406643
_cell_angle_alpha 90.000000
_cell_angle_beta 90.000000
_cell_angle_gamma 90.000000
_cell_volume 3471.286339
_symmetry_space_group_name_H-M "P B C M"
_symmetry_group_IT_number 57
_symmetry_cell_setting 'orthorhombic'
loop_
_space_group_symop_operation_xyz
x,y,z
-x,-y,1/2+z
x,1/2-y,-z
-x,1/2+y,1/2-z
-x,-y,-z
x,y,1/2-z
-x,1/2+y,z
x,1/2-y,1/2+z
loop_
_atom_site_type_symbol
_atom_site_label
_atom_site_fract_x
_atom_site_fract_y
_atom_site_fract_z
Si Si1 0.709527 0.074255 0.583504
Si Si2 0.446761 0.187133 0.583598
Si Si3 0.736113 0.690885 0.585034
Si Si4 0.120772 0.108070 0.915419
Si Si5 0.051328 0.631234 0.584334
Si Si6 0.467658 0.940344 0.419983
Si Si7 0.795656 0.306700 0.082502
Si Si8 0.866610 0.488973 0.417078
O O1 0.700553 0.080360 0.750000
O O2 0.622599 0.060919 0.521686
O O3 0.742237 0.138020 0.526312
O O4 0.773306 0.022154 0.544913
O O5 0.471480 0.250000 0.500000
O O6 0.461594 0.200466 0.750000
O O7 0.354310 0.171389 0.552177
O O8 0.492918 0.125254 0.536067
O O9 0.760497 0.750000 0.500000
O O10 0.748922 0.704954 0.750000
O O11 0.798286 0.639913 0.532411
O O12 0.126406 0.092173 0.750000
O O13 0.040858 0.148117 0.947750
O O14 0.105267 0.047567 0.000823
O O15 0.068323 0.624651 0.750000
O O16 0.112359 0.683036 0.530989
O O17 0.078572 0.565732 0.522841
O O18 0.476250 0.949595 0.250000
O O19 0.500000 0.000000 0.500000
O O20 0.788325 0.296173 0.250000
O O21 0.759994 0.250000 0.000000
O O22 0.877627 0.499651 0.250000
#
# Coordination Sequence:
#
# PCOD8230790 Si02
#       8
#     8   8   8   8   8   8   8   8
#     4   8  17  34  51  70  99 134 162 193 245 307
#     4   9  19  36  55  74 101 136 172 210 254 306
#     4   9  19  34  49  68  95 126 160 199 243 290
#     4  10  19  30  48  71  96 126 160 202 252 289
#     4   8  16  31  47  66  96 132 162 196 245 297
#     4  10  21  36  55  80 109 137 170 214 264 313
#     4   9  17  32  52  71  97 131 167 204 245 293
#     4   9  17  31  50  69  93 127 167 197 232 294
#
# _framework density 18.436969999999999
#
# number of rings (size 3 to 8) (size 9 to 14) (size 15 to 20)
#    0.000    3.000    0.000    1.875    1.750    2.000 
#    0.000    3.750    0.000    0.000    0.000    0.000 
#    0.000    0.000    0.000    0.000    0.000    0.000 
#
# Total GULP energy -792870.163586 kJ/mol
# GULP energy per Si atom -12388.596306 kJ/mol
# Density = 1.839501 g / cm^3
# Si number density = 18.436970 Si / 1000 Ang^3
#
#
#
# Elastic Constant Matrix: (Units=GPa)
#
#
# Indices 1 2 3 4 5 6 
#
# 1 97.3561 25.9219 20.0332 0.0000 0.0000 0.0000
# 2 25.9219 84.1332 28.5419 0.0000 0.0000 0.0000
# 3 20.0332 28.5419 30.1033 0.0000 0.0000 0.0000
# 4 0.0000 0.0000 0.0000 34.0366 0.0000 0.0000
# 5 0.0000 0.0000 0.0000 0.0000 13.8548 0.0000
# 6 0.0000 0.0000 0.0000 0.0000 0.0000 20.8215
#
#
#
# Elastic Compliance Matrix: (Units=1/GPa)
#
#
# Indices 1 2 3 4 5 6 
#
# 1 0.012022 -0.001459 -0.006617 0.000000 0.000000 0.000000
# 2 -0.001459 0.017699 -0.015810 0.000000 0.000000 0.000000
# 3 -0.006617 -0.015810 0.052612 0.000000 0.000000 0.000000
# 4 0.000000 0.000000 0.000000 0.029380 0.000000 0.000000
# 5 0.000000 0.000000 0.000000 0.000000 0.072177 0.000000
# 6 0.000000 0.000000 0.000000 0.000000 0.000000 0.048027
#
#
# Mechanical properties :
#
#
# Convention : Reuss Voigt Hill
#
# Bulk Modulus (GPa) = 28.93418 40.06518 34.49968
# Shear Modulus (GPa) = 17.16977 22.88227 20.02602
#
# Velocity S-wave (km/s) = 3.05498 3.52676 3.29931
# Velocity P-wave (km/s) = 5.30768 6.19371 5.76774
#
# Compressibility (1/GPa) = 0.03456121
#
# Stress axis : x y z
#
# Youngs Moduli (GPa) = 83.18337 56.50043 19.00703
#
# Poissons Ratio (x) = 0.08245 0.12576
# Poissons Ratio (y) = 0.12139 0.30050
# Poissons Ratio (z) = 0.55039 0.89327
#
# Static dielectric constant tensor:
#      x y z
#    x 3.860780 0.000000 0.000000 
#    y 0.000000 3.339670 0.000000 
#    z 0.000000 0.000000 3.056610 
# 
# 
# High freq. dielectric constant tensor:
#      x y z
#    x 1.728620 0.000000 0.000000 
#    y 0.000000 1.709330 0.000000 
#    z 0.000000 0.000000 1.682400 
# 
# From -- ./inp_files/13920.got.cif
#   From: 2010.03.12/outbox.cif.g09.slc.cpg/sg57_7_cif.got.tgz:13920.got - 2010.04.16 15:48:40.
