data_PCOD8230653
_publ_section_title
;
Structure prediction by ZEFSAII (Michael W. Deem and Ramdas Pophale) SiO2 
 PCOD8230653
Probable space group: P B C M
;
_chemical_formula_sum "Si O2"
_cell_formula_units_Z 48
_cell_length_a 16.092969
_cell_length_b 18.678051
_cell_length_c 9.254714
_cell_angle_alpha 90.000000
_cell_angle_beta 90.000000
_cell_angle_gamma 90.000000
_cell_volume 2781.830945
_symmetry_space_group_name_H-M "P B C M"
_symmetry_group_IT_number 57
_symmetry_cell_setting 'orthorhombic'
loop_
_space_group_symop_operation_xyz
x,y,z
-x,-y,1/2+z
x,1/2-y,-z
-x,1/2+y,1/2-z
-x,-y,-z
x,y,1/2-z
-x,1/2+y,z
x,1/2-y,1/2+z
loop_
_atom_site_type_symbol
_atom_site_label
_atom_site_fract_x
_atom_site_fract_y
_atom_site_fract_z
Si Si1 0.079998 0.029783 0.921004
Si Si2 0.472123 0.178068 0.418327
Si Si3 0.663210 0.178565 0.081771
Si Si4 0.333913 0.397828 0.080915
Si Si5 0.163309 0.322667 0.418504
Si Si6 0.247060 0.539797 0.078963
O O1 0.066862 0.025455 0.750000
O O2 0.102737 0.111627 0.965450
O O3 0.153870 0.977025 0.972834
O O4 0.000000 0.000000 0.000000
O O5 0.447603 0.250000 0.500000
O O6 0.452897 0.188074 0.250000
O O7 0.567628 0.157612 0.446628
O O8 0.414608 0.382997 0.514932
O O9 0.679606 0.191512 0.250000
O O10 0.720295 0.115191 0.016960
O O11 0.689489 0.250000 0.000000
O O12 0.356750 0.394931 0.250000
O O13 0.258642 0.343148 0.046715
O O14 0.307965 0.476680 0.029271
O O15 0.137738 0.250000 0.500000
O O16 0.152273 0.307970 0.250000
O O17 0.249072 0.542051 0.250000
#
# Coordination Sequence:
#
# PCOD8230653 Si02
#       6
#     8   8   8   8   8   8
#     4   9  18  34  54  74  96 123 155 191 234 284
#     4  10  19  29  43  66  95 126 161 198 233 271
#     4   9  18  33  50  67  91 126 164 198 233 274
#     4   9  17  30  48  69  94 125 158 192 232 279
#     4   9  18  31  48  71  97 125 157 190 228 279
#     4   8  16  33  53  69  91 125 157 187 235 290
#
# _framework density 17.254822999999998
#
# number of rings (size 3 to 8) (size 9 to 14) (size 15 to 20)
#    0.000    3.000    0.000    3.000    0.000    4.000 
#    0.000    5.000    0.000    4.000    0.000    0.000 
#    0.000    0.000    0.000    0.000    0.000    0.000 
#
# Total GULP energy -595027.968211 kJ/mol
# GULP energy per Si atom -12396.416004 kJ/mol
# Density = 1.721555 g / cm^3
# Si number density = 17.254823 Si / 1000 Ang^3
#
#
#
# Elastic Constant Matrix: (Units=GPa)
#
#
# Indices 1 2 3 4 5 6 
#
# 1 104.9625 89.7490 45.6056 0.0000 0.0000 0.0000
# 2 89.7490 153.4268 55.3518 0.0000 0.0000 0.0000
# 3 45.6056 55.3518 55.8191 0.0000 0.0000 0.0000
# 4 0.0000 0.0000 0.0000 28.2336 0.0000 0.0000
# 5 0.0000 0.0000 0.0000 0.0000 23.6003 0.0000
# 6 0.0000 0.0000 0.0000 0.0000 0.0000 27.5330
#
#
#
# Elastic Compliance Matrix: (Units=1/GPa)
#
#
# Indices 1 2 3 4 5 6 
#
# 1 0.021016 -0.009496 -0.007754 0.000000 0.000000 0.000000
# 2 -0.009496 0.014439 -0.006560 0.000000 0.000000 0.000000
# 3 -0.007754 -0.006560 0.030755 0.000000 0.000000 0.000000
# 4 0.000000 0.000000 0.000000 0.035419 0.000000 0.000000
# 5 0.000000 0.000000 0.000000 0.000000 0.042372 0.000000
# 6 0.000000 0.000000 0.000000 0.000000 0.000000 0.036320
#
#
# Mechanical properties :
#
#
# Convention : Reuss Voigt Hill
#
# Bulk Modulus (GPa) = 53.79073 77.29123 65.54098
# Shear Modulus (GPa) = 21.35491 24.10685 22.73088
#
# Velocity S-wave (km/s) = 3.52180 3.74185 3.63349
# Velocity P-wave (km/s) = 6.91227 7.97244 7.46121
#
# Compressibility (1/GPa) = 0.01859056
#
# Stress axis : x y z
#
# Youngs Moduli (GPa) = 47.58261 69.25557 32.51503
#
# Poissons Ratio (x) = 0.65767 0.25212
# Poissons Ratio (y) = 0.45186 0.21329
# Poissons Ratio (z) = 0.36895 0.45430
#
# Static dielectric constant tensor:
#      x y z
#    x 3.184910 0.000000 0.000000 
#    y 0.000000 3.432280 0.000000 
#    z 0.000000 0.000000 2.988280 
# 
# 
# High freq. dielectric constant tensor:
#      x y z
#    x 1.656630 0.000000 0.000000 
#    y 0.000000 1.669050 0.000000 
#    z 0.000000 0.000000 1.648450 
# 
# From -- ./inp_files/13719.got.cif
#   From: 2010.03.12/outbox.cif.g09.slc.cpg/sg57_7_cif.got.tgz:13719.got - 2010.04.16 15:48:40.
