data_PCOD8230022
_publ_section_title
;
Structure prediction by ZEFSAII (Michael W. Deem and Ramdas Pophale) SiO2 
 PCOD8230022
Probable space group: P B C M
;
_chemical_formula_sum "Si O2"
_cell_formula_units_Z 56
_cell_length_a 4.962226
_cell_length_b 17.566854
_cell_length_c 32.697386
_cell_angle_alpha 90.000000
_cell_angle_beta 90.000000
_cell_angle_gamma 90.000000
_cell_volume 2850.254015
_symmetry_space_group_name_H-M "P B C M"
_symmetry_group_IT_number 57
_symmetry_cell_setting 'orthorhombic'
loop_
_space_group_symop_operation_xyz
x,y,z
-x,-y,1/2+z
x,1/2-y,-z
-x,1/2+y,1/2-z
-x,-y,-z
x,y,1/2-z
-x,1/2+y,z
x,1/2-y,1/2+z
loop_
_atom_site_type_symbol
_atom_site_label
_atom_site_fract_x
_atom_site_fract_y
_atom_site_fract_z
Si Si1 0.431735 0.244285 0.250000
Si Si2 0.540342 0.001479 0.548343
Si Si3 0.048175 0.747008 0.452687
Si Si4 0.452534 0.334271 0.580049
Si Si5 0.459156 0.759098 0.662586
Si Si6 0.041784 0.085618 0.919880
Si Si7 0.931233 0.342779 0.250000
Si Si8 0.959098 0.847082 0.162875
O O1 0.502471 0.200731 0.207469
O O2 0.116852 0.266224 0.250000
O O3 0.616553 0.320932 0.250000
O O4 0.343943 0.062875 0.568595
O O5 0.843934 0.026136 0.558475
O O6 0.500000 0.000000 0.500000
O O7 0.480826 0.920101 0.567997
O O8 0.979508 0.750000 0.500000
O O9 0.853597 0.686120 0.431025
O O10 0.008518 0.829550 0.434438
O O11 0.354506 0.721593 0.445536
O O12 0.498079 0.323746 0.628545
O O13 0.163520 0.723570 0.657476
O O14 0.663399 0.688478 0.657634
O O15 0.002771 0.086525 0.870720
O O16 0.001368 0.386867 0.292307
#
# Coordination Sequence:
#
# PCOD8230022 Si02
#       8
#     4   8   8   8   8   8   4   8
#     4   8  16  26  50  78 114 136 170 224 280 336
#     4  12  26  41  55  80 117 159 192 230 293 349
#     4  12  23  38  60  85 107 144 193 250 287 320
#     4  12  22  39  58  81 114 147 189 238 280 347
#     4  10  17  33  53  85 109 141 181 230 282 332
#     4  12  22  39  60  82 112 148 192 240 279 345
#     4   8  16  28  50  82 114 140 166 232 280 338
#     4  10  18  33  56  85 113 139 187 228 287 330
#
# _framework density 19.647369999999999
#
# number of rings (size 3 to 8) (size 9 to 14) (size 15 to 20)
#    0.000    1.143    2.857    5.143    0.000    0.000 
#    0.000    0.000    0.000    1.714    0.000    0.000 
#    0.000    0.000    0.000    0.000    0.000    0.000 
#
# Total GULP energy -694394.974320 kJ/mol
# GULP energy per Si atom -12399.910256 kJ/mol
# Density = 1.960265 g / cm^3
# Si number density = 19.647370 Si / 1000 Ang^3
#
#
#
# Elastic Constant Matrix: (Units=GPa)
#
#
# Indices 1 2 3 4 5 6 
#
# 1 69.9728 11.1411 22.8718 0.0000 0.0000 0.0000
# 2 11.1411 66.0155 27.7549 0.0000 0.0000 0.0000
# 3 22.8718 27.7549 175.4336 0.0000 0.0000 0.0000
# 4 0.0000 0.0000 0.0000 17.9805 0.0000 0.0000
# 5 0.0000 0.0000 0.0000 0.0000 32.7712 0.0000
# 6 0.0000 0.0000 0.0000 0.0000 0.0000 22.6260
#
#
#
# Elastic Compliance Matrix: (Units=1/GPa)
#
#
# Indices 1 2 3 4 5 6 
#
# 1 0.015135 -0.001848 -0.001681 0.000000 0.000000 0.000000
# 2 -0.001848 0.016453 -0.002362 0.000000 0.000000 0.000000
# 3 -0.001681 -0.002362 0.006293 0.000000 0.000000 0.000000
# 4 0.000000 0.000000 0.000000 0.055616 0.000000 0.000000
# 5 0.000000 0.000000 0.000000 0.000000 0.030515 0.000000
# 6 0.000000 0.000000 0.000000 0.000000 0.000000 0.044197
#
#
# Mechanical properties :
#
#
# Convention : Reuss Voigt Hill
#
# Bulk Modulus (GPa) = 38.31462 48.32861 43.32161
# Shear Modulus (GPa) = 26.49864 31.31915 28.90890
#
# Velocity S-wave (km/s) = 3.67647 3.99690 3.84003
# Velocity P-wave (km/s) = 6.12906 6.77877 6.46208
#
# Compressibility (1/GPa) = 0.02609970
#
# Stress axis : x y z
#
# Youngs Moduli (GPa) = 66.07262 60.77969 158.90660
#
# Poissons Ratio (x) = 0.11229 0.26710
# Poissons Ratio (y) = 0.12207 0.37535
# Poissons Ratio (z) = 0.11106 0.14357
#
# Static dielectric constant tensor:
#      x y z
#    x 3.979420 0.000000 0.000000 
#    y 0.000000 2.996600 0.000000 
#    z 0.000000 0.000000 3.927080 
# 
# 
# High freq. dielectric constant tensor:
#      x y z
#    x 1.789800 0.000000 0.000000 
#    y 0.000000 1.703050 0.000000 
#    z 0.000000 0.000000 1.794550 
# 
# From -- ./inp_files/29222.got.cif
#   From: 2010.03.12/outbox.cif.g09.slc.cpg/sg57_15_cif.got.tgz:29222.got - 2010.04.16 15:48:40.
