data_PCOD8230801
_publ_section_title
;
Structure prediction by ZEFSAII (Michael W. Deem and Ramdas Pophale) SiO2 
 PCOD8230801
Probable space group: P B C M
;
_chemical_formula_sum "Si O2"
_cell_formula_units_Z 52
_cell_length_a 21.331558
_cell_length_b 5.087561
_cell_length_c 25.925916
_cell_angle_alpha 90.000000
_cell_angle_beta 90.000000
_cell_angle_gamma 90.000000
_cell_volume 2813.625656
_symmetry_space_group_name_H-M "P B C M"
_symmetry_group_IT_number 57
_symmetry_cell_setting 'orthorhombic'
loop_
_space_group_symop_operation_xyz
x,y,z
-x,-y,1/2+z
x,1/2-y,-z
-x,1/2+y,1/2-z
-x,-y,-z
x,y,1/2-z
-x,1/2+y,z
x,1/2-y,1/2+z
loop_
_atom_site_type_symbol
_atom_site_label
_atom_site_fract_x
_atom_site_fract_y
_atom_site_fract_z
Si Si1 0.258860 0.204596 0.191862
Si Si2 0.174324 0.210191 0.096751
Si Si3 0.240674 0.796983 0.942232
Si Si4 0.540439 0.211272 0.190270
Si Si5 0.042481 0.301960 0.638424
Si Si6 0.675101 0.302590 0.653255
Si Si7 0.961724 0.789955 0.250000
O O1 0.233980 0.234020 0.250000
O O2 0.200525 0.254926 0.154321
O O3 0.312657 0.417900 0.180173
O O4 0.287889 0.917583 0.184918
O O5 0.202374 0.431201 0.059275
O O6 0.099036 0.229930 0.098070
O O7 0.192820 0.927057 0.075470
O O8 0.302133 0.804083 0.906140
O O9 0.264984 0.750000 0.000000
O O10 0.561186 0.228477 0.250000
O O11 0.490140 0.433270 0.176804
O O12 0.601102 0.251518 0.154471
O O13 0.072916 0.281536 0.696321
O O14 0.010293 0.582660 0.629565
O O15 0.023583 0.601124 0.250000
#
# Coordination Sequence:
#
# PCOD8230801 Si02
#       7
#     8   8   8   8   8   8   4
#     4  10  19  31  50  76 108 137 166 214 258 305
#     4  10  21  34  55  81 100 133 173 213 266 317
#     4  10  21  39  59  77  98 130 176 229 273 305
#     4  10  19  30  48  75 109 146 173 199 239 297
#     4  10  19  33  51  73 106 139 169 204 250 312
#     4  10  20  34  52  77 104 139 180 209 257 306
#     4   8  16  28  44  68  96 138 170 186 224 292
#
# _framework density 18.481491999999999
#
# number of rings (size 3 to 8) (size 9 to 14) (size 15 to 20)
#    0.000    2.154    0.000    3.692    1.077    1.231 
#    0.000    0.000    0.000   10.154    0.000    0.000 
#    0.000    0.000    0.000    0.000    0.000    0.000 
#
# Total GULP energy -644813.043430 kJ/mol
# GULP energy per Si atom -12400.250835 kJ/mol
# Density = 1.843943 g / cm^3
# Si number density = 18.481492 Si / 1000 Ang^3
#
#
#
# Elastic Constant Matrix: (Units=GPa)
#
#
# Indices 1 2 3 4 5 6 
#
# 1 85.2531 10.8309 25.0302 0.0000 0.0000 0.0000
# 2 10.8309 80.1791 7.7202 0.0000 0.0000 0.0000
# 3 25.0302 7.7202 84.1456 0.0000 0.0000 0.0000
# 4 0.0000 0.0000 0.0000 16.8899 0.0000 0.0000
# 5 0.0000 0.0000 0.0000 0.0000 15.3205 0.0000
# 6 0.0000 0.0000 0.0000 0.0000 0.0000 18.4825
#
#
#
# Elastic Compliance Matrix: (Units=1/GPa)
#
#
# Indices 1 2 3 4 5 6 
#
# 1 0.013005 -0.001397 -0.003740 0.000000 0.000000 0.000000
# 2 -0.001397 0.012733 -0.000753 0.000000 0.000000 0.000000
# 3 -0.003740 -0.000753 0.013066 0.000000 0.000000 0.000000
# 4 0.000000 0.000000 0.000000 0.059207 0.000000 0.000000
# 5 0.000000 0.000000 0.000000 0.000000 0.065272 0.000000
# 6 0.000000 0.000000 0.000000 0.000000 0.000000 0.054105
#
#
# Mechanical properties :
#
#
# Convention : Reuss Voigt Hill
#
# Bulk Modulus (GPa) = 37.00327 37.41560 37.20944
# Shear Modulus (GPa) = 20.99283 23.87169 22.43226
#
# Velocity S-wave (km/s) = 3.37394 3.59786 3.48770
# Velocity P-wave (km/s) = 5.93660 6.12767 6.03289
#
# Compressibility (1/GPa) = 0.02702464
#
# Stress axis : x y z
#
# Youngs Moduli (GPa) = 76.89104 78.53468 76.53513
#
# Poissons Ratio (x) = 0.10969 0.28628
# Poissons Ratio (y) = 0.10739 0.05762
# Poissons Ratio (z) = 0.28761 0.05912
#
# Static dielectric constant tensor:
#      x y z
#    x 3.076810 0.000000 0.000000 
#    y 0.000000 3.592960 0.000000 
#    z 0.000000 0.000000 3.301090 
# 
# 
# High freq. dielectric constant tensor:
#      x y z
#    x 1.694350 0.000000 0.000000 
#    y 0.000000 1.740610 0.000000 
#    z 0.000000 0.000000 1.693080 
# 
# From -- ./inp_files/25734.got.cif
#   From: 2010.03.12/outbox.cif.g09.slc.cpg/sg57_13_cif.got.tgz:25734.got - 2010.04.16 15:48:40.
