data_PCOD8230479
_publ_section_title
;
Structure prediction by ZEFSAII (Michael W. Deem and Ramdas Pophale) SiO2 
 PCOD8230479
Probable space group: P B C M
;
_chemical_formula_sum "Si O2"
_cell_formula_units_Z 48
_cell_length_a 18.292764
_cell_length_b 15.371882
_cell_length_c 8.561616
_cell_angle_alpha 90.000000
_cell_angle_beta 90.000000
_cell_angle_gamma 90.000000
_cell_volume 2407.476845
_symmetry_space_group_name_H-M "P B C M"
_symmetry_group_IT_number 57
_symmetry_cell_setting 'orthorhombic'
loop_
_space_group_symop_operation_xyz
x,y,z
-x,-y,1/2+z
x,1/2-y,-z
-x,1/2+y,1/2-z
-x,-y,-z
x,y,1/2-z
-x,1/2+y,z
x,1/2-y,1/2+z
loop_
_atom_site_type_symbol
_atom_site_label
_atom_site_fract_x
_atom_site_fract_y
_atom_site_fract_z
Si Si1 0.825901 0.011170 0.065034
Si Si2 0.533953 0.087864 0.435460
Si Si3 0.064049 0.841074 0.566079
Si Si4 0.102234 0.342313 0.564673
Si Si5 0.397410 0.338546 0.434724
Si Si6 0.669596 0.013529 0.565767
O O1 0.816594 0.013792 0.250000
O O2 0.886413 0.079749 0.004723
O O3 0.750787 0.038839 0.984170
O O4 0.847610 0.915108 0.012276
O O5 0.533410 0.090769 0.250000
O O6 0.481680 0.162650 0.503987
O O7 0.617101 0.090301 0.498688
O O8 0.500000 0.000000 0.500000
O O9 0.094133 0.750000 0.500000
O O10 0.067109 0.834872 0.750000
O O11 0.981226 0.858005 0.509174
O O12 0.130144 0.250000 0.500000
O O13 0.110460 0.345372 0.750000
O O14 0.360857 0.250000 0.500000
O O15 0.395563 0.340568 0.250000
O O16 0.351171 0.419559 0.497259
O O17 0.661665 0.009689 0.750000
#
# Coordination Sequence:
#
# PCOD8230479 Si02
#       6
#     8   8   8   8   8   8
#     4  11  22  37  56  83 115 151 189 233 285 342
#     4  10  18  33  55  78 103 136 174 214 257 310
#     4   9  20  37  59  83 111 144 187 236 285 336
#     4  10  20  36  57  84 113 148 188 233 282 337
#     4  11  21  36  57  83 111 142 179 224 272 325
#     4  11  22  37  55  79 109 145 183 224 273 330
#
# _framework density 19.937885000000001
#
# number of rings (size 3 to 8) (size 9 to 14) (size 15 to 20)
#    0.000    1.667    0.000    8.000    0.000    2.667 
#    0.000    4.167    0.000    2.000    0.000    0.000 
#    0.000    0.000    0.000    0.000    0.000    0.000 
#
# Total GULP energy -595234.608718 kJ/mol
# GULP energy per Si atom -12400.721015 kJ/mol
# Density = 1.989251 g / cm^3
# Si number density = 19.937885 Si / 1000 Ang^3
#
#
#
# Elastic Constant Matrix: (Units=GPa)
#
#
# Indices 1 2 3 4 5 6 
#
# 1 72.0954 1.1572 12.7512 0.0000 0.0000 0.0000
# 2 1.1572 44.5834 6.0229 0.0000 0.0000 0.0000
# 3 12.7512 6.0229 125.0541 0.0000 0.0000 0.0000
# 4 0.0000 0.0000 0.0000 31.6592 0.0000 0.0000
# 5 0.0000 0.0000 0.0000 0.0000 33.8320 0.0000
# 6 0.0000 0.0000 0.0000 0.0000 0.0000 15.8306
#
#
#
# Elastic Compliance Matrix: (Units=1/GPa)
#
#
# Indices 1 2 3 4 5 6 
#
# 1 0.014127 -0.000173 -0.001432 0.000000 0.000000 0.000000
# 2 -0.000173 0.022579 -0.001070 0.000000 0.000000 0.000000
# 3 -0.001432 -0.001070 0.008194 0.000000 0.000000 0.000000
# 4 0.000000 0.000000 0.000000 0.031586 0.000000 0.000000
# 5 0.000000 0.000000 0.000000 0.000000 0.029558 0.000000
# 6 0.000000 0.000000 0.000000 0.000000 0.000000 0.063169
#
#
# Mechanical properties :
#
#
# Convention : Reuss Voigt Hill
#
# Bulk Modulus (GPa) = 25.28482 31.28837 28.28660
# Shear Modulus (GPa) = 26.63176 31.05115 28.84146
#
# Velocity S-wave (km/s) = 3.65874 3.95066 3.80750
# Velocity P-wave (km/s) = 5.52791 6.04461 5.79203
#
# Compressibility (1/GPa) = 0.03954942
#
# Stress axis : x y z
#
# Youngs Moduli (GPa) = 70.78852 44.28915 122.03927
#
# Poissons Ratio (x) = 0.00767 0.17477
# Poissons Ratio (y) = 0.01226 0.13056
# Poissons Ratio (z) = 0.10137 0.04738
#
# Static dielectric constant tensor:
#      x y z
#    x 4.032260 0.000000 0.000000 
#    y 0.000000 3.754790 0.000000 
#    z 0.000000 0.000000 3.641710 
# 
# 
# High freq. dielectric constant tensor:
#      x y z
#    x 1.776000 0.000000 0.000000 
#    y 0.000000 1.767650 0.000000 
#    z 0.000000 0.000000 1.791710 
# 
# From -- ./inp_files/6530.got.cif
#   From: 2010.03.12/outbox.cif.g09.slc.cpg/sg57_4_cif.got.tgz:6530.got - 2010.04.16 15:48:40.
