data_PCOD8230894
_publ_section_title
;
Structure prediction by ZEFSAII (Michael W. Deem and Ramdas Pophale) SiO2 
 PCOD8230894
Probable space group: P B C M
;
_chemical_formula_sum "Si O2"
_cell_formula_units_Z 64
_cell_length_a 14.487974
_cell_length_b 28.337271
_cell_length_c 8.686933
_cell_angle_alpha 90.000000
_cell_angle_beta 90.000000
_cell_angle_gamma 90.000000
_cell_volume 3566.417263
_symmetry_space_group_name_H-M "P B C M"
_symmetry_group_IT_number 57
_symmetry_cell_setting 'orthorhombic'
loop_
_space_group_symop_operation_xyz
x,y,z
-x,-y,1/2+z
x,1/2-y,-z
-x,1/2+y,1/2-z
-x,-y,-z
x,y,1/2-z
-x,1/2+y,z
x,1/2-y,1/2+z
loop_
_atom_site_type_symbol
_atom_site_label
_atom_site_fract_x
_atom_site_fract_y
_atom_site_fract_z
Si Si1 0.531907 0.889644 0.929583
Si Si2 0.650628 0.700412 0.431122
Si Si3 0.032119 0.114286 0.567537
Si Si4 0.358307 0.925862 0.068514
Si Si5 0.147361 0.026902 0.928986
Si Si6 0.848016 0.700069 0.566925
Si Si7 0.640692 0.975077 0.428237
Si Si8 0.847726 0.428547 0.068869
O O1 0.542385 0.900457 0.750000
O O2 0.575254 0.839112 0.971904
O O3 0.424769 0.889040 0.980802
O O4 0.580445 0.930515 0.025756
O O5 0.615402 0.750000 0.500000
O O6 0.665397 0.706280 0.250000
O O7 0.747517 0.685287 0.506081
O O8 0.042219 0.113344 0.750000
O O9 0.088372 0.069781 0.499970
O O10 0.076753 0.162511 0.504993
O O11 0.924128 0.110382 0.518272
O O12 0.366513 0.917928 0.250000
O O13 0.254240 0.915904 0.005125
O O14 0.388197 0.979339 0.027776
O O15 0.127501 0.020202 0.750000
O O16 0.253897 0.038516 0.961899
O O17 0.116788 0.978953 0.010898
O O18 0.879628 0.750000 0.500000
O O19 0.844277 0.702449 0.750000
O O20 0.623904 0.987280 0.250000
O O21 0.840626 0.432053 0.250000
#
# Coordination Sequence:
#
# PCOD8230894 Si02
#       8
#     8   8   8   8   8   8   8   8
#     4  11  22  34  50  72  97 126 162 202 242 287
#     4  10  21  36  54  76 101 126 154 193 241 292
#     4   9  17  30  49  71  96 127 161 194 233 282
#     4  10  20  33  49  69  96 131 168 205 243 282
#     4   9  17  29  46  70  98 128 159 192 234 281
#     4  10  19  33  53  75 101 129 156 191 235 285
#     4  10  19  31  48  71 101 133 164 198 238 287
#     4   9  18  32  48  68  95 128 164 199 234 274
#
# _framework density 17.945179
#
# number of rings (size 3 to 8) (size 9 to 14) (size 15 to 20)
#    0.000    2.250    0.000    4.125    0.000    4.000 
#    0.000    2.500    0.000    0.750    0.000    3.500 
#    0.000    0.000    0.000    0.000    0.000    0.000 
#
# Total GULP energy -793571.873296 kJ/mol
# GULP energy per Si atom -12399.560520 kJ/mol
# Density = 1.790433 g / cm^3
# Si number density = 17.945179 Si / 1000 Ang^3
#
#
#
# Elastic Constant Matrix: (Units=GPa)
#
#
# Indices 1 2 3 4 5 6 
#
# 1 115.1273 83.0289 29.0068 0.0000 0.0000 0.0000
# 2 83.0289 113.2127 27.2207 0.0000 0.0000 0.0000
# 3 29.0068 27.2207 45.8043 0.0000 0.0000 0.0000
# 4 0.0000 0.0000 0.0000 24.1223 0.0000 0.0000
# 5 0.0000 0.0000 0.0000 0.0000 21.3431 0.0000
# 6 0.0000 0.0000 0.0000 0.0000 0.0000 34.2874
#
#
#
# Elastic Compliance Matrix: (Units=1/GPa)
#
#
# Indices 1 2 3 4 5 6 
#
# 1 0.019175 -0.013001 -0.004417 0.000000 0.000000 0.000000
# 2 -0.013001 0.019120 -0.003130 0.000000 0.000000 0.000000
# 3 -0.004417 -0.003130 0.026489 0.000000 0.000000 0.000000
# 4 0.000000 0.000000 0.000000 0.041455 0.000000 0.000000
# 5 0.000000 0.000000 0.000000 0.000000 0.046853 0.000000
# 6 0.000000 0.000000 0.000000 0.000000 0.000000 0.029165
#
#
# Mechanical properties :
#
#
# Convention : Reuss Voigt Hill
#
# Bulk Modulus (GPa) = 42.21298 61.40635 51.80966
# Shear Modulus (GPa) = 21.62173 24.94309 23.28241
#
# Velocity S-wave (km/s) = 3.47490 3.73226 3.60588
# Velocity P-wave (km/s) = 6.29875 7.27091 6.80222
#
# Compressibility (1/GPa) = 0.02368940
#
# Stress axis : x y z
#
# Youngs Moduli (GPa) = 52.15168 52.30146 37.75143
#
# Poissons Ratio (x) = 0.67995 0.16675
# Poissons Ratio (y) = 0.67800 0.11815
# Poissons Ratio (z) = 0.23035 0.16369
#
# Static dielectric constant tensor:
#      x y z
#    x 3.639250 0.000000 0.000000 
#    y 0.000000 3.294240 0.000000 
#    z 0.000000 0.000000 3.241750 
# 
# 
# High freq. dielectric constant tensor:
#      x y z
#    x 1.700010 0.000000 0.000000 
#    y 0.000000 1.673770 0.000000 
#    z 0.000000 0.000000 1.690960 
# 
# From -- ./inp_files/6002.got.cif
#   From: 2010.03.12/outbox.cif.g09.slc.cpg/sg57_4_cif.got.tgz:6002.got - 2010.04.16 15:48:40.
