data_PCOD8230678
_publ_section_title
;
Structure prediction by ZEFSAII (Michael W. Deem and Ramdas Pophale) SiO2 
 PCOD8230678
Probable space group: P B C M
;
_chemical_formula_sum "Si O2"
_cell_formula_units_Z 48
_cell_length_a 15.028544
_cell_length_b 21.362852
_cell_length_c 8.834856
_cell_angle_alpha 90.000000
_cell_angle_beta 90.000000
_cell_angle_gamma 90.000000
_cell_volume 2836.453147
_symmetry_space_group_name_H-M "P B C M"
_symmetry_group_IT_number 57
_symmetry_cell_setting 'orthorhombic'
loop_
_space_group_symop_operation_xyz
x,y,z
-x,-y,1/2+z
x,1/2-y,-z
-x,1/2+y,1/2-z
-x,-y,-z
x,y,1/2-z
-x,1/2+y,z
x,1/2-y,1/2+z
loop_
_atom_site_type_symbol
_atom_site_label
_atom_site_fract_x
_atom_site_fract_y
_atom_site_fract_z
Si Si1 0.378126 0.035251 0.076410
Si Si2 0.012364 0.066824 0.573098
Si Si3 0.204410 0.041952 0.922340
Si Si4 0.437307 0.910312 0.575810
Si Si5 0.690280 0.317769 0.428686
Si Si6 0.156138 0.601869 0.073943
O O1 0.376546 0.012914 0.250000
O O2 0.456311 0.085933 0.050966
O O3 0.283940 0.066128 0.030213
O O4 0.392474 0.975573 0.970192
O O5 0.989941 0.063072 0.750000
O O6 0.116485 0.084632 0.547529
O O7 0.943606 0.114254 0.491851
O O8 0.000000 0.000000 0.500000
O O9 0.235541 0.049608 0.750000
O O10 0.183736 0.969450 0.957867
O O11 0.412186 0.897774 0.750000
O O12 0.399344 0.854293 0.475313
O O13 0.686127 0.250000 0.500000
O O14 0.694975 0.312163 0.250000
O O15 0.777021 0.353143 0.487555
O O16 0.156770 0.618646 0.250000
#
# Coordination Sequence:
#
# PCOD8230678 Si02
#       6
#     8   8   8   8   8   8
#     4  10  19  29  48  73  99 133 167 202 250 302
#     4   9  17  28  43  66  96 131 164 197 239 287
#     4   9  17  28  45  69 101 133 162 199 243 292
#     4  10  20  34  48  69 100 130 166 209 249 297
#     4  12  24  37  54  73  96 131 170 209 252 300
#     4  10  19  32  48  69  98 130 163 205 246 291
#
# _framework density 16.922543999999998
#
# number of rings (size 3 to 8) (size 9 to 14) (size 15 to 20)
#    0.000    2.000    1.667    4.500    0.000    5.333 
#    0.000    0.000    0.000    0.000    0.000    1.167 
#    0.000    2.667    0.000    0.000    0.000    0.000 
#
# Total GULP energy -595070.701170 kJ/mol
# GULP energy per Si atom -12397.306274 kJ/mol
# Density = 1.688403 g / cm^3
# Si number density = 16.922544 Si / 1000 Ang^3
#
#
#
# Elastic Constant Matrix: (Units=GPa)
#
#
# Indices 1 2 3 4 5 6 
#
# 1 141.5970 38.4687 69.3539 0.0000 0.0000 0.0000
# 2 38.4687 55.6040 40.0262 0.0000 0.0000 0.0000
# 3 69.3539 40.0262 124.7348 0.0000 0.0000 0.0000
# 4 0.0000 0.0000 0.0000 21.8574 0.0000 0.0000
# 5 0.0000 0.0000 0.0000 0.0000 34.2838 0.0000
# 6 0.0000 0.0000 0.0000 0.0000 0.0000 7.9324
#
#
#
# Elastic Compliance Matrix: (Units=1/GPa)
#
#
# Indices 1 2 3 4 5 6 
#
# 1 0.010321 -0.003914 -0.004483 0.000000 0.000000 0.000000
# 2 -0.003914 0.024870 -0.005805 0.000000 0.000000 0.000000
# 3 -0.004483 -0.005805 0.012372 0.000000 0.000000 0.000000
# 4 0.000000 0.000000 0.000000 0.045751 0.000000 0.000000
# 5 0.000000 0.000000 0.000000 0.000000 0.029168 0.000000
# 6 0.000000 0.000000 0.000000 0.000000 0.000000 0.126066
#
#
# Mechanical properties :
#
#
# Convention : Reuss Voigt Hill
#
# Bulk Modulus (GPa) = 52.18800 68.62596 60.40698
# Shear Modulus (GPa) = 17.64676 24.42052 21.03364
#
# Velocity S-wave (km/s) = 3.23274 3.80291 3.52935
# Velocity P-wave (km/s) = 6.69630 7.74105 7.23755
#
# Compressibility (1/GPa) = 0.01916149
#
# Stress axis : x y z
#
# Youngs Moduli (GPa) = 96.88760 40.20857 80.82639
#
# Poissons Ratio (x) = 0.15736 0.36234
# Poissons Ratio (y) = 0.37918 0.46917
# Poissons Ratio (z) = 0.43434 0.23340
#
# Static dielectric constant tensor:
#      x y z
#    x 3.775110 0.000000 0.000000 
#    y 0.000000 2.742980 0.000000 
#    z 0.000000 0.000000 3.353280 
# 
# 
# High freq. dielectric constant tensor:
#      x y z
#    x 1.672870 0.000000 0.000000 
#    y 0.000000 1.582770 0.000000 
#    z 0.000000 0.000000 1.671640 
# 
# From -- ./inp_files/4890.got.cif
#   From: 2010.03.12/outbox.cif.g09.slc.cpg/sg57_3_cif.got.tgz:4890.got - 2010.04.16 15:48:40.
