data_PCOD8230706
_publ_section_title
;
Structure prediction by ZEFSAII (Michael W. Deem and Ramdas Pophale) SiO2 
 PCOD8230706
Probable space group: P B C M
;
_chemical_formula_sum "Si O2"
_cell_formula_units_Z 56
_cell_length_a 15.947637
_cell_length_b 24.369574
_cell_length_c 9.100439
_cell_angle_alpha 90.000000
_cell_angle_beta 90.000000
_cell_angle_gamma 90.000000
_cell_volume 3536.768404
_symmetry_space_group_name_H-M "P B C M"
_symmetry_group_IT_number 57
_symmetry_cell_setting 'orthorhombic'
loop_
_space_group_symop_operation_xyz
x,y,z
-x,-y,1/2+z
x,1/2-y,-z
-x,1/2+y,1/2-z
-x,-y,-z
x,y,1/2-z
-x,1/2+y,z
x,1/2-y,1/2+z
loop_
_atom_site_type_symbol
_atom_site_label
_atom_site_fract_x
_atom_site_fract_y
_atom_site_fract_z
Si Si1 0.786264 0.695747 0.077972
Si Si2 0.405238 0.195563 0.077861
Si Si3 0.513690 0.582022 0.079494
Si Si4 0.196563 0.518225 0.421115
Si Si5 0.956305 0.450343 0.419217
Si Si6 0.628282 0.019808 0.579307
Si Si7 0.876343 0.601764 0.915328
O O1 0.794415 0.704167 0.250000
O O2 0.690523 0.685087 0.028980
O O3 0.821649 0.750000 0.000000
O O4 0.842034 0.644474 0.031991
O O5 0.411333 0.205398 0.250000
O O6 0.458655 0.142694 0.029960
O O7 0.441615 0.250000 0.000000
O O8 0.486697 0.580065 0.250000
O O9 0.591153 0.540813 0.052354
O O10 0.435944 0.565655 0.978301
O O11 0.199421 0.532553 0.250000
O O12 0.132452 0.560997 0.500307
O O13 0.287414 0.526246 0.488685
O O14 0.164861 0.456818 0.451180
O O15 0.939572 0.465835 0.250000
O O16 0.000000 0.500000 0.500000
O O17 0.022076 0.399918 0.430421
O O18 0.646205 0.030473 0.750000
O O19 0.851646 0.619627 0.750000
#
# Coordination Sequence:
#
# PCOD8230706 Si02
#       7
#     8   8   8   8   8   8   8
#     4  10  19  30  45  65  90 119 151 185 220 261
#     4   9  18  31  46  65  89 118 151 187 225 265
#     4   9  18  32  46  64  92 121 151 187 229 275
#     4  10  19  30  45  66  92 121 151 184 223 266
#     4   9  17  29  44  64  90 117 147 182 217 258
#     4  10  19  30  46  67  91 121 155 189 227 273
#     4   9  18  30  44  64  90 119 149 182 220 260
#
# _framework density 15.833663
#
# number of rings (size 3 to 8) (size 9 to 14) (size 15 to 20)
#    0.000    2.571    0.000    3.429    0.000    6.286 
#    0.000    0.000    0.000    0.000    0.000    1.000 
#    0.000    2.286    0.000    0.000    0.000    0.000 
#
# Total GULP energy -694318.663041 kJ/mol
# GULP energy per Si atom -12398.547554 kJ/mol
# Density = 1.579762 g / cm^3
# Si number density = 15.833663 Si / 1000 Ang^3
#
#
#
# Elastic Constant Matrix: (Units=GPa)
#
#
# Indices 1 2 3 4 5 6 
#
# 1 96.4895 38.9920 53.5271 0.0000 0.0000 0.0000
# 2 38.9920 84.5012 41.3947 0.0000 0.0000 0.0000
# 3 53.5271 41.3947 94.0806 0.0000 0.0000 0.0000
# 4 0.0000 0.0000 0.0000 26.6261 0.0000 0.0000
# 5 0.0000 0.0000 0.0000 0.0000 31.1703 0.0000
# 6 0.0000 0.0000 0.0000 0.0000 0.0000 18.4449
#
#
#
# Elastic Compliance Matrix: (Units=1/GPa)
#
#
# Indices 1 2 3 4 5 6 
#
# 1 0.016016 -0.003731 -0.007471 0.000000 0.000000 0.000000
# 2 -0.003731 0.015955 -0.004897 0.000000 0.000000 0.000000
# 3 -0.007471 -0.004897 0.017034 0.000000 0.000000 0.000000
# 4 0.000000 0.000000 0.000000 0.037557 0.000000 0.000000
# 5 0.000000 0.000000 0.000000 0.000000 0.032082 0.000000
# 6 0.000000 0.000000 0.000000 0.000000 0.000000 0.054215
#
#
# Mechanical properties :
#
#
# Convention : Reuss Voigt Hill
#
# Bulk Modulus (GPa) = 59.49741 60.32211 59.90976
# Shear Modulus (GPa) = 23.73503 24.65877 24.19690
#
# Velocity S-wave (km/s) = 3.87592 3.95063 3.91345
# Velocity P-wave (km/s) = 7.59529 7.68050 7.63801
#
# Compressibility (1/GPa) = 0.01680745
#
# Stress axis : x y z
#
# Youngs Moduli (GPa) = 62.43873 62.67759 58.70452
#
# Poissons Ratio (x) = 0.23382 0.43856
# Poissons Ratio (y) = 0.23293 0.28750
# Poissons Ratio (z) = 0.46646 0.30696
#
# Static dielectric constant tensor:
#      x y z
#    x 2.777100 0.000000 0.000000 
#    y 0.000000 2.800850 0.000000 
#    z 0.000000 0.000000 3.136580 
# 
# 
# High freq. dielectric constant tensor:
#      x y z
#    x 1.601050 0.000000 0.000000 
#    y 0.000000 1.576850 0.000000 
#    z 0.000000 0.000000 1.622790 
# 
# From -- ./inp_files/7318.got.cif
#   From: 2010.03.12/outbox.cif.g09.slc.cpg/sg57_4_cif.got.tgz:7318.got - 2010.04.16 15:48:40.
