data_PCOD8230160
_publ_section_title
;
Structure prediction by ZEFSAII (Michael W. Deem and Ramdas Pophale) SiO2 
 PCOD8230160
Probable space group: P B C M
;
_chemical_formula_sum "Si O2"
_cell_formula_units_Z 48
_cell_length_a 11.578462
_cell_length_b 29.978609
_cell_length_c 8.942735
_cell_angle_alpha 90.000000
_cell_angle_beta 90.000000
_cell_angle_gamma 90.000000
_cell_volume 3104.078630
_symmetry_space_group_name_H-M "P B C M"
_symmetry_group_IT_number 57
_symmetry_cell_setting 'orthorhombic'
loop_
_space_group_symop_operation_xyz
x,y,z
-x,-y,1/2+z
x,1/2-y,-z
-x,1/2+y,1/2-z
-x,-y,-z
x,y,1/2-z
-x,1/2+y,z
x,1/2-y,1/2+z
loop_
_atom_site_type_symbol
_atom_site_label
_atom_site_fract_x
_atom_site_fract_y
_atom_site_fract_z
Si Si1 0.301709 0.137861 0.081482
Si Si2 0.949783 0.625091 0.418380
Si Si3 0.924166 0.462124 0.926828
Si Si4 0.545838 0.932325 0.075130
Si Si5 0.149164 0.202855 0.926811
Si Si6 0.662062 0.024686 0.075163
O O1 0.340154 0.150145 0.250000
O O2 0.184090 0.107982 0.083463
O O3 0.404412 0.111640 0.002186
O O4 0.271203 0.183495 0.990922
O O5 0.988336 0.638263 0.250000
O O6 0.955094 0.669070 0.524252
O O7 0.030633 0.586040 0.483060
O O8 0.937685 0.466326 0.750000
O O9 0.792433 0.467498 0.978133
O O10 0.000000 0.500000 0.000000
O O11 0.540428 0.923469 0.250000
O O12 0.627057 0.974209 0.034829
O O13 0.417335 0.940675 0.014442
O O14 0.155292 0.207339 0.750000
O O15 0.122125 0.250000 0.000000
O O16 0.645614 0.034111 0.250000
#
# Coordination Sequence:
#
# PCOD8230160 Si02
#       6
#     8   8   8   8   8   8
#     4   9  17  29  46  67  93 120 149 186 233 278
#     4   8  17  30  44  66  94 123 153 189 234 280
#     4  10  19  31  46  66  93 126 163 200 236 279
#     4  10  18  29  44  65  90 121 161 198 232 273
#     4  10  18  30  48  71  97 122 152 190 236 287
#     4   9  19  31  44  62  89 125 162 196 234 276
#
# _framework density 15.463525000000001
#
# number of rings (size 3 to 8) (size 9 to 14) (size 15 to 20)
#    1.000    1.667    0.000    3.000    0.000    2.000 
#    0.000    0.000    0.000    0.000    0.000    1.167 
#    0.000    2.667    0.000    0.000    0.000    0.000 
#
# Total GULP energy -594858.125330 kJ/mol
# GULP energy per Si atom -12392.877611 kJ/mol
# Density = 1.542833 g / cm^3
# Si number density = 15.463525 Si / 1000 Ang^3
#
#
#
# Elastic Constant Matrix: (Units=GPa)
#
#
# Indices 1 2 3 4 5 6 
#
# 1 86.9079 50.4111 36.5840 0.0000 0.0000 0.0000
# 2 50.4111 107.8965 51.6241 0.0000 0.0000 0.0000
# 3 36.5840 51.6241 89.3010 0.0000 0.0000 0.0000
# 4 0.0000 0.0000 0.0000 27.1412 0.0000 0.0000
# 5 0.0000 0.0000 0.0000 0.0000 21.3786 0.0000
# 6 0.0000 0.0000 0.0000 0.0000 0.0000 22.3901
#
#
#
# Elastic Compliance Matrix: (Units=1/GPa)
#
#
# Indices 1 2 3 4 5 6 
#
# 1 0.016407 -0.006151 -0.003166 0.000000 0.000000 0.000000
# 2 -0.006151 0.015118 -0.006220 0.000000 0.000000 0.000000
# 3 -0.003166 -0.006220 0.016090 0.000000 0.000000 0.000000
# 4 0.000000 0.000000 0.000000 0.036844 0.000000 0.000000
# 5 0.000000 0.000000 0.000000 0.000000 0.046776 0.000000
# 6 0.000000 0.000000 0.000000 0.000000 0.000000 0.044663
#
#
# Mechanical properties :
#
#
# Convention : Reuss Voigt Hill
#
# Bulk Modulus (GPa) = 60.44929 62.37152 61.41040
# Shear Modulus (GPa) = 23.53114 23.88106 23.70610
#
# Velocity S-wave (km/s) = 3.90515 3.93408 3.91965
# Velocity P-wave (km/s) = 7.71427 7.81397 7.76428
#
# Compressibility (1/GPa) = 0.01654279
#
# Stress axis : x y z
#
# Youngs Moduli (GPa) = 60.95004 66.14721 62.14883
#
# Poissons Ratio (x) = 0.40687 0.19674
# Poissons Ratio (y) = 0.37490 0.38654
# Poissons Ratio (z) = 0.19294 0.41141
#
# Static dielectric constant tensor:
#      x y z
#    x 2.833810 0.000000 0.000000 
#    y 0.000000 2.803320 0.000000 
#    z 0.000000 0.000000 3.011520 
# 
# 
# High freq. dielectric constant tensor:
#      x y z
#    x 1.566910 0.000000 0.000000 
#    y 0.000000 1.574140 0.000000 
#    z 0.000000 0.000000 1.602300 
# 
# From -- ./inp_files/3534.got.cif
#   From: 2010.03.12/outbox.cif.g09.slc.cpg/sg57_2_cif.got.tgz:3534.got - 2010.04.16 15:48:40.
