data_PCOD8230148
_publ_section_title
;
Structure prediction by ZEFSAII (Michael W. Deem and Ramdas Pophale) SiO2 
 PCOD8230148
Probable space group: P B C M
;
_chemical_formula_sum "Si O2"
_cell_formula_units_Z 64
_cell_length_a 15.336334
_cell_length_b 22.794854
_cell_length_c 9.413163
_cell_angle_alpha 90.000000
_cell_angle_beta 90.000000
_cell_angle_gamma 90.000000
_cell_volume 3290.742894
_symmetry_space_group_name_H-M "P B C M"
_symmetry_group_IT_number 57
_symmetry_cell_setting 'orthorhombic'
loop_
_space_group_symop_operation_xyz
x,y,z
-x,-y,1/2+z
x,1/2-y,-z
-x,1/2+y,1/2-z
-x,-y,-z
x,y,1/2-z
-x,1/2+y,z
x,1/2-y,1/2+z
loop_
_atom_site_type_symbol
_atom_site_label
_atom_site_fract_x
_atom_site_fract_y
_atom_site_fract_z
Si Si1 0.100285 0.118274 0.589824
Si Si2 0.628152 0.382732 0.089528
Si Si3 0.032556 0.809411 0.918197
Si Si4 0.727863 0.692301 0.912925
Si Si5 0.638796 0.518841 0.414518
Si Si6 0.804814 0.993919 0.412313
Si Si7 0.206589 0.626627 0.086022
Si Si8 0.562906 0.618652 0.584346
O O1 0.067508 0.132906 0.750000
O O2 0.194800 0.146392 0.563215
O O3 0.110454 0.047767 0.570494
O O4 0.031992 0.140439 0.473917
O O5 0.658147 0.371077 0.250000
O O6 0.614304 0.451479 0.060855
O O7 0.533627 0.353516 0.057997
O O8 0.704543 0.355663 0.993641
O O9 0.018771 0.801367 0.750000
O O10 0.130986 0.828045 0.956022
O O11 0.009493 0.750000 0.000000
O O12 0.719568 0.710995 0.750000
O O13 0.636548 0.664456 0.966009
O O14 0.750068 0.750000 0.000000
O O15 0.641902 0.536033 0.250000
O O16 0.732355 0.531732 0.483318
O O17 0.568359 0.559156 0.493414
O O18 0.770104 0.990354 0.250000
O O19 0.827005 0.061139 0.453383
O O20 0.229259 0.631268 0.250000
O O21 0.574763 0.602307 0.750000
#
# Coordination Sequence:
#
# PCOD8230148 Si02
#       8
#     8   8   8   8   8   8   8   8
#     4  10  20  36  59  85 110 143 181 220 274 336
#     4   9  19  33  53  80 110 143 182 224 271 321
#     4  11  24  41  60  84 109 142 186 232 278 325
#     4  10  21  36  53  75 105 144 185 223 270 324
#     4  10  18  28  47  81 114 142 180 222 264 315
#     4   9  17  34  57  81 113 150 179 212 273 340
#     4   9  20  38  59  82 112 145 182 227 275 329
#     4  10  19  34  52  73 106 148 186 221 267 325
#
# _framework density 19.448495000000001
#
# number of rings (size 3 to 8) (size 9 to 14) (size 15 to 20)
#    0.000    2.250    1.250    1.500    0.000    5.000 
#    0.000    0.625    0.000    3.000    0.000    0.000 
#    0.000    0.000    0.000    0.000    0.000    0.000 
#
# Total GULP energy -793559.206614 kJ/mol
# GULP energy per Si atom -12399.362603 kJ/mol
# Density = 1.940423 g / cm^3
# Si number density = 19.448495 Si / 1000 Ang^3
#
#
#
# Elastic Constant Matrix: (Units=GPa)
#
#
# Indices 1 2 3 4 5 6 
#
# 1 81.1279 3.4515 37.9538 0.0000 0.0000 0.0000
# 2 3.4515 23.9682 13.6930 0.0000 0.0000 0.0000
# 3 37.9538 13.6930 69.7331 0.0000 0.0000 0.0000
# 4 0.0000 0.0000 0.0000 20.4394 0.0000 0.0000
# 5 0.0000 0.0000 0.0000 0.0000 32.9537 0.0000
# 6 0.0000 0.0000 0.0000 0.0000 0.0000 20.1762
#
#
#
# Elastic Compliance Matrix: (Units=1/GPa)
#
#
# Indices 1 2 3 4 5 6 
#
# 1 0.016745 0.003149 -0.009732 0.000000 0.000000 0.000000
# 2 0.003149 0.047586 -0.011058 0.000000 0.000000 0.000000
# 3 -0.009732 -0.011058 0.021809 0.000000 0.000000 0.000000
# 4 0.000000 0.000000 0.000000 0.048925 0.000000 0.000000
# 5 0.000000 0.000000 0.000000 0.000000 0.030346 0.000000
# 6 0.000000 0.000000 0.000000 0.000000 0.000000 0.049563
#
#
# Mechanical properties :
#
#
# Convention : Reuss Voigt Hill
#
# Bulk Modulus (GPa) = 19.66299 31.66953 25.66626
# Shear Modulus (GPa) = 18.71195 22.69593 20.70394
#
# Velocity S-wave (km/s) = 3.10518 3.41981 3.26629
# Velocity P-wave (km/s) = 4.79463 5.64912 5.23933
#
# Compressibility (1/GPa) = 0.05085696
#
# Stress axis : x y z
#
# Youngs Moduli (GPa) = 59.71832 21.01468 45.85318
#
# Poissons Ratio (x) = -0.06617 0.44626
# Poissons Ratio (y) = -0.18803 0.50703
# Poissons Ratio (z) = 0.58119 0.23238
#
# Static dielectric constant tensor:
#      x y z
#    x 3.529910 0.000000 0.000000 
#    y 0.000000 3.401860 0.000000 
#    z 0.000000 0.000000 3.533960 
# 
# 
# High freq. dielectric constant tensor:
#      x y z
#    x 1.754270 0.000000 0.000000 
#    y 0.000000 1.738960 0.000000 
#    z 0.000000 0.000000 1.755350 
# 
# From -- ./inp_files/5603.got.cif
#   From: 2010.03.12/outbox.cif.g09.slc.cpg/sg57_3_cif.got.tgz:5603.got - 2010.04.16 15:48:40.
