data_PCOD8230456
_publ_section_title
;
Structure prediction by ZEFSAII (Michael W. Deem and Ramdas Pophale) SiO2 
 PCOD8230456
Probable space group: P B C M
;
_chemical_formula_sum "Si O2"
_cell_formula_units_Z 48
_cell_length_a 17.192593
_cell_length_b 15.571895
_cell_length_c 8.661163
_cell_angle_alpha 90.000000
_cell_angle_beta 90.000000
_cell_angle_gamma 90.000000
_cell_volume 2318.777411
_symmetry_space_group_name_H-M "P B C M"
_symmetry_group_IT_number 57
_symmetry_cell_setting 'orthorhombic'
loop_
_space_group_symop_operation_xyz
x,y,z
-x,-y,1/2+z
x,1/2-y,-z
-x,1/2+y,1/2-z
-x,-y,-z
x,y,1/2-z
-x,1/2+y,z
x,1/2-y,1/2+z
loop_
_atom_site_type_symbol
_atom_site_label
_atom_site_fract_x
_atom_site_fract_y
_atom_site_fract_z
Si Si1 0.666816 0.088537 0.931878
Si Si2 0.177952 0.161373 0.431374
Si Si3 0.498328 0.407982 0.071444
Si Si4 0.331364 0.399752 0.068084
Si Si5 0.914752 0.502521 0.567857
Si Si6 0.183536 0.837499 0.567571
O O1 0.676552 0.069811 0.750000
O O2 0.582317 0.134854 0.966133
O O3 0.731709 0.153445 0.991188
O O4 0.675409 0.999852 0.024465
O O5 0.144424 0.250000 0.500000
O O6 0.165697 0.161041 0.250000
O O7 0.268956 0.154635 0.473035
O O8 0.131325 0.083102 0.503328
O O9 0.488629 0.423703 0.250000
O O10 0.417452 0.361965 0.018990
O O11 0.500000 0.500000 0.000000
O O12 0.313745 0.389961 0.250000
O O13 0.919158 0.510327 0.750000
O O14 0.871058 0.415921 0.516388
O O15 0.000000 0.500000 0.500000
O O16 0.146337 0.750000 0.500000
O O17 0.191940 0.831543 0.750000
#
# Coordination Sequence:
#
# PCOD8230456 Si02
#       6
#     8   8   8   8   8   8
#     4  10  18  32  56  86 121 164 211 256 309 367
#     4  12  25  42  66  95 128 167 211 259 314 374
#     4   8  16  28  48  80 117 159 207 257 305 360
#     4  10  18  33  56  85 123 164 209 259 311 366
#     4  11  25  46  71  98 129 163 203 250 310 376
#     4  11  24  41  64  93 127 165 207 255 307 366
#
# _framework density 20.700564
#
# number of rings (size 3 to 8) (size 9 to 14) (size 15 to 20)
#    0.000    1.667    1.667    3.500    0.000    4.000 
#    0.000    2.500    0.000    0.000    0.000    0.000 
#    0.000    0.000    0.000    0.000    0.000    0.000 
#
# Total GULP energy -594900.148289 kJ/mol
# GULP energy per Si atom -12393.753089 kJ/mol
# Density = 2.065345 g / cm^3
# Si number density = 20.700564 Si / 1000 Ang^3
#
#
#
# Elastic Constant Matrix: (Units=GPa)
#
#
# Indices 1 2 3 4 5 6 
#
# 1 158.2425 63.9398 49.5262 0.0000 0.0000 0.0000
# 2 63.9398 126.8126 43.5396 0.0000 0.0000 0.0000
# 3 49.5262 43.5396 65.8996 0.0000 0.0000 0.0000
# 4 0.0000 0.0000 0.0000 31.7155 0.0000 0.0000
# 5 0.0000 0.0000 0.0000 0.0000 30.4512 0.0000
# 6 0.0000 0.0000 0.0000 0.0000 0.0000 6.9834
#
#
#
# Elastic Compliance Matrix: (Units=1/GPa)
#
#
# Indices 1 2 3 4 5 6 
#
# 1 0.009002 -0.002866 -0.004872 0.000000 0.000000 0.000000
# 2 -0.002866 0.011112 -0.005187 0.000000 0.000000 0.000000
# 3 -0.004872 -0.005187 0.022263 0.000000 0.000000 0.000000
# 4 0.000000 0.000000 0.000000 0.031530 0.000000 0.000000
# 5 0.000000 0.000000 0.000000 0.000000 0.032839 0.000000
# 6 0.000000 0.000000 0.000000 0.000000 0.000000 0.143198
#
#
# Mechanical properties :
#
#
# Convention : Reuss Voigt Hill
#
# Bulk Modulus (GPa) = 60.50951 73.88511 67.19731
# Shear Modulus (GPa) = 17.77430 26.75996 22.26713
#
# Velocity S-wave (km/s) = 2.93343 3.59934 3.28331
# Velocity P-wave (km/s) = 6.38496 7.28309 6.84876
#
# Compressibility (1/GPa) = 0.01652633
#
# Stress axis : x y z
#
# Youngs Moduli (GPa) = 111.08175 89.99326 44.91702
#
# Poissons Ratio (x) = 0.25795 0.21883
# Poissons Ratio (y) = 0.31840 0.23300
# Poissons Ratio (z) = 0.54117 0.46683
#
# Static dielectric constant tensor:
#      x y z
#    x 4.348860 0.000000 0.000000 
#    y 0.000000 3.578160 0.000000 
#    z 0.000000 0.000000 3.853760 
# 
# 
# High freq. dielectric constant tensor:
#      x y z
#    x 1.824650 0.000000 0.000000 
#    y 0.000000 1.788260 0.000000 
#    z 0.000000 0.000000 1.819940 
# 
# From -- ./inp_files/6559.got.cif
#   From: 2010.03.12/outbox.cif.g09.slc.cpg/sg57_4_cif.got.tgz:6559.got - 2010.04.16 15:48:40.
