data_PCOD8230187
_publ_section_title
;
Structure prediction by ZEFSAII (Michael W. Deem and Ramdas Pophale) SiO2 
 PCOD8230187
Probable space group: P B C M
;
_chemical_formula_sum "Si O2"
_cell_formula_units_Z 64
_cell_length_a 9.820711
_cell_length_b 20.786141
_cell_length_c 18.764550
_cell_angle_alpha 90.000000
_cell_angle_beta 90.000000
_cell_angle_gamma 90.000000
_cell_volume 3830.495477
_symmetry_space_group_name_H-M "P B C M"
_symmetry_group_IT_number 57
_symmetry_cell_setting 'orthorhombic'
loop_
_space_group_symop_operation_xyz
x,y,z
-x,-y,1/2+z
x,1/2-y,-z
-x,1/2+y,1/2-z
-x,-y,-z
x,y,1/2-z
-x,1/2+y,z
x,1/2-y,1/2+z
loop_
_atom_site_type_symbol
_atom_site_label
_atom_site_fract_x
_atom_site_fract_y
_atom_site_fract_z
Si Si1 0.680593 0.681790 0.961086
Si Si2 0.181442 0.941157 0.530380
Si Si3 0.657579 0.740709 0.330371
Si Si4 0.360746 0.729485 0.115414
Si Si5 0.870327 0.922663 0.521088
Si Si6 0.835698 0.132127 0.171508
Si Si7 0.382630 0.653173 0.528362
Si Si8 0.145850 0.377701 0.670394
O O1 0.705364 0.699110 0.878410
O O2 0.808733 0.643666 0.991500
O O3 0.544449 0.638382 0.969018
O O4 0.655734 0.750000 0.000000
O O5 0.210031 0.920582 0.612444
O O6 0.292739 0.911398 0.476042
O O7 0.031444 0.918279 0.506772
O O8 0.193917 0.017928 0.522082
O O9 0.670259 0.765041 0.250000
O O10 0.504951 0.717817 0.347045
O O11 0.751666 0.679676 0.345410
O O12 0.243120 0.700076 0.164874
O O13 0.340127 0.805482 0.098656
O O14 0.349924 0.692942 0.041523
O O15 0.837635 0.929728 0.606289
O O16 0.804956 0.102684 0.250000
O O17 0.993865 0.150334 0.164831
O O18 0.171767 0.407608 0.750000
#
# Coordination Sequence:
#
# PCOD8230187 Si02
#       8
#     8   8   8   8   8   8   8   8
#     4  11  18  32  50  73  98 125 158 203 244 289
#     4   9  20  33  49  72  97 132 169 200 237 287
#     4  10  18  29  46  71  99 125 154 194 247 293
#     4   9  15  27  46  69  96 124 153 195 240 282
#     4  10  19  34  50  70  99 129 168 204 238 290
#     4   9  17  29  46  70  97 126 162 200 241 284
#     4   9  16  30  47  71  97 124 160 198 237 286
#     4   9  17  29  47  69  92 120 158 206 245 282
#
# _framework density 16.708020999999999
#
# number of rings (size 3 to 8) (size 9 to 14) (size 15 to 20)
#    0.000    2.500    3.750    0.375    0.000    1.500 
#    2.250    0.625    0.000    4.500    0.000    0.000 
#    0.000    0.000    0.000    0.000    0.000    0.000 
#
# Total GULP energy -793123.538185 kJ/mol
# GULP energy per Si atom -12392.555284 kJ/mol
# Density = 1.666999 g / cm^3
# Si number density = 16.708021 Si / 1000 Ang^3
#
#
#
# Elastic Constant Matrix: (Units=GPa)
#
#
# Indices 1 2 3 4 5 6 
#
# 1 65.8627 35.8270 36.9855 0.0000 0.0000 0.0000
# 2 35.8270 56.3759 37.4983 0.0000 0.0000 0.0000
# 3 36.9855 37.4983 93.3621 0.0000 0.0000 0.0000
# 4 0.0000 0.0000 0.0000 20.5755 0.0000 0.0000
# 5 0.0000 0.0000 0.0000 0.0000 21.6985 0.0000
# 6 0.0000 0.0000 0.0000 0.0000 0.0000 22.3105
#
#
#
# Elastic Compliance Matrix: (Units=1/GPa)
#
#
# Indices 1 2 3 4 5 6 
#
# 1 0.024652 -0.012514 -0.004740 0.000000 0.000000 0.000000
# 2 -0.012514 0.030556 -0.007316 0.000000 0.000000 0.000000
# 3 -0.004740 -0.007316 0.015527 0.000000 0.000000 0.000000
# 4 0.000000 0.000000 0.000000 0.048602 0.000000 0.000000
# 5 0.000000 0.000000 0.000000 0.000000 0.046086 0.000000
# 6 0.000000 0.000000 0.000000 0.000000 0.000000 0.044822
#
#
# Mechanical properties :
#
#
# Convention : Reuss Voigt Hill
#
# Bulk Modulus (GPa) = 46.30225 48.46915 47.38570
# Shear Modulus (GPa) = 18.75600 19.93623 19.34612
#
# Velocity S-wave (km/s) = 3.35412 3.45804 3.40648
# Velocity P-wave (km/s) = 6.54010 6.70944 6.62531
#
# Compressibility (1/GPa) = 0.02159722
#
# Stress axis : x y z
#
# Youngs Moduli (GPa) = 40.56521 32.72641 64.40441
#
# Poissons Ratio (x) = 0.40952 0.30526
# Poissons Ratio (y) = 0.50761 0.47115
# Poissons Ratio (z) = 0.19227 0.23941
#
# Static dielectric constant tensor:
#      x y z
#    x 3.214010 0.000000 0.000000 
#    y 0.000000 3.029880 0.000000 
#    z 0.000000 0.000000 3.444470 
# 
# 
# High freq. dielectric constant tensor:
#      x y z
#    x 1.650080 0.000000 0.000000 
#    y 0.000000 1.603020 0.000000 
#    z 0.000000 0.000000 1.647710 
# 
# From -- ./inp_files/21395.got.cif
#   From: 2010.03.12/outbox.cif.g09.slc.cpg/sg57_11_cif.got.tgz:21395.got - 2010.04.16 15:48:40.
