data_PCOD8230798
_publ_section_title
;
Structure prediction by ZEFSAII (Michael W. Deem and Ramdas Pophale) SiO2 
 PCOD8230798
Probable space group: P B C M
;
_chemical_formula_sum "Si O2"
_cell_formula_units_Z 56
_cell_length_a 13.632501
_cell_length_b 23.920192
_cell_length_c 9.048989
_cell_angle_alpha 90.000000
_cell_angle_beta 90.000000
_cell_angle_gamma 90.000000
_cell_volume 2950.803295
_symmetry_space_group_name_H-M "P B C M"
_symmetry_group_IT_number 57
_symmetry_cell_setting 'orthorhombic'
loop_
_space_group_symop_operation_xyz
x,y,z
-x,-y,1/2+z
x,1/2-y,-z
-x,1/2+y,1/2-z
-x,-y,-z
x,y,1/2-z
-x,1/2+y,z
x,1/2-y,1/2+z
loop_
_atom_site_type_symbol
_atom_site_label
_atom_site_fract_x
_atom_site_fract_y
_atom_site_fract_z
Si Si1 0.323839 0.587483 0.921546
Si Si2 0.766719 0.307851 0.924530
Si Si3 0.835987 0.616010 0.078783
Si Si4 0.728351 0.978278 0.423160
Si Si5 0.008664 0.806442 0.921702
Si Si6 0.547671 0.902286 0.081293
Si Si7 0.349237 0.308613 0.579172
O O1 0.295585 0.593312 0.750000
O O2 0.438755 0.574705 0.943559
O O3 0.299509 0.644245 0.006032
O O4 0.262788 0.537003 0.992923
O O5 0.748446 0.303803 0.750000
O O6 0.879853 0.321564 0.962468
O O7 0.734836 0.250000 0.000000
O O8 0.834645 0.597980 0.250000
O O9 0.755128 0.663142 0.046877
O O10 0.940615 0.641554 0.029906
O O11 0.815885 0.561509 0.979901
O O12 0.741427 0.988943 0.250000
O O13 0.623519 0.950986 0.463365
O O14 0.995081 0.794612 0.750000
O O15 0.973448 0.750000 0.000000
O O16 0.565748 0.884147 0.250000
O O17 0.564091 0.847976 0.980895
O O18 0.352942 0.250000 0.500000
O O19 0.368474 0.298495 0.750000
#
# Coordination Sequence:
#
# PCOD8230798 Si02
#       7
#     8   8   8   8   8   8   8
#     4  11  22  37  57  78 102 137 175 214 260 308
#     4  10  21  38  58  81 107 136 173 217 260 305
#     4   9  18  33  52  77 107 139 172 209 255 308
#     4  10  20  35  55  80 107 135 170 214 258 307
#     4   9  18  33  55  80 107 138 173 213 258 307
#     4   9  20  36  53  74 102 136 175 215 258 308
#     4  10  19  30  48  74 106 139 171 210 257 307
#
# _framework density 18.977881
#
# number of rings (size 3 to 8) (size 9 to 14) (size 15 to 20)
#    0.000    2.286    0.000    2.571    0.000    4.000 
#    0.000    0.714    0.000    0.000    0.000    0.000 
#    0.000    0.000    0.000    0.000    0.000    0.000 
#
# Total GULP energy -694602.851277 kJ/mol
# GULP energy per Si atom -12403.622344 kJ/mol
# Density = 1.893469 g / cm^3
# Si number density = 18.977881 Si / 1000 Ang^3
#
#
#
# Elastic Constant Matrix: (Units=GPa)
#
#
# Indices 1 2 3 4 5 6 
#
# 1 49.4136 25.2804 21.9505 0.0000 0.0000 0.0000
# 2 25.2804 119.2825 58.0092 0.0000 0.0000 0.0000
# 3 21.9505 58.0092 92.4342 0.0000 0.0000 0.0000
# 4 0.0000 0.0000 0.0000 39.6629 0.0000 0.0000
# 5 0.0000 0.0000 0.0000 0.0000 24.9576 0.0000
# 6 0.0000 0.0000 0.0000 0.0000 0.0000 24.7965
#
#
#
# Elastic Compliance Matrix: (Units=1/GPa)
#
#
# Indices 1 2 3 4 5 6 
#
# 1 0.023472 -0.003258 -0.003529 0.000000 0.000000 0.000000
# 2 -0.003258 0.012518 -0.007082 0.000000 0.000000 0.000000
# 3 -0.003529 -0.007082 0.016101 0.000000 0.000000 0.000000
# 4 0.000000 0.000000 0.000000 0.025212 0.000000 0.000000
# 5 0.000000 0.000000 0.000000 0.000000 0.040068 0.000000
# 6 0.000000 0.000000 0.000000 0.000000 0.000000 0.040328
#
#
# Mechanical properties :
#
#
# Convention : Reuss Voigt Hill
#
# Bulk Modulus (GPa) = 41.06444 52.40116 46.73280
# Shear Modulus (GPa) = 25.83214 28.27608 27.05411
#
# Velocity S-wave (km/s) = 3.69341 3.86417 3.77975
# Velocity P-wave (km/s) = 6.31454 6.89788 6.61264
#
# Compressibility (1/GPa) = 0.02435197
#
# Stress axis : x y z
#
# Youngs Moduli (GPa) = 42.60391 79.88301 62.10687
#
# Poissons Ratio (x) = 0.26028 0.21918
# Poissons Ratio (y) = 0.13882 0.43986
# Poissons Ratio (z) = 0.15035 0.56576
#
# Static dielectric constant tensor:
#      x y z
#    x 3.458460 0.000000 0.000000 
#    y 0.000000 3.376980 0.000000 
#    z 0.000000 0.000000 3.527100 
# 
# 
# High freq. dielectric constant tensor:
#      x y z
#    x 1.724780 0.000000 0.000000 
#    y 0.000000 1.736280 0.000000 
#    z 0.000000 0.000000 1.745500 
# 
# From -- ./inp_files/5166.got.cif
#   From: 2010.03.12/outbox.cif.g09.slc.cpg/sg57_3_cif.got.tgz:5166.got - 2010.04.16 15:48:40.
