data_PCOD8230988
_publ_section_title
;
Structure prediction by ZEFSAII (Michael W. Deem and Ramdas Pophale) SiO2 
 PCOD8230988
Probable space group: P B C M
;
_chemical_formula_sum "Si O2"
_cell_formula_units_Z 48
_cell_length_a 11.740724
_cell_length_b 23.460194
_cell_length_c 8.811557
_cell_angle_alpha 90.000000
_cell_angle_beta 90.000000
_cell_angle_gamma 90.000000
_cell_volume 2427.052288
_symmetry_space_group_name_H-M "P B C M"
_symmetry_group_IT_number 57
_symmetry_cell_setting 'orthorhombic'
loop_
_space_group_symop_operation_xyz
x,y,z
-x,-y,1/2+z
x,1/2-y,-z
-x,1/2+y,1/2-z
-x,-y,-z
x,y,1/2-z
-x,1/2+y,z
x,1/2-y,1/2+z
loop_
_atom_site_type_symbol
_atom_site_label
_atom_site_fract_x
_atom_site_fract_y
_atom_site_fract_z
Si Si1 0.712019 0.095118 0.928934
Si Si2 0.111554 0.812950 0.069609
Si Si3 0.312166 0.194909 0.577217
Si Si4 0.539768 0.585420 0.577810
Si Si5 0.890438 0.865507 0.929265
Si Si6 0.746576 0.970906 0.572818
O O1 0.700302 0.101998 0.750000
O O2 0.779877 0.150354 0.990091
O O3 0.585100 0.090465 0.999128
O O4 0.779393 0.036145 0.968440
O O5 0.109278 0.807096 0.250000
O O6 0.114732 0.750000 0.000000
O O7 0.004100 0.849828 0.017670
O O8 0.368498 0.250000 0.500000
O O9 0.272615 0.205533 0.750000
O O10 0.408248 0.147826 0.569246
O O11 0.203327 0.180801 0.473827
O O12 0.529870 0.563504 0.750000
O O13 0.620627 0.541090 0.491843
O O14 0.913578 0.864145 0.750000
O O15 0.843994 0.927517 0.987746
O O16 0.735710 0.960792 0.750000
#
# Coordination Sequence:
#
# PCOD8230988 Si02
#       6
#     8   8   8   8   8   8
#     4   9  19  36  56  78 107 142 174 209 258 311
#     4  11  23  39  57  76 104 142 180 217 258 307
#     4  10  19  31  50  76 104 136 175 218 263 310
#     4   9  18  33  53  78 108 140 173 211 259 312
#     4  10  20  35  55  79 106 134 170 218 266 312
#     4   9  18  34  57  83 108 135 170 213 261 311
#
# _framework density 19.777076999999998
#
# number of rings (size 3 to 8) (size 9 to 14) (size 15 to 20)
#    0.000    2.333    0.000    2.500    0.000    2.667 
#    0.000    3.333    0.000    0.000    0.000    0.000 
#    0.000    0.000    0.000    0.000    0.000    0.000 
#
# Total GULP energy -594989.551216 kJ/mol
# GULP energy per Si atom -12395.615650 kJ/mol
# Density = 1.973206 g / cm^3
# Si number density = 19.777077 Si / 1000 Ang^3
#
#
#
# Elastic Constant Matrix: (Units=GPa)
#
#
# Indices 1 2 3 4 5 6 
#
# 1 113.4770 67.5657 25.7094 0.0000 0.0000 0.0000
# 2 67.5657 115.2743 35.7194 0.0000 0.0000 0.0000
# 3 25.7094 35.7194 51.7019 0.0000 0.0000 0.0000
# 4 0.0000 0.0000 0.0000 18.3922 0.0000 0.0000
# 5 0.0000 0.0000 0.0000 0.0000 22.2325 0.0000
# 6 0.0000 0.0000 0.0000 0.0000 0.0000 11.4525
#
#
#
# Elastic Compliance Matrix: (Units=1/GPa)
#
#
# Indices 1 2 3 4 5 6 
#
# 1 0.013640 -0.007498 -0.001602 0.000000 0.000000 0.000000
# 2 -0.007498 0.015160 -0.006745 0.000000 0.000000 0.000000
# 3 -0.001602 -0.006745 0.024798 0.000000 0.000000 0.000000
# 4 0.000000 0.000000 0.000000 0.054371 0.000000 0.000000
# 5 0.000000 0.000000 0.000000 0.000000 0.044979 0.000000
# 6 0.000000 0.000000 0.000000 0.000000 0.000000 0.087317
#
#
# Mechanical properties :
#
#
# Convention : Reuss Voigt Hill
#
# Bulk Modulus (GPa) = 45.64720 59.82691 52.73706
# Shear Modulus (GPa) = 17.90456 20.51271 19.20864
#
# Velocity S-wave (km/s) = 3.01212 3.22405 3.11988
# Velocity P-wave (km/s) = 5.93533 6.64647 6.30094
#
# Compressibility (1/GPa) = 0.02190715
#
# Stress axis : x y z
#
# Youngs Moduli (GPa) = 73.31403 65.96322 40.32532
#
# Poissons Ratio (x) = 0.49461 0.06461
# Poissons Ratio (y) = 0.54973 0.27199
# Poissons Ratio (z) = 0.11747 0.44492
#
# Static dielectric constant tensor:
#      x y z
#    x 3.681860 0.000000 0.000000 
#    y 0.000000 3.846700 0.000000 
#    z 0.000000 0.000000 3.489740 
# 
# 
# High freq. dielectric constant tensor:
#      x y z
#    x 1.763150 0.000000 0.000000 
#    y 0.000000 1.784770 0.000000 
#    z 0.000000 0.000000 1.754800 
# 
# From -- ./inp_files/3189.got.cif
#   From: 2010.03.12/outbox.cif.g09.slc.cpg/sg57_2_cif.got.tgz:3189.got - 2010.04.16 15:48:40.
