data_PCOD8230210
_publ_section_title
;
Structure prediction by ZEFSAII (Michael W. Deem and Ramdas Pophale) SiO2 
 PCOD8230210
Probable space group: P B C M
;
_chemical_formula_sum "Si O2"
_cell_formula_units_Z 56
_cell_length_a 14.175757
_cell_length_b 20.673017
_cell_length_c 9.146000
_cell_angle_alpha 90.000000
_cell_angle_beta 90.000000
_cell_angle_gamma 90.000000
_cell_volume 2680.287116
_symmetry_space_group_name_H-M "P B C M"
_symmetry_group_IT_number 57
_symmetry_cell_setting 'orthorhombic'
loop_
_space_group_symop_operation_xyz
x,y,z
-x,-y,1/2+z
x,1/2-y,-z
-x,1/2+y,1/2-z
-x,-y,-z
x,y,1/2-z
-x,1/2+y,z
x,1/2-y,1/2+z
loop_
_atom_site_type_symbol
_atom_site_label
_atom_site_fract_x
_atom_site_fract_y
_atom_site_fract_z
Si Si1 0.069614 0.418188 0.410600
Si Si2 0.647627 0.877286 0.583267
Si Si3 0.782890 0.994464 0.921941
Si Si4 0.456025 0.816741 0.581072
Si Si5 0.081470 0.814745 0.425379
Si Si6 0.212375 0.304113 0.093060
Si Si7 0.744593 0.371982 0.924270
O O1 0.049845 0.449897 0.250000
O O2 0.112156 0.469797 0.526300
O O3 0.150245 0.366321 0.388654
O O4 0.977749 0.379522 0.468513
O O5 0.672054 0.862304 0.750000
O O6 0.696458 0.945673 0.542886
O O7 0.535456 0.872585 0.553036
O O8 0.690663 0.820003 0.487863
O O9 0.790649 0.010521 0.750000
O O10 0.758094 0.056381 0.015901
O O11 0.478591 0.750000 0.500000
O O12 0.450878 0.798454 0.750000
O O13 0.358467 0.847978 0.528508
O O14 0.038099 0.750000 0.500000
O O15 0.083535 0.806245 0.250000
O O16 0.184476 0.823666 0.493975
O O17 0.237732 0.274613 0.250000
O O18 0.156746 0.250000 0.000000
O O19 0.760653 0.370589 0.750000
#
# Coordination Sequence:
#
# PCOD8230210 Si02
#       7
#     8   8   8   8   8   8   8
#     4   9  20  37  57  82 114 150 187 230 281 341
#     4   9  19  36  56  81 113 146 184 231 282 338
#     4  10  21  38  61  88 117 150 190 235 285 342
#     4  10  22  39  59  84 114 150 191 236 286 339
#     4  11  23  40  62  88 117 151 193 239 289 341
#     4  10  18  29  48  77 111 146 183 224 276 335
#     4  11  24  41  60  82 114 155 197 242 287 336
#
# _framework density 20.893284999999999
#
# number of rings (size 3 to 8) (size 9 to 14) (size 15 to 20)
#    0.000    2.000    0.000    3.000    0.000    7.429 
#    0.000    0.000    0.000    0.000    0.000    0.000 
#    0.000    0.000    0.000    0.000    0.000    0.000 
#
# Total GULP energy -694031.392146 kJ/mol
# GULP energy per Si atom -12393.417717 kJ/mol
# Density = 2.084573 g / cm^3
# Si number density = 20.893285 Si / 1000 Ang^3
#
#
#
# Elastic Constant Matrix: (Units=GPa)
#
#
# Indices 1 2 3 4 5 6 
#
# 1 90.0035 1.1369 23.6029 0.0000 0.0000 0.0000
# 2 1.1369 61.1469 31.8764 0.0000 0.0000 0.0000
# 3 23.6029 31.8764 97.5337 0.0000 0.0000 0.0000
# 4 0.0000 0.0000 0.0000 38.4610 0.0000 0.0000
# 5 0.0000 0.0000 0.0000 0.0000 36.2440 0.0000
# 6 0.0000 0.0000 0.0000 0.0000 0.0000 -3.5367
#
#
#
# Elastic Compliance Matrix: (Units=1/GPa)
#
#
# Indices 1 2 3 4 5 6 
#
# 1 0.011985 0.001554 -0.003408 0.000000 0.000000 0.000000
# 2 0.001554 0.019914 -0.006884 0.000000 0.000000 0.000000
# 3 -0.003408 -0.006884 0.013328 0.000000 0.000000 0.000000
# 4 0.000000 0.000000 0.000000 0.026000 0.000000 0.000000
# 5 0.000000 0.000000 0.000000 0.000000 0.027591 0.000000
# 6 0.000000 0.000000 0.000000 0.000000 0.000000 -0.282746
#
#
# Mechanical properties :
#
#
# Convention : Reuss Voigt Hill
#
# Bulk Modulus (GPa) = 36.03719 40.21293 38.12506
# Shear Modulus (GPa) = -31.80633 27.03818 -2.38408
#
# Velocity S-wave (km/s) = -3.90593 3.60127 -1.06937
# Velocity P-wave (km/s) = 1.74815 6.04821 4.09419
#
# Compressibility (1/GPa) = 0.02774911
#
# Stress axis : x y z
#
# Youngs Moduli (GPa) = 83.43886 50.21573 75.03210
#
# Poissons Ratio (x) = -0.07803 0.25572
# Poissons Ratio (y) = -0.12965 0.51655
# Poissons Ratio (z) = 0.28437 0.34571
#
# Static dielectric constant tensor:
#      x y z
#    x 3.998940 0.000000 0.000000 
#    y 0.000000 4.448020 0.000000 
#    z 0.000000 0.000000 4.057610 
# 
# 
# High freq. dielectric constant tensor:
#      x y z
#    x 1.820920 0.000000 0.000000 
#    y 0.000000 1.815560 0.000000 
#    z 0.000000 0.000000 1.824190 
# 
# From -- ./inp_files/5139.got.cif
#   From: 2010.03.12/outbox.cif.g09.slc.cpg/sg57_3_cif.got.tgz:5139.got - 2010.04.16 15:48:40.
