data_PCOD8230432
_publ_section_title
;
Structure prediction by ZEFSAII (Michael W. Deem and Ramdas Pophale) SiO2 
 PCOD8230432
Probable space group: P B C M
;
_chemical_formula_sum "Si O2"
_cell_formula_units_Z 40
_cell_length_a 25.808193
_cell_length_b 9.727657
_cell_length_c 8.455341
_cell_angle_alpha 90.000000
_cell_angle_beta 90.000000
_cell_angle_gamma 90.000000
_cell_volume 2122.740832
_symmetry_space_group_name_H-M "P B C M"
_symmetry_group_IT_number 57
_symmetry_cell_setting 'orthorhombic'
loop_
_space_group_symop_operation_xyz
x,y,z
-x,-y,1/2+z
x,1/2-y,-z
-x,1/2+y,1/2-z
-x,-y,-z
x,y,1/2-z
-x,1/2+y,z
x,1/2-y,1/2+z
loop_
_atom_site_type_symbol
_atom_site_label
_atom_site_fract_x
_atom_site_fract_y
_atom_site_fract_z
Si Si1 0.348013 0.096302 0.437729
Si Si2 0.545066 0.595981 0.562422
Si Si3 0.043234 0.600121 0.436337
Si Si4 0.241314 0.095479 0.563138
Si Si5 0.153963 0.899041 0.063996
O O1 0.350534 0.250000 0.500000
O O2 0.343954 0.090756 0.250000
O O3 0.401352 0.027566 0.497739
O O4 0.296628 0.027762 0.513491
O O5 0.536470 0.750000 0.500000
O O6 0.500000 0.500000 0.500000
O O7 0.546093 0.598756 0.750000
O O8 0.030266 0.750000 0.500000
O O9 0.042191 0.602021 0.250000
O O10 0.099565 0.550238 0.492918
O O11 0.000000 0.500000 0.500000
O O12 0.237570 0.250000 0.500000
O O13 0.234647 0.092798 0.750000
O O14 0.196757 0.008724 0.481924
O O15 0.147996 0.888933 0.250000
O O16 0.170216 0.750000 0.000000
#
# Coordination Sequence:
#
# PCOD8230432 Si02
#       5
#     8   8   8   8   8
#     4  10  18  32  53  79 108 143 181 224 272 324
#     4  11  21  36  56  81 110 145 183 226 274 327
#     4  11  22  39  60  85 113 147 185 227 273 325
#     4  11  21  36  57  84 112 144 184 230 273 321
#     4  11  22  39  59  83 113 149 184 223 274 331
#
# _framework density 18.843564000000001
#
# number of rings (size 3 to 8) (size 9 to 14) (size 15 to 20)
#    0.000    1.200    0.000   12.600    0.000    0.800 
#    0.000    5.000    0.000    0.000    0.000    0.000 
#    0.000    0.000    0.000    0.000    0.000    0.000 
#
# Total GULP energy -496013.709716 kJ/mol
# GULP energy per Si atom -12400.342743 kJ/mol
# Density = 1.880067 g / cm^3
# Si number density = 18.843564 Si / 1000 Ang^3
#
#
#
# Elastic Constant Matrix: (Units=GPa)
#
#
# Indices 1 2 3 4 5 6 
#
# 1 161.1424 67.9162 29.6089 0.0000 0.0000 0.0000
# 2 67.9162 63.0200 18.5006 0.0000 0.0000 0.0000
# 3 29.6089 18.5006 148.1743 0.0000 0.0000 0.0000
# 4 0.0000 0.0000 0.0000 31.0814 0.0000 0.0000
# 5 0.0000 0.0000 0.0000 0.0000 39.6251 0.0000
# 6 0.0000 0.0000 0.0000 0.0000 0.0000 41.3750
#
#
#
# Elastic Compliance Matrix: (Units=1/GPa)
#
#
# Indices 1 2 3 4 5 6 
#
# 1 0.011455 -0.012118 -0.000776 0.000000 0.000000 0.000000
# 2 -0.012118 0.029290 -0.001236 0.000000 0.000000 0.000000
# 3 -0.000776 -0.001236 0.007058 0.000000 0.000000 0.000000
# 4 0.000000 0.000000 0.000000 0.032174 0.000000 0.000000
# 5 0.000000 0.000000 0.000000 0.000000 0.025237 0.000000
# 6 0.000000 0.000000 0.000000 0.000000 0.000000 0.024169
#
#
# Mechanical properties :
#
#
# Convention : Reuss Voigt Hill
#
# Bulk Modulus (GPa) = 51.16482 67.15424 59.15953
# Shear Modulus (GPa) = 30.45876 39.50371 34.98123
#
# Velocity S-wave (km/s) = 4.02481 4.58362 4.31327
# Velocity P-wave (km/s) = 6.98643 7.98297 7.50127
#
# Compressibility (1/GPa) = 0.01954468
#
# Stress axis : x y z
#
# Youngs Moduli (GPa) = 87.29439 34.14159 141.67974
#
# Poissons Ratio (x) = 0.41372 0.10996
# Poissons Ratio (y) = 1.05780 0.17506
# Poissons Ratio (z) = 0.06775 0.04219
#
# Static dielectric constant tensor:
#      x y z
#    x 4.040000 0.000000 0.000000 
#    y 0.000000 3.191150 0.000000 
#    z 0.000000 0.000000 3.724030 
# 
# 
# High freq. dielectric constant tensor:
#      x y z
#    x 1.756300 0.000000 0.000000 
#    y 0.000000 1.701360 0.000000 
#    z 0.000000 0.000000 1.763150 
# 
# From -- ./inp_files/9649.got.cif
#   From: 2010.03.12/outbox.cif.g09.slc.cpg/sg57_5_cif.got.tgz:9649.got - 2010.04.16 15:48:40.
