data_PCOD8230191
_publ_section_title
;
Structure prediction by ZEFSAII (Michael W. Deem and Ramdas Pophale) SiO2 
 PCOD8230191
Probable space group: P B C M
;
_chemical_formula_sum "Si O2"
_cell_formula_units_Z 48
_cell_length_a 11.890895
_cell_length_b 26.439151
_cell_length_c 8.639323
_cell_angle_alpha 90.000000
_cell_angle_beta 90.000000
_cell_angle_gamma 90.000000
_cell_volume 2716.075016
_symmetry_space_group_name_H-M "P B C M"
_symmetry_group_IT_number 57
_symmetry_cell_setting 'orthorhombic'
loop_
_space_group_symop_operation_xyz
x,y,z
-x,-y,1/2+z
x,1/2-y,-z
-x,1/2+y,1/2-z
-x,-y,-z
x,y,1/2-z
-x,1/2+y,z
x,1/2-y,1/2+z
loop_
_atom_site_type_symbol
_atom_site_label
_atom_site_fract_x
_atom_site_fract_y
_atom_site_fract_z
Si Si1 0.317496 0.694412 0.565651
Si Si2 0.328573 0.540395 0.925520
Si Si3 0.840897 0.386663 0.930592
Si Si4 0.292355 0.436753 0.066668
Si Si5 0.964572 0.945863 0.432603
Si Si6 0.492370 0.123726 0.575361
O O1 0.309270 0.750000 0.500000
O O2 0.319547 0.695124 0.750000
O O3 0.208157 0.662989 0.514041
O O4 0.430922 0.667361 0.494964
O O5 0.281784 0.542804 0.750000
O O6 0.445178 0.570003 0.937507
O O7 0.236576 0.564717 0.038938
O O8 0.348287 0.483535 0.978333
O O9 0.849887 0.375533 0.750000
O O10 0.963330 0.399891 0.997609
O O11 0.307492 0.444445 0.250000
O O12 0.365767 0.387175 0.011111
O O13 0.162634 0.431510 0.020051
O O14 0.980172 0.948497 0.250000
O O15 0.000000 0.000000 0.500000
O O16 0.480749 0.142232 0.750000
#
# Coordination Sequence:
#
# PCOD8230191 Si02
#       6
#     8   8   8   8   8   8
#     4  10  20  37  60  83 105 129 164 215 269 319
#     4  10  18  29  47  71 103 137 171 214 257 303
#     4  11  21  34  52  75 104 139 180 221 260 308
#     4  10  19  31  48  70 101 142 179 208 251 310
#     4  11  21  32  49  73 106 145 184 221 259 307
#     4   8  17  32  49  73 102 132 168 210 256 309
#
# _framework density 17.672561000000002
#
# number of rings (size 3 to 8) (size 9 to 14) (size 15 to 20)
#    0.000    2.000    1.667    4.500    0.000    0.667 
#    0.000    4.167    0.000    1.000    0.000    2.333 
#    0.000    0.000    0.000    0.000    0.000    0.000 
#
# Total GULP energy -594864.004894 kJ/mol
# GULP energy per Si atom -12393.000102 kJ/mol
# Density = 1.763234 g / cm^3
# Si number density = 17.672561 Si / 1000 Ang^3
#
#
#
# Elastic Constant Matrix: (Units=GPa)
#
#
# Indices 1 2 3 4 5 6 
#
# 1 109.4074 62.3480 32.2015 0.0000 0.0000 0.0000
# 2 62.3480 117.2843 31.4176 0.0000 0.0000 0.0000
# 3 32.2015 31.4176 71.4692 0.0000 0.0000 0.0000
# 4 0.0000 0.0000 0.0000 25.3833 0.0000 0.0000
# 5 0.0000 0.0000 0.0000 0.0000 19.4622 0.0000
# 6 0.0000 0.0000 0.0000 0.0000 0.0000 20.6338
#
#
#
# Elastic Compliance Matrix: (Units=1/GPa)
#
#
# Indices 1 2 3 4 5 6 
#
# 1 0.013802 -0.006428 -0.003393 0.000000 0.000000 0.000000
# 2 -0.006428 0.012658 -0.002668 0.000000 0.000000 0.000000
# 3 -0.003393 -0.002668 0.016694 0.000000 0.000000 0.000000
# 4 0.000000 0.000000 0.000000 0.039396 0.000000 0.000000
# 5 0.000000 0.000000 0.000000 0.000000 0.051382 0.000000
# 6 0.000000 0.000000 0.000000 0.000000 0.000000 0.048464
#
#
# Mechanical properties :
#
#
# Convention : Reuss Voigt Hill
#
# Bulk Modulus (GPa) = 55.01955 61.12167 58.07061
# Shear Modulus (GPa) = 23.42656 24.57543 24.00100
#
# Velocity S-wave (km/s) = 3.64481 3.73312 3.68923
# Velocity P-wave (km/s) = 6.99380 7.29673 7.14687
#
# Compressibility (1/GPa) = 0.01817536
#
# Stress axis : x y z
#
# Youngs Moduli (GPa) = 72.45311 78.99972 59.90289
#
# Poissons Ratio (x) = 0.50783 0.20324
# Poissons Ratio (y) = 0.46575 0.15983
# Poissons Ratio (z) = 0.24582 0.21079
#
# Static dielectric constant tensor:
#      x y z
#    x 3.561440 0.000000 0.000000 
#    y 0.000000 3.094780 0.000000 
#    z 0.000000 0.000000 3.226270 
# 
# 
# High freq. dielectric constant tensor:
#      x y z
#    x 1.688590 0.000000 0.000000 
#    y 0.000000 1.652070 0.000000 
#    z 0.000000 0.000000 1.679030 
# 
# From -- ./inp_files/3279.got.cif
#   From: 2010.03.12/outbox.cif.g09.slc.cpg/sg57_2_cif.got.tgz:3279.got - 2010.04.16 15:48:40.
