data_PCOD8230325
_publ_section_title
;
Structure prediction by ZEFSAII (Michael W. Deem and Ramdas Pophale) SiO2 
 PCOD8230325
Probable space group: P B C M
;
_chemical_formula_sum "Si O2"
_cell_formula_units_Z 64
_cell_length_a 8.940530
_cell_length_b 25.772152
_cell_length_c 16.311072
_cell_angle_alpha 90.000000
_cell_angle_beta 90.000000
_cell_angle_gamma 90.000000
_cell_volume 3758.343353
_symmetry_space_group_name_H-M "P B C M"
_symmetry_group_IT_number 57
_symmetry_cell_setting 'orthorhombic'
loop_
_space_group_symop_operation_xyz
x,y,z
-x,-y,1/2+z
x,1/2-y,-z
-x,1/2+y,1/2-z
-x,-y,-z
x,y,1/2-z
-x,1/2+y,z
x,1/2-y,1/2+z
loop_
_atom_site_type_symbol
_atom_site_label
_atom_site_fract_x
_atom_site_fract_y
_atom_site_fract_z
Si Si1 0.612816 0.238536 0.341423
Si Si2 0.353563 0.967259 0.514080
Si Si3 0.364422 0.936124 0.339632
Si Si4 0.362386 0.294628 0.442051
Si Si5 0.127652 0.142515 0.657011
Si Si6 0.385424 0.850054 0.534592
Si Si7 0.709215 0.962314 0.342768
Si Si8 0.787720 0.334489 0.119827
O O1 0.576063 0.222527 0.250000
O O2 0.471699 0.268871 0.376587
O O3 0.642956 0.183873 0.385104
O O4 0.756622 0.276697 0.345991
O O5 0.283109 0.961617 0.420804
O O6 0.388917 0.911171 0.553142
O O7 0.500000 0.000000 0.500000
O O8 0.255637 0.995960 0.584583
O O9 0.318829 0.960925 0.250000
O O10 0.542463 0.939333 0.351752
O O11 0.323246 0.875458 0.336115
O O12 0.296355 0.250000 0.500000
O O13 0.220720 0.320422 0.401133
O O14 0.455474 0.336684 0.493732
O O15 0.160313 0.159006 0.750000
O O16 0.171389 0.082903 0.642787
O O17 0.955259 0.148636 0.636313
O O18 0.245699 0.835351 0.476842
O O19 0.728744 0.985687 0.250000
#
# Coordination Sequence:
#
# PCOD8230325 Si02
#       8
#     8   8   8   8   8   8   8   8
#     4  10  18  31  50  71  95 125 157 193 233 283
#     4   9  16  29  49  69  92 120 153 195 237 278
#     4   9  16  29  48  69  91 121 158 199 243 288
#     4   9  18  31  47  68  96 126 155 189 237 286
#     4  11  20  30  47  73  97 122 159 202 238 276
#     4   9  19  33  49  70  95 126 160 194 235 289
#     4   9  18  30  47  69  94 122 156 197 242 286
#     4  10  19  31  47  69  97 124 157 197 239 282
#
# _framework density 17.028779
#
# number of rings (size 3 to 8) (size 9 to 14) (size 15 to 20)
#    0.000    2.500    0.000    5.625    0.000    2.500 
#    0.000    2.500    0.000    0.000    0.000    0.875 
#    0.000    4.000    0.000    0.000    0.000    0.000 
#
# Total GULP energy -792978.072264 kJ/mol
# GULP energy per Si atom -12390.282379 kJ/mol
# Density = 1.699002 g / cm^3
# Si number density = 17.028779 Si / 1000 Ang^3
#
#
#
# Elastic Constant Matrix: (Units=GPa)
#
#
# Indices 1 2 3 4 5 6 
#
# 1 42.5806 33.0003 27.8484 0.0000 0.0000 0.0000
# 2 33.0003 106.8443 62.0022 0.0000 0.0000 0.0000
# 3 27.8484 62.0022 127.8900 0.0000 0.0000 0.0000
# 4 0.0000 0.0000 0.0000 27.1990 0.0000 0.0000
# 5 0.0000 0.0000 0.0000 0.0000 7.5007 0.0000
# 6 0.0000 0.0000 0.0000 0.0000 0.0000 15.3786
#
#
#
# Elastic Compliance Matrix: (Units=1/GPa)
#
#
# Indices 1 2 3 4 5 6 
#
# 1 0.031681 -0.008045 -0.002998 0.000000 0.000000 0.000000
# 2 -0.008045 0.015066 -0.005552 0.000000 0.000000 0.000000
# 3 -0.002998 -0.005552 0.011164 0.000000 0.000000 0.000000
# 4 0.000000 0.000000 0.000000 0.036766 0.000000 0.000000
# 5 0.000000 0.000000 0.000000 0.000000 0.133322 0.000000
# 6 0.000000 0.000000 0.000000 0.000000 0.000000 0.065026
#
#
# Mechanical properties :
#
#
# Convention : Reuss Voigt Hill
#
# Bulk Modulus (GPa) = 40.45390 58.11298 49.28344
# Shear Modulus (GPa) = 14.94965 20.31323 17.63144
#
# Velocity S-wave (km/s) = 2.96616 3.45755 3.22124
# Velocity P-wave (km/s) = 5.96142 7.08096 6.54517
#
# Compressibility (1/GPa) = 0.02471949
#
# Stress axis : x y z
#
# Youngs Moduli (GPa) = 31.56480 66.37284 89.57379
#
# Poissons Ratio (x) = 0.53398 0.26856
# Poissons Ratio (y) = 0.25394 0.49736
# Poissons Ratio (z) = 0.09464 0.36853
#
# Static dielectric constant tensor:
#      x y z
#    x 2.852560 0.000000 0.000000 
#    y 0.000000 3.270560 0.000000 
#    z 0.000000 0.000000 3.663890 
# 
# 
# High freq. dielectric constant tensor:
#      x y z
#    x 1.621570 0.000000 0.000000 
#    y 0.000000 1.650090 0.000000 
#    z 0.000000 0.000000 1.671290 
# 
# From -- ./inp_files/21507.got.cif
#   From: 2010.03.12/outbox.cif.g09.slc.cpg/sg57_11_cif.got.tgz:21507.got - 2010.04.16 15:48:40.
