data_PCOD8230522
_publ_section_title
;
Structure prediction by ZEFSAII (Michael W. Deem and Ramdas Pophale) SiO2 
 PCOD8230522
Probable space group: P B C M
;
_chemical_formula_sum "Si O2"
_cell_formula_units_Z 52
_cell_length_a 18.068218
_cell_length_b 9.678851
_cell_length_c 17.128984
_cell_angle_alpha 90.000000
_cell_angle_beta 90.000000
_cell_angle_gamma 90.000000
_cell_volume 2995.509697
_symmetry_space_group_name_H-M "P B C M"
_symmetry_group_IT_number 57
_symmetry_cell_setting 'orthorhombic'
loop_
_space_group_symop_operation_xyz
x,y,z
-x,-y,1/2+z
x,1/2-y,-z
-x,1/2+y,1/2-z
-x,-y,-z
x,y,1/2-z
-x,1/2+y,z
x,1/2-y,1/2+z
loop_
_atom_site_type_symbol
_atom_site_label
_atom_site_fract_x
_atom_site_fract_y
_atom_site_fract_z
Si Si1 0.907474 0.793495 0.250000
Si Si2 0.285551 0.632581 0.394247
Si Si3 0.421000 0.511202 0.658877
Si Si4 0.723695 0.446857 0.066873
Si Si5 0.079850 0.838101 0.250000
Si Si6 0.445322 0.675099 0.339683
Si Si7 0.843511 0.942730 0.832462
Si Si8 0.184100 0.927691 0.750000
O O1 0.884052 0.707015 0.171598
O O2 0.868823 0.940731 0.250000
O O3 0.994964 0.800015 0.250000
O O4 0.271862 0.549853 0.473831
O O5 0.264337 0.793335 0.399966
O O6 0.373071 0.617042 0.382084
O O7 0.236995 0.566913 0.325624
O O8 0.398992 0.489591 0.750000
O O9 0.351050 0.489418 0.602525
O O10 0.455573 0.662468 0.646041
O O11 0.481535 0.401312 0.629284
O O12 0.791157 0.544657 0.093270
O O13 0.096592 0.930998 0.327907
O O14 0.131342 0.703774 0.250000
O O15 0.434009 0.638603 0.250000
O O16 0.796645 0.957190 0.750000
#
# Coordination Sequence:
#
# PCOD8230522 Si02
#       8
#     4   8   8   8   4   8   8   4
#     4   9  21  33  55  88 108 133 170 212 262 316
#     4  10  20  31  57  77 106 137 186 229 249 309
#     4   9  18  30  53  71 104 137 176 221 264 305
#     4  10  18  34  52  81 103 143 185 215 262 307
#     4   9  17  33  63  80 102 136 176 209 249 320
#     4   9  17  33  47  74 100 136 178 220 259 305
#     4   8  17  33  54  78 108 138 171 212 247 327
#     4  12  18  36  58  82 104 139 174 221 265 300
#
# _framework density 17.359316
#
# number of rings (size 3 to 8) (size 9 to 14) (size 15 to 20)
#    0.923    1.538    2.308    1.385    1.077    0.615 
#    2.769    0.769    0.000    5.538    0.000    0.000 
#    0.000    0.000    0.000    0.000    0.000    0.000 
#
# Total GULP energy -644263.791251 kJ/mol
# GULP energy per Si atom -12389.688293 kJ/mol
# Density = 1.731981 g / cm^3
# Si number density = 17.359316 Si / 1000 Ang^3
#
#
#
# Elastic Constant Matrix: (Units=GPa)
#
#
# Indices 1 2 3 4 5 6 
#
# 1 89.9851 32.2764 41.6855 0.0000 0.0000 0.0000
# 2 32.2764 67.8892 16.2376 0.0000 0.0000 0.0000
# 3 41.6855 16.2376 81.1135 0.0000 0.0000 0.0000
# 4 0.0000 0.0000 0.0000 7.8814 0.0000 0.0000
# 5 0.0000 0.0000 0.0000 0.0000 13.8507 0.0000
# 6 0.0000 0.0000 0.0000 0.0000 0.0000 29.8789
#
#
#
# Elastic Compliance Matrix: (Units=1/GPa)
#
#
# Indices 1 2 3 4 5 6 
#
# 1 0.016750 -0.006201 -0.007367 0.000000 0.000000 0.000000
# 2 -0.006201 0.017767 -0.000370 0.000000 0.000000 0.000000
# 3 -0.007367 -0.000370 0.016188 0.000000 0.000000 0.000000
# 4 0.000000 0.000000 0.000000 0.126881 0.000000 0.000000
# 5 0.000000 0.000000 0.000000 0.000000 0.072199 0.000000
# 6 0.000000 0.000000 0.000000 0.000000 0.000000 0.033468
#
#
# Mechanical properties :
#
#
# Convention : Reuss Voigt Hill
#
# Bulk Modulus (GPa) = 43.80301 46.59853 45.20077
# Shear Modulus (GPa) = 15.68685 20.24142 17.96413
#
# Velocity S-wave (km/s) = 3.00935 3.41842 3.22038
# Velocity P-wave (km/s) = 6.11251 6.51787 6.31844
#
# Compressibility (1/GPa) = 0.02282948
#
# Stress axis : x y z
#
# Youngs Moduli (GPa) = 59.70187 56.28540 61.77339
#
# Poissons Ratio (x) = 0.34905 0.45506
# Poissons Ratio (y) = 0.37024 0.02283
# Poissons Ratio (z) = 0.43980 0.02080
#
# Static dielectric constant tensor:
#      x y z
#    x 3.104620 0.000000 0.000000 
#    y 0.000000 3.184200 0.000000 
#    z 0.000000 0.000000 3.026150 
# 
# 
# High freq. dielectric constant tensor:
#      x y z
#    x 1.665610 0.000000 0.000000 
#    y 0.000000 1.662520 0.000000 
#    z 0.000000 0.000000 1.646460 
# 
# From -- ./inp_files/22870.got.cif
#   From: 2010.03.12/outbox.cif.g09.slc.cpg/sg57_12_cif.got.tgz:22870.got - 2010.04.16 15:48:40.
