data_PCOD8230451
_publ_section_title
;
Structure prediction by ZEFSAII (Michael W. Deem and Ramdas Pophale) SiO2 
 PCOD8230451
Probable space group: P B C M
;
_chemical_formula_sum "Si O2"
_cell_formula_units_Z 64
_cell_length_a 10.527497
_cell_length_b 13.580574
_cell_length_c 22.114299
_cell_angle_alpha 90.000000
_cell_angle_beta 90.000000
_cell_angle_gamma 90.000000
_cell_volume 3161.669210
_symmetry_space_group_name_H-M "P B C M"
_symmetry_group_IT_number 57
_symmetry_cell_setting 'orthorhombic'
loop_
_space_group_symop_operation_xyz
x,y,z
-x,-y,1/2+z
x,1/2-y,-z
-x,1/2+y,1/2-z
-x,-y,-z
x,y,1/2-z
-x,1/2+y,z
x,1/2-y,1/2+z
loop_
_atom_site_type_symbol
_atom_site_label
_atom_site_fract_x
_atom_site_fract_y
_atom_site_fract_z
Si Si1 0.913699 0.453995 0.818476
Si Si2 0.391540 0.477005 0.877055
Si Si3 0.306786 0.216799 0.179868
Si Si4 0.564499 0.183207 0.680135
Si Si5 0.368350 0.896264 0.680970
Si Si6 0.180238 0.043542 0.469145
Si Si7 0.025289 0.091367 0.576148
Si Si8 0.937501 0.795470 0.615200
O O1 0.955036 0.474993 0.750000
O O2 0.762519 0.452749 0.825288
O O3 0.969788 0.541331 0.858296
O O4 0.969370 0.348567 0.837905
O O5 0.315529 0.400628 0.834393
O O6 0.379865 0.590830 0.856899
O O7 0.538610 0.443314 0.870158
O O8 0.326956 0.468051 0.944771
O O9 0.294359 0.231931 0.250000
O O10 0.425790 0.281347 0.156161
O O11 0.180308 0.257074 0.149157
O O12 0.557836 0.151056 0.750000
O O13 0.653348 0.279242 0.670380
O O14 0.424209 0.909828 0.750000
O O15 0.159385 0.069418 0.540202
O O16 0.109739 0.130890 0.435263
O O17 0.100297 0.944508 0.458736
O O18 0.992850 0.205939 0.582563
#
# Coordination Sequence:
#
# PCOD8230451 Si02
#       8
#     8   8   8   8   8   8   8   8
#     4  10  22  37  55  87 122 150 188 243 299 360
#     4  10  18  32  56  79 110 150 194 241 284 346
#     4   9  18  31  49  80 114 145 191 242 290 351
#     4   9  17  29  51  78 108 154 194 229 291 352
#     4   9  19  34  51  80 121 155 192 240 294 354
#     4   9  21  39  58  86 109 147 204 250 283 353
#     4  10  21  39  61  83 113 153 192 241 306 351
#     4  10  20  35  60  82 112 152 195 246 294 353
#
# _framework density 20.242470000000001
#
# number of rings (size 3 to 8) (size 9 to 14) (size 15 to 20)
#    0.000    2.500    0.000    2.625    3.500    1.000 
#    0.000    1.875    0.000    0.000    0.000    0.000 
#    0.000    0.000    0.000    0.000    0.000    0.000 
#
# Total GULP energy -792980.256023 kJ/mol
# GULP energy per Si atom -12390.316500 kJ/mol
# Density = 2.019640 g / cm^3
# Si number density = 20.242470 Si / 1000 Ang^3
#
#
#
# Elastic Constant Matrix: (Units=GPa)
#
#
# Indices 1 2 3 4 5 6 
#
# 1 46.6642 4.6225 19.8223 0.0000 0.0000 0.0000
# 2 4.6225 68.6862 8.6668 0.0000 0.0000 0.0000
# 3 19.8223 8.6668 76.8850 0.0000 0.0000 0.0000
# 4 0.0000 0.0000 0.0000 16.3335 0.0000 0.0000
# 5 0.0000 0.0000 0.0000 0.0000 34.4517 0.0000
# 6 0.0000 0.0000 0.0000 0.0000 0.0000 21.2726
#
#
#
# Elastic Compliance Matrix: (Units=1/GPa)
#
#
# Indices 1 2 3 4 5 6 
#
# 1 0.024114 -0.000850 -0.006121 0.000000 0.000000 0.000000
# 2 -0.000850 0.014799 -0.001449 0.000000 0.000000 0.000000
# 3 -0.006121 -0.001449 0.014748 0.000000 0.000000 0.000000
# 4 0.000000 0.000000 0.000000 0.061224 0.000000 0.000000
# 5 0.000000 0.000000 0.000000 0.000000 0.029026 0.000000
# 6 0.000000 0.000000 0.000000 0.000000 0.000000 0.047009
#
#
# Mechanical properties :
#
#
# Convention : Reuss Voigt Hill
#
# Bulk Modulus (GPa) = 27.15923 28.71762 27.93843
# Shear Modulus (GPa) = 22.72374 25.01983 23.87178
#
# Velocity S-wave (km/s) = 3.35412 3.51950 3.43781
# Velocity P-wave (km/s) = 5.33350 5.54378 5.43966
#
# Compressibility (1/GPa) = 0.03681989
#
# Stress axis : x y z
#
# Youngs Moduli (GPa) = 41.46949 67.57197 67.80623
#
# Poissons Ratio (x) = 0.05747 0.41505
# Poissons Ratio (y) = 0.03527 0.09825
# Poissons Ratio (z) = 0.25384 0.09791
#
# Static dielectric constant tensor:
#      x y z
#    x 3.766330 0.000000 0.000000 
#    y 0.000000 3.657730 0.000000 
#    z 0.000000 0.000000 3.615450 
# 
# 
# High freq. dielectric constant tensor:
#      x y z
#    x 1.775450 0.000000 0.000000 
#    y 0.000000 1.797380 0.000000 
#    z 0.000000 0.000000 1.767420 
# 
# From -- ./inp_files/27292.got.cif
#   From: 2010.03.12/outbox.cif.g09.slc.cpg/sg57_14_cif.got.tgz:27292.got - 2010.04.16 15:48:40.
