data_PCOD8230431
_publ_section_title
;
Structure prediction by ZEFSAII (Michael W. Deem and Ramdas Pophale) SiO2 
 PCOD8230431
Probable space group: P B C M
;
_chemical_formula_sum "Si O2"
_cell_formula_units_Z 40
_cell_length_a 25.361606
_cell_length_b 9.934333
_cell_length_c 8.552612
_cell_angle_alpha 90.000000
_cell_angle_beta 90.000000
_cell_angle_gamma 90.000000
_cell_volume 2154.836062
_symmetry_space_group_name_H-M "P B C M"
_symmetry_group_IT_number 57
_symmetry_cell_setting 'orthorhombic'
loop_
_space_group_symop_operation_xyz
x,y,z
-x,-y,1/2+z
x,1/2-y,-z
-x,1/2+y,1/2-z
-x,-y,-z
x,y,1/2-z
-x,1/2+y,z
x,1/2-y,1/2+z
loop_
_atom_site_type_symbol
_atom_site_label
_atom_site_fract_x
_atom_site_fract_y
_atom_site_fract_z
Si Si1 0.340694 0.105897 0.434804
Si Si2 0.538604 0.609126 0.432799
Si Si3 0.043664 0.599444 0.435103
Si Si4 0.259422 0.601203 0.434462
Si Si5 0.152306 0.899437 0.064659
O O1 0.322109 0.250000 0.500000
O O2 0.331225 0.100614 0.250000
O O3 0.401261 0.078873 0.481471
O O4 0.308565 0.989954 0.520373
O O5 0.519392 0.750000 0.500000
O O6 0.500000 0.500000 0.500000
O O7 0.532545 0.613739 0.250000
O O8 0.035321 0.750000 0.500000
O O9 0.040899 0.605355 0.250000
O O10 0.099738 0.536108 0.489832
O O11 0.000000 0.500000 0.500000
O O12 0.269695 0.750000 0.500000
O O13 0.252601 0.610231 0.250000
O O14 0.206652 0.531189 0.508084
O O15 0.147295 0.902918 0.250000
O O16 0.156416 0.750000 0.000000
#
# Coordination Sequence:
#
# PCOD8230431 Si02
#       5
#     8   8   8   8   8
#     4  10  21  38  57  80 109 144 179 218 268 324
#     4  10  21  37  58  81 109 142 180 221 267 318
#     4  11  21  36  56  81 110 144 182 223 270 322
#     4  11  21  35  56  82 109 141 180 225 267 314
#     4  10  18  32  53  78 107 141 178 221 268 318
#
# _framework density 18.562897
#
# number of rings (size 3 to 8) (size 9 to 14) (size 15 to 20)
#    0.000    1.600    0.000    9.000    0.000    3.200 
#    0.000    1.000    0.000    0.000    0.000    0.000 
#    0.000    0.000    0.000    0.000    0.000    0.000 
#
# Total GULP energy -495987.074619 kJ/mol
# GULP energy per Si atom -12399.676865 kJ/mol
# Density = 1.852065 g / cm^3
# Si number density = 18.562897 Si / 1000 Ang^3
#
#
#
# Elastic Constant Matrix: (Units=GPa)
#
#
# Indices 1 2 3 4 5 6 
#
# 1 130.0778 81.0496 55.2163 0.0000 0.0000 0.0000
# 2 81.0496 103.1358 50.0785 0.0000 0.0000 0.0000
# 3 55.2163 50.0785 147.5611 0.0000 0.0000 0.0000
# 4 0.0000 0.0000 0.0000 33.2221 0.0000 0.0000
# 5 0.0000 0.0000 0.0000 0.0000 37.0832 0.0000
# 6 0.0000 0.0000 0.0000 0.0000 0.0000 19.6574
#
#
#
# Elastic Compliance Matrix: (Units=1/GPa)
#
#
# Indices 1 2 3 4 5 6 
#
# 1 0.015542 -0.011242 -0.002000 0.000000 0.000000 0.000000
# 2 -0.011242 0.019741 -0.002493 0.000000 0.000000 0.000000
# 3 -0.002000 -0.002493 0.008371 0.000000 0.000000 0.000000
# 4 0.000000 0.000000 0.000000 0.030100 0.000000 0.000000
# 5 0.000000 0.000000 0.000000 0.000000 0.026966 0.000000
# 6 0.000000 0.000000 0.000000 0.000000 0.000000 0.050871
#
#
# Mechanical properties :
#
#
# Convention : Reuss Voigt Hill
#
# Bulk Modulus (GPa) = 82.07865 83.71816 82.89841
# Shear Modulus (GPa) = 26.72024 30.95458 28.83741
#
# Velocity S-wave (km/s) = 3.79812 4.08800 3.94572
# Velocity P-wave (km/s) = 7.97162 8.21462 8.09403
#
# Compressibility (1/GPa) = 0.01218344
#
# Stress axis : x y z
#
# Youngs Moduli (GPa) = 64.34325 50.65571 119.45503
#
# Poissons Ratio (x) = 0.56948 0.23894
# Poissons Ratio (y) = 0.72336 0.29779
# Poissons Ratio (z) = 0.12870 0.12628
#
# Static dielectric constant tensor:
#      x y z
#    x 3.940950 0.000000 0.000000 
#    y 0.000000 3.065360 0.000000 
#    z 0.000000 0.000000 3.292430 
# 
# 
# High freq. dielectric constant tensor:
#      x y z
#    x 1.737510 0.000000 0.000000 
#    y 0.000000 1.694200 0.000000 
#    z 0.000000 0.000000 1.745750 
# 
# From -- ./inp_files/7795.got.cif
#   From: 2010.03.12/outbox.cif.g09.slc.cpg/sg57_4_cif.got.tgz:7795.got - 2010.04.16 15:48:40.
