data_PCOD8230521
_publ_section_title
;
Structure prediction by ZEFSAII (Michael W. Deem and Ramdas Pophale) SiO2 
 PCOD8230521
Probable space group: P B C M
;
_chemical_formula_sum "Si O2"
_cell_formula_units_Z 44
_cell_length_a 25.275008
_cell_length_b 8.879712
_cell_length_c 10.269530
_cell_angle_alpha 90.000000
_cell_angle_beta 90.000000
_cell_angle_gamma 90.000000
_cell_volume 2304.839828
_symmetry_space_group_name_H-M "P B C M"
_symmetry_group_IT_number 57
_symmetry_cell_setting 'orthorhombic'
loop_
_space_group_symop_operation_xyz
x,y,z
-x,-y,1/2+z
x,1/2-y,-z
-x,1/2+y,1/2-z
-x,-y,-z
x,y,1/2-z
-x,1/2+y,z
x,1/2-y,1/2+z
loop_
_atom_site_type_symbol
_atom_site_label
_atom_site_fract_x
_atom_site_fract_y
_atom_site_fract_z
Si Si1 0.070996 0.966785 0.105539
Si Si2 0.990203 0.750000 0.000000
Si Si3 0.616564 0.572453 0.015278
Si Si4 0.183620 0.873293 0.399862
Si Si5 0.433384 0.039590 0.750000
Si Si6 0.726872 0.616949 0.101741
Si Si7 0.454680 0.106107 0.250000
O O1 0.087043 0.006005 0.250000
O O2 0.126501 0.921757 0.039085
O O3 0.047192 0.120117 0.051564
O O4 0.029121 0.828962 0.104170
O O5 0.674713 0.519309 0.062152
O O6 0.572397 0.532730 0.122781
O O7 0.620709 0.750000 0.000000
O O8 0.600932 0.497701 0.877652
O O9 0.206439 0.750000 0.500000
O O10 0.179468 0.812094 0.250000
O O11 0.222028 0.014176 0.404695
O O12 0.449996 0.213793 0.750000
O O13 0.484122 0.933688 0.750000
O O14 0.719091 0.679199 0.250000
O O15 0.736446 0.750000 0.000000
#
# Coordination Sequence:
#
# PCOD8230521 Si02
#       7
#     8   4   8   8   4   8   4
#     4  10  20  36  56  82 115 150 188 236 283 334
#     4  10  20  34  58  82 114 148 196 222 282 342
#     4   9  18  33  54  77 108 139 185 224 276 325
#     4  10  22  41  58  82 118 151 189 236 292 341
#     4  10  20  32  54  80 108 146 176 225 270 333
#     4  10  21  37  61  85 109 144 193 244 284 335
#     4  10  18  34  52  78 110 142 178 219 272 327
#
# _framework density 19.090264000000001
#
# number of rings (size 3 to 8) (size 9 to 14) (size 15 to 20)
#    0.000    2.182    1.818    1.091    5.091    0.727 
#    0.000    2.727    0.000    0.000    0.000    0.000 
#    0.000    0.000    0.000    0.000    0.000    0.000 
#
# Total GULP energy -545324.915779 kJ/mol
# GULP energy per Si atom -12393.748086 kJ/mol
# Density = 1.904681 g / cm^3
# Si number density = 19.090264 Si / 1000 Ang^3
#
#
#
# Elastic Constant Matrix: (Units=GPa)
#
#
# Indices 1 2 3 4 5 6 
#
# 1 102.1492 30.4655 44.7416 0.0000 0.0000 0.0000
# 2 30.4655 51.4139 42.6106 0.0000 0.0000 0.0000
# 3 44.7416 42.6106 133.1217 0.0000 0.0000 0.0000
# 4 0.0000 0.0000 0.0000 18.3511 0.0000 0.0000
# 5 0.0000 0.0000 0.0000 0.0000 30.5649 0.0000
# 6 0.0000 0.0000 0.0000 0.0000 0.0000 19.4960
#
#
#
# Elastic Compliance Matrix: (Units=1/GPa)
#
#
# Indices 1 2 3 4 5 6 
#
# 1 0.012467 -0.005328 -0.002485 0.000000 0.000000 0.000000
# 2 -0.005328 0.028750 -0.007412 0.000000 0.000000 0.000000
# 3 -0.002485 -0.007412 0.010719 0.000000 0.000000 0.000000
# 4 0.000000 0.000000 0.000000 0.054493 0.000000 0.000000
# 5 0.000000 0.000000 0.000000 0.000000 0.032717 0.000000
# 6 0.000000 0.000000 0.000000 0.000000 0.000000 0.051293
#
#
# Mechanical properties :
#
#
# Convention : Reuss Voigt Hill
#
# Bulk Modulus (GPa) = 46.53920 58.03557 52.28739
# Shear Modulus (GPa) = 21.92499 24.94019 23.43259
#
# Velocity S-wave (km/s) = 3.39262 3.61839 3.50732
# Velocity P-wave (km/s) = 6.30697 6.92268 6.62199
#
# Compressibility (1/GPa) = 0.02148726
#
# Stress axis : x y z
#
# Youngs Moduli (GPa) = 80.21203 34.78278 93.28892
#
# Poissons Ratio (x) = 0.18533 0.23179
# Poissons Ratio (y) = 0.42738 0.69143
# Poissons Ratio (z) = 0.19930 0.25780
#
# Static dielectric constant tensor:
#      x y z
#    x 3.783140 0.000000 0.000000 
#    y 0.000000 3.185930 0.000000 
#    z 0.000000 0.000000 3.873250 
# 
# 
# High freq. dielectric constant tensor:
#      x y z
#    x 1.759810 0.000000 0.000000 
#    y 0.000000 1.707940 0.000000 
#    z 0.000000 0.000000 1.749340 
# 
# From -- ./inp_files/14409.got.cif
#   From: 2010.03.12/outbox.cif.g09.slc.cpg/sg57_8_cif.got.tgz:14409.got - 2010.04.16 15:48:40.
