data_PCOD8230190
_publ_section_title
;
Structure prediction by ZEFSAII (Michael W. Deem and Ramdas Pophale) SiO2 
 PCOD8230190
Probable space group: P B C M
;
_chemical_formula_sum "Si O2"
_cell_formula_units_Z 64
_cell_length_a 15.318715
_cell_length_b 23.918499
_cell_length_c 9.640720
_cell_angle_alpha 90.000000
_cell_angle_beta 90.000000
_cell_angle_gamma 90.000000
_cell_volume 3532.366262
_symmetry_space_group_name_H-M "P B C M"
_symmetry_group_IT_number 57
_symmetry_cell_setting 'orthorhombic'
loop_
_space_group_symop_operation_xyz
x,y,z
-x,-y,1/2+z
x,1/2-y,-z
-x,1/2+y,1/2-z
-x,-y,-z
x,y,1/2-z
-x,1/2+y,z
x,1/2-y,1/2+z
loop_
_atom_site_type_symbol
_atom_site_label
_atom_site_fract_x
_atom_site_fract_y
_atom_site_fract_z
Si Si1 0.115023 0.304867 0.912447
Si Si2 0.401673 0.855177 0.096882
Si Si3 0.758846 0.121202 0.091429
Si Si4 0.240331 0.372512 0.404876
Si Si5 0.083794 0.696994 0.090918
Si Si6 0.413675 0.304858 0.412027
Si Si7 0.575312 0.014739 0.900334
Si Si8 0.277818 0.003641 0.596930
O O1 0.135900 0.295302 0.750000
O O2 0.014954 0.323352 0.935835
O O3 0.136900 0.250000 0.000000
O O4 0.176352 0.352255 0.974918
O O5 0.377983 0.830880 0.250000
O O6 0.490186 0.826106 0.039146
O O7 0.421267 0.919638 0.113513
O O8 0.319051 0.849055 0.994820
O O9 0.735745 0.134664 0.250000
O O10 0.851317 0.147318 0.047482
O O11 0.773005 0.054596 0.068470
O O12 0.215544 0.350147 0.250000
O O13 0.340210 0.352951 0.437843
O O14 0.223166 0.439357 0.404841
O O15 0.096105 0.714746 0.250000
O O16 0.108381 0.750000 0.000000
O O17 0.388219 0.250000 0.500000
O O18 0.416486 0.288994 0.250000
O O19 0.562510 0.986810 0.750000
O O20 0.659160 0.987757 0.968705
O O21 0.500000 0.000000 0.000000
O O22 0.323531 0.998572 0.750000
#
# Coordination Sequence:
#
# PCOD8230190 Si02
#       8
#     8   8   8   8   8   8   8   8
#     4  10  20  35  55  78 104 133 169 214 260 307
#     4   9  19  34  49  68  97 131 164 201 246 294
#     4   9  18  34  55  78 104 135 171 210 252 301
#     4  10  20  35  54  75 102 137 173 211 259 310
#     4   9  19  35  55  79 105 133 167 209 257 308
#     4  10  21  35  49  68  98 133 168 208 254 303
#     4  10  18  29  47  69  94 126 166 209 251 295
#     4   9  18  33  52  73 100 134 171 210 254 306
#
# _framework density 18.118165999999999
#
# number of rings (size 3 to 8) (size 9 to 14) (size 15 to 20)
#    0.000    2.500    0.000    1.875    0.000    6.500 
#    0.000    4.375    0.000    0.000    0.000    0.000 
#    0.000    0.000    0.000    0.000    0.000    0.000 
#
# Total GULP energy -792982.529310 kJ/mol
# GULP energy per Si atom -12390.352020 kJ/mol
# Density = 1.807693 g / cm^3
# Si number density = 18.118166 Si / 1000 Ang^3
#
#
#
# Elastic Constant Matrix: (Units=GPa)
#
#
# Indices 1 2 3 4 5 6 
#
# 1 97.9931 56.4059 60.6480 0.0000 0.0000 0.0000
# 2 56.4059 77.6069 46.9165 0.0000 0.0000 0.0000
# 3 60.6480 46.9165 116.3907 0.0000 0.0000 0.0000
# 4 0.0000 0.0000 0.0000 18.8720 0.0000 0.0000
# 5 0.0000 0.0000 0.0000 0.0000 34.5478 0.0000
# 6 0.0000 0.0000 0.0000 0.0000 0.0000 19.0143
#
#
#
# Elastic Compliance Matrix: (Units=1/GPa)
#
#
# Indices 1 2 3 4 5 6 
#
# 1 0.020412 -0.011114 -0.006156 0.000000 0.000000 0.000000
# 2 -0.011114 0.023089 -0.003516 0.000000 0.000000 0.000000
# 3 -0.006156 -0.003516 0.013217 0.000000 0.000000 0.000000
# 4 0.000000 0.000000 0.000000 0.052989 0.000000 0.000000
# 5 0.000000 0.000000 0.000000 0.000000 0.028945 0.000000
# 6 0.000000 0.000000 0.000000 0.000000 0.000000 0.052592
#
#
# Mechanical properties :
#
#
# Convention : Reuss Voigt Hill
#
# Bulk Modulus (GPa) = 66.02572 68.88129 67.45350
# Shear Modulus (GPa) = 21.02033 23.02151 22.02092
#
# Velocity S-wave (km/s) = 3.40984 3.56846 3.49005
# Velocity P-wave (km/s) = 7.21273 7.42151 7.31787
#
# Compressibility (1/GPa) = 0.01514561
#
# Stress axis : x y z
#
# Youngs Moduli (GPa) = 48.98967 43.31089 75.66180
#
# Poissons Ratio (x) = 0.48137 0.46579
# Poissons Ratio (y) = 0.54449 0.26600
# Poissons Ratio (z) = 0.30159 0.15226
#
# Static dielectric constant tensor:
#      x y z
#    x 3.101990 0.000000 0.000000 
#    y 0.000000 3.203150 0.000000 
#    z 0.000000 0.000000 3.768540 
# 
# 
# High freq. dielectric constant tensor:
#      x y z
#    x 1.686140 0.000000 0.000000 
#    y 0.000000 1.693250 0.000000 
#    z 0.000000 0.000000 1.713340 
# 
# From -- ./inp_files/5587.got.cif
#   From: 2010.03.12/outbox.cif.g09.slc.cpg/sg57_3_cif.got.tgz:5587.got - 2010.04.16 15:48:40.
