data_PCOD8230534
_publ_section_title
;
Structure prediction by ZEFSAII (Michael W. Deem and Ramdas Pophale) SiO2 
 PCOD8230534
Probable space group: P B C M
;
_chemical_formula_sum "Si O2"
_cell_formula_units_Z 64
_cell_length_a 8.937621
_cell_length_b 17.473644
_cell_length_c 20.194884
_cell_angle_alpha 90.000000
_cell_angle_beta 90.000000
_cell_angle_gamma 90.000000
_cell_volume 3153.891733
_symmetry_space_group_name_H-M "P B C M"
_symmetry_group_IT_number 57
_symmetry_cell_setting 'orthorhombic'
loop_
_space_group_symop_operation_xyz
x,y,z
-x,-y,1/2+z
x,1/2-y,-z
-x,1/2+y,1/2-z
-x,-y,-z
x,y,1/2-z
-x,1/2+y,z
x,1/2-y,1/2+z
loop_
_atom_site_type_symbol
_atom_site_label
_atom_site_fract_x
_atom_site_fract_y
_atom_site_fract_z
Si Si1 0.831903 0.739005 0.575279
Si Si2 0.376905 0.834262 0.006163
Si Si3 0.815367 0.361781 0.613585
Si Si4 0.222152 0.012015 0.823104
Si Si5 0.664358 0.597703 0.945167
Si Si6 0.119611 0.964021 0.323675
Si Si7 0.143710 0.692017 0.881381
Si Si8 0.144867 0.404099 0.924299
O O1 0.884758 0.750000 0.500000
O O2 0.690637 0.683622 0.582069
O O3 0.786665 0.823399 0.603381
O O4 0.965645 0.694106 0.610648
O O5 0.493622 0.899236 0.029902
O O6 0.230234 0.824215 0.050856
O O7 0.453870 0.750000 0.000000
O O8 0.322214 0.867189 0.936599
O O9 0.786575 0.419898 0.673549
O O10 0.816967 0.276784 0.645689
O O11 0.966567 0.387080 0.573772
O O12 0.285174 0.034261 0.750000
O O13 0.326511 0.040821 0.882936
O O14 0.057319 0.045712 0.832969
O O15 0.784551 0.576239 0.003225
O O16 0.160888 0.992605 0.250000
O O17 0.187345 0.878700 0.333567
O O18 0.185477 0.025824 0.375569
#
# Coordination Sequence:
#
# PCOD8230534 Si02
#       8
#     8   8   8   8   8   8   8   8
#     4   9  16  32  54  83 108 142 180 225 282 332
#     4  10  20  34  56  88 114 138 183 236 278 334
#     4   9  20  35  57  82 113 148 182 234 279 330
#     4  10  22  38  55  81 114 148 192 234 278 337
#     4  11  20  34  60  83 112 148 183 232 284 334
#     4  10  21  36  55  83 115 147 189 236 278 330
#     4  10  18  34  56  81 113 144 184 227 280 332
#     4   9  19  34  57  83 113 144 182 230 284 332
#
# _framework density 20.292390000000001
#
# number of rings (size 3 to 8) (size 9 to 14) (size 15 to 20)
#    0.000    2.250    1.250    3.750    1.750    2.000 
#    0.000    3.125    0.000    0.750    0.000    0.000 
#    0.000    0.000    0.000    0.000    0.000    0.000 
#
# Total GULP energy -792889.586616 kJ/mol
# GULP energy per Si atom -12388.899791 kJ/mol
# Density = 2.024620 g / cm^3
# Si number density = 20.292390 Si / 1000 Ang^3
#
#
#
# Elastic Constant Matrix: (Units=GPa)
#
#
# Indices 1 2 3 4 5 6 
#
# 1 44.1879 23.8056 20.7359 0.0000 0.0000 0.0000
# 2 23.8056 141.4436 62.1298 0.0000 0.0000 0.0000
# 3 20.7359 62.1298 94.4610 0.0000 0.0000 0.0000
# 4 0.0000 0.0000 0.0000 20.7995 0.0000 0.0000
# 5 0.0000 0.0000 0.0000 0.0000 9.0976 0.0000
# 6 0.0000 0.0000 0.0000 0.0000 0.0000 18.1402
#
#
#
# Elastic Compliance Matrix: (Units=1/GPa)
#
#
# Indices 1 2 3 4 5 6 
#
# 1 0.025901 -0.002618 -0.003964 0.000000 0.000000 0.000000
# 2 -0.002618 0.010207 -0.006139 0.000000 0.000000 0.000000
# 3 -0.003964 -0.006139 0.015494 0.000000 0.000000 0.000000
# 4 0.000000 0.000000 0.000000 0.048078 0.000000 0.000000
# 5 0.000000 0.000000 0.000000 0.000000 0.109919 0.000000
# 6 0.000000 0.000000 0.000000 0.000000 0.000000 0.055126
#
#
# Mechanical properties :
#
#
# Convention : Reuss Voigt Hill
#
# Bulk Modulus (GPa) = 38.22476 54.82613 46.52544
# Shear Modulus (GPa) = 16.72870 21.16887 18.94878
#
# Velocity S-wave (km/s) = 2.87432 3.23335 3.05911
# Velocity P-wave (km/s) = 5.46750 6.40439 5.95440
#
# Compressibility (1/GPa) = 0.02616106
#
# Stress axis : x y z
#
# Youngs Moduli (GPa) = 38.60825 97.97114 64.54061
#
# Poissons Ratio (x) = 0.25651 0.25582
# Poissons Ratio (y) = 0.10108 0.39620
# Poissons Ratio (z) = 0.15303 0.60142
#
# Static dielectric constant tensor:
#      x y z
#    x 3.323440 0.000000 0.000000 
#    y 0.000000 4.047860 0.000000 
#    z 0.000000 0.000000 3.345450 
# 
# 
# High freq. dielectric constant tensor:
#      x y z
#    x 1.761230 0.000000 0.000000 
#    y 0.000000 1.812410 0.000000 
#    z 0.000000 0.000000 1.755630 
# 
# From -- ./inp_files/24577.got.cif
#   From: 2010.03.12/outbox.cif.g09.slc.cpg/sg57_13_cif.got.tgz:24577.got - 2010.04.16 15:48:40.
