data_PCOD8230370
_publ_section_title
;
Structure prediction by ZEFSAII (Michael W. Deem and Ramdas Pophale) SiO2 
 PCOD8230370
Probable space group: P B C M
;
_chemical_formula_sum "Si O2"
_cell_formula_units_Z 48
_cell_length_a 15.527354
_cell_length_b 17.996849
_cell_length_c 8.535711
_cell_angle_alpha 90.000000
_cell_angle_beta 90.000000
_cell_angle_gamma 90.000000
_cell_volume 2385.248490
_symmetry_space_group_name_H-M "P B C M"
_symmetry_group_IT_number 57
_symmetry_cell_setting 'orthorhombic'
loop_
_space_group_symop_operation_xyz
x,y,z
-x,-y,1/2+z
x,1/2-y,-z
-x,1/2+y,1/2-z
-x,-y,-z
x,y,1/2-z
-x,1/2+y,z
x,1/2-y,1/2+z
loop_
_atom_site_type_symbol
_atom_site_label
_atom_site_fract_x
_atom_site_fract_y
_atom_site_fract_z
Si Si1 0.691841 0.167351 0.935825
Si Si2 0.174675 0.093351 0.435387
Si Si3 0.659778 0.667793 0.934450
Si Si4 0.484010 0.667196 0.435385
Si Si5 0.011012 0.329479 0.063720
Si Si6 0.852438 0.426883 0.435472
O O1 0.689838 0.170472 0.750000
O O2 0.769762 0.117236 0.001168
O O3 0.704372 0.250000 0.000000
O O4 0.602954 0.129575 0.997528
O O5 0.187052 0.096751 0.250000
O O6 0.263387 0.114031 0.517713
O O7 0.102002 0.150901 0.487329
O O8 0.148797 0.011399 0.495651
O O9 0.651814 0.673801 0.750000
O O10 0.676732 0.750000 0.000000
O O11 0.572253 0.630037 0.002725
O O12 0.485339 0.750000 0.500000
O O13 0.481806 0.665805 0.250000
O O14 0.019627 0.328002 0.250000
O O15 0.939962 0.388518 0.004605
O O16 0.981065 0.250000 0.000000
O O17 0.849496 0.424436 0.250000
#
# Coordination Sequence:
#
# PCOD8230370 Si02
#       6
#     8   8   8   8   8   8
#     4  10  18  33  55  82 111 145 184 228 273 323
#     4  11  22  39  58  81 111 147 183 226 276 327
#     4  11  21  36  57  83 110 144 185 230 275 326
#     4  10  18  31  52  81 111 144 182 228 275 322
#     4  11  22  39  60  86 112 143 183 227 272 324
#     4   9  21  38  58  81 112 147 184 225 273 324
#
# _framework density 20.12369
#
# number of rings (size 3 to 8) (size 9 to 14) (size 15 to 20)
#    0.000    1.667    0.000    8.000    0.000    0.000 
#    0.000    9.167    0.000    0.000    0.000    0.000 
#    0.000    0.000    0.000    0.000    0.000    0.000 
#
# Total GULP energy -595255.268487 kJ/mol
# GULP energy per Si atom -12401.151427 kJ/mol
# Density = 2.007789 g / cm^3
# Si number density = 20.123690 Si / 1000 Ang^3
#
#
#
# Elastic Constant Matrix: (Units=GPa)
#
#
# Indices 1 2 3 4 5 6 
#
# 1 129.4165 18.6778 26.2665 0.0000 0.0000 0.0000
# 2 18.6778 69.1039 12.9635 0.0000 0.0000 0.0000
# 3 26.2665 12.9635 102.2974 0.0000 0.0000 0.0000
# 4 0.0000 0.0000 0.0000 20.8805 0.0000 0.0000
# 5 0.0000 0.0000 0.0000 0.0000 10.9546 0.0000
# 6 0.0000 0.0000 0.0000 0.0000 0.0000 20.5560
#
#
#
# Elastic Compliance Matrix: (Units=1/GPa)
#
#
# Indices 1 2 3 4 5 6 
#
# 1 0.008391 -0.001909 -0.001913 0.000000 0.000000 0.000000
# 2 -0.001909 0.015258 -0.001443 0.000000 0.000000 0.000000
# 3 -0.001913 -0.001443 0.010449 0.000000 0.000000 0.000000
# 4 0.000000 0.000000 0.000000 0.047892 0.000000 0.000000
# 5 0.000000 0.000000 0.000000 0.000000 0.091286 0.000000
# 6 0.000000 0.000000 0.000000 0.000000 0.000000 0.048648
#
#
# Mechanical properties :
#
#
# Convention : Reuss Voigt Hill
#
# Bulk Modulus (GPa) = 42.43053 46.29258 44.36155
# Shear Modulus (GPa) = 20.80657 26.67222 23.73939
#
# Velocity S-wave (km/s) = 3.21897 3.64457 3.43836
# Velocity P-wave (km/s) = 5.91154 6.38471 6.15268
#
# Compressibility (1/GPa) = 0.02356793
#
# Stress axis : x y z
#
# Youngs Moduli (GPa) = 119.17982 65.54053 95.69935
#
# Poissons Ratio (x) = 0.12512 0.18303
# Poissons Ratio (y) = 0.22753 0.13812
# Poissons Ratio (z) = 0.22793 0.09460
#
# Static dielectric constant tensor:
#      x y z
#    x 4.349150 0.000000 0.000000 
#    y 0.000000 3.562350 0.000000 
#    z 0.000000 0.000000 3.578860 
# 
# 
# High freq. dielectric constant tensor:
#      x y z
#    x 1.811310 0.000000 0.000000 
#    y 0.000000 1.760550 0.000000 
#    z 0.000000 0.000000 1.786560 
# 
# From -- ./inp_files/4664.got.cif
#   From: 2010.03.12/outbox.cif.g09.slc.cpg/sg57_3_cif.got.tgz:4664.got - 2010.04.16 15:48:40.
