data_PCOD8230435
_publ_section_title
;
Structure prediction by ZEFSAII (Michael W. Deem and Ramdas Pophale) SiO2 
 PCOD8230435
Probable space group: P B C M
;
_chemical_formula_sum "Si O2"
_cell_formula_units_Z 56
_cell_length_a 4.973842
_cell_length_b 33.051660
_cell_length_c 16.186090
_cell_angle_alpha 90.000000
_cell_angle_beta 90.000000
_cell_angle_gamma 90.000000
_cell_volume 2660.891785
_symmetry_space_group_name_H-M "P B C M"
_symmetry_group_IT_number 57
_symmetry_cell_setting 'orthorhombic'
loop_
_space_group_symop_operation_xyz
x,y,z
-x,-y,1/2+z
x,1/2-y,-z
-x,1/2+y,1/2-z
-x,-y,-z
x,y,1/2-z
-x,1/2+y,z
x,1/2-y,1/2+z
loop_
_atom_site_type_symbol
_atom_site_label
_atom_site_fract_x
_atom_site_fract_y
_atom_site_fract_z
Si Si1 0.552889 0.895755 0.424593
Si Si2 0.544200 0.721077 0.343893
Si Si3 0.555545 0.365778 0.898343
Si Si4 0.087790 0.087034 0.156831
Si Si5 0.971359 0.227552 0.844309
Si Si6 0.953781 0.362033 0.154757
Si Si7 0.250243 0.028581 0.011523
O O1 0.559908 0.872748 0.510974
O O2 0.246624 0.893420 0.391590
O O3 0.685990 0.939572 0.438937
O O4 0.739594 0.875431 0.355971
O O5 0.603186 0.707955 0.250000
O O6 0.420149 0.682330 0.389967
O O7 0.812064 0.741217 0.385116
O O8 0.324132 0.755444 0.350694
O O9 0.328763 0.380846 0.834461
O O10 0.831478 0.390463 0.883751
O O11 0.017525 0.071664 0.250000
O O12 0.200839 0.050249 0.100266
O O13 0.069379 0.221718 0.750000
O O14 0.946580 0.183087 0.885151
O O15 0.871593 0.361574 0.250000
O O16 0.500000 0.000000 0.000000
O O17 0.000000 0.000000 0.000000
#
# Coordination Sequence:
#
# PCOD8230435 Si02
#       7
#     8   8   8   8   8   8   8
#     4  11  23  41  63  88 117 156 201 246 312 380
#     4  10  18  32  53  82 116 157 203 247 295 355
#     4  11  22  37  59  89 126 159 198 251 304 363
#     4  11  22  39  63  92 122 162 204 242 293 368
#     4   9  19  33  53  79 114 157 202 249 303 351
#     4  11  22  41  63  85 115 159 212 262 300 355
#     4  11  23  43  66  89 124 160 190 239 311 374
#
# _framework density 21.045577999999999
#
# number of rings (size 3 to 8) (size 9 to 14) (size 15 to 20)
#    0.000    1.429    0.000    7.714    0.000    3.429 
#    0.000    8.571    0.000    0.000    0.000    0.000 
#    0.000    0.000    0.000    0.000    0.000    0.000 
#
# Total GULP energy -693886.349238 kJ/mol
# GULP energy per Si atom -12390.827665 kJ/mol
# Density = 2.099768 g / cm^3
# Si number density = 21.045578 Si / 1000 Ang^3
#
#
#
# Elastic Constant Matrix: (Units=GPa)
#
#
# Indices 1 2 3 4 5 6 
#
# 1 134.9871 46.9638 22.8263 0.0000 0.0000 0.0000
# 2 46.9638 124.7206 39.3213 0.0000 0.0000 0.0000
# 3 22.8263 39.3213 63.5148 0.0000 0.0000 0.0000
# 4 0.0000 0.0000 0.0000 23.4228 0.0000 0.0000
# 5 0.0000 0.0000 0.0000 0.0000 27.1554 0.0000
# 6 0.0000 0.0000 0.0000 0.0000 0.0000 46.2903
#
#
#
# Elastic Compliance Matrix: (Units=1/GPa)
#
#
# Indices 1 2 3 4 5 6 
#
# 1 0.008617 -0.002819 -0.001352 0.000000 0.000000 0.000000
# 2 -0.002819 0.010884 -0.005725 0.000000 0.000000 0.000000
# 3 -0.001352 -0.005725 0.019775 0.000000 0.000000 0.000000
# 4 0.000000 0.000000 0.000000 0.042693 0.000000 0.000000
# 5 0.000000 0.000000 0.000000 0.000000 0.036825 0.000000
# 6 0.000000 0.000000 0.000000 0.000000 0.000000 0.021603
#
#
# Mechanical properties :
#
#
# Convention : Reuss Voigt Hill
#
# Bulk Modulus (GPa) = 51.32292 60.16059 55.74175
# Shear Modulus (GPa) = 29.99674 33.64777 31.82225
#
# Velocity S-wave (km/s) = 3.77944 4.00284 3.89274
# Velocity P-wave (km/s) = 6.59432 7.07189 6.83727
#
# Compressibility (1/GPa) = 0.01948447
#
# Stress axis : x y z
#
# Youngs Moduli (GPa) = 116.04458 91.87491 50.56948
#
# Poissons Ratio (x) = 0.25896 0.06837
# Poissons Ratio (y) = 0.32709 0.28953
# Poissons Ratio (z) = 0.15689 0.52602
#
# Static dielectric constant tensor:
#      x y z
#    x 3.855080 0.000000 0.000000 
#    y 0.000000 3.693770 0.000000 
#    z 0.000000 0.000000 3.640370 
# 
# 
# High freq. dielectric constant tensor:
#      x y z
#    x 1.845490 0.000000 0.000000 
#    y 0.000000 1.826640 0.000000 
#    z 0.000000 0.000000 1.800650 
# 
# From -- ./inp_files/15248.got.cif
#   From: 2010.03.12/outbox.cif.g09.slc.cpg/sg57_8_cif.got.tgz:15248.got - 2010.04.16 15:48:40.
