data_PCOD8230552
_publ_section_title
;
Structure prediction by ZEFSAII (Michael W. Deem and Ramdas Pophale) SiO2 
 PCOD8230552
Probable space group: P B C M
;
_chemical_formula_sum "Si O2"
_cell_formula_units_Z 48
_cell_length_a 7.583527
_cell_length_b 26.640931
_cell_length_c 11.000896
_cell_angle_alpha 90.000000
_cell_angle_beta 90.000000
_cell_angle_gamma 90.000000
_cell_volume 2222.535436
_symmetry_space_group_name_H-M "P B C M"
_symmetry_group_IT_number 57
_symmetry_cell_setting 'orthorhombic'
loop_
_space_group_symop_operation_xyz
x,y,z
-x,-y,1/2+z
x,1/2-y,-z
-x,1/2+y,1/2-z
-x,-y,-z
x,y,1/2-z
-x,1/2+y,z
x,1/2-y,1/2+z
loop_
_atom_site_type_symbol
_atom_site_label
_atom_site_fract_x
_atom_site_fract_y
_atom_site_fract_z
Si Si1 0.712436 0.966156 0.250000
Si Si2 0.295592 0.809282 0.495584
Si Si3 0.312393 0.024666 0.488908
Si Si4 0.683291 0.023641 0.750000
Si Si5 0.148502 0.358882 0.250000
Si Si6 0.394687 0.369676 0.886879
Si Si7 0.257821 0.637362 0.750000
Si Si8 0.890615 0.691815 0.000753
O O1 0.796022 0.983373 0.382068
O O2 0.520896 0.992357 0.250000
O O3 0.718620 0.905713 0.250000
O O4 0.338501 0.750000 0.500000
O O5 0.424045 0.841058 0.581464
O O6 0.324338 0.828986 0.360370
O O7 0.093577 0.820664 0.532989
O O8 0.347003 0.083726 0.472962
O O9 0.500000 0.000000 0.500000
O O10 0.218233 0.998641 0.371159
O O11 0.657994 0.082951 0.750000
O O12 0.179400 0.326320 0.370052
O O13 0.947119 0.376646 0.250000
O O14 0.412245 0.389702 0.750000
O O15 0.230360 0.331830 0.895015
O O16 0.858340 0.750000 0.000000
#
# Coordination Sequence:
#
# PCOD8230552 Si02
#       8
#     4   8   8   4   4   8   4   8
#     4  10  18  34  62  83 113 160 203 259 312 373
#     4  10  23  42  65  93 128 167 211 263 316 383
#     4  10  20  36  61  87 120 163 212 263 319 379
#     4  10  20  38  60  85 125 165 211 261 327 380
#     4  10  20  38  63  87 118 161 213 255 315 385
#     4  12  24  39  63  96 126 164 213 260 322 384
#     4  10  22  40  65  89 120 170 209 259 322 382
#     4  10  23  41  62  92 128 166 207 260 322 385
#
# _framework density 21.596955999999999
#
# number of rings (size 3 to 8) (size 9 to 14) (size 15 to 20)
#    0.000    1.667    2.500    2.500    2.333    0.667 
#    0.000    0.833    7.333    0.000    0.000    0.000 
#    0.000    0.000    0.000    0.000    0.000    0.000 
#
# Total GULP energy -594679.940510 kJ/mol
# GULP energy per Si atom -12389.165427 kJ/mol
# Density = 2.154780 g / cm^3
# Si number density = 21.596956 Si / 1000 Ang^3
#
#
#
# Elastic Constant Matrix: (Units=GPa)
#
#
# Indices 1 2 3 4 5 6 
#
# 1 58.0341 17.1461 21.1653 0.0000 0.0000 0.0000
# 2 17.1461 96.4150 46.0220 0.0000 0.0000 0.0000
# 3 21.1653 46.0220 182.7875 0.0000 0.0000 0.0000
# 4 0.0000 0.0000 0.0000 38.0864 0.0000 0.0000
# 5 0.0000 0.0000 0.0000 0.0000 9.3605 0.0000
# 6 0.0000 0.0000 0.0000 0.0000 0.0000 -74.2047
#
#
#
# Elastic Compliance Matrix: (Units=1/GPa)
#
#
# Indices 1 2 3 4 5 6 
#
# 1 0.018540 -0.002583 -0.001497 0.000000 0.000000 0.000000
# 2 -0.002583 0.012148 -0.002760 0.000000 0.000000 0.000000
# 3 -0.001497 -0.002760 0.006339 0.000000 0.000000 0.000000
# 4 0.000000 0.000000 0.000000 0.026256 0.000000 0.000000
# 5 0.000000 0.000000 0.000000 0.000000 0.106831 0.000000
# 6 0.000000 0.000000 0.000000 0.000000 0.000000 -0.013476
#
#
# Mechanical properties :
#
#
# Convention : Reuss Voigt Hill
#
# Bulk Modulus (GPa) = 42.82729 56.21150 49.51939
# Shear Modulus (GPa) = 28.07415 11.50867 19.79141
#
# Velocity S-wave (km/s) = 3.60934 2.31093 3.03049
# Velocity P-wave (km/s) = 6.10271 5.76234 5.93497
#
# Compressibility (1/GPa) = 0.02334960
#
# Stress axis : x y z
#
# Youngs Moduli (GPa) = 53.93711 82.31534 157.75520
#
# Poissons Ratio (x) = 0.21260 0.23608
# Poissons Ratio (y) = 0.13931 0.43535
# Poissons Ratio (z) = 0.08072 0.22716
#
# Static dielectric constant tensor:
#      x y z
#    x 3.635620 0.000000 0.000000 
#    y 0.000000 3.814160 0.000000 
#    z 0.000000 0.000000 4.852270 
# 
# 
# High freq. dielectric constant tensor:
#      x y z
#    x 1.822830 0.000000 0.000000 
#    y 0.000000 1.852390 0.000000 
#    z 0.000000 0.000000 1.865120 
# 
# From -- ./inp_files/12040.got.cif
#   From: 2010.03.12/outbox.cif.g09.slc.cpg/sg57_7_cif.got.tgz:12040.got - 2010.04.16 15:48:40.
