data_PCOD8230664
_publ_section_title
;
Structure prediction by ZEFSAII (Michael W. Deem and Ramdas Pophale) SiO2 
 PCOD8230664
Probable space group: P B C M
;
_chemical_formula_sum "Si O2"
_cell_formula_units_Z 56
_cell_length_a 17.741609
_cell_length_b 21.729578
_cell_length_c 9.093962
_cell_angle_alpha 90.000000
_cell_angle_beta 90.000000
_cell_angle_gamma 90.000000
_cell_volume 3505.883101
_symmetry_space_group_name_H-M "P B C M"
_symmetry_group_IT_number 57
_symmetry_cell_setting 'orthorhombic'
loop_
_space_group_symop_operation_xyz
x,y,z
-x,-y,1/2+z
x,1/2-y,-z
-x,1/2+y,1/2-z
-x,-y,-z
x,y,1/2-z
-x,1/2+y,z
x,1/2-y,1/2+z
loop_
_atom_site_type_symbol
_atom_site_label
_atom_site_fract_x
_atom_site_fract_y
_atom_site_fract_z
Si Si1 0.912866 0.060104 0.087793
Si Si2 0.788617 0.603468 0.923939
Si Si3 0.050865 0.416365 0.087165
Si Si4 0.749668 0.468551 0.925029
Si Si5 0.348851 0.184739 0.925075
Si Si6 0.543322 0.910496 0.578760
Si Si7 0.399769 0.952833 0.079196
O O1 0.916347 0.087927 0.250000
O O2 0.827106 0.066279 0.028694
O O3 0.935160 0.988966 0.089496
O O4 0.973575 0.099633 0.996672
O O5 0.797136 0.597059 0.750000
O O6 0.873894 0.614469 0.986314
O O7 0.754181 0.539200 0.980819
O O8 0.733626 0.658803 0.969783
O O9 0.038865 0.390273 0.250000
O O10 0.735922 0.465011 0.750000
O O11 0.681679 0.436374 0.011986
O O12 0.357680 0.189623 0.750000
O O13 0.358690 0.250000 0.000000
O O14 0.412597 0.140555 0.987697
O O15 0.538861 0.892329 0.750000
O O16 0.459852 0.912924 0.511249
O O17 0.584678 0.975174 0.555799
O O18 0.403199 0.934349 0.250000
#
# Coordination Sequence:
#
# PCOD8230664 Si02
#       7
#     8   8   8   8   8   8   8
#     4   8  14  22  34  55  82 111 141 173 210 250
#     4   8  15  27  43  59  80 115 151 182 219 263
#     4   8  13  23  37  53  76 109 146 175 205 250
#     4   9  15  26  42  60  86 119 150 178 217 269
#     4  11  21  34  50  66  89 118 153 193 232 270
#     4  10  20  33  47  65  88 116 151 186 229 278
#     4  10  19  29  45  68  91 115 148 189 228 272
#
# _framework density 15.973151
#
# number of rings (size 3 to 8) (size 9 to 14) (size 15 to 20)
#    0.000    2.857    1.429    3.000    0.000    1.714 
#    0.000    3.571    0.000    0.000    0.000    0.000 
#    0.000    1.143    0.000    6.000    0.000    5.714 
#
# Total GULP energy -693993.834505 kJ/mol
# GULP energy per Si atom -12392.747045 kJ/mol
# Density = 1.593680 g / cm^3
# Si number density = 15.973151 Si / 1000 Ang^3
#
#
#
# Elastic Constant Matrix: (Units=GPa)
#
#
# Indices 1 2 3 4 5 6 
#
# 1 156.0373 35.0975 62.5220 0.0000 0.0000 0.0000
# 2 35.0975 45.1322 27.0327 0.0000 0.0000 0.0000
# 3 62.5220 27.0327 77.2538 0.0000 0.0000 0.0000
# 4 0.0000 0.0000 0.0000 15.5671 0.0000 0.0000
# 5 0.0000 0.0000 0.0000 0.0000 31.1386 0.0000
# 6 0.0000 0.0000 0.0000 0.0000 0.0000 10.9415
#
#
#
# Elastic Compliance Matrix: (Units=1/GPa)
#
#
# Indices 1 2 3 4 5 6 
#
# 1 0.009946 -0.003686 -0.006760 0.000000 0.000000 0.000000
# 2 -0.003686 0.029398 -0.007304 0.000000 0.000000 0.000000
# 3 -0.006760 -0.007304 0.020971 0.000000 0.000000 0.000000
# 4 0.000000 0.000000 0.000000 0.064238 0.000000 0.000000
# 5 0.000000 0.000000 0.000000 0.000000 0.032114 0.000000
# 6 0.000000 0.000000 0.000000 0.000000 0.000000 0.091395
#
#
# Mechanical properties :
#
#
# Convention : Reuss Voigt Hill
#
# Bulk Modulus (GPa) = 40.29653 58.63643 49.46648
# Shear Modulus (GPa) = 17.13294 21.78084 19.45689
#
# Velocity S-wave (km/s) = 3.27862 3.69669 3.49392
# Velocity P-wave (km/s) = 6.29404 7.41686 6.87840
#
# Compressibility (1/GPa) = 0.02481603
#
# Stress axis : x y z
#
# Youngs Moduli (GPa) = 100.53877 34.01544 47.68491
#
# Poissons Ratio (x) = 0.12538 0.32235
# Poissons Ratio (y) = 0.37058 0.34829
# Poissons Ratio (z) = 0.67963 0.24845
#
# Static dielectric constant tensor:
#      x y z
#    x 3.362100 0.000000 0.000000 
#    y 0.000000 2.542100 0.000000 
#    z 0.000000 0.000000 3.036650 
# 
# 
# High freq. dielectric constant tensor:
#      x y z
#    x 1.633340 0.000000 0.000000 
#    y 0.000000 1.541990 0.000000 
#    z 0.000000 0.000000 1.609130 
# 
# From -- ./inp_files/7070.got.cif
#   From: 2010.03.12/outbox.cif.g09.slc.cpg/sg57_4_cif.got.tgz:7070.got - 2010.04.16 15:48:40.
