data_PCOD8230729
_publ_section_title
;
Structure prediction by ZEFSAII (Michael W. Deem and Ramdas Pophale) SiO2 
 PCOD8230729
Probable space group: P B C M
;
_chemical_formula_sum "Si O2"
_cell_formula_units_Z 64
_cell_length_a 30.516473
_cell_length_b 13.588122
_cell_length_c 9.428180
_cell_angle_alpha 90.000000
_cell_angle_beta 90.000000
_cell_angle_gamma 90.000000
_cell_volume 3909.503809
_symmetry_space_group_name_H-M "P B C M"
_symmetry_group_IT_number 57
_symmetry_cell_setting 'orthorhombic'
loop_
_space_group_symop_operation_xyz
x,y,z
-x,-y,1/2+z
x,1/2-y,-z
-x,1/2+y,1/2-z
-x,-y,-z
x,y,1/2-z
-x,1/2+y,z
x,1/2-y,1/2+z
loop_
_atom_site_type_symbol
_atom_site_label
_atom_site_fract_x
_atom_site_fract_y
_atom_site_fract_z
Si Si1 0.641237 0.654238 0.414211
Si Si2 0.179184 0.029066 0.417460
Si Si3 0.436679 0.016712 0.412840
Si Si4 0.104017 0.162123 0.094191
Si Si5 0.122622 0.648933 0.581230
Si Si6 0.259396 0.152585 0.415813
Si Si7 0.958125 0.018617 0.594128
Si Si8 0.479883 0.648568 0.415707
O O1 0.626185 0.750000 0.500000
O O2 0.636517 0.682167 0.250000
O O3 0.610409 0.562274 0.452492
O O4 0.690801 0.623230 0.453757
O O5 0.172096 0.028523 0.250000
O O6 0.147037 0.113467 0.478133
O O7 0.228874 0.059207 0.460041
O O8 0.163252 0.921407 0.469805
O O9 0.438347 0.979701 0.250000
O O10 0.472351 0.101957 0.437290
O O11 0.444034 0.925126 0.517349
O O12 0.115433 0.203326 0.250000
O O13 0.065637 0.084520 0.105120
O O14 0.086309 0.250000 0.000000
O O15 0.129024 0.750000 0.500000
O O16 0.123787 0.666131 0.750000
O O17 0.076164 0.600209 0.535136
O O18 0.244990 0.250000 0.500000
O O19 0.254004 0.176214 0.250000
O O20 0.974076 0.052003 0.750000
O O21 0.000000 0.000000 0.500000
O O22 0.477955 0.750000 0.500000
O O23 0.469146 0.665724 0.250000
#
# Coordination Sequence:
#
# PCOD8230729 Si02
#       8
#     8   8   8   8   8   8   8   8
#     4   9  17  28  44  67  94 122 150 181 220 268
#     4   8  15  29  47  65  89 117 143 173 212 257
#     4   9  18  31  45  64  91 121 153 188 226 271
#     4   9  17  29  44  63  86 112 139 168 204 246
#     4   9  18  33  50  67  87 114 148 185 221 256
#     4   9  16  27  45  69  94 121 148 175 215 265
#     4   9  19  33  46  62  87 115 142 173 211 254
#     4  10  19  30  46  66  88 117 153 193 233 271
#
# _framework density 16.370363000000001
#
# number of rings (size 3 to 8) (size 9 to 14) (size 15 to 20)
#    0.000    3.000    0.000    2.625    0.000    2.500 
#    0.000    5.000    0.000    0.750    0.000    1.750 
#    0.000    0.000    0.000    0.000    0.000    0.000 
#
# Total GULP energy -793214.458249 kJ/mol
# GULP energy per Si atom -12393.975910 kJ/mol
# Density = 1.633310 g / cm^3
# Si number density = 16.370363 Si / 1000 Ang^3
#
#
#
# Elastic Constant Matrix: (Units=GPa)
#
#
# Indices 1 2 3 4 5 6 
#
# 1 97.4687 53.2181 39.4417 0.0000 0.0000 0.0000
# 2 53.2181 114.7516 56.0111 0.0000 0.0000 0.0000
# 3 39.4417 56.0111 67.7065 0.0000 0.0000 0.0000
# 4 0.0000 0.0000 0.0000 31.3238 0.0000 0.0000
# 5 0.0000 0.0000 0.0000 0.0000 18.7285 0.0000
# 6 0.0000 0.0000 0.0000 0.0000 0.0000 17.9770
#
#
#
# Elastic Compliance Matrix: (Units=1/GPa)
#
#
# Indices 1 2 3 4 5 6 
#
# 1 0.014642 -0.004407 -0.004884 0.000000 0.000000 0.000000
# 2 -0.004407 0.015943 -0.010622 0.000000 0.000000 0.000000
# 3 -0.004884 -0.010622 0.026402 0.000000 0.000000 0.000000
# 4 0.000000 0.000000 0.000000 0.031925 0.000000 0.000000
# 5 0.000000 0.000000 0.000000 0.000000 0.053395 0.000000
# 6 0.000000 0.000000 0.000000 0.000000 0.000000 0.055627
#
#
# Mechanical properties :
#
#
# Convention : Reuss Voigt Hill
#
# Bulk Modulus (GPa) = 58.26978 64.14095 61.20537
# Shear Modulus (GPa) = 20.53572 22.35626 21.44599
#
# Velocity S-wave (km/s) = 3.54566 3.69948 3.62339
# Velocity P-wave (km/s) = 7.24115 7.58383 7.41447
#
# Compressibility (1/GPa) = 0.01716155
#
# Stress axis : x y z
#
# Youngs Moduli (GPa) = 68.29601 62.72482 37.87599
#
# Poissons Ratio (x) = 0.27640 0.18500
# Poissons Ratio (y) = 0.30095 0.40231
# Poissons Ratio (z) = 0.33358 0.66625
#
# Static dielectric constant tensor:
#      x y z
#    x 3.212030 0.000000 0.000000 
#    y 0.000000 2.989600 0.000000 
#    z 0.000000 0.000000 3.286050 
# 
# 
# High freq. dielectric constant tensor:
#      x y z
#    x 1.624550 0.000000 0.000000 
#    y 0.000000 1.618090 0.000000 
#    z 0.000000 0.000000 1.620860 
# 
# From -- ./inp_files/10342.got.cif
#   From: 2010.03.12/outbox.cif.g09.slc.cpg/sg57_6_cif.got.tgz:10342.got - 2010.04.16 15:48:40.
