data_PCOD8230256
_publ_section_title
;
Structure prediction by ZEFSAII (Michael W. Deem and Ramdas Pophale) SiO2 
 PCOD8230256
Probable space group: P B C M
;
_chemical_formula_sum "Si O2"
_cell_formula_units_Z 48
_cell_length_a 11.821636
_cell_length_b 25.573689
_cell_length_c 8.997055
_cell_angle_alpha 90.000000
_cell_angle_beta 90.000000
_cell_angle_gamma 90.000000
_cell_volume 2720.015242
_symmetry_space_group_name_H-M "P B C M"
_symmetry_group_IT_number 57
_symmetry_cell_setting 'orthorhombic'
loop_
_space_group_symop_operation_xyz
x,y,z
-x,-y,1/2+z
x,1/2-y,-z
-x,1/2+y,1/2-z
-x,-y,-z
x,y,1/2-z
-x,1/2+y,z
x,1/2-y,1/2+z
loop_
_atom_site_type_symbol
_atom_site_label
_atom_site_fract_x
_atom_site_fract_y
_atom_site_fract_z
Si Si1 0.775028 0.567202 0.923634
Si Si2 0.974022 0.608212 0.424978
Si Si3 0.518917 0.555304 0.576623
Si Si4 0.683888 0.375986 0.084029
Si Si5 0.866552 0.033678 0.917731
Si Si6 0.845738 0.195268 0.424473
O O1 0.802394 0.565021 0.750000
O O2 0.643237 0.578397 0.953798
O O3 0.804427 0.512383 0.997777
O O4 0.849645 0.613265 0.000414
O O5 0.962848 0.602738 0.250000
O O6 0.024013 0.553602 0.490358
O O7 0.049970 0.657705 0.469156
O O8 0.500000 0.500000 0.500000
O O9 0.496082 0.545799 0.750000
O O10 0.430505 0.598687 0.516107
O O11 0.661703 0.354047 0.250000
O O12 0.779352 0.419347 0.088245
O O13 0.726697 0.328361 0.981437
O O14 0.901552 0.017123 0.750000
O O15 0.871912 0.250000 0.500000
O O16 0.836494 0.203002 0.250000
#
# Coordination Sequence:
#
# PCOD8230256 Si02
#       6
#     8   8   8   8   8   8
#     4  11  21  31  47  72 105 142 177 210 250 300
#     4  10  21  35  50  72 102 133 171 213 257 310
#     4  10  20  33  50  74 106 144 181 215 251 299
#     4   9  18  33  52  76 105 137 174 215 257 302
#     4  10  18  30  49  71 101 139 175 212 253 299
#     4  10  21  37  59  82 101 127 164 215 270 317
#
# _framework density 17.64696
#
# number of rings (size 3 to 8) (size 9 to 14) (size 15 to 20)
#    0.000    2.000    1.667    2.500    0.000    4.000 
#    0.000    0.000    0.000    1.000    0.000    2.333 
#    0.000    0.000    0.000    0.000    0.000    0.000 
#
# Total GULP energy -595177.645688 kJ/mol
# GULP energy per Si atom -12399.534285 kJ/mol
# Density = 1.760679 g / cm^3
# Si number density = 17.646960 Si / 1000 Ang^3
#
#
#
# Elastic Constant Matrix: (Units=GPa)
#
#
# Indices 1 2 3 4 5 6 
#
# 1 91.7268 26.6505 48.5891 0.0000 0.0000 0.0000
# 2 26.6505 78.4553 41.5987 0.0000 0.0000 0.0000
# 3 48.5891 41.5987 95.7541 0.0000 0.0000 0.0000
# 4 0.0000 0.0000 0.0000 28.2017 0.0000 0.0000
# 5 0.0000 0.0000 0.0000 0.0000 27.6368 0.0000
# 6 0.0000 0.0000 0.0000 0.0000 0.0000 15.7622
#
#
#
# Elastic Compliance Matrix: (Units=1/GPa)
#
#
# Indices 1 2 3 4 5 6 
#
# 1 0.015024 -0.001379 -0.007024 0.000000 0.000000 0.000000
# 2 -0.001379 0.016687 -0.006550 0.000000 0.000000 0.000000
# 3 -0.007024 -0.006550 0.016853 0.000000 0.000000 0.000000
# 4 0.000000 0.000000 0.000000 0.035459 0.000000 0.000000
# 5 0.000000 0.000000 0.000000 0.000000 0.036184 0.000000
# 6 0.000000 0.000000 0.000000 0.000000 0.000000 0.063443
#
#
# Mechanical properties :
#
#
# Convention : Reuss Voigt Hill
#
# Bulk Modulus (GPa) = 53.59654 55.51253 54.55453
# Shear Modulus (GPa) = 22.75050 24.26000 23.50525
#
# Velocity S-wave (km/s) = 3.59444 3.71177 3.65358
# Velocity P-wave (km/s) = 6.90392 7.06366 6.98425
#
# Compressibility (1/GPa) = 0.01865792
#
# Stress axis : x y z
#
# Youngs Moduli (GPa) = 66.56237 59.92560 59.33536
#
# Poissons Ratio (x) = 0.08263 0.41680
# Poissons Ratio (y) = 0.09178 0.38864
# Poissons Ratio (z) = 0.46756 0.39250
#
# Static dielectric constant tensor:
#      x y z
#    x 3.614290 0.000000 0.000000 
#    y 0.000000 3.049730 0.000000 
#    z 0.000000 0.000000 3.493940 
# 
# 
# High freq. dielectric constant tensor:
#      x y z
#    x 1.688790 0.000000 0.000000 
#    y 0.000000 1.649140 0.000000 
#    z 0.000000 0.000000 1.693520 
# 
# From -- ./inp_files/3163.got.cif
#   From: 2010.03.12/outbox.cif.g09.slc.cpg/sg57_2_cif.got.tgz:3163.got - 2010.04.16 15:48:40.
