data_PCOD8230915
_publ_section_title
;
Structure prediction by ZEFSAII (Michael W. Deem and Ramdas Pophale) SiO2 
 PCOD8230915
Probable space group: P B C M
;
_chemical_formula_sum "Si O2"
_cell_formula_units_Z 64
_cell_length_a 11.299209
_cell_length_b 33.878443
_cell_length_c 8.733244
_cell_angle_alpha 90.000000
_cell_angle_beta 90.000000
_cell_angle_gamma 90.000000
_cell_volume 3343.082380
_symmetry_space_group_name_H-M "P B C M"
_symmetry_group_IT_number 57
_symmetry_cell_setting 'orthorhombic'
loop_
_space_group_symop_operation_xyz
x,y,z
-x,-y,1/2+z
x,1/2-y,-z
-x,1/2+y,1/2-z
-x,-y,-z
x,y,1/2-z
-x,1/2+y,z
x,1/2-y,1/2+z
loop_
_atom_site_type_symbol
_atom_site_label
_atom_site_fract_x
_atom_site_fract_y
_atom_site_fract_z
Si Si1 0.464936 0.068859 0.572777
Si Si2 0.707205 0.056529 0.070464
Si Si3 0.648227 0.640418 0.429422
Si Si4 0.738239 0.291969 0.932108
Si Si5 0.113026 0.400429 0.569670
Si Si6 0.485094 0.290957 0.430506
Si Si7 0.864249 0.370939 0.568227
Si Si8 0.222978 0.472225 0.075407
O O1 0.467931 0.081408 0.750000
O O2 0.588015 0.049349 0.524511
O O3 0.449031 0.107471 0.467929
O O4 0.359301 0.038464 0.538568
O O5 0.676349 0.058813 0.250000
O O6 0.771848 0.095993 0.010344
O O7 0.792080 0.018705 0.038398
O O8 0.645554 0.650108 0.250000
O O9 0.776664 0.625836 0.487073
O O10 0.618030 0.678826 0.527162
O O11 0.733276 0.288413 0.750000
O O12 0.826085 0.327099 0.985965
O O13 0.782127 0.250000 0.000000
O O14 0.609071 0.303443 0.993383
O O15 0.105342 0.399764 0.750000
O O16 0.131204 0.446020 0.521668
O O17 0.993289 0.381655 0.499479
O O18 0.441423 0.250000 0.500000
O O19 0.502930 0.287593 0.250000
O O20 0.868207 0.372588 0.750000
O O21 0.192827 0.462775 0.250000
#
# Coordination Sequence:
#
# PCOD8230915 Si02
#       8
#     8   8   8   8   8   8   8   8
#     4  10  19  31  48  73 104 133 169 215 261 310
#     4  10  19  32  51  74 103 137 172 211 260 313
#     4  10  19  33  53  74  99 134 173 210 255 307
#     4  10  19  34  56  80 108 138 169 207 255 308
#     4   9  19  36  55  72  96 135 178 215 253 303
#     4  11  21  34  54  81 111 136 164 204 253 309
#     4   9  19  35  54  75 100 134 175 215 254 302
#     4   9  19  33  49  73 104 136 169 213 264 308
#
# _framework density 19.144010000000002
#
# number of rings (size 3 to 8) (size 9 to 14) (size 15 to 20)
#    0.000    2.250    0.000    4.125    0.000    3.000 
#    0.000    3.125    0.000    1.500    0.000    0.000 
#    0.000    0.000    0.000    0.000    0.000    0.000 
#
# Total GULP energy -793574.862131 kJ/mol
# GULP energy per Si atom -12399.607221 kJ/mol
# Density = 1.910044 g / cm^3
# Si number density = 19.144010 Si / 1000 Ang^3
#
#
#
# Elastic Constant Matrix: (Units=GPa)
#
#
# Indices 1 2 3 4 5 6 
#
# 1 73.4558 49.8925 22.1119 0.0000 0.0000 0.0000
# 2 49.8925 133.4432 31.6491 0.0000 0.0000 0.0000
# 3 22.1119 31.6491 57.8415 0.0000 0.0000 0.0000
# 4 0.0000 0.0000 0.0000 31.5157 0.0000 0.0000
# 5 0.0000 0.0000 0.0000 0.0000 18.8998 0.0000
# 6 0.0000 0.0000 0.0000 0.0000 0.0000 26.6996
#
#
#
# Elastic Compliance Matrix: (Units=1/GPa)
#
#
# Indices 1 2 3 4 5 6 
#
# 1 0.018974 -0.006175 -0.003875 0.000000 0.000000 0.000000
# 2 -0.006175 0.010621 -0.003451 0.000000 0.000000 0.000000
# 3 -0.003875 -0.003451 0.020658 0.000000 0.000000 0.000000
# 4 0.000000 0.000000 0.000000 0.031730 0.000000 0.000000
# 5 0.000000 0.000000 0.000000 0.000000 0.052911 0.000000
# 6 0.000000 0.000000 0.000000 0.000000 0.000000 0.037454
#
#
# Mechanical properties :
#
#
# Convention : Reuss Voigt Hill
#
# Bulk Modulus (GPa) = 43.00714 52.44971 47.72843
# Shear Modulus (GPa) = 24.14288 26.16214 25.15251
#
# Velocity S-wave (km/s) = 3.55508 3.70076 3.62865
# Velocity P-wave (km/s) = 6.27417 6.76149 6.52239
#
# Compressibility (1/GPa) = 0.02325195
#
# Stress axis : x y z
#
# Youngs Moduli (GPa) = 52.70273 94.15208 48.40724
#
# Poissons Ratio (x) = 0.58141 0.18756
# Poissons Ratio (y) = 0.32545 0.16705
# Poissons Ratio (z) = 0.20421 0.32490
#
# Static dielectric constant tensor:
#      x y z
#    x 3.536910 0.000000 0.000000 
#    y 0.000000 3.640710 0.000000 
#    z 0.000000 0.000000 3.341500 
# 
# 
# High freq. dielectric constant tensor:
#      x y z
#    x 1.729790 0.000000 0.000000 
#    y 0.000000 1.751660 0.000000 
#    z 0.000000 0.000000 1.733000 
# 
# From -- ./inp_files/3792.got.cif
#   From: 2010.03.12/outbox.cif.g09.slc.cpg/sg57_2_cif.got.tgz:3792.got - 2010.04.16 15:48:40.
