data_PCOD8230526
_publ_section_title
;
Structure prediction by ZEFSAII (Michael W. Deem and Ramdas Pophale) SiO2 
 PCOD8230526
Probable space group: P B C M
;
_chemical_formula_sum "Si O2"
_cell_formula_units_Z 52
_cell_length_a 14.035790
_cell_length_b 8.520885
_cell_length_c 22.135383
_cell_angle_alpha 90.000000
_cell_angle_beta 90.000000
_cell_angle_gamma 90.000000
_cell_volume 2647.333203
_symmetry_space_group_name_H-M "P B C M"
_symmetry_group_IT_number 57
_symmetry_cell_setting 'orthorhombic'
loop_
_space_group_symop_operation_xyz
x,y,z
-x,-y,1/2+z
x,1/2-y,-z
-x,1/2+y,1/2-z
-x,-y,-z
x,y,1/2-z
-x,1/2+y,z
x,1/2-y,1/2+z
loop_
_atom_site_type_symbol
_atom_site_label
_atom_site_fract_x
_atom_site_fract_y
_atom_site_fract_z
Si Si1 0.432584 0.543457 0.418942
Si Si2 0.374767 0.298442 0.934843
Si Si3 0.298206 0.750000 0.500000
Si Si4 0.057186 0.905291 0.180634
Si Si5 0.320424 0.817018 0.678894
Si Si6 0.238333 0.547240 0.610122
Si Si7 0.873877 0.442329 0.682446
O O1 0.540739 0.572405 0.440374
O O2 0.415659 0.359873 0.405134
O O3 0.362523 0.616860 0.468736
O O4 0.415778 0.627283 0.354340
O O5 0.287610 0.377875 0.899265
O O6 0.335882 0.250000 0.000000
O O7 0.234892 0.655645 0.549297
O O8 0.066251 0.970816 0.250000
O O9 0.950201 0.936857 0.153785
O O10 0.133008 0.987482 0.135674
O O11 0.071779 0.721779 0.180443
O O12 0.334305 0.831222 0.750000
O O13 0.298039 0.636988 0.662197
O O14 0.231012 0.923561 0.652732
O O15 0.852350 0.496988 0.750000
#
# Coordination Sequence:
#
# PCOD8230526 Si02
#       7
#     8   8   4   8   8   8   8
#     4  11  21  35  58  81 107 140 183 223 276 315
#     4  12  22  37  56  84 107 137 187 234 265 320
#     4  10  18  34  54  78 102 144 180 230 260 316
#     4   9  17  32  54  82 108 138 178 222 268 323
#     4   9  19  37  56  81 113 146 180 219 270 332
#     4  10  20  33  56  81 109 142 183 224 277 310
#     4   8  15  29  52  77 105 139 177 216 258 312
#
# _framework density 19.642408
#
# number of rings (size 3 to 8) (size 9 to 14) (size 15 to 20)
#    0.000    2.154    2.308    3.692    0.000    1.231 
#    0.000    6.923    0.000    8.308    8.000    0.000 
#    0.000    0.000    0.000    0.000    0.000    0.000 
#
# Total GULP energy -644322.457980 kJ/mol
# GULP energy per Si atom -12390.816500 kJ/mol
# Density = 1.959770 g / cm^3
# Si number density = 19.642408 Si / 1000 Ang^3
#
#
#
# Elastic Constant Matrix: (Units=GPa)
#
#
# Indices 1 2 3 4 5 6 
#
# 1 34.6036 0.0480 12.0972 0.0000 0.0000 0.0000
# 2 0.0480 53.4865 3.5185 0.0000 0.0000 0.0000
# 3 12.0972 3.5185 75.4986 0.0000 0.0000 0.0000
# 4 0.0000 0.0000 0.0000 21.4110 0.0000 0.0000
# 5 0.0000 0.0000 0.0000 0.0000 28.4592 0.0000
# 6 0.0000 0.0000 0.0000 0.0000 0.0000 34.9006
#
#
#
# Elastic Compliance Matrix: (Units=1/GPa)
#
#
# Indices 1 2 3 4 5 6 
#
# 1 0.030618 0.000296 -0.004920 0.000000 0.000000 0.000000
# 2 0.000296 0.018757 -0.000922 0.000000 0.000000 0.000000
# 3 -0.004920 -0.000922 0.014077 0.000000 0.000000 0.000000
# 4 0.000000 0.000000 0.000000 0.046705 0.000000 0.000000
# 5 0.000000 0.000000 0.000000 0.000000 0.035138 0.000000
# 6 0.000000 0.000000 0.000000 0.000000 0.000000 0.028653
#
#
# Mechanical properties :
#
#
# Convention : Reuss Voigt Hill
#
# Bulk Modulus (GPa) = 19.09815 21.65732 20.37774
# Shear Modulus (GPa) = 24.69244 26.81585 25.75414
#
# Velocity S-wave (km/s) = 3.54940 3.69887 3.62491
# Velocity P-wave (km/s) = 5.15187 5.41220 5.28364
#
# Compressibility (1/GPa) = 0.05236109
#
# Stress axis : x y z
#
# Youngs Moduli (GPa) = 32.66027 53.31434 71.04030
#
# Poissons Ratio (x) = -0.01579 0.34950
# Poissons Ratio (y) = -0.00967 0.06547
# Poissons Ratio (z) = 0.16068 0.04913
#
# Static dielectric constant tensor:
#      x y z
#    x 3.656670 0.000000 0.000000 
#    y 0.000000 3.577160 0.000000 
#    z 0.000000 0.000000 3.501480 
# 
# 
# High freq. dielectric constant tensor:
#      x y z
#    x 1.752180 0.000000 0.000000 
#    y 0.000000 1.761110 0.000000 
#    z 0.000000 0.000000 1.745260 
# 
# From -- ./inp_files/25317.got.cif
#   From: 2010.03.12/outbox.cif.g09.slc.cpg/sg57_13_cif.got.tgz:25317.got - 2010.04.16 15:48:40.
