data_PCOD8230922
_publ_section_title
;
Structure prediction by ZEFSAII (Michael W. Deem and Ramdas Pophale) SiO2 
 PCOD8230922
Probable space group: P B C M
;
_chemical_formula_sum "Si O2"
_cell_formula_units_Z 64
_cell_length_a 18.818165
_cell_length_b 19.886934
_cell_length_c 9.043926
_cell_angle_alpha 90.000000
_cell_angle_beta 90.000000
_cell_angle_gamma 90.000000
_cell_volume 3384.559121
_symmetry_space_group_name_H-M "P B C M"
_symmetry_group_IT_number 57
_symmetry_cell_setting 'orthorhombic'
loop_
_space_group_symop_operation_xyz
x,y,z
-x,-y,1/2+z
x,1/2-y,-z
-x,1/2+y,1/2-z
-x,-y,-z
x,y,1/2-z
-x,1/2+y,z
x,1/2-y,1/2+z
loop_
_atom_site_type_symbol
_atom_site_label
_atom_site_fract_x
_atom_site_fract_y
_atom_site_fract_z
Si Si1 0.498161 0.818919 0.926173
Si Si2 0.896764 0.822553 0.077237
Si Si3 0.716041 0.048263 0.575288
Si Si4 0.050809 0.681825 0.581267
Si Si5 0.659433 0.814640 0.581641
Si Si6 0.216471 0.086102 0.421760
Si Si7 0.555071 0.050728 0.926005
Si Si8 0.794025 0.178046 0.575312
O O1 0.485747 0.818367 0.750000
O O2 0.580001 0.832472 0.970442
O O3 0.471628 0.750000 0.000000
O O4 0.452905 0.876162 0.004130
O O5 0.881646 0.811138 0.250000
O O6 0.975791 0.856156 0.051255
O O7 0.885921 0.750000 0.000000
O O8 0.844132 0.878577 0.015712
O O9 0.722438 0.051568 0.750000
O O10 0.635406 0.029574 0.532005
O O11 0.740436 0.121138 0.512166
O O12 0.770002 0.989860 0.520350
O O13 0.040051 0.750000 0.500000
O O14 0.057198 0.701420 0.750000
O O15 0.126353 0.649055 0.534633
O O16 0.691417 0.750000 0.500000
O O17 0.657611 0.792918 0.750000
O O18 0.708331 0.878096 0.551467
O O19 0.194326 0.088511 0.250000
O O20 0.542749 0.051669 0.750000
O O21 0.500000 0.000000 0.000000
O O22 0.778810 0.250000 0.500000
O O23 0.784291 0.188324 0.750000
#
# Coordination Sequence:
#
# PCOD8230922 Si02
#       8
#     8   8   8   8   8   8   8   8
#     4  10  20  36  56  80 107 136 171 216 265 316
#     4  10  19  31  48  75 106 136 170 210 250 295
#     4   9  20  37  56  76 102 135 173 212 258 313
#     4   8  15  28  49  74 101 131 167 207 250 298
#     4   9  18  31  49  71  98 131 169 208 248 295
#     4  10  19  33  50  70  99 137 174 210 250 299
#     4  11  22  38  58  80 105 138 177 219 265 318
#     4   9  17  34  58  80 101 132 170 212 259 308
#
# _framework density 18.909406000000001
#
# number of rings (size 3 to 8) (size 9 to 14) (size 15 to 20)
#    0.000    2.500    0.000    2.250    0.000    5.000 
#    0.000    6.250    0.000    0.000    0.000    0.000 
#    0.000    0.000    0.000    0.000    0.000    0.000 
#
# Total GULP energy -792965.287963 kJ/mol
# GULP energy per Si atom -12390.082624 kJ/mol
# Density = 1.886637 g / cm^3
# Si number density = 18.909406 Si / 1000 Ang^3
#
#
#
# Elastic Constant Matrix: (Units=GPa)
#
#
# Indices 1 2 3 4 5 6 
#
# 1 104.4506 61.6359 41.6271 0.0000 0.0000 0.0000
# 2 61.6359 122.1674 41.2434 0.0000 0.0000 0.0000
# 3 41.6271 41.2434 61.5531 0.0000 0.0000 0.0000
# 4 0.0000 0.0000 0.0000 28.6439 0.0000 0.0000
# 5 0.0000 0.0000 0.0000 0.0000 26.0660 0.0000
# 6 0.0000 0.0000 0.0000 0.0000 0.0000 31.4431
#
#
#
# Elastic Compliance Matrix: (Units=1/GPa)
#
#
# Indices 1 2 3 4 5 6 
#
# 1 0.015563 -0.005555 -0.006803 0.000000 0.000000 0.000000
# 2 -0.005555 0.012561 -0.004660 0.000000 0.000000 0.000000
# 3 -0.006803 -0.004660 0.023969 0.000000 0.000000 0.000000
# 4 0.000000 0.000000 0.000000 0.034911 0.000000 0.000000
# 5 0.000000 0.000000 0.000000 0.000000 0.038364 0.000000
# 6 0.000000 0.000000 0.000000 0.000000 0.000000 0.031804
#
#
# Mechanical properties :
#
#
# Convention : Reuss Voigt Hill
#
# Bulk Modulus (GPa) = 55.37755 64.13157 59.75456
# Shear Modulus (GPa) = 25.35143 26.80825 26.07984
#
# Velocity S-wave (km/s) = 3.66550 3.76935 3.71779
# Velocity P-wave (km/s) = 6.87487 7.27549 7.07801
#
# Compressibility (1/GPa) = 0.01805786
#
# Stress axis : x y z
#
# Youngs Moduli (GPa) = 64.25404 79.60898 41.72070
#
# Poissons Ratio (x) = 0.44226 0.28381
# Poissons Ratio (y) = 0.35695 0.19441
# Poissons Ratio (z) = 0.43710 0.37096
#
# Static dielectric constant tensor:
#      x y z
#    x 3.931200 0.000000 0.000000 
#    y 0.000000 3.610470 0.000000 
#    z 0.000000 0.000000 3.389660 
# 
# 
# High freq. dielectric constant tensor:
#      x y z
#    x 1.744820 0.000000 0.000000 
#    y 0.000000 1.720640 0.000000 
#    z 0.000000 0.000000 1.723290 
# 
# From -- ./inp_files/8403.got.cif
#   From: 2010.03.12/outbox.cif.g09.slc.cpg/sg57_5_cif.got.tgz:8403.got - 2010.04.16 15:48:40.
