data_PCOD8230751
_publ_section_title
;
Structure prediction by ZEFSAII (Michael W. Deem and Ramdas Pophale) SiO2 
 PCOD8230751
Probable space group: P B C M
;
_chemical_formula_sum "Si O2"
_cell_formula_units_Z 48
_cell_length_a 16.406506
_cell_length_b 18.187820
_cell_length_c 8.888883
_cell_angle_alpha 90.000000
_cell_angle_beta 90.000000
_cell_angle_gamma 90.000000
_cell_volume 2652.430047
_symmetry_space_group_name_H-M "P B C M"
_symmetry_group_IT_number 57
_symmetry_cell_setting 'orthorhombic'
loop_
_space_group_symop_operation_xyz
x,y,z
-x,-y,1/2+z
x,1/2-y,-z
-x,1/2+y,1/2-z
-x,-y,-z
x,y,1/2-z
-x,1/2+y,z
x,1/2-y,1/2+z
loop_
_atom_site_type_symbol
_atom_site_label
_atom_site_fract_x
_atom_site_fract_y
_atom_site_fract_z
Si Si1 0.083558 0.524100 0.426885
Si Si2 0.835151 0.174811 0.072954
Si Si3 0.232584 0.042865 0.423254
Si Si4 0.649484 0.671751 0.072033
Si Si5 0.685508 0.107826 0.577464
Si Si6 0.484269 0.672179 0.927017
O O1 0.073831 0.520960 0.250000
O O2 0.108416 0.606424 0.480429
O O3 0.152457 0.466137 0.476050
O O4 0.000000 0.500000 0.500000
O O5 0.837640 0.183888 0.250000
O O6 0.868829 0.250000 0.000000
O O7 0.742224 0.160376 0.022900
O O8 0.205094 0.044086 0.250000
O O9 0.276697 0.117929 0.470183
O O10 0.295699 0.977105 0.454388
O O11 0.638581 0.679369 0.250000
O O12 0.670653 0.750000 0.000000
O O13 0.565879 0.639435 0.002420
O O14 0.702628 0.129546 0.750000
O O15 0.590947 0.118614 0.536191
O O16 0.498869 0.681797 0.750000
O O17 0.463361 0.750000 0.000000
#
# Coordination Sequence:
#
# PCOD8230751 Si02
#       6
#     8   8   8   8   8   8
#     4  10  21  37  58  82 106 133 166 205 251 303
#     4  10  20  33  52  79 107 136 169 204 247 299
#     4   9  19  36  55  75 100 131 167 207 255 307
#     4  10  20  34  52  72  98 134 174 215 256 298
#     4   9  18  32  50  73 102 135 169 208 254 301
#     4  10  19  30  46  69  99 135 173 211 251 295
#
# _framework density 18.096613999999999
#
# number of rings (size 3 to 8) (size 9 to 14) (size 15 to 20)
#    0.000    2.333    0.000    3.500    0.000    6.667 
#    0.000    0.833    0.000    0.000    0.000    0.000 
#    0.000    0.000    0.000    0.000    0.000    0.000 
#
# Total GULP energy -595252.813694 kJ/mol
# GULP energy per Si atom -12401.100285 kJ/mol
# Density = 1.805543 g / cm^3
# Si number density = 18.096614 Si / 1000 Ang^3
#
#
#
# Elastic Constant Matrix: (Units=GPa)
#
#
# Indices 1 2 3 4 5 6 
#
# 1 141.1964 76.6134 58.7950 0.0000 0.0000 0.0000
# 2 76.6134 98.7646 48.5537 0.0000 0.0000 0.0000
# 3 58.7950 48.5537 85.0177 0.0000 0.0000 0.0000
# 4 0.0000 0.0000 0.0000 27.5926 0.0000 0.0000
# 5 0.0000 0.0000 0.0000 0.0000 33.3722 0.0000
# 6 0.0000 0.0000 0.0000 0.0000 0.0000 23.6235
#
#
#
# Elastic Compliance Matrix: (Units=1/GPa)
#
#
# Indices 1 2 3 4 5 6 
#
# 1 0.013429 -0.008136 -0.004641 0.000000 0.000000 0.000000
# 2 -0.008136 0.019006 -0.005228 0.000000 0.000000 0.000000
# 3 -0.004641 -0.005228 0.017957 0.000000 0.000000 0.000000
# 4 0.000000 0.000000 0.000000 0.036242 0.000000 0.000000
# 5 0.000000 0.000000 0.000000 0.000000 0.029965 0.000000
# 6 0.000000 0.000000 0.000000 0.000000 0.000000 0.042331
#
#
# Mechanical properties :
#
#
# Convention : Reuss Voigt Hill
#
# Bulk Modulus (GPa) = 69.52371 76.98921 73.25646
# Shear Modulus (GPa) = 25.03320 26.31877 25.67598
#
# Velocity S-wave (km/s) = 3.72332 3.81773 3.77082
# Velocity P-wave (km/s) = 7.54888 7.87840 7.71540
#
# Compressibility (1/GPa) = 0.01438358
#
# Stress axis : x y z
#
# Youngs Moduli (GPa) = 74.46379 52.61372 55.68727
#
# Poissons Ratio (x) = 0.42806 0.25843
# Poissons Ratio (y) = 0.60583 0.29114
# Poissons Ratio (z) = 0.34557 0.27507
#
# Static dielectric constant tensor:
#      x y z
#    x 3.316770 0.000000 0.000000 
#    y 0.000000 3.361920 0.000000 
#    z 0.000000 0.000000 3.412190 
# 
# 
# High freq. dielectric constant tensor:
#      x y z
#    x 1.692650 0.000000 0.000000 
#    y 0.000000 1.695500 0.000000 
#    z 0.000000 0.000000 1.710210 
# 
# From -- ./inp_files/4882.got.cif
#   From: 2010.03.12/outbox.cif.g09.slc.cpg/sg57_3_cif.got.tgz:4882.got - 2010.04.16 15:48:40.
