data_PCOD8230075
_publ_section_title
;
Structure prediction by ZEFSAII (Michael W. Deem and Ramdas Pophale) SiO2 
 PCOD8230075
Probable space group: P B C M
;
_chemical_formula_sum "Si O2"
_cell_formula_units_Z 56
_cell_length_a 17.724913
_cell_length_b 21.310683
_cell_length_c 8.893904
_cell_angle_alpha 90.000000
_cell_angle_beta 90.000000
_cell_angle_gamma 90.000000
_cell_volume 3359.494377
_symmetry_space_group_name_H-M "P B C M"
_symmetry_group_IT_number 57
_symmetry_cell_setting 'orthorhombic'
loop_
_space_group_symop_operation_xyz
x,y,z
-x,-y,1/2+z
x,1/2-y,-z
-x,1/2+y,1/2-z
-x,-y,-z
x,y,1/2-z
-x,1/2+y,z
x,1/2-y,1/2+z
loop_
_atom_site_type_symbol
_atom_site_label
_atom_site_fract_x
_atom_site_fract_y
_atom_site_fract_z
Si Si1 0.936445 0.067815 0.922503
Si Si2 0.098283 0.058376 0.921149
Si Si3 0.244131 0.455449 0.921087
Si Si4 0.607282 0.534310 0.924491
Si Si5 0.778844 0.103324 0.581063
Si Si6 0.449581 0.589538 0.575500
Si Si7 0.655804 0.182917 0.073506
O O1 0.930710 0.041525 0.750000
O O2 0.868258 0.117996 0.945456
O O3 0.020236 0.098272 0.947308
O O4 0.924703 0.012792 0.042171
O O5 0.125627 0.062804 0.750000
O O6 0.168764 0.080926 0.022632
O O7 0.258922 0.436519 0.750000
O O8 0.232502 0.529367 0.944041
O O9 0.316049 0.433054 0.018674
O O10 0.612658 0.516065 0.750000
O O11 0.538838 0.582633 0.953668
O O12 0.595064 0.471207 0.018492
O O13 0.754164 0.122448 0.750000
O O14 0.729229 0.141400 0.463198
O O15 0.430381 0.597117 0.750000
O O16 0.420225 0.650616 0.488690
O O17 0.648106 0.190654 0.250000
O O18 0.666128 0.250000 0.000000
#
# Coordination Sequence:
#
# PCOD8230075 Si02
#       7
#     8   8   8   8   8   8   8
#     4   8  15  26  39  56  82 117 149 183 222 260
#     4   9  15  23  37  58  85 116 152 184 215 261
#     4  10  18  27  42  63  93 125 152 188 230 271
#     4  10  19  30  48  70  92 121 156 191 230 282
#     4   9  17  30  45  62  87 118 154 192 232 272
#     4  10  20  34  49  68  93 119 151 193 238 282
#     4  12  24  36  51  68  90 121 159 198 238 281
#
# _framework density 16.669176
#
# number of rings (size 3 to 8) (size 9 to 14) (size 15 to 20)
#    0.000    2.286    1.429    3.857    0.000    4.571 
#    0.000    0.000    0.000    0.000    0.000    0.000 
#    0.000    1.143    0.000    5.429    0.000    5.000 
#
# Total GULP energy -694061.745800 kJ/mol
# GULP energy per Si atom -12393.959746 kJ/mol
# Density = 1.663124 g / cm^3
# Si number density = 16.669176 Si / 1000 Ang^3
#
#
#
# Elastic Constant Matrix: (Units=GPa)
#
#
# Indices 1 2 3 4 5 6 
#
# 1 141.1380 16.1190 45.4136 0.0000 0.0000 0.0000
# 2 16.1190 27.0498 19.1881 0.0000 0.0000 0.0000
# 3 45.4136 19.1881 97.9158 0.0000 0.0000 0.0000
# 4 0.0000 0.0000 0.0000 17.1136 0.0000 0.0000
# 5 0.0000 0.0000 0.0000 0.0000 29.6196 0.0000
# 6 0.0000 0.0000 0.0000 0.0000 0.0000 9.4217
#
#
#
# Elastic Compliance Matrix: (Units=1/GPa)
#
#
# Indices 1 2 3 4 5 6 
#
# 1 0.008486 -0.002631 -0.003420 0.000000 0.000000 0.000000
# 2 -0.002631 0.043753 -0.007354 0.000000 0.000000 0.000000
# 3 -0.003420 -0.007354 0.013240 0.000000 0.000000 0.000000
# 4 0.000000 0.000000 0.000000 0.058433 0.000000 0.000000
# 5 0.000000 0.000000 0.000000 0.000000 0.033761 0.000000
# 6 0.000000 0.000000 0.000000 0.000000 0.000000 0.106138
#
#
# Mechanical properties :
#
#
# Convention : Reuss Voigt Hill
#
# Bulk Modulus (GPa) = 25.86010 47.50502 36.68256
# Shear Modulus (GPa) = 16.47378 23.58984 20.03181
#
# Velocity S-wave (km/s) = 3.14710 3.76597 3.47036
# Velocity P-wave (km/s) = 5.36219 6.88989 6.17348
#
# Compressibility (1/GPa) = 0.03866961
#
# Stress axis : x y z
#
# Youngs Moduli (GPa) = 117.83710 22.85550 75.52639
#
# Poissons Ratio (x) = 0.06012 0.25833
# Poissons Ratio (y) = 0.30999 0.55542
# Poissons Ratio (z) = 0.40306 0.16808
#
# Static dielectric constant tensor:
#      x y z
#    x 3.733580 0.000000 0.000000 
#    y 0.000000 2.531380 0.000000 
#    z 0.000000 0.000000 3.232240 
# 
# 
# High freq. dielectric constant tensor:
#      x y z
#    x 1.670410 0.000000 0.000000 
#    y 0.000000 1.551470 0.000000 
#    z 0.000000 0.000000 1.657620 
# 
# From -- ./inp_files/7011.got.cif
#   From: 2010.03.12/outbox.cif.g09.slc.cpg/sg57_4_cif.got.tgz:7011.got - 2010.04.16 15:48:40.
