data_PCOD8230724
_publ_section_title
;
Structure prediction by ZEFSAII (Michael W. Deem and Ramdas Pophale) SiO2 
 PCOD8230724
Probable space group: P B C M
;
_chemical_formula_sum "Si O2"
_cell_formula_units_Z 64
_cell_length_a 19.109188
_cell_length_b 23.297785
_cell_length_c 9.047894
_cell_angle_alpha 90.000000
_cell_angle_beta 90.000000
_cell_angle_gamma 90.000000
_cell_volume 4028.138275
_symmetry_space_group_name_H-M "P B C M"
_symmetry_group_IT_number 57
_symmetry_cell_setting 'orthorhombic'
loop_
_space_group_symop_operation_xyz
x,y,z
-x,-y,1/2+z
x,1/2-y,-z
-x,1/2+y,1/2-z
-x,-y,-z
x,y,1/2-z
-x,1/2+y,z
x,1/2-y,1/2+z
loop_
_atom_site_type_symbol
_atom_site_label
_atom_site_fract_x
_atom_site_fract_y
_atom_site_fract_z
Si Si1 0.747557 0.508589 0.577169
Si Si2 0.399094 0.527892 0.422515
Si Si3 0.901585 0.689830 0.925680
Si Si4 0.388528 0.190795 0.574667
Si Si5 0.244359 0.363002 0.074487
Si Si6 0.900134 0.487094 0.919586
Si Si7 0.026434 0.410776 0.920982
Si Si8 0.517202 0.586179 0.577992
O O1 0.733318 0.516509 0.750000
O O2 0.680582 0.473875 0.514064
O O3 0.753698 0.572542 0.508224
O O4 0.818811 0.473276 0.545312
O O5 0.401494 0.540783 0.250000
O O6 0.442097 0.578948 0.499785
O O7 0.432253 0.466460 0.462456
O O8 0.905616 0.695352 0.750000
O O9 0.825540 0.668654 0.981669
O O10 0.919014 0.750000 0.000000
O O11 0.960216 0.645249 0.981057
O O12 0.410292 0.250000 0.500000
O O13 0.388403 0.197591 0.750000
O O14 0.311793 0.171847 0.517496
O O15 0.445390 0.144012 0.522689
O O16 0.243773 0.365912 0.250000
O O17 0.908035 0.509021 0.750000
O O18 0.945519 0.429695 0.944768
O O19 0.924139 0.537476 0.027457
O O20 0.042268 0.397514 0.750000
O O21 0.502389 0.588993 0.750000
#
# Coordination Sequence:
#
# PCOD8230724 Si02
#       8
#     8   8   8   8   8   8   8   8
#     4   9  14  26  48  70  89 119 155 182 219 272
#     4   9  16  27  47  67  86 114 151 187 220 268
#     4  11  21  33  49  66  91 127 162 195 229 268
#     4  10  19  31  46  64  88 123 158 190 222 260
#     4   9  16  28  46  65  90 123 158 186 216 261
#     4   9  17  30  49  68  91 123 155 189 229 273
#     4  10  19  30  45  69  95 120 155 194 231 273
#     4   9  17  29  43  62  90 119 146 182 229 268
#
# _framework density 15.888232
#
# number of rings (size 3 to 8) (size 9 to 14) (size 15 to 20)
#    0.000    2.500    2.500    1.125    0.000    1.000 
#    0.000    1.250    0.000    0.000    0.000    0.875 
#    0.000    2.000    0.000    0.000    0.000    0.000 
#
# Total GULP energy -793435.882664 kJ/mol
# GULP energy per Si atom -12397.435667 kJ/mol
# Density = 1.585207 g / cm^3
# Si number density = 15.888232 Si / 1000 Ang^3
#
#
#
# Elastic Constant Matrix: (Units=GPa)
#
#
# Indices 1 2 3 4 5 6 
#
# 1 124.4083 61.7744 34.1362 0.0000 0.0000 0.0000
# 2 61.7744 97.0425 33.2371 0.0000 0.0000 0.0000
# 3 34.1362 33.2371 40.9881 0.0000 0.0000 0.0000
# 4 0.0000 0.0000 0.0000 24.5351 0.0000 0.0000
# 5 0.0000 0.0000 0.0000 0.0000 19.6875 0.0000
# 6 0.0000 0.0000 0.0000 0.0000 0.0000 24.7144
#
#
#
# Elastic Compliance Matrix: (Units=1/GPa)
#
#
# Indices 1 2 3 4 5 6 
#
# 1 0.012595 -0.006127 -0.005522 0.000000 0.000000 0.000000
# 2 -0.006127 0.017247 -0.008883 0.000000 0.000000 0.000000
# 3 -0.005522 -0.008883 0.036199 0.000000 0.000000 0.000000
# 4 0.000000 0.000000 0.000000 0.040758 0.000000 0.000000
# 5 0.000000 0.000000 0.000000 0.000000 0.050794 0.000000
# 6 0.000000 0.000000 0.000000 0.000000 0.000000 0.040462
#
#
# Mechanical properties :
#
#
# Convention : Reuss Voigt Hill
#
# Bulk Modulus (GPa) = 40.03411 57.85938 48.94674
# Shear Modulus (GPa) = 20.20647 22.67348 21.43997
#
# Velocity S-wave (km/s) = 3.57008 3.78174 3.67744
# Velocity P-wave (km/s) = 6.49969 7.45415 6.99322
#
# Compressibility (1/GPa) = 0.02497870
#
# Stress axis : x y z
#
# Youngs Moduli (GPa) = 79.39487 57.97998 27.62474
#
# Poissons Ratio (x) = 0.35522 0.15254
# Poissons Ratio (y) = 0.48642 0.24540
# Poissons Ratio (z) = 0.43840 0.51506
#
# Static dielectric constant tensor:
#      x y z
#    x 3.242240 0.000000 0.000000 
#    y 0.000000 2.883040 0.000000 
#    z 0.000000 0.000000 2.837560 
# 
# 
# High freq. dielectric constant tensor:
#      x y z
#    x 1.609870 0.000000 0.000000 
#    y 0.000000 1.584500 0.000000 
#    z 0.000000 0.000000 1.591860 
# 
# From -- ./inp_files/8748.got.cif
#   From: 2010.03.12/outbox.cif.g09.slc.cpg/sg57_5_cif.got.tgz:8748.got - 2010.04.16 15:48:40.
