data_PCOD8230179
_publ_section_title
;
Structure prediction by ZEFSAII (Michael W. Deem and Ramdas Pophale) SiO2 
 PCOD8230179
Probable space group: P B C M
;
_chemical_formula_sum "Si O2"
_cell_formula_units_Z 48
_cell_length_a 16.306836
_cell_length_b 18.492072
_cell_length_c 8.639166
_cell_angle_alpha 90.000000
_cell_angle_beta 90.000000
_cell_angle_gamma 90.000000
_cell_volume 2605.116192
_symmetry_space_group_name_H-M "P B C M"
_symmetry_group_IT_number 57
_symmetry_cell_setting 'orthorhombic'
loop_
_space_group_symop_operation_xyz
x,y,z
-x,-y,1/2+z
x,1/2-y,-z
-x,1/2+y,1/2-z
-x,-y,-z
x,y,1/2-z
-x,1/2+y,z
x,1/2-y,1/2+z
loop_
_atom_site_type_symbol
_atom_site_label
_atom_site_fract_x
_atom_site_fract_y
_atom_site_fract_z
Si Si1 0.734096 0.460664 0.430234
Si Si2 0.824626 0.601243 0.431121
Si Si3 0.659748 0.827470 0.566141
Si Si4 0.157870 0.672387 0.568475
Si Si5 0.418239 0.466860 0.431744
Si Si6 0.988077 0.829033 0.565978
O O1 0.710127 0.468210 0.250000
O O2 0.805436 0.518154 0.472085
O O3 0.767676 0.381410 0.470910
O O4 0.654357 0.476630 0.531451
O O5 0.829256 0.613938 0.250000
O O6 0.751124 0.652165 0.495128
O O7 0.913206 0.622417 0.500771
O O8 0.633323 0.750000 0.500000
O O9 0.655607 0.825868 0.750000
O O10 0.597032 0.888444 0.507050
O O11 0.181468 0.750000 0.500000
O O12 0.143874 0.680075 0.750000
O O13 0.074384 0.640255 0.495717
O O14 0.500000 0.500000 0.500000
O O15 0.426981 0.456783 0.250000
O O16 0.973734 0.750000 0.500000
O O17 0.990878 0.826997 0.750000
#
# Coordination Sequence:
#
# PCOD8230179 Si02
#       6
#     8   8   8   8   8   8
#     4   9  19  37  56  75 101 134 171 213 265 318
#     4   8  16  30  49  73 103 137 172 213 259 307
#     4  10  19  34  55  81 113 145 178 216 260 311
#     4  10  20  34  52  72 100 137 176 219 263 307
#     4  11  22  38  60  84 109 138 172 213 264 319
#     4  10  18  29  46  69 100 137 176 216 256 301
#
# _framework density 18.425280999999998
#
# number of rings (size 3 to 8) (size 9 to 14) (size 15 to 20)
#    0.000    2.333    0.000    5.500    0.000    2.000 
#    0.000    8.333    0.000    2.000    0.000    0.000 
#    0.000    0.000    0.000    0.000    0.000    0.000 
#
# Total GULP energy -595117.811116 kJ/mol
# GULP energy per Si atom -12398.287732 kJ/mol
# Density = 1.838334 g / cm^3
# Si number density = 18.425281 Si / 1000 Ang^3
#
#
#
# Elastic Constant Matrix: (Units=GPa)
#
#
# Indices 1 2 3 4 5 6 
#
# 1 99.6282 68.6541 41.3263 0.0000 0.0000 0.0000
# 2 68.6541 118.4302 45.4888 0.0000 0.0000 0.0000
# 3 41.3263 45.4888 94.7642 0.0000 0.0000 0.0000
# 4 0.0000 0.0000 0.0000 28.3751 0.0000 0.0000
# 5 0.0000 0.0000 0.0000 0.0000 27.8679 0.0000
# 6 0.0000 0.0000 0.0000 0.0000 0.0000 27.9368
#
#
#
# Elastic Compliance Matrix: (Units=1/GPa)
#
#
# Indices 1 2 3 4 5 6 
#
# 1 0.017564 -0.008876 -0.003399 0.000000 0.000000 0.000000
# 2 -0.008876 0.014838 -0.003252 0.000000 0.000000 0.000000
# 3 -0.003399 -0.003252 0.013596 0.000000 0.000000 0.000000
# 4 0.000000 0.000000 0.000000 0.035242 0.000000 0.000000
# 5 0.000000 0.000000 0.000000 0.000000 0.035884 0.000000
# 6 0.000000 0.000000 0.000000 0.000000 0.000000 0.035795
#
#
# Mechanical properties :
#
#
# Convention : Reuss Voigt Hill
#
# Bulk Modulus (GPa) = 66.91575 69.30679 68.11127
# Shear Modulus (GPa) = 26.46151 27.32619 26.89385
#
# Velocity S-wave (km/s) = 3.79377 3.85526 3.82464
# Velocity P-wave (km/s) = 7.45563 7.58380 7.51999
#
# Compressibility (1/GPa) = 0.01494416
#
# Stress axis : x y z
#
# Youngs Moduli (GPa) = 56.93518 67.39251 73.55319
#
# Poissons Ratio (x) = 0.59820 0.24998
# Poissons Ratio (y) = 0.50538 0.23918
# Poissons Ratio (z) = 0.19350 0.21915
#
# Static dielectric constant tensor:
#      x y z
#    x 3.562850 0.000000 0.000000 
#    y 0.000000 3.406790 0.000000 
#    z 0.000000 0.000000 3.326670 
# 
# 
# High freq. dielectric constant tensor:
#      x y z
#    x 1.707850 0.000000 0.000000 
#    y 0.000000 1.712650 0.000000 
#    z 0.000000 0.000000 1.711380 
# 
# From -- ./inp_files/6700.got.cif
#   From: 2010.03.12/outbox.cif.g09.slc.cpg/sg57_4_cif.got.tgz:6700.got - 2010.04.16 15:48:40.
