data_PCOD8230264
_publ_section_title
;
Structure prediction by ZEFSAII (Michael W. Deem and Ramdas Pophale) SiO2 
 PCOD8230264
Probable space group: P B C M
;
_chemical_formula_sum "Si O2"
_cell_formula_units_Z 56
_cell_length_a 22.512404
_cell_length_b 14.491186
_cell_length_c 8.821675
_cell_angle_alpha 90.000000
_cell_angle_beta 90.000000
_cell_angle_gamma 90.000000
_cell_volume 2877.907683
_symmetry_space_group_name_H-M "P B C M"
_symmetry_group_IT_number 57
_symmetry_cell_setting 'orthorhombic'
loop_
_space_group_symop_operation_xyz
x,y,z
-x,-y,1/2+z
x,1/2-y,-z
-x,1/2+y,1/2-z
-x,-y,-z
x,y,1/2-z
-x,1/2+y,z
x,1/2-y,1/2+z
loop_
_atom_site_type_symbol
_atom_site_label
_atom_site_fract_x
_atom_site_fract_y
_atom_site_fract_z
Si Si1 0.969633 0.154323 0.430580
Si Si2 0.531432 0.343905 0.927982
Si Si3 0.903683 0.655057 0.929164
Si Si4 0.396482 0.345223 0.571284
Si Si5 0.363912 0.972646 0.571701
Si Si6 0.140627 0.536925 0.071902
Si Si7 0.252483 0.850927 0.570089
O O1 0.946749 0.250000 0.500000
O O2 0.975673 0.161651 0.250000
O O3 0.921664 0.079102 0.484442
O O4 0.032823 0.128276 0.501446
O O5 0.534714 0.330402 0.750000
O O6 0.464328 0.363389 0.982690
O O7 0.573735 0.427316 0.980132
O O8 0.556063 0.250000 0.000000
O O9 0.911059 0.667563 0.750000
O O10 0.858358 0.571984 0.970271
O O11 0.878657 0.750000 0.000000
O O12 0.372638 0.250000 0.500000
O O13 0.390998 0.337859 0.750000
O O14 0.356600 0.429393 0.511395
O O15 0.361626 0.990818 0.750000
O O16 0.311322 0.905282 0.519456
O O17 0.144491 0.549430 0.250000
O O18 0.196832 0.590943 0.002151
O O19 0.252809 0.750000 0.500000
O O20 0.249247 0.841016 0.750000
#
# Coordination Sequence:
#
# PCOD8230264 Si02
#       7
#     8   8   8   8   8   8   8
#     4  10  18  30  49  75 104 133 165 203 249 301
#     4   9  18  31  49  77 107 137 170 210 258 307
#     4  10  19  33  51  73 101 131 165 207 252 300
#     4  10  20  34  53  76 105 136 171 213 258 307
#     4  10  20  34  53  76 105 138 173 211 255 302
#     4   9  19  34  52  73 101 136 170 205 250 297
#     4  10  21  38  57  78 104 135 169 209 252 298
#
# _framework density 19.458582
#
# number of rings (size 3 to 8) (size 9 to 14) (size 15 to 20)
#    0.000    2.286    0.000    3.857    0.000    1.714 
#    0.000    5.000    0.000    1.714    0.000    0.000 
#    0.000    0.000    0.000    0.000    0.000    0.000 
#
# Total GULP energy -694353.206750 kJ/mol
# GULP energy per Si atom -12399.164406 kJ/mol
# Density = 1.941429 g / cm^3
# Si number density = 19.458582 Si / 1000 Ang^3
#
#
#
# Elastic Constant Matrix: (Units=GPa)
#
#
# Indices 1 2 3 4 5 6 
#
# 1 73.8535 70.2579 27.6692 0.0000 0.0000 0.0000
# 2 70.2579 176.1152 46.2397 0.0000 0.0000 0.0000
# 3 27.6692 46.2397 58.3479 0.0000 0.0000 0.0000
# 4 0.0000 0.0000 0.0000 35.3345 0.0000 0.0000
# 5 0.0000 0.0000 0.0000 0.0000 16.8417 0.0000
# 6 0.0000 0.0000 0.0000 0.0000 0.0000 32.4261
#
#
#
# Elastic Compliance Matrix: (Units=1/GPa)
#
#
# Indices 1 2 3 4 5 6 
#
# 1 0.022735 -0.007878 -0.004538 0.000000 0.000000 0.000000
# 2 -0.007878 0.009900 -0.004110 0.000000 0.000000 0.000000
# 3 -0.004538 -0.004110 0.022547 0.000000 0.000000 0.000000
# 4 0.000000 0.000000 0.000000 0.028301 0.000000 0.000000
# 5 0.000000 0.000000 0.000000 0.000000 0.059376 0.000000
# 6 0.000000 0.000000 0.000000 0.000000 0.000000 0.030839
#
#
# Mechanical properties :
#
#
# Convention : Reuss Voigt Hill
#
# Bulk Modulus (GPa) = 45.18565 66.29447 55.74006
# Shear Modulus (GPa) = 23.35057 27.86379 25.60718
#
# Velocity S-wave (km/s) = 3.46788 3.78822 3.63158
# Velocity P-wave (km/s) = 6.26951 7.29915 6.80384
#
# Compressibility (1/GPa) = 0.02213092
#
# Stress axis : x y z
#
# Youngs Moduli (GPa) = 43.98465 101.00991 44.35138
#
# Poissons Ratio (x) = 0.79579 0.20126
# Poissons Ratio (y) = 0.34653 0.18227
# Poissons Ratio (z) = 0.19959 0.41511
#
# Static dielectric constant tensor:
#      x y z
#    x 3.570860 0.000000 0.000000 
#    y 0.000000 3.689530 0.000000 
#    z 0.000000 0.000000 3.346660 
# 
# 
# High freq. dielectric constant tensor:
#      x y z
#    x 1.738200 0.000000 0.000000 
#    y 0.000000 1.773120 0.000000 
#    z 0.000000 0.000000 1.743360 
# 
# From -- ./inp_files/8100.got.cif
#   From: 2010.03.12/outbox.cif.g09.slc.cpg/sg57_5_cif.got.tgz:8100.got - 2010.04.16 15:48:40.
