data_PCOD8230423
_publ_section_title
;
Structure prediction by ZEFSAII (Michael W. Deem and Ramdas Pophale) SiO2 
 PCOD8230423
Probable space group: P B C M
;
_chemical_formula_sum "Si O2"
_cell_formula_units_Z 64
_cell_length_a 9.487361
_cell_length_b 19.780185
_cell_length_c 19.124904
_cell_angle_alpha 90.000000
_cell_angle_beta 90.000000
_cell_angle_gamma 90.000000
_cell_volume 3589.013063
_symmetry_space_group_name_H-M "P B C M"
_symmetry_group_IT_number 57
_symmetry_cell_setting 'orthorhombic'
loop_
_space_group_symop_operation_xyz
x,y,z
-x,-y,1/2+z
x,1/2-y,-z
-x,1/2+y,1/2-z
-x,-y,-z
x,y,1/2-z
-x,1/2+y,z
x,1/2-y,1/2+z
loop_
_atom_site_type_symbol
_atom_site_label
_atom_site_fract_x
_atom_site_fract_y
_atom_site_fract_z
Si Si1 0.391194 0.069983 0.438921
Si Si2 0.792138 0.276056 0.609450
Si Si3 0.151322 0.847742 0.472649
Si Si4 0.525831 0.203233 0.669052
Si Si5 0.326196 0.180039 0.170758
Si Si6 0.582477 0.081258 0.930822
Si Si7 0.929868 0.935923 0.964813
Si Si8 0.979130 0.866798 0.828214
O O1 0.400374 0.123944 0.377221
O O2 0.498581 0.094217 0.497874
O O3 0.237169 0.064860 0.474408
O O4 0.435443 0.996731 0.407370
O O5 0.875095 0.208231 0.586721
O O6 0.762478 0.318744 0.539273
O O7 0.648002 0.254938 0.646284
O O8 0.885387 0.319226 0.663058
O O9 0.250332 0.907076 0.442252
O O10 0.996294 0.871765 0.495038
O O11 0.543639 0.184166 0.750000
O O12 0.381473 0.244354 0.653996
O O13 0.523487 0.132967 0.627039
O O14 0.366383 0.160569 0.250000
O O15 0.158451 0.179717 0.159004
O O16 0.974111 0.929502 0.882726
O O17 0.000000 0.000000 0.000000
O O18 0.980805 0.897548 0.750000
#
# Coordination Sequence:
#
# PCOD8230423 Si02
#       8
#     8   8   8   8   8   8   8   8
#     4  10  20  33  52  75  99 134 169 206 252 299
#     4   9  17  29  50  74 102 128 166 206 253 300
#     4   9  17  30  48  75 101 131 162 211 251 290
#     4  10  20  34  52  74 102 135 168 210 255 300
#     4   9  19  34  51  73 100 131 168 208 252 300
#     4  10  20  33  50  74 102 131 170 207 251 300
#     4  10  18  32  53  73 101 133 168 206 248 297
#     4   9  18  32  51  74 100 132 168 209 250 297
#
# _framework density 17.832201000000001
#
# number of rings (size 3 to 8) (size 9 to 14) (size 15 to 20)
#    0.000    2.500    1.250    1.125    0.000    3.000 
#    0.000    2.500    0.000    0.750    0.000    0.000 
#    0.000    0.000    0.000    0.000    0.000    0.000 
#
# Total GULP energy -793346.358399 kJ/mol
# GULP energy per Si atom -12396.036850 kJ/mol
# Density = 1.779161 g / cm^3
# Si number density = 17.832201 Si / 1000 Ang^3
#
#
#
# Elastic Constant Matrix: (Units=GPa)
#
#
# Indices 1 2 3 4 5 6 
#
# 1 53.2899 24.2551 22.3907 0.0000 0.0000 0.0000
# 2 24.2551 82.2553 44.9620 0.0000 0.0000 0.0000
# 3 22.3907 44.9620 80.0710 0.0000 0.0000 0.0000
# 4 0.0000 0.0000 0.0000 30.9586 0.0000 0.0000
# 5 0.0000 0.0000 0.0000 0.0000 22.6597 0.0000
# 6 0.0000 0.0000 0.0000 0.0000 0.0000 24.2539
#
#
#
# Elastic Compliance Matrix: (Units=1/GPa)
#
#
# Indices 1 2 3 4 5 6 
#
# 1 0.022404 -0.004591 -0.003687 0.000000 0.000000 0.000000
# 2 -0.004591 0.018482 -0.009094 0.000000 0.000000 0.000000
# 3 -0.003687 -0.009094 0.018627 0.000000 0.000000 0.000000
# 4 0.000000 0.000000 0.000000 0.032301 0.000000 0.000000
# 5 0.000000 0.000000 0.000000 0.000000 0.044131 0.000000
# 6 0.000000 0.000000 0.000000 0.000000 0.000000 0.041231
#
#
# Mechanical properties :
#
#
# Convention : Reuss Voigt Hill
#
# Bulk Modulus (GPa) = 40.37459 44.31464 42.34462
# Shear Modulus (GPa) = 22.70901 23.84166 23.27533
#
# Velocity S-wave (km/s) = 3.57246 3.66047 3.61673
# Velocity P-wave (km/s) = 6.30136 6.53990 6.42174
#
# Compressibility (1/GPa) = 0.02476805
#
# Stress axis : x y z
#
# Youngs Moduli (GPa) = 44.63473 54.10597 53.68634
#
# Poissons Ratio (x) = 0.24840 0.19794
# Poissons Ratio (y) = 0.20492 0.48825
# Poissons Ratio (z) = 0.16457 0.49206
#
# Static dielectric constant tensor:
#      x y z
#    x 3.308700 0.000000 0.000000 
#    y 0.000000 3.304330 0.000000 
#    z 0.000000 0.000000 3.292710 
# 
# 
# High freq. dielectric constant tensor:
#      x y z
#    x 1.687730 0.000000 0.000000 
#    y 0.000000 1.683980 0.000000 
#    z 0.000000 0.000000 1.684750 
# 
# From -- ./inp_files/24680.got.cif
#   From: 2010.03.12/outbox.cif.g09.slc.cpg/sg57_13_cif.got.tgz:24680.got - 2010.04.16 15:48:40.
