data_PCOD8230150
_publ_section_title
;
Structure prediction by ZEFSAII (Michael W. Deem and Ramdas Pophale) SiO2 
 PCOD8230150
Probable space group: P B C M
;
_chemical_formula_sum "Si O2"
_cell_formula_units_Z 60
_cell_length_a 23.486137
_cell_length_b 14.725623
_cell_length_c 9.613390
_cell_angle_alpha 90.000000
_cell_angle_beta 90.000000
_cell_angle_gamma 90.000000
_cell_volume 3324.771697
_symmetry_space_group_name_H-M "P B C M"
_symmetry_group_IT_number 57
_symmetry_cell_setting 'orthorhombic'
loop_
_space_group_symop_operation_xyz
x,y,z
-x,-y,1/2+z
x,1/2-y,-z
-x,1/2+y,1/2-z
-x,-y,-z
x,y,1/2-z
-x,1/2+y,z
x,1/2-y,1/2+z
loop_
_atom_site_type_symbol
_atom_site_label
_atom_site_fract_x
_atom_site_fract_y
_atom_site_fract_z
Si Si1 0.541895 0.662817 0.087199
Si Si2 0.009505 0.879517 0.896229
Si Si3 0.156180 0.091937 0.591261
Si Si4 0.278518 0.162084 0.589328
Si Si5 0.615973 0.965548 0.410723
Si Si6 0.077358 0.250000 0.000000
Si Si7 0.916732 0.032678 0.595218
Si Si8 0.408074 0.666815 0.407281
O O1 0.559486 0.672449 0.250000
O O2 0.474870 0.650946 0.070019
O O3 0.563766 0.750000 0.000000
O O4 0.569991 0.574726 0.017552
O O5 0.043107 0.877776 0.750000
O O6 0.965245 0.797173 0.892973
O O7 0.058033 0.878216 0.016396
O O8 0.970928 0.968602 0.900423
O O9 0.157513 0.056612 0.750000
O O10 0.218308 0.122066 0.539366
O O11 0.115320 0.178957 0.584312
O O12 0.135158 0.011559 0.490755
O O13 0.295403 0.250000 0.500000
O O14 0.275790 0.192232 0.750000
O O15 0.324022 0.082960 0.564399
O O16 0.595238 0.953686 0.250000
O O17 0.623357 0.072487 0.445501
O O18 0.895026 0.058143 0.750000
O O19 0.384936 0.750000 0.500000
O O20 0.394895 0.695275 0.250000
#
# Coordination Sequence:
#
# PCOD8230150 Si02
#       8
#     8   8   8   8   8   4   8   8
#     4  10  19  31  49  74 105 141 176 211 260 316
#     4   9  17  28  43  66  93 122 153 187 232 281
#     4  10  19  32  49  69  95 128 164 200 240 290
#     4  10  21  35  51  73 102 136 172 210 254 305
#     4  10  20  34  51  74 105 138 174 217 265 313
#     4  10  18  28  48  72  98 126 160 196 236 280
#     4   9  18  30  45  65  91 122 155 193 232 277
#     4   9  19  34  52  75 102 133 172 220 267 316
#
# _framework density 18.046351000000001
#
# number of rings (size 3 to 8) (size 9 to 14) (size 15 to 20)
#    0.000    2.400    0.667    2.000    0.000    7.467 
#    0.000    0.000    0.000    0.000    1.733    0.000 
#    0.000    0.000    0.000    0.000    0.000    0.000 
#
# Total GULP energy -743646.893099 kJ/mol
# GULP energy per Si atom -12394.114885 kJ/mol
# Density = 1.800528 g / cm^3
# Si number density = 18.046351 Si / 1000 Ang^3
#
#
#
# Elastic Constant Matrix: (Units=GPa)
#
#
# Indices 1 2 3 4 5 6 
#
# 1 61.7759 52.5826 41.4476 0.0000 0.0000 0.0000
# 2 52.5826 94.3052 55.3007 0.0000 0.0000 0.0000
# 3 41.4476 55.3007 113.8817 0.0000 0.0000 0.0000
# 4 0.0000 0.0000 0.0000 21.7383 0.0000 0.0000
# 5 0.0000 0.0000 0.0000 0.0000 20.5187 0.0000
# 6 0.0000 0.0000 0.0000 0.0000 0.0000 -1.1417
#
#
#
# Elastic Compliance Matrix: (Units=1/GPa)
#
#
# Indices 1 2 3 4 5 6 
#
# 1 0.032181 -0.015485 -0.004193 0.000000 0.000000 0.000000
# 2 -0.015485 0.022276 -0.005182 0.000000 0.000000 0.000000
# 3 -0.004193 -0.005182 0.012823 0.000000 0.000000 0.000000
# 4 0.000000 0.000000 0.000000 0.046002 0.000000 0.000000
# 5 0.000000 0.000000 0.000000 0.000000 0.048736 0.000000
# 6 0.000000 0.000000 0.000000 0.000000 0.000000 -0.875900
#
#
# Mechanical properties :
#
#
# Convention : Reuss Voigt Hill
#
# Bulk Modulus (GPa) = 56.94127 63.18052 60.06089
# Shear Modulus (GPa) = -7.59523 16.26519 4.33498
#
# Velocity S-wave (km/s) = -2.05375 3.00542 1.55156
# Velocity P-wave (km/s) = 5.09877 6.86510 6.04678
#
# Compressibility (1/GPa) = 0.01756196
#
# Stress axis : x y z
#
# Youngs Moduli (GPa) = 31.07408 44.89072 77.98290
#
# Poissons Ratio (x) = 0.69512 0.32699
# Poissons Ratio (y) = 0.48117 0.40408
# Poissons Ratio (z) = 0.13030 0.23261
#
# Static dielectric constant tensor:
#      x y z
#    x 3.140140 0.000000 0.000000 
#    y 0.000000 3.466240 0.000000 
#    z 0.000000 0.000000 3.540770 
# 
# 
# High freq. dielectric constant tensor:
#      x y z
#    x 1.670790 0.000000 0.000000 
#    y 0.000000 1.682200 0.000000 
#    z 0.000000 0.000000 1.709410 
# 
# From -- ./inp_files/9246.got.cif
#   From: 2010.03.12/outbox.cif.g09.slc.cpg/sg57_5_cif.got.tgz:9246.got - 2010.04.16 15:48:40.
