data_PCOD8230923
_publ_section_title
;
Structure prediction by ZEFSAII (Michael W. Deem and Ramdas Pophale) SiO2 
 PCOD8230923
Probable space group: P B C M
;
_chemical_formula_sum "Si O2"
_cell_formula_units_Z 64
_cell_length_a 17.647442
_cell_length_b 9.371451
_cell_length_c 18.376796
_cell_angle_alpha 90.000000
_cell_angle_beta 90.000000
_cell_angle_gamma 90.000000
_cell_volume 3039.193812
_symmetry_space_group_name_H-M "P B C M"
_symmetry_group_IT_number 57
_symmetry_cell_setting 'orthorhombic'
loop_
_space_group_symop_operation_xyz
x,y,z
-x,-y,1/2+z
x,1/2-y,-z
-x,1/2+y,1/2-z
-x,-y,-z
x,y,1/2-z
-x,1/2+y,z
x,1/2-y,1/2+z
loop_
_atom_site_type_symbol
_atom_site_label
_atom_site_fract_x
_atom_site_fract_y
_atom_site_fract_z
Si Si1 0.844187 0.277718 0.332599
Si Si2 0.933205 0.596112 0.027153
Si Si3 0.287866 0.518475 0.663785
Si Si4 0.425089 0.021445 0.663343
Si Si5 0.144976 0.020469 0.604806
Si Si6 0.280975 0.302743 0.163582
Si Si7 0.022107 0.974518 0.167271
Si Si8 0.430371 0.802960 0.336760
O O1 0.823333 0.235405 0.250000
O O2 0.790400 0.405770 0.359787
O O3 0.932352 0.324190 0.338321
O O4 0.827947 0.140183 0.381512
O O5 0.931058 0.584720 0.115009
O O6 0.955285 0.750000 0.000000
O O7 0.858607 0.543548 0.982927
O O8 0.000000 0.500000 0.000000
O O9 0.294168 0.508998 0.750000
O O10 0.290405 0.357721 0.632065
O O11 0.357586 0.611672 0.632989
O O12 0.426012 0.018457 0.750000
O O13 0.348984 0.097714 0.634417
O O14 0.495722 0.114044 0.634169
O O15 0.429490 0.859447 0.633013
O O16 0.201890 0.136005 0.636190
O O17 0.064112 0.049074 0.643556
O O18 0.280669 0.300640 0.250000
O O19 0.025952 0.033751 0.250000
O O20 0.429868 0.799159 0.250000
#
# Coordination Sequence:
#
# PCOD8230923 Si02
#       8
#     8   8   8   8   8   8   8   8
#     4  10  21  36  55  83 113 154 202 250 302 357
#     4  10  25  43  63  88 117 155 197 249 305 366
#     4   9  18  30  46  70 109 151 198 252 305 357
#     4   9  16  25  42  67 103 148 200 248 301 360
#     4  11  23  37  58  81 116 152 195 250 305 367
#     4  10  19  31  48  76 110 150 196 253 309 357
#     4  10  23  40  63  88 117 154 205 253 301 362
#     4   9  15  25  41  64  99 150 198 244 299 361
#
# _framework density 21.058216999999999
#
# number of rings (size 3 to 8) (size 9 to 14) (size 15 to 20)
#    0.000    2.250    0.000    2.625    8.750    5.000 
#    0.000    0.625    0.000    0.000    0.000    0.000 
#    0.000    1.000    0.750    0.250    0.250    4.000 
#
# Total GULP energy -793288.280064 kJ/mol
# GULP energy per Si atom -12395.129376 kJ/mol
# Density = 2.101029 g / cm^3
# Si number density = 21.058217 Si / 1000 Ang^3
#
#
#
# Elastic Constant Matrix: (Units=GPa)
#
#
# Indices 1 2 3 4 5 6 
#
# 1 139.6985 79.2911 26.7885 0.0000 0.0000 0.0000
# 2 79.2911 199.2807 37.0308 0.0000 0.0000 0.0000
# 3 26.7885 37.0308 72.0959 0.0000 0.0000 0.0000
# 4 0.0000 0.0000 0.0000 17.5418 0.0000 0.0000
# 5 0.0000 0.0000 0.0000 0.0000 12.8212 0.0000
# 6 0.0000 0.0000 0.0000 0.0000 0.0000 36.2317
#
#
#
# Elastic Compliance Matrix: (Units=1/GPa)
#
#
# Indices 1 2 3 4 5 6 
#
# 1 0.009441 -0.003432 -0.001745 0.000000 0.000000 0.000000
# 2 -0.003432 0.006795 -0.002215 0.000000 0.000000 0.000000
# 3 -0.001745 -0.002215 0.015657 0.000000 0.000000 0.000000
# 4 0.000000 0.000000 0.000000 0.057007 0.000000 0.000000
# 5 0.000000 0.000000 0.000000 0.000000 0.077996 0.000000
# 6 0.000000 0.000000 0.000000 0.000000 0.000000 0.027600
#
#
# Mechanical properties :
#
#
# Convention : Reuss Voigt Hill
#
# Bulk Modulus (GPa) = 58.45121 77.47731 67.96426
# Shear Modulus (GPa) = 23.25771 31.18325 27.22048
#
# Velocity S-wave (km/s) = 3.32693 3.85231 3.59922
# Velocity P-wave (km/s) = 6.52496 7.52721 7.04393
#
# Compressibility (1/GPa) = 0.01710829
#
# Stress axis : x y z
#
# Youngs Moduli (GPa) = 105.92147 147.16162 63.87112
#
# Poissons Ratio (x) = 0.50508 0.11146
# Poissons Ratio (y) = 0.36354 0.14147
# Poissons Ratio (z) = 0.18484 0.32596
#
# Static dielectric constant tensor:
#      x y z
#    x 3.881120 0.000000 0.000000 
#    y 0.000000 4.049510 0.000000 
#    z 0.000000 0.000000 4.696310 
# 
# 
# High freq. dielectric constant tensor:
#      x y z
#    x 1.824430 0.000000 0.000000 
#    y 0.000000 1.841070 0.000000 
#    z 0.000000 0.000000 1.768650 
# 
# From -- ./inp_files/25612.got.cif
#   From: 2010.03.12/outbox.cif.g09.slc.cpg/sg57_13_cif.got.tgz:25612.got - 2010.04.16 15:48:40.
