data_PCOD8230826
_publ_section_title
;
Structure prediction by ZEFSAII (Michael W. Deem and Ramdas Pophale) SiO2 
 PCOD8230826
Probable space group: P B C M
;
_chemical_formula_sum "Si O2"
_cell_formula_units_Z 40
_cell_length_a 7.918802
_cell_length_b 28.843264
_cell_length_c 9.143129
_cell_angle_alpha 90.000000
_cell_angle_beta 90.000000
_cell_angle_gamma 90.000000
_cell_volume 2088.328120
_symmetry_space_group_name_H-M "P B C M"
_symmetry_group_IT_number 57
_symmetry_cell_setting 'orthorhombic'
loop_
_space_group_symop_operation_xyz
x,y,z
-x,-y,1/2+z
x,1/2-y,-z
-x,1/2+y,1/2-z
-x,-y,-z
x,y,1/2-z
-x,1/2+y,z
x,1/2-y,1/2+z
loop_
_atom_site_type_symbol
_atom_site_label
_atom_site_fract_x
_atom_site_fract_y
_atom_site_fract_z
Si Si1 0.314545 0.145709 0.420574
Si Si2 0.839802 0.949226 0.918102
Si Si3 0.682988 0.362654 0.922618
Si Si4 0.813856 0.447807 0.418705
Si Si5 0.994889 0.201173 0.424162
O O1 0.297561 0.153706 0.250000
O O2 0.290421 0.091434 0.458676
O O3 0.503167 0.159892 0.473179
O O4 0.166351 0.177716 0.488608
O O5 0.903199 0.944425 0.750000
O O6 0.751096 0.999133 0.942364
O O7 0.996676 0.943034 0.024343
O O8 0.684634 0.370211 0.750000
O O9 0.836462 0.330268 0.973617
O O10 0.693085 0.413274 0.994224
O O11 0.810853 0.433603 0.250000
O O12 0.970994 0.250000 0.500000
O O13 0.997348 0.207322 0.250000
#
# Coordination Sequence:
#
# PCOD8230826 Si02
#       5
#     8   8   8   8   8
#     4   9  18  35  58  80 103 140 184 215 255 321
#     4   9  17  33  54  77 109 147 183 219 261 315
#     4  10  20  36  58  79 106 145 180 213 262 323
#     4  10  19  30  51  82 113 143 179 222 264 308
#     4  10  21  38  58  79 104 136 176 221 270 321
#
# _framework density 19.154078999999999
#
# number of rings (size 3 to 8) (size 9 to 14) (size 15 to 20)
#    0.000    2.400    2.000    0.600    0.000    3.200 
#    0.000    2.000    0.000    0.000    0.000    0.000 
#    0.000    0.000    0.000    0.000    0.000    0.000 
#
# Total GULP energy -495804.619225 kJ/mol
# GULP energy per Si atom -12395.115481 kJ/mol
# Density = 1.911048 g / cm^3
# Si number density = 19.154079 Si / 1000 Ang^3
#
#
#
# Elastic Constant Matrix: (Units=GPa)
#
#
# Indices 1 2 3 4 5 6 
#
# 1 131.3028 57.3939 26.3975 0.0000 0.0000 0.0000
# 2 57.3939 112.9491 32.1909 0.0000 0.0000 0.0000
# 3 26.3975 32.1909 32.8681 0.0000 0.0000 0.0000
# 4 0.0000 0.0000 0.0000 32.1604 0.0000 0.0000
# 5 0.0000 0.0000 0.0000 0.0000 12.1794 0.0000
# 6 0.0000 0.0000 0.0000 0.0000 0.0000 15.3126
#
#
#
# Elastic Compliance Matrix: (Units=1/GPa)
#
#
# Indices 1 2 3 4 5 6 
#
# 1 0.010216 -0.003957 -0.004329 0.000000 0.000000 0.000000
# 2 -0.003957 0.013815 -0.010352 0.000000 0.000000 0.000000
# 3 -0.004329 -0.010352 0.044040 0.000000 0.000000 0.000000
# 4 0.000000 0.000000 0.000000 0.031094 0.000000 0.000000
# 5 0.000000 0.000000 0.000000 0.000000 0.082106 0.000000
# 6 0.000000 0.000000 0.000000 0.000000 0.000000 0.065306
#
#
# Mechanical properties :
#
#
# Convention : Reuss Voigt Hill
#
# Bulk Modulus (GPa) = 32.47347 56.56494 44.51920
# Shear Modulus (GPa) = 16.99999 22.67299 19.83649
#
# Velocity S-wave (km/s) = 2.98239 3.44425 3.22161
# Velocity P-wave (km/s) = 5.37123 6.73890 6.09356
#
# Compressibility (1/GPa) = 0.03079437
#
# Stress axis : x y z
#
# Youngs Moduli (GPa) = 97.88430 72.38632 22.70664
#
# Poissons Ratio (x) = 0.28646 0.09830
# Poissons Ratio (y) = 0.38737 0.23505
# Poissons Ratio (z) = 0.42375 0.74933
#
# Static dielectric constant tensor:
#      x y z
#    x 3.711590 0.000000 0.000000 
#    y 0.000000 3.608280 0.000000 
#    z 0.000000 0.000000 3.263310 
# 
# 
# High freq. dielectric constant tensor:
#      x y z
#    x 1.742010 0.000000 0.000000 
#    y 0.000000 1.746250 0.000000 
#    z 0.000000 0.000000 1.717760 
# 
# From -- ./inp_files/1720.got.cif
#   From: 2010.03.12/outbox.cif.g09.slc.cpg/sg57_1_cif.got.tgz:1720.got - 2010.04.16 15:48:40.
