data_PCOD8230295
_publ_section_title
;
Structure prediction by ZEFSAII (Michael W. Deem and Ramdas Pophale) SiO2 
 PCOD8230295
Probable space group: P B C M
;
_chemical_formula_sum "Si O2"
_cell_formula_units_Z 48
_cell_length_a 12.228439
_cell_length_b 10.150928
_cell_length_c 21.878042
_cell_angle_alpha 90.000000
_cell_angle_beta 90.000000
_cell_angle_gamma 90.000000
_cell_volume 2715.721438
_symmetry_space_group_name_H-M "P B C M"
_symmetry_group_IT_number 57
_symmetry_cell_setting 'orthorhombic'
loop_
_space_group_symop_operation_xyz
x,y,z
-x,-y,1/2+z
x,1/2-y,-z
-x,1/2+y,1/2-z
-x,-y,-z
x,y,1/2-z
-x,1/2+y,z
x,1/2-y,1/2+z
loop_
_atom_site_type_symbol
_atom_site_label
_atom_site_fract_x
_atom_site_fract_y
_atom_site_fract_z
Si Si1 0.892723 0.453463 0.750000
Si Si2 0.421028 0.486775 0.321060
Si Si3 0.613002 0.683332 0.320063
Si Si4 0.796047 0.010625 0.379324
Si Si5 0.978497 0.375762 0.958592
Si Si6 0.961126 0.778397 0.250000
Si Si7 0.161911 0.222849 0.126696
O O1 0.822148 0.484290 0.691749
O O2 0.989977 0.565051 0.750000
O O3 0.927082 0.302085 0.750000
O O4 0.388068 0.517267 0.250000
O O5 0.528963 0.568469 0.338196
O O6 0.438867 0.329395 0.329357
O O7 0.334046 0.535102 0.373379
O O8 0.650076 0.667380 0.250000
O O9 0.718073 0.660400 0.363800
O O10 0.866123 0.113393 0.419143
O O11 0.824996 0.865701 0.405291
O O12 0.084653 0.366717 0.915306
O O13 0.960938 0.250000 0.000000
O O14 0.000000 0.500000 0.000000
O O15 0.892729 0.735900 0.308063
#
# Coordination Sequence:
#
# PCOD8230295 Si02
#       7
#     4   8   8   8   8   4   8
#     4  10  18  30  51  80 106 140 171 213 278 329
#     4   9  17  32  54  82 113 142 173 214 273 332
#     4   9  17  32  54  82 113 143 174 213 271 334
#     4  10  19  35  57  78 111 145 178 220 272 333
#     4  12  24  39  56  79 106 149 193 228 269 315
#     4  10  18  30  51  80 106 140 173 213 276 327
#     4  10  19  35  57  78 111 146 178 220 272 332
#
# _framework density 17.674861
#
# number of rings (size 3 to 8) (size 9 to 14) (size 15 to 20)
#    0.000    2.000    5.000    0.000    0.000    0.000 
#    3.000    0.000    0.000    2.000    0.000    0.000 
#    0.000    0.000    0.000    0.000    0.000    0.000 
#
# Total GULP energy -594669.038441 kJ/mol
# GULP energy per Si atom -12388.938301 kJ/mol
# Density = 1.763463 g / cm^3
# Si number density = 17.674861 Si / 1000 Ang^3
#
#
#
# Elastic Constant Matrix: (Units=GPa)
#
#
# Indices 1 2 3 4 5 6 
#
# 1 82.0568 27.9818 36.6234 0.0000 0.0000 0.0000
# 2 27.9818 67.0791 33.7057 0.0000 0.0000 0.0000
# 3 36.6234 33.7057 76.3518 0.0000 0.0000 0.0000
# 4 0.0000 0.0000 0.0000 26.7670 0.0000 0.0000
# 5 0.0000 0.0000 0.0000 0.0000 14.7266 0.0000
# 6 0.0000 0.0000 0.0000 0.0000 0.0000 32.4947
#
#
#
# Elastic Compliance Matrix: (Units=1/GPa)
#
#
# Indices 1 2 3 4 5 6 
#
# 1 0.016177 -0.003661 -0.006143 0.000000 0.000000 0.000000
# 2 -0.003661 0.019986 -0.007067 0.000000 0.000000 0.000000
# 3 -0.006143 -0.007067 0.019164 0.000000 0.000000 0.000000
# 4 0.000000 0.000000 0.000000 0.037359 0.000000 0.000000
# 5 0.000000 0.000000 0.000000 0.000000 0.067904 0.000000
# 6 0.000000 0.000000 0.000000 0.000000 0.000000 0.030774
#
#
# Mechanical properties :
#
#
# Convention : Reuss Voigt Hill
#
# Bulk Modulus (GPa) = 46.33046 46.90104 46.61575
# Shear Modulus (GPa) = 21.52375 23.27612 22.39994
#
# Velocity S-wave (km/s) = 3.49343 3.63286 3.56382
# Velocity P-wave (km/s) = 6.52239 6.64755 6.58527
#
# Compressibility (1/GPa) = 0.02158407
#
# Stress axis : x y z
#
# Youngs Moduli (GPa) = 61.81586 50.03528 52.18232
#
# Poissons Ratio (x) = 0.18320 0.32057
# Poissons Ratio (y) = 0.22633 0.36875
# Poissons Ratio (z) = 0.37975 0.35358
#
# Static dielectric constant tensor:
#      x y z
#    x 3.326530 0.000000 0.000000 
#    y 0.000000 3.376970 0.000000 
#    z 0.000000 0.000000 2.917860 
# 
# 
# High freq. dielectric constant tensor:
#      x y z
#    x 1.674490 0.000000 0.000000 
#    y 0.000000 1.680350 0.000000 
#    z 0.000000 0.000000 1.664100 
# 
# From -- ./inp_files/24970.got.cif
#   From: 2010.03.12/outbox.cif.g09.slc.cpg/sg57_13_cif.got.tgz:24970.got - 2010.04.16 15:48:40.
