data_PCOD8230747
_publ_section_title
;
Structure prediction by ZEFSAII (Michael W. Deem and Ramdas Pophale) SiO2 
 PCOD8230747
Probable space group: P B C M
;
_chemical_formula_sum "Si O2"
_cell_formula_units_Z 56
_cell_length_a 19.189446
_cell_length_b 18.394938
_cell_length_c 9.133285
_cell_angle_alpha 90.000000
_cell_angle_beta 90.000000
_cell_angle_gamma 90.000000
_cell_volume 3223.946120
_symmetry_space_group_name_H-M "P B C M"
_symmetry_group_IT_number 57
_symmetry_cell_setting 'orthorhombic'
loop_
_space_group_symop_operation_xyz
x,y,z
-x,-y,1/2+z
x,1/2-y,-z
-x,1/2+y,1/2-z
-x,-y,-z
x,y,1/2-z
-x,1/2+y,z
x,1/2-y,1/2+z
loop_
_atom_site_type_symbol
_atom_site_label
_atom_site_fract_x
_atom_site_fract_y
_atom_site_fract_z
Si Si1 0.733968 0.898418 0.923020
Si Si2 0.707729 0.174214 0.079315
Si Si3 0.140885 0.176277 0.924761
Si Si4 0.788011 0.034603 0.420178
Si Si5 0.443435 0.824771 0.919146
Si Si6 0.592908 0.826099 0.920241
Si Si7 0.066257 0.470316 0.082305
O O1 0.748684 0.892667 0.750000
O O2 0.654427 0.880356 0.965697
O O3 0.783684 0.842228 0.008425
O O4 0.745541 0.979856 0.978013
O O5 0.712649 0.191206 0.250000
O O6 0.766038 0.115796 0.033249
O O7 0.631128 0.138883 0.038496
O O8 0.722739 0.250000 0.000000
O O9 0.147535 0.185312 0.750000
O O10 0.087679 0.111270 0.966602
O O11 0.112732 0.250000 0.000000
O O12 0.770120 0.018305 0.250000
O O13 0.870143 0.025439 0.448226
O O14 0.441890 0.806234 0.750000
O O15 0.517193 0.864909 0.957236
O O16 0.446887 0.750000 0.000000
O O17 0.598111 0.807994 0.750000
O O18 0.602449 0.750000 0.000000
O O19 0.045267 0.469329 0.250000
O O20 0.000000 0.500000 0.000000
#
# Coordination Sequence:
#
# PCOD8230747 Si02
#       7
#     8   8   8   8   8   8   8
#     4  10  19  30  46  69  97 130 163 199 240 282
#     4   9  17  31  52  72  92 121 158 199 242 283
#     4  10  20  34  52  76 103 131 164 201 237 281
#     4   9  19  35  51  70  96 125 156 193 238 291
#     4   8  14  26  43  63  88 120 156 195 237 280
#     4   9  17  27  41  64  93 123 159 199 237 277
#     4   9  19  35  54  74  99 128 158 192 233 282
#
# _framework density 17.370017000000001
#
# number of rings (size 3 to 8) (size 9 to 14) (size 15 to 20)
#    0.000    2.857    0.000    2.143    0.000    5.714 
#    0.000    1.429    0.000    3.429    0.000    0.000 
#    0.000    0.000    0.000    0.000    0.000    0.000 
#
# Total GULP energy -693774.852328 kJ/mol
# GULP energy per Si atom -12388.836649 kJ/mol
# Density = 1.733048 g / cm^3
# Si number density = 17.370017 Si / 1000 Ang^3
#
#
#
# Elastic Constant Matrix: (Units=GPa)
#
#
# Indices 1 2 3 4 5 6 
#
# 1 133.0624 76.2848 46.9103 0.0000 0.0000 0.0000
# 2 76.2848 105.3239 42.4863 0.0000 0.0000 0.0000
# 3 46.9103 42.4863 53.2557 0.0000 0.0000 0.0000
# 4 0.0000 0.0000 0.0000 27.9169 0.0000 0.0000
# 5 0.0000 0.0000 0.0000 0.0000 25.8202 0.0000
# 6 0.0000 0.0000 0.0000 0.0000 0.0000 22.6248
#
#
#
# Elastic Compliance Matrix: (Units=1/GPa)
#
#
# Indices 1 2 3 4 5 6 
#
# 1 0.014164 -0.007706 -0.006329 0.000000 0.000000 0.000000
# 2 -0.007706 0.018192 -0.007726 0.000000 0.000000 0.000000
# 3 -0.006329 -0.007726 0.030516 0.000000 0.000000 0.000000
# 4 0.000000 0.000000 0.000000 0.035821 0.000000 0.000000
# 5 0.000000 0.000000 0.000000 0.000000 0.038729 0.000000
# 6 0.000000 0.000000 0.000000 0.000000 0.000000 0.044199
#
#
# Mechanical properties :
#
#
# Convention : Reuss Voigt Hill
#
# Bulk Modulus (GPa) = 51.67686 69.22277 60.44981
# Shear Modulus (GPa) = 21.58958 23.66975 22.62966
#
# Velocity S-wave (km/s) = 3.52933 3.69545 3.61335
# Velocity P-wave (km/s) = 6.81348 7.62541 7.23085
#
# Compressibility (1/GPa) = 0.01935102
#
# Stress axis : x y z
#
# Youngs Moduli (GPa) = 70.59943 54.96811 32.77018
#
# Poissons Ratio (x) = 0.42359 0.20740
# Poissons Ratio (y) = 0.54405 0.25317
# Poissons Ratio (z) = 0.44682 0.42466
#
# Static dielectric constant tensor:
#      x y z
#    x 3.599870 0.000000 0.000000 
#    y 0.000000 3.073300 0.000000 
#    z 0.000000 0.000000 3.255150 
# 
# 
# High freq. dielectric constant tensor:
#      x y z
#    x 1.676240 0.000000 0.000000 
#    y 0.000000 1.644410 0.000000 
#    z 0.000000 0.000000 1.674420 
# 
# From -- ./inp_files/8278.got.cif
#   From: 2010.03.12/outbox.cif.g09.slc.cpg/sg57_5_cif.got.tgz:8278.got - 2010.04.16 15:48:40.
