data_PCOD8230226
_publ_section_title
;
Structure prediction by ZEFSAII (Michael W. Deem and Ramdas Pophale) SiO2 
 PCOD8230226
Probable space group: P B C M
;
_chemical_formula_sum "Si O2"
_cell_formula_units_Z 56
_cell_length_a 17.809393
_cell_length_b 22.066788
_cell_length_c 8.701624
_cell_angle_alpha 90.000000
_cell_angle_beta 90.000000
_cell_angle_gamma 90.000000
_cell_volume 3419.704293
_symmetry_space_group_name_H-M "P B C M"
_symmetry_group_IT_number 57
_symmetry_cell_setting 'orthorhombic'
loop_
_space_group_symop_operation_xyz
x,y,z
-x,-y,1/2+z
x,1/2-y,-z
-x,1/2+y,1/2-z
-x,-y,-z
x,y,1/2-z
-x,1/2+y,z
x,1/2-y,1/2+z
loop_
_atom_site_type_symbol
_atom_site_label
_atom_site_fract_x
_atom_site_fract_y
_atom_site_fract_z
Si Si1 0.844231 0.184276 0.430874
Si Si2 0.262023 0.031156 0.430665
Si Si3 0.036944 0.913688 0.929953
Si Si4 0.565819 0.080931 0.926292
Si Si5 0.591021 0.547427 0.929802
Si Si6 0.711564 0.100014 0.430148
Si Si7 0.892688 0.541818 0.928830
O O1 0.852581 0.250000 0.500000
O O2 0.843860 0.190052 0.250000
O O3 0.914679 0.143789 0.484814
O O4 0.766665 0.153297 0.486547
O O5 0.272182 0.036279 0.250000
O O6 0.327535 0.071326 0.514458
O O7 0.182358 0.059096 0.479332
O O8 0.266647 0.961364 0.482990
O O9 0.019133 0.912272 0.750000
O O10 0.084050 0.973501 0.972478
O O11 0.958615 0.912340 0.021264
O O12 0.586388 0.093250 0.750000
O O13 0.477163 0.095862 0.957919
O O14 0.625270 0.119111 0.028995
O O15 0.575933 0.010388 0.963460
O O16 0.593249 0.528922 0.750000
O O17 0.721042 0.088070 0.250000
O O18 0.876319 0.549009 0.750000
#
# Coordination Sequence:
#
# PCOD8230226 Si02
#       7
#     8   8   8   8   8   8   8
#     4  10  21  35  49  66  90 119 153 193 231 271
#     4  11  19  26  41  64  89 118 152 184 220 269
#     4   9  18  33  47  64  89 115 149 188 230 274
#     4   9  16  25  38  58  81 111 148 181 213 256
#     4   9  16  25  37  55  84 116 145 178 215 253
#     4  10  18  30  44  60  85 117 150 187 228 265
#     4  10  18  30  47  66  90 117 149 186 229 278
#
# _framework density 16.375686000000002
#
# number of rings (size 3 to 8) (size 9 to 14) (size 15 to 20)
#    0.000    2.286    1.429    4.714    0.000    4.000 
#    0.000    0.000    0.000    0.000    0.000    0.000 
#    0.000    1.143    0.000    5.714    0.000    5.857 
#
# Total GULP energy -694028.187014 kJ/mol
# GULP energy per Si atom -12393.360482 kJ/mol
# Density = 1.633841 g / cm^3
# Si number density = 16.375686 Si / 1000 Ang^3
#
#
#
# Elastic Constant Matrix: (Units=GPa)
#
#
# Indices 1 2 3 4 5 6 
#
# 1 156.1633 45.1764 44.2109 0.0000 0.0000 0.0000
# 2 45.1764 54.6857 17.0002 0.0000 0.0000 0.0000
# 3 44.2109 17.0002 60.0884 0.0000 0.0000 0.0000
# 4 0.0000 0.0000 0.0000 16.6209 0.0000 0.0000
# 5 0.0000 0.0000 0.0000 0.0000 31.5841 0.0000
# 6 0.0000 0.0000 0.0000 0.0000 0.0000 15.5391
#
#
#
# Elastic Compliance Matrix: (Units=1/GPa)
#
#
# Indices 1 2 3 4 5 6 
#
# 1 0.009781 -0.006407 -0.005384 0.000000 0.000000 0.000000
# 2 -0.006407 0.024246 -0.002146 0.000000 0.000000 0.000000
# 3 -0.005384 -0.002146 0.021211 0.000000 0.000000 0.000000
# 4 0.000000 0.000000 0.000000 0.060165 0.000000 0.000000
# 5 0.000000 0.000000 0.000000 0.000000 0.031661 0.000000
# 6 0.000000 0.000000 0.000000 0.000000 0.000000 0.064354
#
#
# Mechanical properties :
#
#
# Convention : Reuss Voigt Hill
#
# Bulk Modulus (GPa) = 36.54350 53.74582 45.14466
# Shear Modulus (GPa) = 20.12776 23.71881 21.92329
#
# Velocity S-wave (km/s) = 3.50969 3.80994 3.66289
# Velocity P-wave (km/s) = 6.22801 7.22813 6.74663
#
# Compressibility (1/GPa) = 0.02736465
#
# Stress axis : x y z
#
# Youngs Moduli (GPa) = 102.23699 41.24396 47.14596
#
# Poissons Ratio (x) = 0.26423 0.25384
# Poissons Ratio (y) = 0.65499 0.10117
# Poissons Ratio (z) = 0.55046 0.08851
#
# Static dielectric constant tensor:
#      x y z
#    x 3.864620 0.000000 0.000000 
#    y 0.000000 9.497890 0.000000 
#    z 0.000000 0.000000 3.111040 
# 
# 
# High freq. dielectric constant tensor:
#      x y z
#    x 1.657270 0.000000 0.000000 
#    y 0.000000 1.544770 0.000000 
#    z 0.000000 0.000000 1.641260 
# 
# From -- ./inp_files/7010.got.cif
#   From: 2010.03.12/outbox.cif.g09.slc.cpg/sg57_4_cif.got.tgz:7010.got - 2010.04.16 15:48:40.
