data_PCOD8230010
_publ_section_title
;
Structure prediction by ZEFSAII (Michael W. Deem and Ramdas Pophale) SiO2 
 PCOD8230010
Probable space group: P B C M
;
_chemical_formula_sum "Si O2"
_cell_formula_units_Z 64
_cell_length_a 9.602647
_cell_length_b 25.773280
_cell_length_c 13.915410
_cell_angle_alpha 90.000000
_cell_angle_beta 90.000000
_cell_angle_gamma 90.000000
_cell_volume 3443.948614
_symmetry_space_group_name_H-M "P B C M"
_symmetry_group_IT_number 57
_symmetry_cell_setting 'orthorhombic'
loop_
_space_group_symop_operation_xyz
x,y,z
-x,-y,1/2+z
x,1/2-y,-z
-x,1/2+y,1/2-z
-x,-y,-z
x,y,1/2-z
-x,1/2+y,z
x,1/2-y,1/2+z
loop_
_atom_site_type_symbol
_atom_site_label
_atom_site_fract_x
_atom_site_fract_y
_atom_site_fract_z
Si Si1 0.257993 0.913096 0.048108
Si Si2 0.458109 0.454207 0.069514
Si Si3 0.866101 0.791624 0.141073
Si Si4 0.086195 0.325210 0.641098
Si Si5 0.241806 0.973335 0.644733
Si Si6 0.767136 0.876101 0.480214
Si Si7 0.867736 0.306773 0.014228
Si Si8 0.977541 0.556273 0.860967
O O1 0.271899 0.931559 0.937348
O O2 0.241683 0.850719 0.046977
O O3 0.399285 0.927480 0.106817
O O4 0.135405 0.944269 0.100937
O O5 0.357393 0.479954 0.148920
O O6 0.372846 0.409128 0.014971
O O7 0.500000 0.500000 0.000000
O O8 0.861772 0.811996 0.250000
O O9 0.837269 0.730385 0.136197
O O10 0.749042 0.821555 0.077682
O O11 0.018160 0.802465 0.097678
O O12 0.058510 0.343113 0.750000
O O13 0.188856 0.366331 0.590479
O O14 0.938975 0.324181 0.585797
O O15 0.245117 0.946477 0.750000
O O16 0.090021 0.999183 0.626813
O O17 0.894224 0.903181 0.425045
O O18 0.795290 0.250000 0.000000
O O19 0.974168 0.573746 0.750000
#
# Coordination Sequence:
#
# PCOD8230010 Si02
#       8
#     8   8   8   8   8   8   8   8
#     4  11  19  34  55  79 107 141 179 218 264 320
#     4   9  21  37  53  71 104 143 178 215 264 318
#     4   9  16  29  52  78 104 136 174 218 265 308
#     4   9  17  30  51  79 107 137 176 220 260 308
#     4   9  20  37  55  76 104 141 179 222 269 318
#     4  10  17  32  52  76 103 138 178 219 262 309
#     4   9  18  31  49  78 113 141 169 214 267 324
#     4  10  19  32  53  79 105 133 176 228 270 307
#
# _framework density 18.583320000000001
#
# number of rings (size 3 to 8) (size 9 to 14) (size 15 to 20)
#    0.000    2.500    2.500    1.875    0.000    1.500 
#    0.000    3.750    0.000    0.000    0.000    3.500 
#    0.000    0.000    0.000    0.000    0.000    0.000 
#
# Total GULP energy -793111.083711 kJ/mol
# GULP energy per Si atom -12392.360683 kJ/mol
# Density = 1.854102 g / cm^3
# Si number density = 18.583320 Si / 1000 Ang^3
#
#
#
# Elastic Constant Matrix: (Units=GPa)
#
#
# Indices 1 2 3 4 5 6 
#
# 1 101.5260 35.0962 14.3316 0.0000 0.0000 0.0000
# 2 35.0962 72.5277 12.1949 0.0000 0.0000 0.0000
# 3 14.3316 12.1949 98.2948 0.0000 0.0000 0.0000
# 4 0.0000 0.0000 0.0000 23.9827 0.0000 0.0000
# 5 0.0000 0.0000 0.0000 0.0000 7.3817 0.0000
# 6 0.0000 0.0000 0.0000 0.0000 0.0000 33.7200
#
#
#
# Elastic Compliance Matrix: (Units=1/GPa)
#
#
# Indices 1 2 3 4 5 6 
#
# 1 0.011933 -0.005598 -0.001045 0.000000 0.000000 0.000000
# 2 -0.005598 0.016708 -0.001257 0.000000 0.000000 0.000000
# 3 -0.001045 -0.001257 0.010482 0.000000 0.000000 0.000000
# 4 0.000000 0.000000 0.000000 0.041697 0.000000 0.000000
# 5 0.000000 0.000000 0.000000 0.000000 0.135470 0.000000
# 6 0.000000 0.000000 0.000000 0.000000 0.000000 0.029656
#
#
# Mechanical properties :
#
#
# Convention : Reuss Voigt Hill
#
# Bulk Modulus (GPa) = 42.87804 43.95489 43.41647
# Shear Modulus (GPa) = 18.55147 27.06524 22.80836
#
# Velocity S-wave (km/s) = 3.16299 3.82046 3.50717
# Velocity P-wave (km/s) = 6.03845 6.57004 6.30984
#
# Compressibility (1/GPa) = 0.02332196
#
# Stress axis : x y z
#
# Youngs Moduli (GPa) = 83.80452 59.85083 95.40367
#
# Poissons Ratio (x) = 0.33507 0.09972
# Poissons Ratio (y) = 0.46917 0.11989
# Poissons Ratio (z) = 0.08759 0.07521
#
# Static dielectric constant tensor:
#      x y z
#    x 3.375890 0.000000 0.000000 
#    y 0.000000 3.609480 0.000000 
#    z 0.000000 0.000000 3.410410 
# 
# 
# High freq. dielectric constant tensor:
#      x y z
#    x 1.683850 0.000000 0.000000 
#    y 0.000000 1.725580 0.000000 
#    z 0.000000 0.000000 1.717440 
# 
# From -- ./inp_files/17045.got.cif
#   From: 2010.03.12/outbox.cif.g09.slc.cpg/sg57_9_cif.got.tgz:17045.got - 2010.04.16 15:48:40.
