data_PCOD8230791
_publ_section_title
;
Structure prediction by ZEFSAII (Michael W. Deem and Ramdas Pophale) SiO2 
 PCOD8230791
Probable space group: P B C M
;
_chemical_formula_sum "Si O2"
_cell_formula_units_Z 64
_cell_length_a 15.301151
_cell_length_b 24.891508
_cell_length_c 8.540157
_cell_angle_alpha 90.000000
_cell_angle_beta 90.000000
_cell_angle_gamma 90.000000
_cell_volume 3252.678687
_symmetry_space_group_name_H-M "P B C M"
_symmetry_group_IT_number 57
_symmetry_cell_setting 'orthorhombic'
loop_
_space_group_symop_operation_xyz
x,y,z
-x,-y,1/2+z
x,1/2-y,-z
-x,1/2+y,1/2-z
-x,-y,-z
x,y,1/2-z
-x,1/2+y,z
x,1/2-y,1/2+z
loop_
_atom_site_type_symbol
_atom_site_label
_atom_site_fract_x
_atom_site_fract_y
_atom_site_fract_z
Si Si1 0.246003 0.500507 0.572437
Si Si2 0.774110 0.618339 0.435252
Si Si3 0.925104 0.807289 0.434241
Si Si4 0.720233 0.385337 0.436996
Si Si5 0.626965 0.692212 0.564627
Si Si6 0.096633 0.650152 0.075959
Si Si7 0.076875 0.530733 0.424380
Si Si8 0.428869 0.807042 0.433934
O O1 0.275523 0.492597 0.750000
O O2 0.246815 0.441473 0.491792
O O3 0.297698 0.552797 0.500763
O O4 0.149103 0.522922 0.556233
O O5 0.787927 0.614319 0.250000
O O6 0.861963 0.645083 0.504088
O O7 0.688114 0.650800 0.476889
O O8 0.891925 0.750000 0.500000
O O9 0.915969 0.806182 0.250000
O O10 0.027423 0.814375 0.478924
O O11 0.727805 0.386323 0.250000
O O12 0.807253 0.355755 0.500625
O O13 0.636864 0.352168 0.498550
O O14 0.653214 0.750000 0.500000
O O15 0.642085 0.689818 0.750000
O O16 0.527554 0.678192 0.515989
O O17 0.107377 0.675246 0.250000
O O18 0.050976 0.592532 0.088723
O O19 0.102483 0.509040 0.250000
O O20 0.000000 0.500000 0.500000
O O21 0.399270 0.750000 0.500000
O O22 0.422092 0.802977 0.250000
#
# Coordination Sequence:
#
# PCOD8230791 Si02
#       8
#     8   8   8   8   8   8   8   8
#     4   9  19  34  53  75 104 141 182 222 264 317
#     4  11  22  37  56  80 109 143 181 226 275 325
#     4  12  25  40  57  78 106 143 183 227 275 328
#     4   9  18  36  58  81 110 148 187 224 268 320
#     4  10  20  36  57  82 109 140 178 224 273 326
#     4  10  21  36  52  76 108 141 176 217 263 315
#     4  10  19  30  48  72 100 133 173 218 261 304
#     4   9  19  35  58  84 110 139 177 222 269 321
#
# _framework density 19.676089999999999
#
# number of rings (size 3 to 8) (size 9 to 14) (size 15 to 20)
#    0.000    2.000    0.000    3.750    0.000    7.000 
#    0.000    1.875    0.000    0.000    0.000    0.000 
#    0.000    0.000    0.000    0.000    0.000    0.000 
#
# Total GULP energy -792841.109068 kJ/mol
# GULP energy per Si atom -12388.142329 kJ/mol
# Density = 1.963131 g / cm^3
# Si number density = 19.676090 Si / 1000 Ang^3
#
#
#
# Elastic Constant Matrix: (Units=GPa)
#
#
# Indices 1 2 3 4 5 6 
#
# 1 85.8711 60.3647 22.3087 0.0000 0.0000 0.0000
# 2 60.3647 129.5947 27.2358 0.0000 0.0000 0.0000
# 3 22.3087 27.2358 64.7847 0.0000 0.0000 0.0000
# 4 0.0000 0.0000 0.0000 23.6816 0.0000 0.0000
# 5 0.0000 0.0000 0.0000 0.0000 23.7289 0.0000
# 6 0.0000 0.0000 0.0000 0.0000 0.0000 37.4137
#
#
#
# Elastic Compliance Matrix: (Units=1/GPa)
#
#
# Indices 1 2 3 4 5 6 
#
# 1 0.017798 -0.007681 -0.002900 0.000000 0.000000 0.000000
# 2 -0.007681 0.011779 -0.002307 0.000000 0.000000 0.000000
# 3 -0.002900 -0.002307 0.017404 0.000000 0.000000 0.000000
# 4 0.000000 0.000000 0.000000 0.042227 0.000000 0.000000
# 5 0.000000 0.000000 0.000000 0.000000 0.042143 0.000000
# 6 0.000000 0.000000 0.000000 0.000000 0.000000 0.026728
#
#
# Mechanical properties :
#
#
# Convention : Reuss Voigt Hill
#
# Bulk Modulus (GPa) = 47.15650 55.56320 51.35985
# Shear Modulus (GPa) = 26.18861 28.32094 27.25477
#
# Velocity S-wave (km/s) = 3.65223 3.79800 3.72583
# Velocity P-wave (km/s) = 6.46556 6.89444 6.68344
#
# Compressibility (1/GPa) = 0.02120599
#
# Stress axis : x y z
#
# Youngs Moduli (GPa) = 56.18583 84.89739 57.45757
#
# Poissons Ratio (x) = 0.65209 0.16661
# Poissons Ratio (y) = 0.43156 0.13256
# Poissons Ratio (z) = 0.16292 0.19586
#
# Static dielectric constant tensor:
#      x y z
#    x 3.424160 0.000000 0.000000 
#    y 0.000000 3.874750 0.000000 
#    z 0.000000 0.000000 3.568590 
# 
# 
# High freq. dielectric constant tensor:
#      x y z
#    x 1.754550 0.000000 0.000000 
#    y 0.000000 1.776380 0.000000 
#    z 0.000000 0.000000 1.763940 
# 
# From -- ./inp_files/5704.got.cif
#   From: 2010.03.12/outbox.cif.g09.slc.cpg/sg57_3_cif.got.tgz:5704.got - 2010.04.16 15:48:40.
