data_PCOD8230324
_publ_section_title
;
Structure prediction by ZEFSAII (Michael W. Deem and Ramdas Pophale) SiO2 
 PCOD8230324
Probable space group: P B C M
;
_chemical_formula_sum "Si O2"
_cell_formula_units_Z 48
_cell_length_a 11.908305
_cell_length_b 26.220952
_cell_length_c 8.596292
_cell_angle_alpha 90.000000
_cell_angle_beta 90.000000
_cell_angle_gamma 90.000000
_cell_volume 2684.167195
_symmetry_space_group_name_H-M "P B C M"
_symmetry_group_IT_number 57
_symmetry_cell_setting 'orthorhombic'
loop_
_space_group_symop_operation_xyz
x,y,z
-x,-y,1/2+z
x,1/2-y,-z
-x,1/2+y,1/2-z
-x,-y,-z
x,y,1/2-z
-x,1/2+y,z
x,1/2-y,1/2+z
loop_
_atom_site_type_symbol
_atom_site_label
_atom_site_fract_x
_atom_site_fract_y
_atom_site_fract_z
Si Si1 0.833760 0.612804 0.425736
Si Si2 0.490392 0.619856 0.933047
Si Si3 0.643176 0.966265 0.572500
Si Si4 0.708160 0.430155 0.932115
Si Si5 0.338073 0.305956 0.564359
Si Si6 0.960035 0.053803 0.064262
O O1 0.852877 0.630189 0.250000
O O2 0.762996 0.560996 0.435759
O O3 0.764802 0.659396 0.504905
O O4 0.955244 0.598472 0.498646
O O5 0.505242 0.621773 0.750000
O O6 0.548655 0.570143 0.003830
O O7 0.359049 0.615474 0.980990
O O8 0.544048 0.671086 0.004923
O O9 0.612521 0.980456 0.750000
O O10 0.647586 0.016531 0.468723
O O11 0.704848 0.419438 0.750000
O O12 0.835943 0.431561 0.995162
O O13 0.320366 0.250000 0.500000
O O14 0.340062 0.306601 0.750000
O O15 0.964199 0.050460 0.250000
O O16 0.000000 0.000000 0.000000
#
# Coordination Sequence:
#
# PCOD8230324 Si02
#       6
#     8   8   8   8   8   8
#     4   8  16  31  51  75 104 136 171 212 260 305
#     4  11  22  35  51  73 103 136 176 219 264 315
#     4  10  18  31  50  71 103 140 176 216 260 311
#     4  11  21  31  47  73 106 143 182 217 257 309
#     4  10  20  37  60  83 105 130 166 215 271 323
#     4  10  19  32  50  74 105 144 183 218 255 305
#
# _framework density 17.882641
#
# number of rings (size 3 to 8) (size 9 to 14) (size 15 to 20)
#    0.000    2.000    1.667    4.500    0.000    0.667 
#    0.000    0.833    0.000    1.000    0.000    2.333 
#    0.000    0.000    0.000    0.000    0.000    0.000 
#
# Total GULP energy -594971.180381 kJ/mol
# GULP energy per Si atom -12395.232925 kJ/mol
# Density = 1.784194 g / cm^3
# Si number density = 17.882641 Si / 1000 Ang^3
#
#
#
# Elastic Constant Matrix: (Units=GPa)
#
#
# Indices 1 2 3 4 5 6 
#
# 1 108.7188 45.2911 28.3492 0.0000 0.0000 0.0000
# 2 45.2911 88.9728 10.6378 0.0000 0.0000 0.0000
# 3 28.3492 10.6378 51.8631 0.0000 0.0000 0.0000
# 4 0.0000 0.0000 0.0000 26.4240 0.0000 0.0000
# 5 0.0000 0.0000 0.0000 0.0000 20.3559 0.0000
# 6 0.0000 0.0000 0.0000 0.0000 0.0000 14.1710
#
#
#
# Elastic Compliance Matrix: (Units=1/GPa)
#
#
# Indices 1 2 3 4 5 6 
#
# 1 0.013286 -0.006043 -0.006023 0.000000 0.000000 0.000000
# 2 -0.006043 0.014271 0.000376 0.000000 0.000000 0.000000
# 3 -0.006023 0.000376 0.022497 0.000000 0.000000 0.000000
# 4 0.000000 0.000000 0.000000 0.037844 0.000000 0.000000
# 5 0.000000 0.000000 0.000000 0.000000 0.049126 0.000000
# 6 0.000000 0.000000 0.000000 0.000000 0.000000 0.070567
#
#
# Mechanical properties :
#
#
# Convention : Reuss Voigt Hill
#
# Bulk Modulus (GPa) = 37.49013 46.45675 41.97344
# Shear Modulus (GPa) = 20.84542 23.20862 22.02702
#
# Velocity S-wave (km/s) = 3.41791 3.60645 3.51344
# Velocity P-wave (km/s) = 6.04865 6.58612 6.32310
#
# Compressibility (1/GPa) = 0.02667369
#
# Stress axis : x y z
#
# Youngs Moduli (GPa) = 75.26710 70.07412 44.45124
#
# Poissons Ratio (x) = 0.42346 0.26772
# Poissons Ratio (y) = 0.45484 -0.01672
# Poissons Ratio (z) = 0.45332 -0.02636
#
# Static dielectric constant tensor:
#      x y z
#    x 3.818830 0.000000 0.000000 
#    y 0.000000 3.093330 0.000000 
#    z 0.000000 0.000000 3.221550 
# 
# 
# High freq. dielectric constant tensor:
#      x y z
#    x 1.701400 0.000000 0.000000 
#    y 0.000000 1.658440 0.000000 
#    z 0.000000 0.000000 1.685840 
# 
# From -- ./inp_files/3277.got.cif
#   From: 2010.03.12/outbox.cif.g09.slc.cpg/sg57_2_cif.got.tgz:3277.got - 2010.04.16 15:48:40.
