data_PCOD8230581
_publ_section_title
;
Structure prediction by ZEFSAII (Michael W. Deem and Ramdas Pophale) SiO2 
 PCOD8230581
Probable space group: P B C M
;
_chemical_formula_sum "Si O2"
_cell_formula_units_Z 40
_cell_length_a 23.837339
_cell_length_b 8.973654
_cell_length_c 8.924806
_cell_angle_alpha 90.000000
_cell_angle_beta 90.000000
_cell_angle_gamma 90.000000
_cell_volume 1909.087692
_symmetry_space_group_name_H-M "P B C M"
_symmetry_group_IT_number 57
_symmetry_cell_setting 'orthorhombic'
loop_
_space_group_symop_operation_xyz
x,y,z
-x,-y,1/2+z
x,1/2-y,-z
-x,1/2+y,1/2-z
-x,-y,-z
x,y,1/2-z
-x,1/2+y,z
x,1/2-y,1/2+z
loop_
_atom_site_type_symbol
_atom_site_label
_atom_site_fract_x
_atom_site_fract_y
_atom_site_fract_z
Si Si1 0.252875 0.909074 0.418936
Si Si2 0.131025 0.920777 0.026723
Si Si3 0.926883 0.004331 0.250000
Si Si4 0.448351 0.587928 0.931523
Si Si5 0.958794 0.347903 0.250000
Si Si6 0.653476 0.588573 0.930499
O O1 0.256783 0.750000 0.500000
O O2 0.277420 0.895122 0.250000
O O3 0.189338 0.976295 0.402496
O O4 0.286018 0.028025 0.519259
O O5 0.072541 0.927701 0.114300
O O6 0.145341 0.750000 0.000000
O O7 0.116274 0.020449 0.884485
O O8 0.953121 0.169967 0.250000
O O9 0.975449 0.882021 0.250000
O O10 0.449648 0.588508 0.750000
O O11 0.453086 0.750000 0.000000
O O12 0.500000 0.500000 0.000000
O O13 0.391349 0.519493 0.994035
O O14 0.648211 0.592408 0.750000
O O15 0.643482 0.750000 0.000000
#
# Coordination Sequence:
#
# PCOD8230581 Si02
#       6
#     8   8   4   8   4   8
#     4  11  22  39  64  92 121 159 212 265 318 379
#     4   9  19  33  56  80 110 147 197 246 303 368
#     4  10  20  32  56  76 112 142 195 238 309 362
#     4  12  25  45  71 103 140 180 226 271 321 375
#     4  10  18  36  50  82 106 150 185 248 295 376
#     4  12  26  45  67  95 133 174 215 264 323 380
#
# _framework density 20.952414999999998
#
# number of rings (size 3 to 8) (size 9 to 14) (size 15 to 20)
#    0.000    1.200    1.000    6.000    5.600    0.000 
#    0.000    2.000    0.000    0.000    0.000    0.000 
#    0.000    0.000    0.000    0.000    0.000    0.000 
#
# Total GULP energy -495613.855485 kJ/mol
# GULP energy per Si atom -12390.346387 kJ/mol
# Density = 2.090473 g / cm^3
# Si number density = 20.952415 Si / 1000 Ang^3
#
#
#
# Elastic Constant Matrix: (Units=GPa)
#
#
# Indices 1 2 3 4 5 6 
#
# 1 104.5430 37.7482 35.8536 0.0000 0.0000 0.0000
# 2 37.7482 97.2699 44.3128 0.0000 0.0000 0.0000
# 3 35.8536 44.3128 186.9688 0.0000 0.0000 0.0000
# 4 0.0000 0.0000 0.0000 32.1797 0.0000 0.0000
# 5 0.0000 0.0000 0.0000 0.0000 50.9526 0.0000
# 6 0.0000 0.0000 0.0000 0.0000 0.0000 13.6273
#
#
#
# Elastic Compliance Matrix: (Units=1/GPa)
#
#
# Indices 1 2 3 4 5 6 
#
# 1 0.011389 -0.003839 -0.001274 0.000000 0.000000 0.000000
# 2 -0.003839 0.012819 -0.002302 0.000000 0.000000 0.000000
# 3 -0.001274 -0.002302 0.006138 0.000000 0.000000 0.000000
# 4 0.000000 0.000000 0.000000 0.031075 0.000000 0.000000
# 5 0.000000 0.000000 0.000000 0.000000 0.019626 0.000000
# 6 0.000000 0.000000 0.000000 0.000000 0.000000 0.073382
#
#
# Mechanical properties :
#
#
# Convention : Reuss Voigt Hill
#
# Bulk Modulus (GPa) = 64.45058 69.40122 66.92590
# Shear Modulus (GPa) = 28.66438 37.40974 33.03706
#
# Velocity S-wave (km/s) = 3.70276 4.23006 3.97516
# Velocity P-wave (km/s) = 7.00769 7.55334 7.28563
#
# Compressibility (1/GPa) = 0.01551576
#
# Stress axis : x y z
#
# Youngs Moduli (GPa) = 87.80674 78.00710 162.90937
#
# Poissons Ratio (x) = 0.29949 0.20754
# Poissons Ratio (y) = 0.33712 0.37502
# Poissons Ratio (z) = 0.11186 0.17958
#
# Static dielectric constant tensor:
#      x y z
#    x 4.006510 0.000000 0.000000 
#    y 0.000000 3.536180 0.000000 
#    z 0.000000 0.000000 4.103360 
# 
# 
# High freq. dielectric constant tensor:
#      x y z
#    x 1.837540 0.000000 0.000000 
#    y 0.000000 1.795880 0.000000 
#    z 0.000000 0.000000 1.842120 
# 
# From -- ./inp_files/8973.got.cif
#   From: 2010.03.12/outbox.cif.g09.slc.cpg/sg57_5_cif.got.tgz:8973.got - 2010.04.16 15:48:40.
