data_PCOD8230818
_publ_section_title
;
Structure prediction by ZEFSAII (Michael W. Deem and Ramdas Pophale) SiO2 
 PCOD8230818
Probable space group: P B C M
;
_chemical_formula_sum "Si O2"
_cell_formula_units_Z 52
_cell_length_a 20.865540
_cell_length_b 5.235963
_cell_length_c 25.939101
_cell_angle_alpha 90.000000
_cell_angle_beta 90.000000
_cell_angle_gamma 90.000000
_cell_volume 2833.877792
_symmetry_space_group_name_H-M "P B C M"
_symmetry_group_IT_number 57
_symmetry_cell_setting 'orthorhombic'
loop_
_space_group_symop_operation_xyz
x,y,z
-x,-y,1/2+z
x,1/2-y,-z
-x,1/2+y,1/2-z
-x,-y,-z
x,y,1/2-z
-x,1/2+y,z
x,1/2-y,1/2+z
loop_
_atom_site_type_symbol
_atom_site_label
_atom_site_fract_x
_atom_site_fract_y
_atom_site_fract_z
Si Si1 0.760569 0.647238 0.862466
Si Si2 0.041975 0.649355 0.851526
Si Si3 0.527464 0.023998 0.057747
Si Si4 0.874765 0.319043 0.250000
Si Si5 0.170581 0.866632 0.399974
Si Si6 0.210838 0.319919 0.250000
Si Si7 0.227818 0.750000 0.500000
Si Si8 0.330752 0.414767 0.050580
O O1 0.791639 0.373717 0.875742
O O2 0.744636 0.650162 0.801193
O O3 0.695916 0.714992 0.896495
O O4 0.811498 0.872645 0.871050
O O5 0.079313 0.659199 0.798313
O O6 0.094660 0.676118 0.896535
O O7 0.007544 0.378647 0.856841
O O8 0.493470 0.262477 0.086291
O O9 0.603721 0.066953 0.061299
O O10 0.500000 0.000000 0.000000
O O11 0.822337 0.542730 0.250000
O O12 0.842501 0.040955 0.250000
O O13 0.184589 0.912543 0.460851
O O14 0.271849 0.590659 0.462478
O O15 0.346032 0.250000 0.000000
#
# Coordination Sequence:
#
# PCOD8230818 Si02
#       8
#     8   8   8   4   8   4   4   8
#     4  11  22  36  57  82 111 147 178 231 277 332
#     4  12  23  38  55  80 107 135 181 226 276 347
#     4  10  19  30  49  77 117 147 171 220 269 310
#     4  12  22  37  60  80 106 137 174 230 288 340
#     4  11  22  39  56  81 106 143 180 227 286 321
#     4  12  20  39  58  82 114 139 180 224 288 332
#     4  10  22  36  58  80 112 144 188 232 270 338
#     4  11  20  33  56  85 114 145 189 220 272 330
#
# _framework density 18.349416000000002
#
# number of rings (size 3 to 8) (size 9 to 14) (size 15 to 20)
#    0.000    0.923    6.154    3.231    0.000    0.000 
#    0.000    0.769    0.000    0.000    0.000    1.077 
#    0.000    0.000    0.000    0.000    0.000    0.000 
#
# Total GULP energy -644318.779828 kJ/mol
# GULP energy per Si atom -12390.745766 kJ/mol
# Density = 1.830765 g / cm^3
# Si number density = 18.349416 Si / 1000 Ang^3
#
#
#
# Elastic Constant Matrix: (Units=GPa)
#
#
# Indices 1 2 3 4 5 6 
#
# 1 85.1153 6.8464 56.1273 0.0000 0.0000 0.0000
# 2 6.8464 93.3568 16.7723 0.0000 0.0000 0.0000
# 3 56.1273 16.7723 107.2263 0.0000 0.0000 0.0000
# 4 0.0000 0.0000 0.0000 25.0311 0.0000 0.0000
# 5 0.0000 0.0000 0.0000 0.0000 -10.1732 0.0000
# 6 0.0000 0.0000 0.0000 0.0000 0.0000 28.1753
#
#
#
# Elastic Compliance Matrix: (Units=1/GPa)
#
#
# Indices 1 2 3 4 5 6 
#
# 1 0.017955 0.000383 -0.009458 0.000000 0.000000 0.000000
# 2 0.000383 0.011029 -0.001925 0.000000 0.000000 0.000000
# 3 -0.009458 -0.001925 0.014578 0.000000 0.000000 0.000000
# 4 0.000000 0.000000 0.000000 0.039950 0.000000 0.000000
# 5 0.000000 0.000000 0.000000 0.000000 -0.098298 0.000000
# 6 0.000000 0.000000 0.000000 0.000000 0.000000 0.035492
#
#
# Mechanical properties :
#
#
# Convention : Reuss Voigt Hill
#
# Bulk Modulus (GPa) = 46.38187 49.46560 47.92373
# Shear Modulus (GPa) = 100.20685 22.33680 61.27182
#
# Velocity S-wave (km/s) = 7.39790 3.49277 5.78482
# Velocity P-wave (km/s) = 9.91483 6.57891 8.41385
#
# Compressibility (1/GPa) = 0.02156015
#
# Stress axis : x y z
#
# Youngs Moduli (GPa) = 55.69442 90.66629 68.59554
#
# Poissons Ratio (x) = -0.03468 0.64880
# Poissons Ratio (y) = -0.02130 0.13208
# Poissons Ratio (z) = 0.52678 0.17457
#
# Static dielectric constant tensor:
#      x y z
#    x 3.429420 0.000000 0.000000 
#    y 0.000000 9.482360 0.000000 
#    z 0.000000 0.000000 3.818930 
# 
# 
# High freq. dielectric constant tensor:
#      x y z
#    x 1.697730 0.000000 0.000000 
#    y 0.000000 1.727940 0.000000 
#    z 0.000000 0.000000 1.689930 
# 
# From -- ./inp_files/28856.got.cif
#   From: 2010.03.12/outbox.cif.g09.slc.cpg/sg57_15_cif.got.tgz:28856.got - 2010.04.16 15:48:40.
