data_PCOD8230585
_publ_section_title
;
Structure prediction by ZEFSAII (Michael W. Deem and Ramdas Pophale) SiO2 
 PCOD8230585
Probable space group: P B C M
;
_chemical_formula_sum "Si O2"
_cell_formula_units_Z 64
_cell_length_a 16.411040
_cell_length_b 10.981077
_cell_length_c 18.147854
_cell_angle_alpha 90.000000
_cell_angle_beta 90.000000
_cell_angle_gamma 90.000000
_cell_volume 3270.440992
_symmetry_space_group_name_H-M "P B C M"
_symmetry_group_IT_number 57
_symmetry_cell_setting 'orthorhombic'
loop_
_space_group_symop_operation_xyz
x,y,z
-x,-y,1/2+z
x,1/2-y,-z
-x,1/2+y,1/2-z
-x,-y,-z
x,y,1/2-z
-x,1/2+y,z
x,1/2-y,1/2+z
loop_
_atom_site_type_symbol
_atom_site_label
_atom_site_fract_x
_atom_site_fract_y
_atom_site_fract_z
Si Si1 0.348641 0.707362 0.582309
Si Si2 0.663187 0.915629 0.097761
Si Si3 0.044472 0.202274 0.837321
Si Si4 0.776998 0.720577 0.164399
Si Si5 0.246815 0.873173 0.836692
Si Si6 0.524272 0.753268 0.413944
Si Si7 0.936134 0.427763 0.662347
Si Si8 0.336480 0.073377 0.427780
O O1 0.329210 0.750000 0.500000
O O2 0.271542 0.738511 0.635542
O O3 0.433328 0.758132 0.619200
O O4 0.359394 0.564496 0.580193
O O5 0.721206 0.837021 0.150135
O O6 0.568403 0.879960 0.110931
O O7 0.681929 0.052957 0.120521
O O8 0.681758 0.888925 0.012007
O O9 0.036902 0.198447 0.750000
O O10 0.133026 0.245456 0.862801
O O11 0.983585 0.307686 0.868947
O O12 0.029648 0.061014 0.865695
O O13 0.776728 0.686083 0.250000
O O14 0.744614 0.605214 0.118441
O O15 0.254831 0.886777 0.750000
O O16 0.157433 0.913020 0.863590
O O17 0.506779 0.750000 0.500000
O O18 0.586370 0.645263 0.393138
O O19 0.941164 0.425650 0.750000
#
# Coordination Sequence:
#
# PCOD8230585 Si02
#       8
#     8   8   8   8   8   8   8   8
#     4  11  22  36  57  81 113 149 188 236 281 335
#     4  10  18  36  60  82 109 145 192 227 274 336
#     4   9  17  31  54  82 110 148 190 233 283 340
#     4  10  19  34  58  85 113 145 183 233 285 334
#     4  11  22  36  57  84 113 147 183 231 288 340
#     4   8  19  33  57  83 105 143 192 235 268 328
#     4   9  18  33  54  82 113 145 191 236 281 342
#     4  10  21  36  56  87 110 145 194 234 280 334
#
# _framework density 19.569226
#
# number of rings (size 3 to 8) (size 9 to 14) (size 15 to 20)
#    0.000    2.250    2.500    1.500    1.750    3.000 
#    0.000    5.625    0.000    2.250    0.000    0.000 
#    0.000    0.000    0.000    0.000    0.000    0.000 
#
# Total GULP energy -792905.089627 kJ/mol
# GULP energy per Si atom -12389.142025 kJ/mol
# Density = 1.952469 g / cm^3
# Si number density = 19.569226 Si / 1000 Ang^3
#
#
#
# Elastic Constant Matrix: (Units=GPa)
#
#
# Indices 1 2 3 4 5 6 
#
# 1 104.3137 54.2515 26.2072 0.0000 0.0000 0.0000
# 2 54.2515 111.8620 12.5760 0.0000 0.0000 0.0000
# 3 26.2072 12.5760 39.3541 0.0000 0.0000 0.0000
# 4 0.0000 0.0000 0.0000 24.7998 0.0000 0.0000
# 5 0.0000 0.0000 0.0000 0.0000 222.7554 0.0000
# 6 0.0000 0.0000 0.0000 0.0000 0.0000 1618.8171
#
#
#
# Elastic Compliance Matrix: (Units=1/GPa)
#
#
# Indices 1 2 3 4 5 6 
#
# 1 0.014849 -0.006317 -0.007870 0.000000 0.000000 0.000000
# 2 -0.006317 0.011960 0.000385 0.000000 0.000000 0.000000
# 3 -0.007870 0.000385 0.030528 0.000000 0.000000 0.000000
# 4 0.000000 0.000000 0.000000 0.040323 0.000000 0.000000
# 5 0.000000 0.000000 0.000000 0.000000 0.004489 0.000000
# 6 0.000000 0.000000 0.000000 0.000000 0.000000 0.000618
#
#
# Mechanical properties :
#
#
# Convention : Reuss Voigt Hill
#
# Bulk Modulus (GPa) = 33.63254 49.06659 41.34957
# Shear Modulus (GPa) = 35.64263 384.10745 209.87504
#
# Velocity S-wave (km/s) = 4.27237 14.02524 10.36727
# Velocity P-wave (km/s) = 6.44680 16.95301 12.82509
#
# Compressibility (1/GPa) = 0.02973311
#
# Stress axis : x y z
#
# Youngs Moduli (GPa) = 67.34546 83.61296 32.75667
#
# Poissons Ratio (x) = 0.52816 0.25779
# Poissons Ratio (y) = 0.42540 -0.01260
# Poissons Ratio (z) = 0.52999 -0.03216
#
# Static dielectric constant tensor:
#      x y z
#    x 3.725750 0.000000 0.000000 
#    y 0.000000 4.007490 0.000000 
#    z 0.000000 0.000000 3.221200 
# 
# 
# High freq. dielectric constant tensor:
#      x y z
#    x 1.762100 0.000000 0.000000 
#    y 0.000000 1.773290 0.000000 
#    z 0.000000 0.000000 1.715840 
# 
# From -- ./inp_files/22686.got.cif
#   From: 2010.03.12/outbox.cif.g09.slc.cpg/sg57_12_cif.got.tgz:22686.got - 2010.04.16 15:48:40.
