data_PCOD8230820
_publ_section_title
;
Structure prediction by ZEFSAII (Michael W. Deem and Ramdas Pophale) SiO2 
 PCOD8230820
Probable space group: P B C M
;
_chemical_formula_sum "Si O2"
_cell_formula_units_Z 40
_cell_length_a 15.768079
_cell_length_b 5.129349
_cell_length_c 30.799447
_cell_angle_alpha 90.000000
_cell_angle_beta 90.000000
_cell_angle_gamma 90.000000
_cell_volume 2491.058665
_symmetry_space_group_name_H-M "P B C M"
_symmetry_group_IT_number 57
_symmetry_cell_setting 'orthorhombic'
loop_
_space_group_symop_operation_xyz
x,y,z
-x,-y,1/2+z
x,1/2-y,-z
-x,1/2+y,1/2-z
-x,-y,-z
x,y,1/2-z
-x,1/2+y,z
x,1/2-y,1/2+z
loop_
_atom_site_type_symbol
_atom_site_label
_atom_site_fract_x
_atom_site_fract_y
_atom_site_fract_z
Si Si1 0.441834 0.221173 0.656041
Si Si2 0.771904 0.258173 0.450754
Si Si3 0.964760 0.066856 0.951902
Si Si4 0.316792 0.241062 0.920980
Si Si5 0.448599 0.367163 0.250000
Si Si6 0.557555 0.750000 0.500000
O O1 0.489658 0.493470 0.647984
O O2 0.361154 0.195734 0.625039
O O3 0.401319 0.201896 0.704804
O O4 0.735771 0.250000 0.500000
O O5 0.870250 0.327296 0.452418
O O6 0.725493 0.475662 0.422193
O O7 0.755124 0.978751 0.428688
O O8 0.023271 0.287879 0.928026
O O9 0.000000 0.000000 0.000000
O O10 0.387368 0.226421 0.957333
O O11 0.469058 0.675279 0.250000
O O12 0.500000 0.500000 0.500000
#
# Coordination Sequence:
#
# PCOD8230820 Si02
#       6
#     8   8   8   8   4   4
#     4  10  19  35  52  70  92 121 162 201 243 281
#     4  12  21  34  46  66  92 125 162 189 230 279
#     4  10  19  30  50  66  83 114 161 192 231 267
#     4  12  23  33  46  64  95 127 156 198 233 273
#     4   8  16  30  54  74  86 110 152 204 246 288
#     4  12  22  32  42  56  80 124 168 190 210 248
#
# _framework density 16.057431000000001
#
# number of rings (size 3 to 8) (size 9 to 14) (size 15 to 20)
#    0.000    1.200    4.000    4.800    2.800    0.000 
#    0.000    0.000    0.000    0.000    0.000    0.000 
#    0.000    0.000    0.000   18.000    0.000    0.000 
#
# Total GULP energy -495646.040177 kJ/mol
# GULP energy per Si atom -12391.151004 kJ/mol
# Density = 1.602088 g / cm^3
# Si number density = 16.057431 Si / 1000 Ang^3
#
#
#
# Elastic Constant Matrix: (Units=GPa)
#
#
# Indices 1 2 3 4 5 6 
#
# 1 79.1349 30.8995 34.3348 0.0000 0.0000 0.0000
# 2 30.8995 125.3360 15.4617 0.0000 0.0000 0.0000
# 3 34.3348 15.4617 93.6495 0.0000 0.0000 0.0000
# 4 0.0000 0.0000 0.0000 16.8815 0.0000 0.0000
# 5 0.0000 0.0000 0.0000 0.0000 15.0964 0.0000
# 6 0.0000 0.0000 0.0000 0.0000 0.0000 34.0065
#
#
#
# Elastic Compliance Matrix: (Units=1/GPa)
#
#
# Indices 1 2 3 4 5 6 
#
# 1 0.016297 -0.003349 -0.005422 0.000000 0.000000 0.000000
# 2 -0.003349 0.008833 -0.000231 0.000000 0.000000 0.000000
# 3 -0.005422 -0.000231 0.012704 0.000000 0.000000 0.000000
# 4 0.000000 0.000000 0.000000 0.059237 0.000000 0.000000
# 5 0.000000 0.000000 0.000000 0.000000 0.066241 0.000000
# 6 0.000000 0.000000 0.000000 0.000000 0.000000 0.029406
#
#
# Mechanical properties :
#
#
# Convention : Reuss Voigt Hill
#
# Bulk Modulus (GPa) = 50.42677 51.05695 50.74186
# Shear Modulus (GPa) = 23.00652 27.69184 25.34918
#
# Velocity S-wave (km/s) = 3.78929 4.15728 3.97754
# Velocity P-wave (km/s) = 7.11458 7.41009 7.26383
#
# Compressibility (1/GPa) = 0.01983074
#
# Stress axis : x y z
#
# Youngs Moduli (GPa) = 61.36210 113.21723 78.71519
#
# Poissons Ratio (x) = 0.37914 0.42679
# Poissons Ratio (y) = 0.20549 0.01814
# Poissons Ratio (z) = 0.33270 0.02610
#
# Static dielectric constant tensor:
#      x y z
#    x 2.925420 0.000000 0.000000 
#    y 0.000000 -89.160420 0.000000 
#    z 0.000000 0.000000 1.567430 
# 
# 
# High freq. dielectric constant tensor:
#      x y z
#    x 1.594830 0.000000 0.000000 
#    y 0.000000 1.657430 0.000000 
#    z 0.000000 0.000000 1.575660 
# 
# From -- ./inp_files/29810.got.cif
#   From: 2010.03.12/outbox.cif.g09.slc.cpg/sg57_15_cif.got.tgz:29810.got - 2010.04.16 15:48:40.
