data_PCOD8230001
_publ_section_title
;
Structure prediction by ZEFSAII (Michael W. Deem and Ramdas Pophale) SiO2 
 PCOD8230001
Probable space group: P B C M
;
_chemical_formula_sum "Si O2"
_cell_formula_units_Z 64
_cell_length_a 14.847253
_cell_length_b 29.672364
_cell_length_c 9.138936
_cell_angle_alpha 90.000000
_cell_angle_beta 90.000000
_cell_angle_gamma 90.000000
_cell_volume 4026.186544
_symmetry_space_group_name_H-M "P B C M"
_symmetry_group_IT_number 57
_symmetry_cell_setting 'orthorhombic'
loop_
_space_group_symop_operation_xyz
x,y,z
-x,-y,1/2+z
x,1/2-y,-z
-x,1/2+y,1/2-z
-x,-y,-z
x,y,1/2-z
-x,1/2+y,z
x,1/2-y,1/2+z
loop_
_atom_site_type_symbol
_atom_site_label
_atom_site_fract_x
_atom_site_fract_y
_atom_site_fract_z
Si Si1 0.374775 0.034977 0.580846
Si Si2 0.713346 0.114024 0.422786
Si Si3 0.542454 0.062350 0.418128
Si Si4 0.129071 0.950115 0.575345
Si Si5 0.038407 0.391800 0.920237
Si Si6 0.997670 0.294325 0.581795
Si Si7 0.812464 0.961957 0.921702
Si Si8 0.214502 0.706534 0.081922
O O1 0.358104 0.046319 0.750000
O O2 0.454685 0.066490 0.519276
O O3 0.284842 0.044873 0.491998
O O4 0.403073 0.983606 0.556792
O O5 0.726636 0.115776 0.250000
O O6 0.610851 0.101942 0.465052
O O7 0.782300 0.076249 0.480185
O O8 0.737318 0.162816 0.488544
O O9 0.511817 0.066524 0.250000
O O10 0.127642 0.957745 0.750000
O O11 0.042428 0.922633 0.516735
O O12 0.130731 0.998406 0.497215
O O13 0.016641 0.386231 0.750000
O O14 0.133674 0.415524 0.949797
O O15 0.039842 0.340729 0.985108
O O16 0.035483 0.250000 0.500000
O O17 0.024325 0.287968 0.750000
O O18 0.891393 0.298933 0.559314
O O19 0.802893 0.972205 0.750000
O O20 0.240403 0.712187 0.250000
O O21 0.252812 0.750000 0.000000
#
# Coordination Sequence:
#
# PCOD8230001 Si02
#       8
#     8   8   8   8   8   8   8   8
#     4  10  19  32  48  66  89 120 152 187 232 273
#     4   9  15  27  48  68  88 122 158 181 218 276
#     4   9  17  30  48  68  88 114 152 190 223 266
#     4  10  17  31  48  64  90 128 164 189 219 268
#     4   9  18  31  48  66  91 128 162 188 227 279
#     4   9  16  29  47  66  89 119 154 191 228 268
#     4  11  21  31  44  67  95 125 160 197 229 265
#     4   9  16  27  45  66  90 120 152 185 222 269
#
# _framework density 15.895935
#
# number of rings (size 3 to 8) (size 9 to 14) (size 15 to 20)
#    0.000    2.500    2.500    1.125    0.000    0.500 
#    0.000    3.750    0.000    0.000    0.000    0.875 
#    0.000    0.000    0.000    0.000    0.000    0.000 
#
# Total GULP energy -793415.678466 kJ/mol
# GULP energy per Si atom -12397.119976 kJ/mol
# Density = 1.585975 g / cm^3
# Si number density = 15.895935 Si / 1000 Ang^3
#
#
#
# Elastic Constant Matrix: (Units=GPa)
#
#
# Indices 1 2 3 4 5 6 
#
# 1 82.1869 43.9394 37.8139 0.0000 0.0000 0.0000
# 2 43.9394 117.4320 42.8583 0.0000 0.0000 0.0000
# 3 37.8139 42.8583 57.4587 0.0000 0.0000 0.0000
# 4 0.0000 0.0000 0.0000 22.5414 0.0000 0.0000
# 5 0.0000 0.0000 0.0000 0.0000 20.4377 0.0000
# 6 0.0000 0.0000 0.0000 0.0000 0.0000 20.7058
#
#
#
# Elastic Compliance Matrix: (Units=1/GPa)
#
#
# Indices 1 2 3 4 5 6 
#
# 1 0.018381 -0.003384 -0.009572 0.000000 0.000000 0.000000
# 2 -0.003384 0.012324 -0.006965 0.000000 0.000000 0.000000
# 3 -0.009572 -0.006965 0.028899 0.000000 0.000000 0.000000
# 4 0.000000 0.000000 0.000000 0.044363 0.000000 0.000000
# 5 0.000000 0.000000 0.000000 0.000000 0.048929 0.000000
# 6 0.000000 0.000000 0.000000 0.000000 0.000000 0.048296
#
#
# Mechanical properties :
#
#
# Convention : Reuss Voigt Hill
#
# Bulk Modulus (GPa) = 50.60696 56.25563 53.43130
# Shear Modulus (GPa) = 20.19213 21.56805 20.88009
#
# Velocity S-wave (km/s) = 3.56795 3.68751 3.62822
# Velocity P-wave (km/s) = 6.99137 7.32100 7.15808
#
# Compressibility (1/GPa) = 0.01976013
#
# Stress axis : x y z
#
# Youngs Moduli (GPa) = 54.40465 81.14370 34.60337
#
# Poissons Ratio (x) = 0.27458 0.33124
# Poissons Ratio (y) = 0.18410 0.24102
# Poissons Ratio (z) = 0.52078 0.56519
#
# Static dielectric constant tensor:
#      x y z
#    x 2.915870 0.000000 0.000000 
#    y 0.000000 3.155630 0.000000 
#    z 0.000000 0.000000 2.876660 
# 
# 
# High freq. dielectric constant tensor:
#      x y z
#    x 1.594070 0.000000 0.000000 
#    y 0.000000 1.601780 0.000000 
#    z 0.000000 0.000000 1.591360 
# 
# From -- ./inp_files/3829.got.cif
#   From: 2010.03.12/outbox.cif.g09.slc.cpg/sg57_2_cif.got.tgz:3829.got - 2010.04.16 15:48:40.
