data_PCOD8230962
_publ_section_title
;
Structure prediction by ZEFSAII (Michael W. Deem and Ramdas Pophale) SiO2 
 PCOD8230962
Probable space group: P B C M
;
_chemical_formula_sum "Si O2"
_cell_formula_units_Z 48
_cell_length_a 5.097574
_cell_length_b 28.413225
_cell_length_c 17.602714
_cell_angle_alpha 90.000000
_cell_angle_beta 90.000000
_cell_angle_gamma 90.000000
_cell_volume 2549.550991
_symmetry_space_group_name_H-M "P B C M"
_symmetry_group_IT_number 57
_symmetry_cell_setting 'orthorhombic'
loop_
_space_group_symop_operation_xyz
x,y,z
-x,-y,1/2+z
x,1/2-y,-z
-x,1/2+y,1/2-z
-x,-y,-z
x,y,1/2-z
-x,1/2+y,z
x,1/2-y,1/2+z
loop_
_atom_site_type_symbol
_atom_site_label
_atom_site_fract_x
_atom_site_fract_y
_atom_site_fract_z
Si Si1 0.768068 0.644290 0.035398
Si Si2 0.807588 0.486185 0.661699
Si Si3 0.764649 0.358155 0.164682
Si Si4 0.269976 0.089106 0.887043
Si Si5 0.727416 0.196103 0.985660
Si Si6 0.308784 0.426476 0.661858
O O1 0.730770 0.622566 0.118471
O O2 0.725713 0.602544 0.975310
O O3 0.557159 0.685377 0.020671
O O4 0.058788 0.665036 0.029490
O O5 0.787056 0.499444 0.750000
O O6 0.773411 0.533553 0.614292
O O7 0.585665 0.448876 0.638636
O O8 0.085464 0.463897 0.640225
O O9 0.739999 0.337400 0.250000
O O10 0.545989 0.398043 0.151494
O O11 0.732347 0.315475 0.104620
O O12 0.045212 0.382784 0.157212
O O13 0.795290 0.250000 0.000000
O O14 0.295731 0.413243 0.750000
#
# Coordination Sequence:
#
# PCOD8230962 Si02
#       6
#     8   8   8   8   8   8
#     4  10  21  37  55  76 103 136 170 211 264 307
#     4  10  19  31  49  74 105 140 177 213 247 288
#     4  10  19  33  53  78 107 133 166 211 259 308
#     4  10  20  32  52  78 105 139 172 209 255 302
#     4  10  21  38  58  78 102 132 167 212 264 316
#     4  10  21  35  51  74 106 142 178 212 245 291
#
# _framework density 18.826844000000001
#
# number of rings (size 3 to 8) (size 9 to 14) (size 15 to 20)
#    0.000    2.000    0.000    4.000    0.000    2.667 
#    0.000    1.667    0.000    0.000    0.000    0.000 
#    0.000    0.000    0.000    0.000    0.000    0.000 
#
# Total GULP energy -595451.663328 kJ/mol
# GULP energy per Si atom -12405.242986 kJ/mol
# Density = 1.878399 g / cm^3
# Si number density = 18.826844 Si / 1000 Ang^3
#
#
#
# Elastic Constant Matrix: (Units=GPa)
#
#
# Indices 1 2 3 4 5 6 
#
# 1 70.5276 -4.9409 18.1195 0.0000 0.0000 0.0000
# 2 -4.9409 75.5200 47.8423 0.0000 0.0000 0.0000
# 3 18.1195 47.8423 86.7678 0.0000 0.0000 0.0000
# 4 0.0000 0.0000 0.0000 18.4357 0.0000 0.0000
# 5 0.0000 0.0000 0.0000 0.0000 17.7970 0.0000
# 6 0.0000 0.0000 0.0000 0.0000 0.0000 16.4713
#
#
#
# Elastic Compliance Matrix: (Units=1/GPa)
#
#
# Indices 1 2 3 4 5 6 
#
# 1 0.016075 0.004885 -0.006050 0.000000 0.000000 0.000000
# 2 0.004885 0.021834 -0.013059 0.000000 0.000000 0.000000
# 3 -0.006050 -0.013059 0.019989 0.000000 0.000000 0.000000
# 4 0.000000 0.000000 0.000000 0.054243 0.000000 0.000000
# 5 0.000000 0.000000 0.000000 0.000000 0.056189 0.000000
# 6 0.000000 0.000000 0.000000 0.000000 0.000000 0.060711
#
#
# Mechanical properties :
#
#
# Convention : Reuss Voigt Hill
#
# Bulk Modulus (GPa) = 33.95679 39.42858 36.69269
# Shear Modulus (GPa) = 18.70505 21.99376 20.34941
#
# Velocity S-wave (km/s) = 3.15545 3.42162 3.29123
# Velocity P-wave (km/s) = 5.59923 6.04964 5.82879
#
# Compressibility (1/GPa) = 0.02944919
#
# Stress axis : x y z
#
# Youngs Moduli (GPa) = 62.20669 45.80008 50.02759
#
# Poissons Ratio (x) = -0.22372 0.30268
# Poissons Ratio (y) = -0.30386 0.65331
# Poissons Ratio (z) = 0.37637 0.59810
#
# Static dielectric constant tensor:
#      x y z
#    x 3.700150 0.000000 0.000000 
#    y 0.000000 3.108260 0.000000 
#    z 0.000000 0.000000 3.474600 
# 
# 
# High freq. dielectric constant tensor:
#      x y z
#    x 1.755600 0.000000 0.000000 
#    y 0.000000 1.707510 0.000000 
#    z 0.000000 0.000000 1.725170 
# 
# From -- ./inp_files/20187.got.cif
#   From: 2010.03.12/outbox.cif.g09.slc.cpg/sg57_11_cif.got.tgz:20187.got - 2010.04.16 15:48:40.
