data_PCOD8230859
_publ_section_title
;
Structure prediction by ZEFSAII (Michael W. Deem and Ramdas Pophale) SiO2 
 PCOD8230859
Probable space group: P B C M
;
_chemical_formula_sum "Si O2"
_cell_formula_units_Z 64
_cell_length_a 17.527593
_cell_length_b 20.074830
_cell_length_c 8.949827
_cell_angle_alpha 90.000000
_cell_angle_beta 90.000000
_cell_angle_gamma 90.000000
_cell_volume 3149.117003
_symmetry_space_group_name_H-M "P B C M"
_symmetry_group_IT_number 57
_symmetry_cell_setting 'orthorhombic'
loop_
_space_group_symop_operation_xyz
x,y,z
-x,-y,1/2+z
x,1/2-y,-z
-x,1/2+y,1/2-z
-x,-y,-z
x,y,1/2-z
-x,1/2+y,z
x,1/2-y,1/2+z
loop_
_atom_site_type_symbol
_atom_site_label
_atom_site_fract_x
_atom_site_fract_y
_atom_site_fract_z
Si Si1 0.572446 0.965580 0.927944
Si Si2 0.390057 0.182213 0.074513
Si Si3 0.913964 0.872707 0.083041
Si Si4 0.708258 0.453334 0.576585
Si Si5 0.759421 0.182076 0.570288
Si Si6 0.218487 0.184701 0.075857
Si Si7 0.122280 0.981754 0.912467
Si Si8 0.077275 0.640830 0.576105
O O1 0.573161 0.974509 0.750000
O O2 0.567246 0.886424 0.969378
O O3 0.500000 0.000000 0.000000
O O4 0.647005 0.000570 0.993829
O O5 0.393497 0.194459 0.250000
O O6 0.303541 0.170833 0.016138
O O7 0.424551 0.250000 0.000000
O O8 0.895173 0.845061 0.250000
O O9 0.992192 0.838599 0.016690
O O10 0.926981 0.951499 0.090994
O O11 0.842367 0.869955 0.972095
O O12 0.684709 0.443016 0.750000
O O13 0.713827 0.380705 0.497344
O O14 0.787278 0.493333 0.560016
O O15 0.724844 0.250000 0.500000
O O16 0.751734 0.181506 0.750000
O O17 0.848773 0.180466 0.515459
O O18 0.220496 0.192883 0.250000
O O19 0.183970 0.250000 0.000000
O O20 0.113888 0.945867 0.750000
O O21 0.088939 0.936504 0.042031
O O22 0.072809 0.650436 0.750000
#
# Coordination Sequence:
#
# PCOD8230859 Si02
#       8
#     8   8   8   8   8   8   8   8
#     4  11  23  40  62  92 125 155 187 228 277 334
#     4   9  20  38  61  87 117 152 192 231 272 326
#     4  10  19  31  46  70 103 138 177 226 279 332
#     4  10  20  36  58  85 113 146 187 233 284 342
#     4  10  20  36  56  78 105 144 192 244 296 348
#     4  10  20  34  51  73 100 135 176 219 264 315
#     4   9  18  31  50  74 101 134 177 225 274 329
#     4   9  19  32  47  69 101 138 179 228 283 336
#
# _framework density 20.323156000000001
#
# number of rings (size 3 to 8) (size 9 to 14) (size 15 to 20)
#    0.000    2.250    0.000    2.625    0.000    4.000 
#    0.000    1.875    0.000    1.500    0.000    0.000 
#    0.000    0.000    0.000    0.000    0.000    0.000 
#
# Total GULP energy -792877.192699 kJ/mol
# GULP energy per Si atom -12388.706136 kJ/mol
# Density = 2.027690 g / cm^3
# Si number density = 20.323156 Si / 1000 Ang^3
#
#
#
# Elastic Constant Matrix: (Units=GPa)
#
#
# Indices 1 2 3 4 5 6 
#
# 1 70.9847 36.9117 26.3896 0.0000 0.0000 0.0000
# 2 36.9117 117.0712 44.4327 0.0000 0.0000 0.0000
# 3 26.3896 44.4327 64.5889 0.0000 0.0000 0.0000
# 4 0.0000 0.0000 0.0000 34.4343 0.0000 0.0000
# 5 0.0000 0.0000 0.0000 0.0000 26.8266 0.0000
# 6 0.0000 0.0000 0.0000 0.0000 0.0000 15.9749
#
#
#
# Elastic Compliance Matrix: (Units=1/GPa)
#
#
# Indices 1 2 3 4 5 6 
#
# 1 0.017814 -0.003863 -0.004621 0.000000 0.000000 0.000000
# 2 -0.003863 0.012398 -0.006950 0.000000 0.000000 0.000000
# 3 -0.004621 -0.006950 0.022152 0.000000 0.000000 0.000000
# 4 0.000000 0.000000 0.000000 0.029041 0.000000 0.000000
# 5 0.000000 0.000000 0.000000 0.000000 0.037276 0.000000
# 6 0.000000 0.000000 0.000000 0.000000 0.000000 0.062598
#
#
# Mechanical properties :
#
#
# Convention : Reuss Voigt Hill
#
# Bulk Modulus (GPa) = 46.52228 52.01252 49.26740
# Shear Modulus (GPa) = 22.79845 25.10788 23.95317
#
# Velocity S-wave (km/s) = 3.35296 3.51868 3.43682
# Velocity P-wave (km/s) = 6.15879 6.49280 6.32800
#
# Compressibility (1/GPa) = 0.02149508
#
# Stress axis : x y z
#
# Youngs Moduli (GPa) = 56.13509 80.66025 45.14248
#
# Poissons Ratio (x) = 0.31157 0.20861
# Poissons Ratio (y) = 0.21684 0.31376
# Poissons Ratio (z) = 0.25941 0.56063
#
# Static dielectric constant tensor:
#      x y z
#    x 3.726060 0.000000 0.000000 
#    y 0.000000 3.617380 0.000000 
#    z 0.000000 0.000000 3.704240 
# 
# 
# High freq. dielectric constant tensor:
#      x y z
#    x 1.780580 0.000000 0.000000 
#    y 0.000000 1.788610 0.000000 
#    z 0.000000 0.000000 1.792480 
# 
# From -- ./inp_files/7239.got.cif
#   From: 2010.03.12/outbox.cif.g09.slc.cpg/sg57_4_cif.got.tgz:7239.got - 2010.04.16 15:48:40.
