data_PCOD8230024
_publ_section_title
;
Structure prediction by ZEFSAII (Michael W. Deem and Ramdas Pophale) SiO2 
 PCOD8230024
Probable space group: P B C M
;
_chemical_formula_sum "Si O2"
_cell_formula_units_Z 48
_cell_length_a 9.272377
_cell_length_b 15.770451
_cell_length_c 18.469959
_cell_angle_alpha 90.000000
_cell_angle_beta 90.000000
_cell_angle_gamma 90.000000
_cell_volume 2700.854110
_symmetry_space_group_name_H-M "P B C M"
_symmetry_group_IT_number 57
_symmetry_cell_setting 'orthorhombic'
loop_
_space_group_symop_operation_xyz
x,y,z
-x,-y,1/2+z
x,1/2-y,-z
-x,1/2+y,1/2-z
-x,-y,-z
x,y,1/2-z
-x,1/2+y,z
x,1/2-y,1/2+z
loop_
_atom_site_type_symbol
_atom_site_label
_atom_site_fract_x
_atom_site_fract_y
_atom_site_fract_z
Si Si1 0.680615 0.999496 0.577770
Si Si2 0.034762 0.073087 0.058594
Si Si3 0.369318 0.954989 0.584445
Si Si4 0.806569 0.204612 0.070213
Si Si5 0.140651 0.862503 0.334054
Si Si6 0.875041 0.971242 0.166934
O O1 0.791912 0.920710 0.565948
O O2 0.533436 0.963414 0.612845
O O3 0.640296 0.041227 0.501794
O O4 0.753293 0.070754 0.627458
O O5 0.954623 0.160569 0.038915
O O6 0.970993 0.048805 0.137191
O O7 0.000000 0.000000 0.000000
O O8 0.305385 0.862812 0.604647
O O9 0.274833 0.030226 0.621706
O O10 0.840675 0.269431 0.134088
O O11 0.737147 0.250000 0.000000
O O12 0.182656 0.861974 0.250000
O O13 0.971358 0.886753 0.344420
O O14 0.837352 0.987712 0.250000
#
# Coordination Sequence:
#
# PCOD8230024 Si02
#       6
#     8   8   8   8   8   8
#     4  10  19  36  55  81 109 147 185 223 276 335
#     4  10  17  33  55  77 104 140 182 225 266 324
#     4  10  20  33  57  81 112 146 185 225 269 343
#     4  11  19  32  54  81 111 142 181 230 283 328
#     4  10  21  36  56  80 110 144 187 237 284 328
#     4   9  18  33  54  79 105 142 186 225 268 325
#
# _framework density 17.772155999999999
#
# number of rings (size 3 to 8) (size 9 to 14) (size 15 to 20)
#    0.000    2.000    5.000    1.000    0.000    3.333 
#    0.000    2.500    0.000    0.000    0.000    0.000 
#    0.000    0.000    0.000    0.000    0.000    0.000 
#
# Total GULP energy -594786.575324 kJ/mol
# GULP energy per Si atom -12391.386986 kJ/mol
# Density = 1.773171 g / cm^3
# Si number density = 17.772156 Si / 1000 Ang^3
#
#
#
# Elastic Constant Matrix: (Units=GPa)
#
#
# Indices 1 2 3 4 5 6 
#
# 1 163.0246 51.5530 34.2691 0.0000 0.0000 0.0000
# 2 51.5530 88.7667 35.2504 0.0000 0.0000 0.0000
# 3 34.2691 35.2504 94.3032 0.0000 0.0000 0.0000
# 4 0.0000 0.0000 0.0000 25.5905 0.0000 0.0000
# 5 0.0000 0.0000 0.0000 0.0000 18.3801 0.0000
# 6 0.0000 0.0000 0.0000 0.0000 0.0000 16.2857
#
#
#
# Elastic Compliance Matrix: (Units=1/GPa)
#
#
# Indices 1 2 3 4 5 6 
#
# 1 0.007650 -0.003921 -0.001314 0.000000 0.000000 0.000000
# 2 -0.003921 0.015239 -0.004271 0.000000 0.000000 0.000000
# 3 -0.001314 -0.004271 0.012678 0.000000 0.000000 0.000000
# 4 0.000000 0.000000 0.000000 0.039077 0.000000 0.000000
# 5 0.000000 0.000000 0.000000 0.000000 0.054407 0.000000
# 6 0.000000 0.000000 0.000000 0.000000 0.000000 0.061404
#
#
# Mechanical properties :
#
#
# Convention : Reuss Voigt Hill
#
# Bulk Modulus (GPa) = 60.40875 65.35996 62.88435
# Shear Modulus (GPa) = 23.25726 27.05272 25.15499
#
# Velocity S-wave (km/s) = 3.62143 3.90577 3.76628
# Velocity P-wave (km/s) = 7.17989 7.56283 7.37385
#
# Compressibility (1/GPa) = 0.01655389
#
# Stress axis : x y z
#
# Youngs Moduli (GPa) = 130.71386 65.62121 78.87448
#
# Poissons Ratio (x) = 0.25731 0.10367
# Poissons Ratio (y) = 0.51254 0.33690
# Poissons Ratio (z) = 0.17181 0.28029
#
# Static dielectric constant tensor:
#      x y z
#    x 3.670310 0.000000 0.000000 
#    y 0.000000 3.253880 0.000000 
#    z 0.000000 0.000000 3.308780 
# 
# 
# High freq. dielectric constant tensor:
#      x y z
#    x 1.683260 0.000000 0.000000 
#    y 0.000000 1.659930 0.000000 
#    z 0.000000 0.000000 1.688700 
# 
# From -- ./inp_files/20946.got.cif
#   From: 2010.03.12/outbox.cif.g09.slc.cpg/sg57_11_cif.got.tgz:20946.got - 2010.04.16 15:48:40.
