data_PCOD8230170
_publ_section_title
;
Structure prediction by ZEFSAII (Michael W. Deem and Ramdas Pophale) SiO2 
 PCOD8230170
Probable space group: P B C M
;
_chemical_formula_sum "Si O2"
_cell_formula_units_Z 64
_cell_length_a 21.879033
_cell_length_b 18.150984
_cell_length_c 8.821767
_cell_angle_alpha 90.000000
_cell_angle_beta 90.000000
_cell_angle_gamma 90.000000
_cell_volume 3503.352847
_symmetry_space_group_name_H-M "P B C M"
_symmetry_group_IT_number 57
_symmetry_cell_setting 'orthorhombic'
loop_
_space_group_symop_operation_xyz
x,y,z
-x,-y,1/2+z
x,1/2-y,-z
-x,1/2+y,1/2-z
-x,-y,-z
x,y,1/2-z
-x,1/2+y,z
x,1/2-y,1/2+z
loop_
_atom_site_type_symbol
_atom_site_label
_atom_site_fract_x
_atom_site_fract_y
_atom_site_fract_z
Si Si1 0.998829 0.921586 0.425669
Si Si2 0.380847 0.172705 0.572780
Si Si3 0.131328 0.062958 0.575022
Si Si4 0.243085 0.827927 0.928422
Si Si5 0.439667 0.467866 0.572910
Si Si6 0.316619 0.952275 0.075173
Si Si7 0.870576 0.094823 0.928100
Si Si8 0.737300 0.589976 0.923783
O O1 0.006808 0.935332 0.250000
O O2 0.930656 0.888918 0.463031
O O3 0.060148 0.876985 0.475345
O O4 0.000000 0.000000 0.500000
O O5 0.398939 0.250000 0.500000
O O6 0.393833 0.176837 0.750000
O O7 0.423485 0.109672 0.503549
O O8 0.309229 0.156064 0.536341
O O9 0.128582 0.036593 0.750000
O O10 0.191788 0.113681 0.549592
O O11 0.136546 0.990726 0.471615
O O12 0.241774 0.820380 0.750000
O O13 0.258820 0.750000 0.000000
O O14 0.297605 0.882454 0.975944
O O15 0.177012 0.855381 0.982686
O O16 0.500000 0.500000 0.500000
O O17 0.449209 0.453744 0.750000
O O18 0.386916 0.527872 0.542404
O O19 0.304950 0.933524 0.250000
O O20 0.274475 0.021062 0.031818
O O21 0.857624 0.103877 0.750000
O O22 0.726254 0.565023 0.750000
#
# Coordination Sequence:
#
# PCOD8230170 Si02
#       8
#     8   8   8   8   8   8   8   8
#     4   8  15  25  40  64  95 127 163 210 262 316
#     4  10  20  35  55  82 115 149 185 225 267 316
#     4   9  15  26  45  71  99 132 172 216 267 319
#     4  12  24  37  53  73 100 137 180 227 277 330
#     4  10  21  38  62  90 118 149 182 218 259 310
#     4  10  20  35  55  80 109 137 171 215 262 311
#     4  10  18  29  45  68  98 132 171 221 273 322
#     4   9  17  29  50  77 105 139 177 217 265 315
#
# _framework density 18.268212999999999
#
# number of rings (size 3 to 8) (size 9 to 14) (size 15 to 20)
#    0.000    2.250    1.250    2.625    0.000    2.500 
#    0.000    0.625    0.000    3.750    0.000    1.750 
#    0.000    0.000    0.000    0.000    0.000    0.000 
#
# Total GULP energy -792997.192783 kJ/mol
# GULP energy per Si atom -12390.581137 kJ/mol
# Density = 1.822663 g / cm^3
# Si number density = 18.268213 Si / 1000 Ang^3
#
#
#
# Elastic Constant Matrix: (Units=GPa)
#
#
# Indices 1 2 3 4 5 6 
#
# 1 150.7155 51.9785 53.1266 0.0000 0.0000 0.0000
# 2 51.9785 89.1593 50.5340 0.0000 0.0000 0.0000
# 3 53.1266 50.5340 103.7135 0.0000 0.0000 0.0000
# 4 0.0000 0.0000 0.0000 25.9931 0.0000 0.0000
# 5 0.0000 0.0000 0.0000 0.0000 24.7947 0.0000
# 6 0.0000 0.0000 0.0000 0.0000 0.0000 17.8292
#
#
#
# Elastic Compliance Matrix: (Units=1/GPa)
#
#
# Indices 1 2 3 4 5 6 
#
# 1 0.008853 -0.003579 -0.002791 0.000000 0.000000 0.000000
# 2 -0.003579 0.016942 -0.006422 0.000000 0.000000 0.000000
# 3 -0.002791 -0.006422 0.014200 0.000000 0.000000 0.000000
# 4 0.000000 0.000000 0.000000 0.038472 0.000000 0.000000
# 5 0.000000 0.000000 0.000000 0.000000 0.040331 0.000000
# 6 0.000000 0.000000 0.000000 0.000000 0.000000 0.056088
#
#
# Mechanical properties :
#
#
# Convention : Reuss Voigt Hill
#
# Bulk Modulus (GPa) = 69.38587 72.76294 71.07440
# Shear Modulus (GPa) = 24.35760 26.25333 25.30547
#
# Velocity S-wave (km/s) = 3.65544 3.79503 3.72589
# Velocity P-wave (km/s) = 7.47533 7.68894 7.58289
#
# Compressibility (1/GPa) = 0.01441216
#
# Stress axis : x y z
#
# Youngs Moduli (GPa) = 112.95223 59.02404 70.42022
#
# Poissons Ratio (x) = 0.21127 0.19654
# Poissons Ratio (y) = 0.40431 0.45220
# Poissons Ratio (z) = 0.31525 0.37902
#
# Static dielectric constant tensor:
#      x y z
#    x 3.902810 0.000000 0.000000 
#    y 0.000000 2.994270 0.000000 
#    z 0.000000 0.000000 3.468400 
# 
# 
# High freq. dielectric constant tensor:
#      x y z
#    x 1.725960 0.000000 0.000000 
#    y 0.000000 1.657950 0.000000 
#    z 0.000000 0.000000 1.719680 
# 
# From -- ./inp_files/8427.got.cif
#   From: 2010.03.12/outbox.cif.g09.slc.cpg/sg57_5_cif.got.tgz:8427.got - 2010.04.16 15:48:40.
