data_PCOD8230718
_publ_section_title
;
Structure prediction by ZEFSAII (Michael W. Deem and Ramdas Pophale) SiO2 
 PCOD8230718
Probable space group: P B C M
;
_chemical_formula_sum "Si O2"
_cell_formula_units_Z 64
_cell_length_a 14.898061
_cell_length_b 29.826848
_cell_length_c 9.032576
_cell_angle_alpha 90.000000
_cell_angle_beta 90.000000
_cell_angle_gamma 90.000000
_cell_volume 4013.735352
_symmetry_space_group_name_H-M "P B C M"
_symmetry_group_IT_number 57
_symmetry_cell_setting 'orthorhombic'
loop_
_space_group_symop_operation_xyz
x,y,z
-x,-y,1/2+z
x,1/2-y,-z
-x,1/2+y,1/2-z
-x,-y,-z
x,y,1/2-z
-x,1/2+y,z
x,1/2-y,1/2+z
loop_
_atom_site_type_symbol
_atom_site_label
_atom_site_fract_x
_atom_site_fract_y
_atom_site_fract_z
Si Si1 0.366478 0.030052 0.420469
Si Si2 0.714646 0.114831 0.422312
Si Si3 0.558682 0.054336 0.418994
Si Si4 0.128979 0.947341 0.574312
Si Si5 0.044707 0.393125 0.926240
Si Si6 0.991370 0.294668 0.577928
Si Si7 0.817027 0.954952 0.074268
Si Si8 0.217201 0.706424 0.077582
O O1 0.335122 0.028695 0.250000
O O2 0.452578 0.062986 0.442596
O O3 0.285903 0.046971 0.522127
O O4 0.401099 0.981329 0.467549
O O5 0.738540 0.118744 0.250000
O O6 0.611818 0.100501 0.449958
O O7 0.783820 0.078422 0.490220
O O8 0.730786 0.163768 0.491642
O O9 0.577185 0.037883 0.250000
O O10 0.130000 0.946732 0.750000
O O11 0.039945 0.922408 0.515294
O O12 0.135374 0.998881 0.519448
O O13 0.051799 0.396510 0.750000
O O14 0.037327 0.341039 0.976219
O O15 0.133270 0.412931 0.001177
O O16 0.031627 0.250000 0.500000
O O17 0.008106 0.287795 0.750000
O O18 0.887056 0.299829 0.539535
O O19 0.819467 0.950459 0.250000
O O20 0.234011 0.712092 0.250000
O O21 0.257756 0.750000 0.000000
#
# Coordination Sequence:
#
# PCOD8230718 Si02
#       8
#     8   8   8   8   8   8   8   8
#     4  10  19  30  45  68  93 118 151 194 235 270
#     4   9  14  26  48  68  88 122 158 182 216 274
#     4   9  17  30  49  68  89 118 154 190 226 274
#     4   9  16  28  46  65  90 124 160 188 217 264
#     4  10  19  32  48  67  91 122 158 194 230 270
#     4   9  17  29  46  66  89 118 149 186 228 269
#     4  11  21  32  47  65  91 128 162 195 230 270
#     4   9  16  27  45  66  90 120 151 183 223 269
#
# _framework density 15.945247
#
# number of rings (size 3 to 8) (size 9 to 14) (size 15 to 20)
#    0.000    2.500    2.500    1.125    0.000    1.000 
#    0.000    1.250    0.000    0.000    0.000    0.875 
#    0.000    2.000    0.000    0.000    0.000    0.000 
#
# Total GULP energy -793296.678221 kJ/mol
# GULP energy per Si atom -12395.260597 kJ/mol
# Density = 1.590895 g / cm^3
# Si number density = 15.945247 Si / 1000 Ang^3
#
#
#
# Elastic Constant Matrix: (Units=GPa)
#
#
# Indices 1 2 3 4 5 6 
#
# 1 84.2110 53.9728 24.4838 0.0000 0.0000 0.0000
# 2 53.9728 133.0379 33.6787 0.0000 0.0000 0.0000
# 3 24.4838 33.6787 33.8993 0.0000 0.0000 0.0000
# 4 0.0000 0.0000 0.0000 22.7763 0.0000 0.0000
# 5 0.0000 0.0000 0.0000 0.0000 19.8767 0.0000
# 6 0.0000 0.0000 0.0000 0.0000 0.0000 21.7805
#
#
#
# Elastic Compliance Matrix: (Units=1/GPa)
#
#
# Indices 1 2 3 4 5 6 
#
# 1 0.017331 -0.005160 -0.007391 0.000000 0.000000 0.000000
# 2 -0.005160 0.011579 -0.007776 0.000000 0.000000 0.000000
# 3 -0.007391 -0.007776 0.042563 0.000000 0.000000 0.000000
# 4 0.000000 0.000000 0.000000 0.043905 0.000000 0.000000
# 5 0.000000 0.000000 0.000000 0.000000 0.050310 0.000000
# 6 0.000000 0.000000 0.000000 0.000000 0.000000 0.045913
#
#
# Mechanical properties :
#
#
# Convention : Reuss Voigt Hill
#
# Bulk Modulus (GPa) = 32.44858 52.82430 42.63644
# Shear Modulus (GPa) = 19.04556 22.15422 20.59989
#
# Velocity S-wave (km/s) = 3.45981 3.73150 3.59822
# Velocity P-wave (km/s) = 6.02947 7.19485 6.63779
#
# Compressibility (1/GPa) = 0.03081799
#
# Stress axis : x y z
#
# Youngs Moduli (GPa) = 57.70003 86.36555 23.49454
#
# Poissons Ratio (x) = 0.44565 0.17364
# Poissons Ratio (y) = 0.29774 0.18270
# Poissons Ratio (z) = 0.42645 0.67162
#
# Static dielectric constant tensor:
#      x y z
#    x 2.996330 0.000000 0.000000 
#    y 0.000000 3.172960 0.000000 
#    z 0.000000 0.000000 2.844080 
# 
# 
# High freq. dielectric constant tensor:
#      x y z
#    x 1.595430 0.000000 0.000000 
#    y 0.000000 1.602180 0.000000 
#    z 0.000000 0.000000 1.594040 
# 
# From -- ./inp_files/5971.got.cif
#   From: 2010.03.12/outbox.cif.g09.slc.cpg/sg57_3_cif.got.tgz:5971.got - 2010.04.16 15:48:40.
