data_PCOD8230702
_publ_section_title
;
Structure prediction by ZEFSAII (Michael W. Deem and Ramdas Pophale) SiO2 
 PCOD8230702
Probable space group: P B C M
;
_chemical_formula_sum "Si O2"
_cell_formula_units_Z 64
_cell_length_a 31.210284
_cell_length_b 14.124833
_cell_length_c 8.799835
_cell_angle_alpha 90.000000
_cell_angle_beta 90.000000
_cell_angle_gamma 90.000000
_cell_volume 3879.319696
_symmetry_space_group_name_H-M "P B C M"
_symmetry_group_IT_number 57
_symmetry_cell_setting 'orthorhombic'
loop_
_space_group_symop_operation_xyz
x,y,z
-x,-y,1/2+z
x,1/2-y,-z
-x,1/2+y,1/2-z
-x,-y,-z
x,y,1/2-z
-x,1/2+y,z
x,1/2-y,1/2+z
loop_
_atom_site_type_symbol
_atom_site_label
_atom_site_fract_x
_atom_site_fract_y
_atom_site_fract_z
Si Si1 0.479806 0.646494 0.071364
Si Si2 0.562298 0.973416 0.571061
Si Si3 0.641283 0.852349 0.572939
Si Si4 0.104355 0.471084 0.928974
Si Si5 0.928533 0.349252 0.930567
Si Si6 0.180380 0.354108 0.070049
Si Si7 0.025174 0.346337 0.573181
Si Si8 0.735526 0.647657 0.427778
O O1 0.474682 0.657269 0.250000
O O2 0.525420 0.601355 0.025140
O O3 0.474631 0.750000 0.000000
O O4 0.443390 0.574645 0.010588
O O5 0.562294 0.992400 0.750000
O O6 0.606763 0.927912 0.511951
O O7 0.634503 0.750000 0.500000
O O8 0.634094 0.835307 0.750000
O O9 0.688602 0.897739 0.541792
O O10 0.113357 0.468654 0.750000
O O11 0.058144 0.427941 0.972439
O O12 0.103723 0.576910 0.992667
O O13 0.140974 0.415960 0.016188
O O14 0.923194 0.349816 0.750000
O O15 0.977365 0.372618 0.982481
O O16 0.914274 0.250000 0.000000
O O17 0.180592 0.346912 0.250000
O O18 0.175920 0.250000 0.000000
O O19 0.224632 0.404378 0.011200
O O20 0.042037 0.250000 0.500000
O O21 0.024571 0.327332 0.750000
O O22 0.732861 0.750000 0.500000
O O23 0.745889 0.654052 0.250000
#
# Coordination Sequence:
#
# PCOD8230702 Si02
#       8
#     8   8   8   8   8   8   8   8
#     4  10  19  30  45  64  90 125 160 196 236 275
#     4   9  18  31  45  65  92 122 158 196 233 275
#     4   9  17  28  45  68  94 123 154 190 230 272
#     4  11  21  33  49  71  95 123 157 192 228 270
#     4  10  20  35  51  69  92 121 155 193 232 270
#     4  11  21  33  48  69  97 127 155 187 227 275
#     4   9  19  32  48  69  95 124 154 187 225 267
#     4   9  16  28  45  66  92 122 152 183 225 275
#
# _framework density 16.497737000000001
#
# number of rings (size 3 to 8) (size 9 to 14) (size 15 to 20)
#    0.000    2.250    0.000    4.500    0.000    4.000 
#    0.000    0.000    0.000    0.000    0.000    0.875 
#    0.000    2.000    0.000    0.000    0.000    0.000 
#
# Total GULP energy -793378.202751 kJ/mol
# GULP energy per Si atom -12396.534418 kJ/mol
# Density = 1.646019 g / cm^3
# Si number density = 16.497737 Si / 1000 Ang^3
#
#
#
# Elastic Constant Matrix: (Units=GPa)
#
#
# Indices 1 2 3 4 5 6 
#
# 1 100.8102 57.5689 48.6523 0.0000 0.0000 0.0000
# 2 57.5689 106.9094 46.6684 0.0000 0.0000 0.0000
# 3 48.6523 46.6684 83.0177 0.0000 0.0000 0.0000
# 4 0.0000 0.0000 0.0000 27.2100 0.0000 0.0000
# 5 0.0000 0.0000 0.0000 0.0000 23.2078 0.0000
# 6 0.0000 0.0000 0.0000 0.0000 0.0000 24.5603
#
#
#
# Elastic Compliance Matrix: (Units=1/GPa)
#
#
# Indices 1 2 3 4 5 6 
#
# 1 0.016399 -0.006143 -0.006158 0.000000 0.000000 0.000000
# 2 -0.006143 0.014696 -0.004662 0.000000 0.000000 0.000000
# 3 -0.006158 -0.004662 0.018275 0.000000 0.000000 0.000000
# 4 0.000000 0.000000 0.000000 0.036751 0.000000 0.000000
# 5 0.000000 0.000000 0.000000 0.000000 0.043089 0.000000
# 6 0.000000 0.000000 0.000000 0.000000 0.000000 0.040716
#
#
# Mechanical properties :
#
#
# Convention : Reuss Voigt Hill
#
# Bulk Modulus (GPa) = 64.73966 66.27961 65.50963
# Shear Modulus (GPa) = 23.92349 24.18546 24.05447
#
# Velocity S-wave (km/s) = 3.81216 3.83297 3.82258
# Velocity P-wave (km/s) = 7.66182 7.73635 7.69917
#
# Compressibility (1/GPa) = 0.01544648
#
# Stress axis : x y z
#
# Youngs Moduli (GPa) = 60.97826 68.04376 54.72024
#
# Poissons Ratio (x) = 0.41798 0.33694
# Poissons Ratio (y) = 0.37458 0.25508
# Poissons Ratio (z) = 0.37548 0.31719
#
# Static dielectric constant tensor:
#      x y z
#    x 3.667840 0.000000 0.000000 
#    y 0.000000 2.910680 0.000000 
#    z 0.000000 0.000000 3.071210 
# 
# 
# High freq. dielectric constant tensor:
#      x y z
#    x 1.630120 0.000000 0.000000 
#    y 0.000000 1.608490 0.000000 
#    z 0.000000 0.000000 1.647460 
# 
# From -- ./inp_files/10346.got.cif
#   From: 2010.03.12/outbox.cif.g09.slc.cpg/sg57_6_cif.got.tgz:10346.got - 2010.04.16 15:48:40.
