data_PCOD8230392
_publ_section_title
;
Structure prediction by ZEFSAII (Michael W. Deem and Ramdas Pophale) SiO2 
 PCOD8230392
Probable space group: P B C M
;
_chemical_formula_sum "Si O2"
_cell_formula_units_Z 40
_cell_length_a 6.453393
_cell_length_b 20.278613
_cell_length_c 17.974582
_cell_angle_alpha 90.000000
_cell_angle_beta 90.000000
_cell_angle_gamma 90.000000
_cell_volume 2352.259117
_symmetry_space_group_name_H-M "P B C M"
_symmetry_group_IT_number 57
_symmetry_cell_setting 'orthorhombic'
loop_
_space_group_symop_operation_xyz
x,y,z
-x,-y,1/2+z
x,1/2-y,-z
-x,1/2+y,1/2-z
-x,-y,-z
x,y,1/2-z
-x,1/2+y,z
x,1/2-y,1/2+z
loop_
_atom_site_type_symbol
_atom_site_label
_atom_site_fract_x
_atom_site_fract_y
_atom_site_fract_z
Si Si1 0.918274 0.364444 0.166775
Si Si2 0.154706 0.178297 0.533779
Si Si3 0.208790 0.487488 0.335157
Si Si4 0.884728 0.436251 0.969825
Si Si5 0.534943 0.401486 0.420478
O O1 0.927409 0.336432 0.250000
O O2 0.682014 0.366021 0.139636
O O3 0.051513 0.315786 0.115237
O O4 0.014717 0.437742 0.161249
O O5 0.158706 0.250000 0.500000
O O6 0.388008 0.152659 0.541560
O O7 0.019993 0.129186 0.482244
O O8 0.262345 0.506177 0.250000
O O9 0.152291 0.553726 0.381261
O O10 0.406986 0.456163 0.375706
O O11 0.666972 0.433084 0.012973
O O12 0.000000 0.500000 0.000000
#
# Coordination Sequence:
#
# PCOD8230392 Si02
#       5
#     8   8   8   8   8
#     4   9  18  33  55  80 106 135 175 225 270 311
#     4  10  22  36  53  78 108 145 182 217 262 321
#     4  10  19  31  51  84 112 134 172 224 275 318
#     4  11  19  35  57  80 107 139 179 223 268 316
#     4  10  18  31  56  79 110 135 179 221 268 319
#
# _framework density 17.004929000000001
#
# number of rings (size 3 to 8) (size 9 to 14) (size 15 to 20)
#    0.000    2.000    6.000    1.200    0.000    4.000 
#    0.000    1.000    0.000    1.200    0.000    0.000 
#    0.000    0.000    0.000    0.000    0.000    0.000 
#
# Total GULP energy -495895.568190 kJ/mol
# GULP energy per Si atom -12397.389205 kJ/mol
# Density = 1.696622 g / cm^3
# Si number density = 17.004929 Si / 1000 Ang^3
#
#
#
# Elastic Constant Matrix: (Units=GPa)
#
#
# Indices 1 2 3 4 5 6 
#
# 1 119.4887 51.6184 56.0371 0.0000 0.0000 0.0000
# 2 51.6184 95.6600 72.6748 0.0000 0.0000 0.0000
# 3 56.0371 72.6748 159.4265 0.0000 0.0000 0.0000
# 4 0.0000 0.0000 0.0000 24.2856 0.0000 0.0000
# 5 0.0000 0.0000 0.0000 0.0000 16.0647 0.0000
# 6 0.0000 0.0000 0.0000 0.0000 0.0000 13.4405
#
#
#
# Elastic Compliance Matrix: (Units=1/GPa)
#
#
# Indices 1 2 3 4 5 6 
#
# 1 0.011246 -0.004689 -0.001815 0.000000 0.000000 0.000000
# 2 -0.004689 0.017947 -0.006533 0.000000 0.000000 0.000000
# 3 -0.001815 -0.006533 0.009889 0.000000 0.000000 0.000000
# 4 0.000000 0.000000 0.000000 0.041177 0.000000 0.000000
# 5 0.000000 0.000000 0.000000 0.000000 0.062248 0.000000
# 6 0.000000 0.000000 0.000000 0.000000 0.000000 0.074402
#
#
# Mechanical properties :
#
#
# Convention : Reuss Voigt Hill
#
# Bulk Modulus (GPa) = 76.88311 81.69285 79.28798
# Shear Modulus (GPa) = 20.21672 23.70781 21.96227
#
# Velocity S-wave (km/s) = 3.45175 3.73791 3.59768
# Velocity P-wave (km/s) = 7.82282 8.17155 7.99909
#
# Compressibility (1/GPa) = 0.01300676
#
# Stress axis : x y z
#
# Youngs Moduli (GPa) = 88.91999 55.71848 101.12613
#
# Poissons Ratio (x) = 0.26128 0.18357
# Poissons Ratio (y) = 0.41697 0.66066
# Poissons Ratio (z) = 0.16141 0.36401
#
# Static dielectric constant tensor:
#      x y z
#    x 3.435980 0.000000 0.000000 
#    y 0.000000 2.888580 0.000000 
#    z 0.000000 0.000000 3.771650 
# 
# 
# High freq. dielectric constant tensor:
#      x y z
#    x 1.672450 0.000000 0.000000 
#    y 0.000000 1.611830 0.000000 
#    z 0.000000 0.000000 1.663140 
# 
# From -- ./inp_files/20103.got.cif
#   From: 2010.03.12/outbox.cif.g09.slc.cpg/sg57_11_cif.got.tgz:20103.got - 2010.04.16 15:48:40.
