data_PCOD8230549
_publ_section_title
;
Structure prediction by ZEFSAII (Michael W. Deem and Ramdas Pophale) SiO2 
 PCOD8230549
Probable space group: P B C M
;
_chemical_formula_sum "Si O2"
_cell_formula_units_Z 48
_cell_length_a 9.900552
_cell_length_b 14.128209
_cell_length_c 17.388965
_cell_angle_alpha 90.000000
_cell_angle_beta 90.000000
_cell_angle_gamma 90.000000
_cell_volume 2432.317438
_symmetry_space_group_name_H-M "P B C M"
_symmetry_group_IT_number 57
_symmetry_cell_setting 'orthorhombic'
loop_
_space_group_symop_operation_xyz
x,y,z
-x,-y,1/2+z
x,1/2-y,-z
-x,1/2+y,1/2-z
-x,-y,-z
x,y,1/2-z
-x,1/2+y,z
x,1/2-y,1/2+z
loop_
_atom_site_type_symbol
_atom_site_label
_atom_site_fract_x
_atom_site_fract_y
_atom_site_fract_z
Si Si1 0.481353 0.942249 0.158470
Si Si2 0.849946 0.753856 0.910258
Si Si3 0.901678 0.357931 0.841615
Si Si4 0.389067 0.142494 0.162767
Si Si5 0.346033 0.742583 0.662662
Si Si6 0.788023 0.558320 0.841365
O O1 0.492563 0.933530 0.250000
O O2 0.401520 0.852725 0.121841
O O3 0.634401 0.945040 0.126423
O O4 0.393984 0.033825 0.135042
O O5 0.701637 0.795117 0.893454
O O6 0.865477 0.648940 0.875772
O O7 0.953862 0.827124 0.872505
O O8 0.876567 0.750000 0.000000
O O9 0.899565 0.355102 0.750000
O O10 0.789498 0.284812 0.875694
O O11 0.867324 0.464528 0.868994
O O12 0.333169 0.152207 0.250000
O O13 0.542548 0.176126 0.158984
O O14 0.312001 0.715723 0.750000
O O15 0.789180 0.567612 0.750000
#
# Coordination Sequence:
#
# PCOD8230549 Si02
#       6
#     8   8   8   8   8   8
#     4   9  16  29  59  95 116 138 180 244 304 342
#     4  12  26  40  55  83 126 168 196 231 291 362
#     4  10  21  38  62  89 113 149 200 251 296 347
#     4  10  18  34  61  88 112 144 195 249 291 345
#     4   9  16  30  58  91 115 137 185 248 299 343
#     4  10  19  37  65  88 112 150 196 251 309 345
#
# _framework density 19.734266000000002
#
# number of rings (size 3 to 8) (size 9 to 14) (size 15 to 20)
#    0.000    2.000    3.333    1.500    0.000    2.000 
#    0.000    5.000    0.000    0.000    0.000    0.000 
#    0.000    0.000    0.000    0.000    0.000    0.000 
#
# Total GULP energy -595121.167190 kJ/mol
# GULP energy per Si atom -12398.357650 kJ/mol
# Density = 1.968935 g / cm^3
# Si number density = 19.734266 Si / 1000 Ang^3
#
#
#
# Elastic Constant Matrix: (Units=GPa)
#
#
# Indices 1 2 3 4 5 6 
#
# 1 64.2916 24.6252 13.2310 0.0000 0.0000 0.0000
# 2 24.6252 140.6667 25.9760 0.0000 0.0000 0.0000
# 3 13.2310 25.9760 26.5736 0.0000 0.0000 0.0000
# 4 0.0000 0.0000 0.0000 10.3113 0.0000 0.0000
# 5 0.0000 0.0000 0.0000 0.0000 -0.7528 0.0000
# 6 0.0000 0.0000 0.0000 0.0000 0.0000 35.1098
#
#
#
# Elastic Compliance Matrix: (Units=1/GPa)
#
#
# Indices 1 2 3 4 5 6 
#
# 1 0.017693 -0.001795 -0.007055 0.000000 0.000000 0.000000
# 2 -0.001795 0.008857 -0.007764 0.000000 0.000000 0.000000
# 3 -0.007055 -0.007764 0.048734 0.000000 0.000000 0.000000
# 4 0.000000 0.000000 0.000000 0.096981 0.000000 0.000000
# 5 0.000000 0.000000 0.000000 0.000000 -1.328311 0.000000
# 6 0.000000 0.000000 0.000000 0.000000 0.000000 0.028482
#
#
# Mechanical properties :
#
#
# Convention : Reuss Voigt Hill
#
# Bulk Modulus (GPa) = 23.77791 39.91071 31.84431
# Shear Modulus (GPa) = -4.62827 20.11363 7.74268
#
# Velocity S-wave (km/s) = -1.53310 3.19599 1.98292
# Velocity P-wave (km/s) = 2.99021 5.82126 4.62755
#
# Compressibility (1/GPa) = 0.04205584
#
# Stress axis : x y z
#
# Youngs Moduli (GPa) = 56.51805 112.90598 20.51963
#
# Poissons Ratio (x) = 0.20262 0.14477
# Poissons Ratio (y) = 0.10142 0.15932
# Poissons Ratio (z) = 0.39876 0.87663
#
# Static dielectric constant tensor:
#      x y z
#    x 3.548660 0.000000 0.000000 
#    y 0.000000 3.920980 0.000000 
#    z 0.000000 0.000000 3.038640 
# 
# 
# High freq. dielectric constant tensor:
#      x y z
#    x 1.766210 0.000000 0.000000 
#    y 0.000000 1.791170 0.000000 
#    z 0.000000 0.000000 1.707590 
# 
# From -- ./inp_files/20900.got.cif
#   From: 2010.03.12/outbox.cif.g09.slc.cpg/sg57_11_cif.got.tgz:20900.got - 2010.04.16 15:48:40.
