data_PCOD8230501
_publ_section_title
;
Structure prediction by ZEFSAII (Michael W. Deem and Ramdas Pophale) SiO2 
 PCOD8230501
Probable space group: P B C M
;
_chemical_formula_sum "Si O2"
_cell_formula_units_Z 40
_cell_length_a 9.358363
_cell_length_b 13.902208
_cell_length_c 14.079141
_cell_angle_alpha 90.000000
_cell_angle_beta 90.000000
_cell_angle_gamma 90.000000
_cell_volume 1831.723121
_symmetry_space_group_name_H-M "P B C M"
_symmetry_group_IT_number 57
_symmetry_cell_setting 'orthorhombic'
loop_
_space_group_symop_operation_xyz
x,y,z
-x,-y,1/2+z
x,1/2-y,-z
-x,1/2+y,1/2-z
-x,-y,-z
x,y,1/2-z
-x,1/2+y,z
x,1/2-y,1/2+z
loop_
_atom_site_type_symbol
_atom_site_label
_atom_site_fract_x
_atom_site_fract_y
_atom_site_fract_z
Si Si1 0.927715 0.812105 0.140266
Si Si2 0.832874 0.603836 0.143305
Si Si3 0.260131 0.496179 0.141550
Si Si4 0.419563 0.979880 0.142901
Si Si5 0.160842 0.920461 0.462362
O O1 0.978392 0.808892 0.250000
O O2 0.864644 0.710232 0.105460
O O3 0.061657 0.833693 0.071918
O O4 0.803586 0.890207 0.128153
O O5 0.893600 0.589176 0.250000
O O6 0.661278 0.584156 0.142026
O O7 0.907306 0.522818 0.075982
O O8 0.253555 0.532643 0.250000
O O9 0.421695 0.490011 0.100790
O O10 0.176201 0.574243 0.076852
O O11 0.432734 0.939631 0.250000
O O12 0.319511 0.906220 0.083334
#
# Coordination Sequence:
#
# PCOD8230501 Si02
#       5
#     8   8   8   8   8
#     4  10  19  33  55  85 115 150 194 241 294 350
#     4   8  17  32  55  83 113 148 191 239 296 349
#     4  10  20  32  52  82 118 154 196 239 286 348
#     4   8  16  33  55  81 112 151 189 235 294 350
#     4  10  18  33  58  82 114 154 198 236 291 348
#
# _framework density 21.837361999999999
#
# number of rings (size 3 to 8) (size 9 to 14) (size 15 to 20)
#    1.200    1.600    0.000    2.400    0.000    0.800 
#    0.000    0.000    4.400    1.200    0.000    0.000 
#    0.000    0.000    0.000    0.000    0.000    0.000 
#
# Total GULP energy -495682.509825 kJ/mol
# GULP energy per Si atom -12392.062746 kJ/mol
# Density = 2.178766 g / cm^3
# Si number density = 21.837362 Si / 1000 Ang^3
#
#
#
# Elastic Constant Matrix: (Units=GPa)
#
#
# Indices 1 2 3 4 5 6 
#
# 1 110.6927 25.4193 41.8990 0.0000 0.0000 0.0000
# 2 25.4193 55.4670 28.2961 0.0000 0.0000 0.0000
# 3 41.8990 28.2961 93.9771 0.0000 0.0000 0.0000
# 4 0.0000 0.0000 0.0000 22.5421 0.0000 0.0000
# 5 0.0000 0.0000 0.0000 0.0000 25.3105 0.0000
# 6 0.0000 0.0000 0.0000 0.0000 0.0000 18.2772
#
#
#
# Elastic Compliance Matrix: (Units=1/GPa)
#
#
# Indices 1 2 3 4 5 6 
#
# 1 0.011297 -0.003081 -0.004109 0.000000 0.000000 0.000000
# 2 -0.003081 0.022141 -0.005293 0.000000 0.000000 0.000000
# 3 -0.004109 -0.005293 0.014067 0.000000 0.000000 0.000000
# 4 0.000000 0.000000 0.000000 0.044362 0.000000 0.000000
# 5 0.000000 0.000000 0.000000 0.000000 0.039509 0.000000
# 6 0.000000 0.000000 0.000000 0.000000 0.000000 0.054713
#
#
# Mechanical properties :
#
#
# Convention : Reuss Voigt Hill
#
# Bulk Modulus (GPa) = 44.36837 50.15174 47.26005
# Shear Modulus (GPa) = 22.87634 24.19410 23.53522
#
# Velocity S-wave (km/s) = 3.24014 3.33216 3.28647
# Velocity P-wave (km/s) = 5.86172 6.14982 6.00750
#
# Compressibility (1/GPa) = 0.02253858
#
# Stress axis : x y z
#
# Youngs Moduli (GPa) = 88.52048 45.16546 71.09088
#
# Poissons Ratio (x) = 0.13915 0.29211
# Poissons Ratio (y) = 0.27273 0.37628
# Poissons Ratio (z) = 0.36373 0.23906
#
# Static dielectric constant tensor:
#      x y z
#    x 3.949020 0.000000 0.000000 
#    y 0.000000 3.420740 0.000000 
#    z 0.000000 0.000000 4.077060 
# 
# 
# High freq. dielectric constant tensor:
#      x y z
#    x 1.859520 0.000000 0.000000 
#    y 0.000000 1.803260 0.000000 
#    z 0.000000 0.000000 1.878930 
# 
# From -- ./inp_files/15921.got.cif
#   From: 2010.03.12/outbox.cif.g09.slc.cpg/sg57_8_cif.got.tgz:15921.got - 2010.04.16 15:48:40.
