data_PCOD8230917
_publ_section_title
;
Structure prediction by ZEFSAII (Michael W. Deem and Ramdas Pophale) SiO2 
 PCOD8230917
Probable space group: P B C M
;
_chemical_formula_sum "Si O2"
_cell_formula_units_Z 56
_cell_length_a 13.805824
_cell_length_b 24.002143
_cell_length_c 8.985441
_cell_angle_alpha 90.000000
_cell_angle_beta 90.000000
_cell_angle_gamma 90.000000
_cell_volume 2977.499850
_symmetry_space_group_name_H-M "P B C M"
_symmetry_group_IT_number 57
_symmetry_cell_setting 'orthorhombic'
loop_
_space_group_symop_operation_xyz
x,y,z
-x,-y,1/2+z
x,1/2-y,-z
-x,1/2+y,1/2-z
-x,-y,-z
x,y,1/2-z
-x,1/2+y,z
x,1/2-y,1/2+z
loop_
_atom_site_type_symbol
_atom_site_label
_atom_site_fract_x
_atom_site_fract_y
_atom_site_fract_z
Si Si1 0.328851 0.582389 0.922236
Si Si2 0.782707 0.307074 0.074200
Si Si3 0.834994 0.618708 0.077066
Si Si4 0.729733 0.975665 0.423582
Si Si5 0.014554 0.807322 0.926608
Si Si6 0.547044 0.902614 0.076590
Si Si7 0.346763 0.308811 0.575660
O O1 0.312920 0.569262 0.750000
O O2 0.294141 0.644656 0.960994
O O3 0.441026 0.575676 0.967642
O O4 0.265344 0.537864 0.012209
O O5 0.797315 0.297965 0.250000
O O6 0.743927 0.250000 0.000000
O O7 0.884055 0.324547 0.999722
O O8 0.825535 0.604888 0.250000
O O9 0.755425 0.664182 0.028990
O O10 0.939716 0.643306 0.036163
O O11 0.817064 0.561258 0.989802
O O12 0.746562 0.978974 0.250000
O O13 0.625543 0.949488 0.466321
O O14 0.025476 0.798597 0.750000
O O15 0.976594 0.750000 0.000000
O O16 0.552887 0.887072 0.250000
O O17 0.566216 0.847230 0.982266
O O18 0.356148 0.250000 0.500000
O O19 0.356692 0.300961 0.750000
#
# Coordination Sequence:
#
# PCOD8230917 Si02
#       7
#     8   8   8   8   8   8   8
#     4  10  21  37  56  75 102 138 172 209 257 306
#     4  10  21  37  56  78 103 134 170 212 256 300
#     4   9  19  34  52  75 105 139 171 205 254 308
#     4  10  20  33  54  81 106 133 170 214 255 300
#     4  10  19  33  55  80 105 136 171 211 256 305
#     4   9  19  35  52  74 103 136 174 214 255 303
#     4  10  19  31  48  73 105 138 170 209 255 306
#
# _framework density 18.807725000000001
#
# number of rings (size 3 to 8) (size 9 to 14) (size 15 to 20)
#    0.000    2.286    0.000    3.429    0.000    4.571 
#    0.000    2.143    0.000    0.000    0.000    0.000 
#    0.000    0.000    0.000    0.000    0.000    0.000 
#
# Total GULP energy -694525.956200 kJ/mol
# GULP energy per Si atom -12402.249218 kJ/mol
# Density = 1.876492 g / cm^3
# Si number density = 18.807725 Si / 1000 Ang^3
#
#
#
# Elastic Constant Matrix: (Units=GPa)
#
#
# Indices 1 2 3 4 5 6 
#
# 1 59.8667 29.6218 26.4755 0.0000 0.0000 0.0000
# 2 29.6218 103.2294 44.4933 0.0000 0.0000 0.0000
# 3 26.4755 44.4933 74.2005 0.0000 0.0000 0.0000
# 4 0.0000 0.0000 0.0000 34.5748 0.0000 0.0000
# 5 0.0000 0.0000 0.0000 0.0000 25.8039 0.0000
# 6 0.0000 0.0000 0.0000 0.0000 0.0000 21.4326
#
#
#
# Elastic Compliance Matrix: (Units=1/GPa)
#
#
# Indices 1 2 3 4 5 6 
#
# 1 0.020854 -0.003745 -0.005196 0.000000 0.000000 0.000000
# 2 -0.003745 0.013736 -0.006900 0.000000 0.000000 0.000000
# 3 -0.005196 -0.006900 0.019468 0.000000 0.000000 0.000000
# 4 0.000000 0.000000 0.000000 0.028923 0.000000 0.000000
# 5 0.000000 0.000000 0.000000 0.000000 0.038754 0.000000
# 6 0.000000 0.000000 0.000000 0.000000 0.000000 0.046658
#
#
# Mechanical properties :
#
#
# Convention : Reuss Voigt Hill
#
# Bulk Modulus (GPa) = 44.68802 48.71979 46.70391
# Shear Modulus (GPa) = 24.09247 25.47600 24.78423
#
# Velocity S-wave (km/s) = 3.58297 3.68441 3.63405
# Velocity P-wave (km/s) = 6.39757 6.63779 6.51879
#
# Compressibility (1/GPa) = 0.02237736
#
# Stress axis : x y z
#
# Youngs Moduli (GPa) = 47.95156 72.80195 51.36504
#
# Poissons Ratio (x) = 0.27263 0.26687
# Poissons Ratio (y) = 0.17957 0.35444
# Poissons Ratio (z) = 0.24913 0.50236
#
# Static dielectric constant tensor:
#      x y z
#    x 3.395150 0.000000 0.000000 
#    y 0.000000 3.435320 0.000000 
#    z 0.000000 0.000000 3.488270 
# 
# 
# High freq. dielectric constant tensor:
#      x y z
#    x 1.717650 0.000000 0.000000 
#    y 0.000000 1.730280 0.000000 
#    z 0.000000 0.000000 1.737670 
# 
# From -- ./inp_files/5169.got.cif
#   From: 2010.03.12/outbox.cif.g09.slc.cpg/sg57_3_cif.got.tgz:5169.got - 2010.04.16 15:48:40.
