data_PCOD8230671
_publ_section_title
;
Structure prediction by ZEFSAII (Michael W. Deem and Ramdas Pophale) SiO2 
 PCOD8230671
Probable space group: P B C M
;
_chemical_formula_sum "Si O2"
_cell_formula_units_Z 56
_cell_length_a 17.695166
_cell_length_b 21.532794
_cell_length_c 9.034165
_cell_angle_alpha 90.000000
_cell_angle_beta 90.000000
_cell_angle_gamma 90.000000
_cell_volume 3442.255044
_symmetry_space_group_name_H-M "P B C M"
_symmetry_group_IT_number 57
_symmetry_cell_setting 'orthorhombic'
loop_
_space_group_symop_operation_xyz
x,y,z
-x,-y,1/2+z
x,1/2-y,-z
-x,1/2+y,1/2-z
-x,-y,-z
x,y,1/2-z
-x,1/2+y,z
x,1/2-y,1/2+z
loop_
_atom_site_type_symbol
_atom_site_label
_atom_site_fract_x
_atom_site_fract_y
_atom_site_fract_z
Si Si1 0.104570 0.465147 0.579893
Si Si2 0.052436 0.912231 0.579587
Si Si3 0.717517 0.392628 0.576633
Si Si4 0.845139 0.316307 0.073720
Si Si5 0.553350 0.416712 0.586607
Si Si6 0.586044 0.561879 0.586468
Si Si7 0.250831 0.035525 0.922849
O O1 0.113445 0.486857 0.750000
O O2 0.086122 0.523235 0.476478
O O3 0.182557 0.435519 0.519105
O O4 0.038624 0.413719 0.565992
O O5 0.078120 0.903267 0.750000
O O6 0.083570 0.856608 0.480239
O O7 0.723535 0.375505 0.750000
O O8 0.766433 0.346104 0.478712
O O9 0.630352 0.386922 0.520693
O O10 0.747721 0.461815 0.549830
O O11 0.845984 0.310842 0.250000
O O12 0.854213 0.250000 0.000000
O O13 0.541553 0.390224 0.750000
O O14 0.562954 0.490323 0.591187
O O15 0.477210 0.398379 0.499520
O O16 0.587359 0.589961 0.750000
O O17 0.670770 0.566573 0.518941
O O18 0.239541 0.050248 0.750000
#
# Coordination Sequence:
#
# PCOD8230671 Si02
#       7
#     8   8   8   8   8   8   8
#     4  10  19  29  46  70  92 119 155 191 229 279
#     4  10  20  34  48  65  92 120 150 192 236 277
#     4   9  17  30  45  62  87 119 153 189 230 269
#     4  12  24  36  51  69  89 118 157 195 236 280
#     4   8  14  24  38  56  81 115 148 180 217 255
#     4   8  14  23  35  56  84 117 150 178 214 255
#     4   9  16  26  42  62  91 125 152 186 228 269
#
# _framework density 16.268405999999999
#
# number of rings (size 3 to 8) (size 9 to 14) (size 15 to 20)
#    0.000    2.571    1.429    3.857    0.000    2.857 
#    0.000    2.857    0.000    0.000    0.000    0.000 
#    0.000    1.143    0.000    3.714    0.000    5.429 
#
# Total GULP energy -694022.770516 kJ/mol
# GULP energy per Si atom -12393.263759 kJ/mol
# Density = 1.623138 g / cm^3
# Si number density = 16.268406 Si / 1000 Ang^3
#
#
#
# Elastic Constant Matrix: (Units=GPa)
#
#
# Indices 1 2 3 4 5 6 
#
# 1 147.9751 30.8289 59.1832 0.0000 0.0000 0.0000
# 2 30.8289 43.9150 29.3387 0.0000 0.0000 0.0000
# 3 59.1832 29.3387 94.0213 0.0000 0.0000 0.0000
# 4 0.0000 0.0000 0.0000 17.8442 0.0000 0.0000
# 5 0.0000 0.0000 0.0000 0.0000 33.4644 0.0000
# 6 0.0000 0.0000 0.0000 0.0000 0.0000 11.4678
#
#
#
# Elastic Compliance Matrix: (Units=1/GPa)
#
#
# Indices 1 2 3 4 5 6 
#
# 1 0.009405 -0.003345 -0.004877 0.000000 0.000000 0.000000
# 2 -0.003345 0.029958 -0.007243 0.000000 0.000000 0.000000
# 3 -0.004877 -0.007243 0.015966 0.000000 0.000000 0.000000
# 4 0.000000 0.000000 0.000000 0.056040 0.000000 0.000000
# 5 0.000000 0.000000 0.000000 0.000000 0.029882 0.000000
# 6 0.000000 0.000000 0.000000 0.000000 0.000000 0.087200
#
#
# Mechanical properties :
#
#
# Convention : Reuss Voigt Hill
#
# Bulk Modulus (GPa) = 40.98247 58.29034 49.63641
# Shear Modulus (GPa) = 18.69065 23.65935 21.17500
#
# Velocity S-wave (km/s) = 3.39321 3.81768 3.61169
# Velocity P-wave (km/s) = 6.37165 7.43916 6.92600
#
# Compressibility (1/GPa) = 0.02440067
#
# Stress axis : x y z
#
# Youngs Moduli (GPa) = 106.32549 33.38006 62.63472
#
# Poissons Ratio (x) = 0.11164 0.30544
# Poissons Ratio (y) = 0.35561 0.45366
# Poissons Ratio (z) = 0.51850 0.24177
#
# Static dielectric constant tensor:
#      x y z
#    x 3.510050 0.000000 0.000000 
#    y 0.000000 2.527970 0.000000 
#    z 0.000000 0.000000 3.198830 
# 
# 
# High freq. dielectric constant tensor:
#      x y z
#    x 1.647430 0.000000 0.000000 
#    y 0.000000 1.548800 0.000000 
#    z 0.000000 0.000000 1.630180 
# 
# From -- ./inp_files/7329.got.cif
#   From: 2010.03.12/outbox.cif.g09.slc.cpg/sg57_4_cif.got.tgz:7329.got - 2010.04.16 15:48:40.
