data_PCOD8230959
_publ_section_title
;
Structure prediction by ZEFSAII (Michael W. Deem and Ramdas Pophale) SiO2 
 PCOD8230959
Probable space group: P B C M
;
_chemical_formula_sum "Si O2"
_cell_formula_units_Z 48
_cell_length_a 9.591185
_cell_length_b 30.455124
_cell_length_c 9.248878
_cell_angle_alpha 90.000000
_cell_angle_beta 90.000000
_cell_angle_gamma 90.000000
_cell_volume 2701.604001
_symmetry_space_group_name_H-M "P B C M"
_symmetry_group_IT_number 57
_symmetry_cell_setting 'orthorhombic'
loop_
_space_group_symop_operation_xyz
x,y,z
-x,-y,1/2+z
x,1/2-y,-z
-x,1/2+y,1/2-z
-x,-y,-z
x,y,1/2-z
-x,1/2+y,z
x,1/2-y,1/2+z
loop_
_atom_site_type_symbol
_atom_site_label
_atom_site_fract_x
_atom_site_fract_y
_atom_site_fract_z
Si Si1 0.216384 0.569457 0.581122
Si Si2 0.301711 0.114460 0.078530
Si Si3 0.806196 0.205681 0.915280
Si Si4 0.432040 0.860036 0.420113
Si Si5 0.022756 0.129466 0.581392
Si Si6 0.364104 0.484098 0.581202
O O1 0.214439 0.580167 0.750000
O O2 0.347660 0.597307 0.521131
O O3 0.237914 0.518104 0.545193
O O4 0.068009 0.587502 0.523551
O O5 0.302493 0.119795 0.250000
O O6 0.316616 0.063718 0.029487
O O7 0.426007 0.143042 0.010672
O O8 0.159137 0.133227 0.015546
O O9 0.804652 0.219207 0.750000
O O10 0.659335 0.182950 0.955801
O O11 0.933286 0.172950 0.947342
O O12 0.829684 0.250000 0.000000
O O13 0.466651 0.863525 0.250000
O O14 0.063594 0.124620 0.750000
O O15 0.500000 0.500000 0.500000
O O16 0.399464 0.484814 0.750000
#
# Coordination Sequence:
#
# PCOD8230959 Si02
#       6
#     8   8   8   8   8   8
#     4   8  15  31  53  72  95 135 182 217 243 292
#     4  11  22  32  47  79 113 137 170 219 265 298
#     4   9  19  36  60  85 102 127 170 213 257 316
#     4   9  17  33  56  76  99 136 175 205 249 314
#     4   9  19  36  55  74 101 142 180 206 252 320
#     4  10  19  31  49  74 104 138 179 221 259 299
#
# _framework density 17.767222
#
# number of rings (size 3 to 8) (size 9 to 14) (size 15 to 20)
#    0.000    2.667    1.667    2.500    0.000    2.667 
#    0.000    4.167    0.000    0.000    0.000    0.000 
#    0.000    0.000    0.000    0.000    0.000    0.000 
#
# Total GULP energy -595054.262581 kJ/mol
# GULP energy per Si atom -12396.963804 kJ/mol
# Density = 1.772678 g / cm^3
# Si number density = 17.767222 Si / 1000 Ang^3
#
#
#
# Elastic Constant Matrix: (Units=GPa)
#
#
# Indices 1 2 3 4 5 6 
#
# 1 134.2860 39.7379 54.5066 0.0000 0.0000 0.0000
# 2 39.7379 91.4014 42.0626 0.0000 0.0000 0.0000
# 3 54.5066 42.0626 62.5875 0.0000 0.0000 0.0000
# 4 0.0000 0.0000 0.0000 26.5342 0.0000 0.0000
# 5 0.0000 0.0000 0.0000 0.0000 26.0609 0.0000
# 6 0.0000 0.0000 0.0000 0.0000 0.0000 13.9043
#
#
#
# Elastic Compliance Matrix: (Units=1/GPa)
#
#
# Indices 1 2 3 4 5 6 
#
# 1 0.011539 -0.000568 -0.009667 0.000000 0.000000 0.000000
# 2 -0.000568 0.015868 -0.010170 0.000000 0.000000 0.000000
# 3 -0.009667 -0.010170 0.031231 0.000000 0.000000 0.000000
# 4 0.000000 0.000000 0.000000 0.037687 0.000000 0.000000
# 5 0.000000 0.000000 0.000000 0.000000 0.038372 0.000000
# 6 0.000000 0.000000 0.000000 0.000000 0.000000 0.071920
#
#
# Mechanical properties :
#
#
# Convention : Reuss Voigt Hill
#
# Bulk Modulus (GPa) = 56.09035 62.32100 59.20568
# Shear Modulus (GPa) = 19.73408 23.43108 21.58258
#
# Velocity S-wave (km/s) = 3.33633 3.63544 3.48909
# Velocity P-wave (km/s) = 6.81760 7.26460 7.04465
#
# Compressibility (1/GPa) = 0.01782838
#
# Stress axis : x y z
#
# Youngs Moduli (GPa) = 86.66406 63.02171 32.01903
#
# Poissons Ratio (x) = 0.03578 0.30954
# Poissons Ratio (y) = 0.04920 0.32562
# Poissons Ratio (z) = 0.83782 0.64090
#
# Static dielectric constant tensor:
#      x y z
#    x 3.255690 0.000000 0.000000 
#    y 0.000000 3.271270 0.000000 
#    z 0.000000 0.000000 3.075460 
# 
# 
# High freq. dielectric constant tensor:
#      x y z
#    x 1.687080 0.000000 0.000000 
#    y 0.000000 1.678610 0.000000 
#    z 0.000000 0.000000 1.669040 
# 
# From -- ./inp_files/2032.got.cif
#   From: 2010.03.12/outbox.cif.g09.slc.cpg/sg57_2_cif.got.tgz:2032.got - 2010.04.16 15:48:40.
