data_PCOD8230802
_publ_section_title
;
Structure prediction by ZEFSAII (Michael W. Deem and Ramdas Pophale) SiO2 
 PCOD8230802
Probable space group: P B C M
;
_chemical_formula_sum "Si O2"
_cell_formula_units_Z 56
_cell_length_a 16.878879
_cell_length_b 21.517356
_cell_length_c 8.702009
_cell_angle_alpha 90.000000
_cell_angle_beta 90.000000
_cell_angle_gamma 90.000000
_cell_volume 3160.472627
_symmetry_space_group_name_H-M "P B C M"
_symmetry_group_IT_number 57
_symmetry_cell_setting 'orthorhombic'
loop_
_space_group_symop_operation_xyz
x,y,z
-x,-y,1/2+z
x,1/2-y,-z
-x,1/2+y,1/2-z
-x,-y,-z
x,y,1/2-z
-x,1/2+y,z
x,1/2-y,1/2+z
loop_
_atom_site_type_symbol
_atom_site_label
_atom_site_fract_x
_atom_site_fract_y
_atom_site_fract_z
Si Si1 0.117211 0.477590 0.573171
Si Si2 0.138222 0.685686 0.572555
Si Si3 0.034695 0.591095 0.076578
Si Si4 0.706965 0.989234 0.930550
Si Si5 0.536823 0.182947 0.932422
Si Si6 0.543168 0.939097 0.567096
Si Si7 0.298484 0.872379 0.067472
O O1 0.116288 0.502478 0.750000
O O2 0.082768 0.528705 0.459220
O O3 0.207167 0.461118 0.522070
O O4 0.060223 0.417738 0.557805
O O5 0.116273 0.750000 0.500000
O O6 0.151957 0.694831 0.750000
O O7 0.062371 0.642986 0.541795
O O8 0.218518 0.657614 0.498417
O O9 0.055016 0.611236 0.250000
O O10 0.702325 0.997006 0.750000
O O11 0.635761 0.944294 0.982777
O O12 0.694447 0.058144 0.002275
O O13 0.526853 0.184724 0.750000
O O14 0.627128 0.169400 0.983870
O O15 0.510584 0.250000 0.000000
O O16 0.484813 0.126195 0.997165
O O17 0.531133 0.938389 0.750000
O O18 0.500000 0.000000 0.500000
O O19 0.293682 0.875909 0.250000
#
# Coordination Sequence:
#
# PCOD8230802 Si02
#       7
#     8   8   8   8   8   8   8
#     4   9  17  32  53  73  99 134 168 206 251 299
#     4  11  21  34  51  71 103 141 175 209 251 303
#     4  10  19  30  48  76 103 130 168 208 249 299
#     4   9  16  31  54  78 104 138 175 212 259 311
#     4  11  22  38  56  78 108 143 183 224 267 322
#     4  11  21  35  56  81 109 142 180 223 269 318
#     4   9  17  31  52  76 105 141 175 209 254 313
#
# _framework density 17.718869999999999
#
# number of rings (size 3 to 8) (size 9 to 14) (size 15 to 20)
#    0.000    2.000    2.857    2.143    0.000    0.571 
#    0.000    5.000    0.000    0.857    0.000    0.000 
#    0.000    0.000    0.000    0.000    0.000    0.000 
#
# Total GULP energy -694096.211280 kJ/mol
# GULP energy per Si atom -12394.575201 kJ/mol
# Density = 1.767854 g / cm^3
# Si number density = 17.718870 Si / 1000 Ang^3
#
#
#
# Elastic Constant Matrix: (Units=GPa)
#
#
# Indices 1 2 3 4 5 6 
#
# 1 134.9380 61.2717 30.2871 0.0000 0.0000 0.0000
# 2 61.2717 117.1461 28.6091 0.0000 0.0000 0.0000
# 3 30.2871 28.6091 52.1670 0.0000 0.0000 0.0000
# 4 0.0000 0.0000 0.0000 27.4246 0.0000 0.0000
# 5 0.0000 0.0000 0.0000 0.0000 19.4117 0.0000
# 6 0.0000 0.0000 0.0000 0.0000 0.0000 -4.4469
#
#
#
# Elastic Compliance Matrix: (Units=1/GPa)
#
#
# Indices 1 2 3 4 5 6 
#
# 1 0.010236 -0.004506 -0.003472 0.000000 0.000000 0.000000
# 2 -0.004506 0.011840 -0.003877 0.000000 0.000000 0.000000
# 3 -0.003472 -0.003877 0.023311 0.000000 0.000000 0.000000
# 4 0.000000 0.000000 0.000000 0.036464 0.000000 0.000000
# 5 0.000000 0.000000 0.000000 0.000000 0.051515 0.000000
# 6 0.000000 0.000000 0.000000 0.000000 0.000000 -0.224875
#
#
# Mechanical properties :
#
#
# Convention : Reuss Voigt Hill
#
# Bulk Modulus (GPa) = 46.13077 60.50966 53.32022
# Shear Modulus (GPa) = -82.54502 20.75008 -30.89747
#
# Velocity S-wave (km/s) = -6.83279 3.42581 -4.18037
# Velocity P-wave (km/s) = 6.01316 7.06202 2.61860
#
# Compressibility (1/GPa) = 0.02167750
#
# Stress axis : x y z
#
# Youngs Moduli (GPa) = 97.69352 84.45938 42.89802
#
# Poissons Ratio (x) = 0.38057 0.14893
# Poissons Ratio (y) = 0.44021 0.16632
# Poissons Ratio (z) = 0.33916 0.32746
#
# Static dielectric constant tensor:
#      x y z
#    x 3.637110 0.000000 0.000000 
#    y 0.000000 3.223090 0.000000 
#    z 0.000000 0.000000 3.138800 
# 
# 
# High freq. dielectric constant tensor:
#      x y z
#    x 1.688910 0.000000 0.000000 
#    y 0.000000 1.665730 0.000000 
#    z 0.000000 0.000000 1.671280 
# 
# From -- ./inp_files/6987.got.cif
#   From: 2010.03.12/outbox.cif.g09.slc.cpg/sg57_4_cif.got.tgz:6987.got - 2010.04.16 15:48:40.
