data_PCOD8230509
_publ_section_title
;
Structure prediction by ZEFSAII (Michael W. Deem and Ramdas Pophale) SiO2 
 PCOD8230509
Probable space group: P B C M
;
_chemical_formula_sum "Si O2"
_cell_formula_units_Z 64
_cell_length_a 11.494366
_cell_length_b 12.212836
_cell_length_c 21.849340
_cell_angle_alpha 90.000000
_cell_angle_beta 90.000000
_cell_angle_gamma 90.000000
_cell_volume 3067.184280
_symmetry_space_group_name_H-M "P B C M"
_symmetry_group_IT_number 57
_symmetry_cell_setting 'orthorhombic'
loop_
_space_group_symop_operation_xyz
x,y,z
-x,-y,1/2+z
x,1/2-y,-z
-x,1/2+y,1/2-z
-x,-y,-z
x,y,1/2-z
-x,1/2+y,z
x,1/2-y,1/2+z
loop_
_atom_site_type_symbol
_atom_site_label
_atom_site_fract_x
_atom_site_fract_y
_atom_site_fract_z
Si Si1 0.896330 0.193888 0.323563
Si Si2 0.847971 0.738773 0.820238
Si Si3 0.313974 0.068959 0.361785
Si Si4 0.563562 0.113783 0.181719
Si Si5 0.219410 0.009971 0.874652
Si Si6 0.539933 0.355294 0.030977
Si Si7 0.681893 0.952287 0.496660
Si Si8 0.320052 0.670252 0.652206
O O1 0.875737 0.196010 0.250000
O O2 0.806495 0.275341 0.358162
O O3 0.023203 0.232483 0.343921
O O4 0.880591 0.070311 0.349063
O O5 0.854734 0.708257 0.750000
O O6 0.766428 0.843036 0.829210
O O7 0.798018 0.633022 0.852929
O O8 0.447213 0.110095 0.358791
O O9 0.274249 0.062557 0.433505
O O10 0.298399 0.954087 0.323363
O O11 0.539914 0.068417 0.250000
O O12 0.607276 0.239848 0.190326
O O13 0.657072 0.036579 0.148586
O O14 0.214164 0.020559 0.949017
O O15 0.590388 0.450278 0.988975
O O16 0.597360 0.361517 0.096562
O O17 0.592717 0.250000 0.000000
O O18 0.397855 0.352106 0.029598
#
# Coordination Sequence:
#
# PCOD8230509 Si02
#       8
#     8   8   8   8   8   8   8   8
#     4  10  23  44  68  91 120 165 219 271 323 373
#     4  11  26  43  66  93 123 169 216 266 321 379
#     4  11  25  41  62  96 135 169 214 258 320 387
#     4  11  23  38  61  97 134 168 207 261 326 381
#     4  11  22  42  68  93 126 165 210 267 318 384
#     4  10  18  33  60  89 126 162 203 247 303 375
#     4  10  22  37  60  94 125 168 206 253 314 380
#     4  10  21  38  62  90 123 163 210 261 313 377
#
# _framework density 20.866043999999999
#
# number of rings (size 3 to 8) (size 9 to 14) (size 15 to 20)
#    0.000    1.500    0.000    7.125    7.000    2.000 
#    0.000    0.625    8.250    0.000    0.000    0.000 
#    0.000    0.000    0.000    0.000    0.000    0.000 
#
# Total GULP energy -792835.691578 kJ/mol
# GULP energy per Si atom -12388.057681 kJ/mol
# Density = 2.081855 g / cm^3
# Si number density = 20.866044 Si / 1000 Ang^3
#
#
#
# Elastic Constant Matrix: (Units=GPa)
#
#
# Indices 1 2 3 4 5 6 
#
# 1 86.2873 29.9002 14.1292 0.0000 0.0000 0.0000
# 2 29.9002 120.6182 10.0781 0.0000 0.0000 0.0000
# 3 14.1292 10.0781 83.8719 0.0000 0.0000 0.0000
# 4 0.0000 0.0000 0.0000 27.0868 0.0000 0.0000
# 5 0.0000 0.0000 0.0000 0.0000 27.3836 0.0000
# 6 0.0000 0.0000 0.0000 0.0000 0.0000 26.9373
#
#
#
# Elastic Compliance Matrix: (Units=1/GPa)
#
#
# Indices 1 2 3 4 5 6 
#
# 1 0.012946 -0.003058 -0.001813 0.000000 0.000000 0.000000
# 2 -0.003058 0.009097 -0.000578 0.000000 0.000000 0.000000
# 3 -0.001813 -0.000578 0.012298 0.000000 0.000000 0.000000
# 4 0.000000 0.000000 0.000000 0.036918 0.000000 0.000000
# 5 0.000000 0.000000 0.000000 0.000000 0.036518 0.000000
# 6 0.000000 0.000000 0.000000 0.000000 0.000000 0.037123
#
#
# Mechanical properties :
#
#
# Convention : Reuss Voigt Hill
#
# Bulk Modulus (GPa) = 42.65785 44.33248 43.49517
# Shear Modulus (GPa) = 30.56005 32.05955 31.30980
#
# Velocity S-wave (km/s) = 3.83114 3.92400 3.87785
# Velocity P-wave (km/s) = 6.32916 6.46705 6.39848
#
# Compressibility (1/GPa) = 0.02344234
#
# Stress axis : x y z
#
# Youngs Moduli (GPa) = 77.24604 109.92792 81.31478
#
# Poissons Ratio (x) = 0.33612 0.14746
# Poissons Ratio (y) = 0.23619 0.04700
# Poissons Ratio (z) = 0.14008 0.06354
#
# Static dielectric constant tensor:
#      x y z
#    x 3.675600 0.000000 0.000000 
#    y 0.000000 4.279960 0.000000 
#    z 0.000000 0.000000 3.666860 
# 
# 
# High freq. dielectric constant tensor:
#      x y z
#    x 1.795910 0.000000 0.000000 
#    y 0.000000 1.836830 0.000000 
#    z 0.000000 0.000000 1.810260 
# 
# From -- ./inp_files/27260.got.cif
#   From: 2010.03.12/outbox.cif.g09.slc.cpg/sg57_14_cif.got.tgz:27260.got - 2010.04.16 15:48:40.
