data_PCOD8230092
_publ_section_title
;
Structure prediction by ZEFSAII (Michael W. Deem and Ramdas Pophale) SiO2 
 PCOD8230092
Probable space group: P B C M
;
_chemical_formula_sum "Si O2"
_cell_formula_units_Z 64
_cell_length_a 16.619001
_cell_length_b 21.638062
_cell_length_c 9.193598
_cell_angle_alpha 90.000000
_cell_angle_beta 90.000000
_cell_angle_gamma 90.000000
_cell_volume 3306.045183
_symmetry_space_group_name_H-M "P B C M"
_symmetry_group_IT_number 57
_symmetry_cell_setting 'orthorhombic'
loop_
_space_group_symop_operation_xyz
x,y,z
-x,-y,1/2+z
x,1/2-y,-z
-x,1/2+y,1/2-z
-x,-y,-z
x,y,1/2-z
-x,1/2+y,z
x,1/2-y,1/2+z
loop_
_atom_site_type_symbol
_atom_site_label
_atom_site_fract_x
_atom_site_fract_y
_atom_site_fract_z
Si Si1 0.900445 0.127961 0.916189
Si Si2 0.654313 0.813034 0.579455
Si Si3 0.340297 0.909736 0.589512
Si Si4 0.063572 0.186531 0.917668
Si Si5 0.467468 0.687348 0.418722
Si Si6 0.215085 0.516753 0.921524
Si Si7 0.782170 0.609635 0.923178
Si Si8 0.218064 0.698603 0.093820
O O1 0.879156 0.141606 0.750000
O O2 0.859746 0.062365 0.957791
O O3 0.996150 0.132987 0.945814
O O4 0.863826 0.182821 0.011005
O O5 0.679708 0.750000 0.500000
O O6 0.676113 0.808252 0.750000
O O7 0.560647 0.827158 0.555416
O O8 0.700703 0.868774 0.502085
O O9 0.359081 0.939476 0.750000
O O10 0.418495 0.873431 0.525754
O O11 0.303252 0.959104 0.476497
O O12 0.271666 0.860365 0.613354
O O13 0.065654 0.204644 0.750000
O O14 0.148371 0.157889 0.966158
O O15 0.045864 0.250000 0.000000
O O16 0.441365 0.750000 0.500000
O O17 0.446612 0.698117 0.250000
O O18 0.222575 0.503461 0.750000
O O19 0.193133 0.456029 0.011190
O O20 0.769778 0.604356 0.750000
O O21 0.195118 0.726508 0.250000
O O22 0.265530 0.750000 0.000000
#
# Coordination Sequence:
#
# PCOD8230092 Si02
#       8
#     8   8   8   8   8   8   8   8
#     4   9  19  36  54  75 106 139 173 215 262 313
#     4  10  20  36  58  84 112 141 177 221 272 324
#     4   9  18  33  51  74 106 142 179 218 261 312
#     4  10  22  38  57  82 109 138 174 218 267 319
#     4   9  18  32  53  81 112 144 178 220 269 322
#     4  10  21  37  57  80 107 142 182 222 264 314
#     4  11  23  39  58  79 106 141 182 226 271 319
#     4  10  18  27  44  71 103 139 176 213 257 309
#
# _framework density 19.358477000000001
#
# number of rings (size 3 to 8) (size 9 to 14) (size 15 to 20)
#    0.000    2.250    0.000    2.625    0.000    6.000 
#    0.000    0.625    0.000    0.000    0.000    0.000 
#    0.000    0.000    0.000    0.000    0.000    0.000 
#
# Total GULP energy -793242.721125 kJ/mol
# GULP energy per Si atom -12394.417518 kJ/mol
# Density = 1.931442 g / cm^3
# Si number density = 19.358477 Si / 1000 Ang^3
#
#
#
# Elastic Constant Matrix: (Units=GPa)
#
#
# Indices 1 2 3 4 5 6 
#
# 1 92.7084 40.8725 39.9032 0.0000 0.0000 0.0000
# 2 40.8725 94.4438 50.6492 0.0000 0.0000 0.0000
# 3 39.9032 50.6492 106.9972 0.0000 0.0000 0.0000
# 4 0.0000 0.0000 0.0000 36.5391 0.0000 0.0000
# 5 0.0000 0.0000 0.0000 0.0000 34.1656 0.0000
# 6 0.0000 0.0000 0.0000 0.0000 0.0000 18.1495
#
#
#
# Elastic Compliance Matrix: (Units=1/GPa)
#
#
# Indices 1 2 3 4 5 6 
#
# 1 0.014091 -0.004396 -0.003174 0.000000 0.000000 0.000000
# 2 -0.004396 0.015562 -0.005727 0.000000 0.000000 0.000000
# 3 -0.003174 -0.005727 0.013241 0.000000 0.000000 0.000000
# 4 0.000000 0.000000 0.000000 0.027368 0.000000 0.000000
# 5 0.000000 0.000000 0.000000 0.000000 0.029269 0.000000
# 6 0.000000 0.000000 0.000000 0.000000 0.000000 0.055098
#
#
# Mechanical properties :
#
#
# Convention : Reuss Voigt Hill
#
# Bulk Modulus (GPa) = 61.35208 61.88879 61.62043
# Shear Modulus (GPa) = 26.78718 28.61912 27.70315
#
# Velocity S-wave (km/s) = 3.72391 3.84914 3.78704
# Velocity P-wave (km/s) = 7.08882 7.19679 7.14301
#
# Compressibility (1/GPa) = 0.01629937
#
# Stress axis : x y z
#
# Youngs Moduli (GPa) = 70.96893 64.25846 75.52356
#
# Poissons Ratio (x) = 0.28247 0.23972
# Poissons Ratio (y) = 0.31196 0.43255
# Poissons Ratio (z) = 0.22526 0.36803
#
# Static dielectric constant tensor:
#      x y z
#    x 3.596080 0.000000 0.000000 
#    y 0.000000 3.470910 0.000000 
#    z 0.000000 0.000000 3.760400 
# 
# 
# High freq. dielectric constant tensor:
#      x y z
#    x 1.750850 0.000000 0.000000 
#    y 0.000000 1.739210 0.000000 
#    z 0.000000 0.000000 1.760770 
# 
# From -- ./inp_files/7289.got.cif
#   From: 2010.03.12/outbox.cif.g09.slc.cpg/sg57_4_cif.got.tgz:7289.got - 2010.04.16 15:48:40.
