data_PCOD8230413
_publ_section_title
;
Structure prediction by ZEFSAII (Michael W. Deem and Ramdas Pophale) SiO2 
 PCOD8230413
Probable space group: P B C M
;
_chemical_formula_sum "Si O2"
_cell_formula_units_Z 56
_cell_length_a 12.994918
_cell_length_b 21.401862
_cell_length_c 10.849769
_cell_angle_alpha 90.000000
_cell_angle_beta 90.000000
_cell_angle_gamma 90.000000
_cell_volume 3017.488298
_symmetry_space_group_name_H-M "P B C M"
_symmetry_group_IT_number 57
_symmetry_cell_setting 'orthorhombic'
loop_
_space_group_symop_operation_xyz
x,y,z
-x,-y,1/2+z
x,1/2-y,-z
-x,1/2+y,1/2-z
-x,-y,-z
x,y,1/2-z
-x,1/2+y,z
x,1/2-y,1/2+z
loop_
_atom_site_type_symbol
_atom_site_label
_atom_site_fract_x
_atom_site_fract_y
_atom_site_fract_z
Si Si1 0.909869 0.053388 0.615163
Si Si2 0.293399 0.580130 0.026215
Si Si3 0.772213 0.206112 0.112895
Si Si4 0.513137 0.049305 0.891038
Si Si5 0.899991 0.916418 0.538055
Si Si6 0.011593 0.207899 0.114248
Si Si7 0.291478 0.441844 0.384845
O O1 0.891295 0.079967 0.750000
O O2 0.818134 0.079603 0.534835
O O3 0.018742 0.080661 0.572773
O O4 0.912912 0.978100 0.620185
O O5 0.292986 0.641798 0.110662
O O6 0.305936 0.516961 0.104321
O O7 0.384432 0.588318 0.924527
O O8 0.753831 0.235956 0.250000
O O9 0.892541 0.191115 0.094246
O O10 0.734318 0.250000 0.000000
O O11 0.526080 0.022350 0.750000
O O12 0.405989 0.088806 0.896251
O O13 0.500000 0.000000 0.000000
O O14 0.921178 0.855255 0.618147
O O15 0.783680 0.913062 0.486359
O O16 0.027538 0.239769 0.250000
O O17 0.051281 0.250000 0.000000
O O18 0.245016 0.427981 0.250000
#
# Coordination Sequence:
#
# PCOD8230413 Si02
#       7
#     8   8   8   8   8   8   8
#     4  10  19  28  45  74 104 134 166 207 258 310
#     4  10  18  32  51  76 105 139 174 216 264 317
#     4  10  21  36  53  76 106 141 178 218 264 318
#     4   9  18  32  51  76 106 139 175 213 255 306
#     4  10  19  32  47  73 103 137 169 211 254 312
#     4  10  21  37  54  75 104 141 179 217 260 312
#     4   9  18  31  50  76 106 140 177 213 258 314
#
# _framework density 18.558479999999999
#
# number of rings (size 3 to 8) (size 9 to 14) (size 15 to 20)
#    0.000    2.286    1.429    1.714    0.000    2.857 
#    0.000    0.714    0.000    0.857    0.000    0.000 
#    0.000    0.000    0.000    0.000    0.000    0.000 
#
# Total GULP energy -693768.183029 kJ/mol
# GULP energy per Si atom -12388.717554 kJ/mol
# Density = 1.851624 g / cm^3
# Si number density = 18.558480 Si / 1000 Ang^3
#
#
#
# Elastic Constant Matrix: (Units=GPa)
#
#
# Indices 1 2 3 4 5 6 
#
# 1 82.5834 15.1963 23.2223 0.0000 0.0000 0.0000
# 2 15.1963 53.2902 25.4197 0.0000 0.0000 0.0000
# 3 23.2223 25.4197 119.7926 0.0000 0.0000 0.0000
# 4 0.0000 0.0000 0.0000 16.5051 0.0000 0.0000
# 5 0.0000 0.0000 0.0000 0.0000 16.7935 0.0000
# 6 0.0000 0.0000 0.0000 0.0000 0.0000 12.4030
#
#
#
# Elastic Compliance Matrix: (Units=1/GPa)
#
#
# Indices 1 2 3 4 5 6 
#
# 1 0.013179 -0.002825 -0.001955 0.000000 0.000000 0.000000
# 2 -0.002825 0.021484 -0.004011 0.000000 0.000000 0.000000
# 3 -0.001955 -0.004011 0.009578 0.000000 0.000000 0.000000
# 4 0.000000 0.000000 0.000000 0.060587 0.000000 0.000000
# 5 0.000000 0.000000 0.000000 0.000000 0.059547 0.000000
# 6 0.000000 0.000000 0.000000 0.000000 0.000000 0.080625
#
#
# Mechanical properties :
#
#
# Convention : Reuss Voigt Hill
#
# Bulk Modulus (GPa) = 37.51319 42.59363 40.05341
# Shear Modulus (GPa) = 18.41826 21.92886 20.17356
#
# Velocity S-wave (km/s) = 3.15373 3.44118 3.30059
# Velocity P-wave (km/s) = 5.78953 6.22815 6.01284
#
# Compressibility (1/GPa) = 0.02665729
#
# Stress axis : x y z
#
# Youngs Moduli (GPa) = 75.88015 46.54573 104.40641
#
# Poissons Ratio (x) = 0.13151 0.20414
# Poissons Ratio (y) = 0.21439 0.41879
# Poissons Ratio (z) = 0.14836 0.18670
#
# Static dielectric constant tensor:
#      x y z
#    x 3.632420 0.000000 0.000000 
#    y 0.000000 3.096540 0.000000 
#    z 0.000000 0.000000 3.529010 
# 
# 
# High freq. dielectric constant tensor:
#      x y z
#    x 1.712920 0.000000 0.000000 
#    y 0.000000 1.672540 0.000000 
#    z 0.000000 0.000000 1.733010 
# 
# From -- ./inp_files/13098.got.cif
#   From: 2010.03.12/outbox.cif.g09.slc.cpg/sg57_7_cif.got.tgz:13098.got - 2010.04.16 15:48:40.
