data_PCOD8230571
_publ_section_title
;
Structure prediction by ZEFSAII (Michael W. Deem and Ramdas Pophale) SiO2 
 PCOD8230571
Probable space group: P B C M
;
_chemical_formula_sum "Si O2"
_cell_formula_units_Z 64
_cell_length_a 23.492225
_cell_length_b 9.133953
_cell_length_c 14.977833
_cell_angle_alpha 90.000000
_cell_angle_beta 90.000000
_cell_angle_gamma 90.000000
_cell_volume 3213.896660
_symmetry_space_group_name_H-M "P B C M"
_symmetry_group_IT_number 57
_symmetry_cell_setting 'orthorhombic'
loop_
_space_group_symop_operation_xyz
x,y,z
-x,-y,1/2+z
x,1/2-y,-z
-x,1/2+y,1/2-z
-x,-y,-z
x,y,1/2-z
-x,1/2+y,z
x,1/2-y,1/2+z
loop_
_atom_site_type_symbol
_atom_site_label
_atom_site_fract_x
_atom_site_fract_y
_atom_site_fract_z
Si Si1 0.046432 0.130400 0.927884
Si Si2 0.823546 0.551460 0.353088
Si Si3 0.924561 0.115705 0.946516
Si Si4 0.639499 0.078326 0.012140
Si Si5 0.233980 0.923012 0.988815
Si Si6 0.567148 0.040504 0.851683
Si Si7 0.547070 0.120666 0.148699
Si Si8 0.837615 0.888056 0.150590
O O1 0.093648 0.122404 0.850094
O O2 0.982022 0.163720 0.891109
O O3 0.066468 0.250000 0.000000
O O4 0.048664 0.972769 0.972397
O O5 0.814884 0.510905 0.250000
O O6 0.882865 0.477744 0.384625
O O7 0.773421 0.482580 0.411099
O O8 0.817632 0.723902 0.370284
O O9 0.893823 0.250000 0.000000
O O10 0.702656 0.027172 0.040938
O O11 0.594654 0.039006 0.089570
O O12 0.642517 0.250000 0.000000
O O13 0.619136 0.004802 0.918815
O O14 0.188185 0.996481 0.921022
O O15 0.225839 0.750000 0.000000
O O16 0.587769 0.014271 0.750000
O O17 0.546340 0.206089 0.866501
O O18 0.515133 0.935834 0.877843
O O19 0.561531 0.078124 0.250000
O O20 0.818830 0.938000 0.250000
#
# Coordination Sequence:
#
# PCOD8230571 Si02
#       8
#     8   8   8   8   8   8   8   8
#     4  10  18  35  60  83 116 150 181 226 285 345
#     4  11  23  40  60  82 114 154 192 233 288 350
#     4  10  20  34  59  89 113 146 185 231 283 334
#     4   9  19  34  55  78 105 142 183 225 275 330
#     4  11  23  41  60  83 112 145 195 251 290 329
#     4   9  17  31  52  79 111 143 175 214 264 323
#     4   9  17  31  52  79 111 143 175 216 266 322
#     4  11  23  40  62  83 111 154 193 229 287 355
#
# _framework density 19.913522
#
# number of rings (size 3 to 8) (size 9 to 14) (size 15 to 20)
#    0.000    2.000    2.500    1.125    0.000    2.000 
#    0.000    5.000    0.000    3.000    0.000    0.000 
#    0.000    0.000    0.000    0.000    0.000    0.000 
#
# Total GULP energy -792965.299092 kJ/mol
# GULP energy per Si atom -12390.082798 kJ/mol
# Density = 1.986820 g / cm^3
# Si number density = 19.913522 Si / 1000 Ang^3
#
#
#
# Elastic Constant Matrix: (Units=GPa)
#
#
# Indices 1 2 3 4 5 6 
#
# 1 90.4567 15.7855 29.2624 0.0000 0.0000 0.0000
# 2 15.7855 76.9686 35.6556 0.0000 0.0000 0.0000
# 3 29.2624 35.6556 91.8619 0.0000 0.0000 0.0000
# 4 0.0000 0.0000 0.0000 21.3460 0.0000 0.0000
# 5 0.0000 0.0000 0.0000 0.0000 17.6468 0.0000
# 6 0.0000 0.0000 0.0000 0.0000 0.0000 20.5362
#
#
#
# Elastic Compliance Matrix: (Units=1/GPa)
#
#
# Indices 1 2 3 4 5 6 
#
# 1 0.012372 -0.000868 -0.003604 0.000000 0.000000 0.000000
# 2 -0.000868 0.015901 -0.005896 0.000000 0.000000 0.000000
# 3 -0.003604 -0.005896 0.014322 0.000000 0.000000 0.000000
# 4 0.000000 0.000000 0.000000 0.046847 0.000000 0.000000
# 5 0.000000 0.000000 0.000000 0.000000 0.056668 0.000000
# 6 0.000000 0.000000 0.000000 0.000000 0.000000 0.048694
#
#
# Mechanical properties :
#
#
# Convention : Reuss Voigt Hill
#
# Bulk Modulus (GPa) = 45.74402 46.74379 46.24391
# Shear Modulus (GPa) = 22.43884 23.81138 23.12511
#
# Velocity S-wave (km/s) = 3.36045 3.46170 3.41145
# Velocity P-wave (km/s) = 6.17074 6.28507 6.22817
#
# Compressibility (1/GPa) = 0.02186078
#
# Stress axis : x y z
#
# Youngs Moduli (GPa) = 80.82476 62.88751 69.82054
#
# Poissons Ratio (x) = 0.05457 0.25166
# Poissons Ratio (y) = 0.07013 0.41164
# Poissons Ratio (z) = 0.29133 0.37076
#
# Static dielectric constant tensor:
#      x y z
#    x 3.917730 0.000000 0.000000 
#    y 0.000000 3.559540 0.000000 
#    z 0.000000 0.000000 3.828130 
# 
# 
# High freq. dielectric constant tensor:
#      x y z
#    x 1.774810 0.000000 0.000000 
#    y 0.000000 1.771510 0.000000 
#    z 0.000000 0.000000 1.763380 
# 
# From -- ./inp_files/19509.got.cif
#   From: 2010.03.12/outbox.cif.g09.slc.cpg/sg57_10_cif.got.tgz:19509.got - 2010.04.16 15:48:40.
