data_PCOD8230657
_publ_section_title
;
Structure prediction by ZEFSAII (Michael W. Deem and Ramdas Pophale) SiO2 
 PCOD8230657
Probable space group: P B C M
;
_chemical_formula_sum "Si O2"
_cell_formula_units_Z 64
_cell_length_a 13.611318
_cell_length_b 34.067391
_cell_length_c 8.919811
_cell_angle_alpha 90.000000
_cell_angle_beta 90.000000
_cell_angle_gamma 90.000000
_cell_volume 4136.135024
_symmetry_space_group_name_H-M "P B C M"
_symmetry_group_IT_number 57
_symmetry_cell_setting 'orthorhombic'
loop_
_space_group_symop_operation_xyz
x,y,z
-x,-y,1/2+z
x,1/2-y,-z
-x,1/2+y,1/2-z
-x,-y,-z
x,y,1/2-z
-x,1/2+y,z
x,1/2-y,1/2+z
loop_
_atom_site_type_symbol
_atom_site_label
_atom_site_fract_x
_atom_site_fract_y
_atom_site_fract_z
Si Si1 0.137531 0.368802 0.927780
Si Si2 0.143067 0.510503 0.577512
Si Si3 0.345656 0.127522 0.571303
Si Si4 0.955557 0.560062 0.576530
Si Si5 0.463367 0.439558 0.923227
Si Si6 0.640300 0.713079 0.913780
Si Si7 0.872938 0.788088 0.082429
Si Si8 0.364180 0.978812 0.077750
O O1 0.145444 0.366686 0.750000
O O2 0.242081 0.382169 0.994425
O O3 0.058120 0.401059 0.977843
O O4 0.100880 0.326968 0.989199
O O5 0.138301 0.496211 0.750000
O O6 0.120882 0.473450 0.472969
O O7 0.250256 0.527165 0.537813
O O8 0.066332 0.545401 0.547526
O O9 0.329807 0.127775 0.750000
O O10 0.426503 0.096295 0.523485
O O11 0.383813 0.170423 0.515173
O O12 0.936302 0.569802 0.750000
O O13 0.462687 0.427236 0.750000
O O14 0.392462 0.476214 0.955219
O O15 0.574114 0.449777 0.972433
O O16 0.593201 0.715261 0.750000
O O17 0.756912 0.717259 0.906733
O O18 0.593212 0.750000 0.000000
O O19 0.917461 0.791450 0.250000
O O20 0.918989 0.750000 0.000000
O O21 0.387246 0.968350 0.250000
#
# Coordination Sequence:
#
# PCOD8230657 Si02
#       8
#     8   8   8   8   8   8   8   8
#     4  11  20  29  42  61  87 118 149 181 216 255
#     4   9  18  32  48  64  84 113 147 181 218 258
#     4  10  19  30  43  61  86 115 146 180 216 253
#     4  10  19  30  45  65  87 112 145 183 219 256
#     4  10  19  29  44  66  87 110 142 177 214 257
#     4   8  15  25  38  56  79 108 139 169 203 244
#     4   9  16  27  41  59  83 112 145 177 212 254
#     4   9  18  32  46  60  83 113 143 177 215 255
#
# _framework density 15.473382000000001
#
# number of rings (size 3 to 8) (size 9 to 14) (size 15 to 20)
#    0.000    2.500    0.000    4.125    0.000    6.000 
#    0.000    0.000    0.000    0.000    0.000    0.000 
#    0.000    1.000    0.000    6.500    0.000    4.875 
#
# Total GULP energy -793542.944113 kJ/mol
# GULP energy per Si atom -12399.108502 kJ/mol
# Density = 1.543816 g / cm^3
# Si number density = 15.473382 Si / 1000 Ang^3
#
#
#
# Elastic Constant Matrix: (Units=GPa)
#
#
# Indices 1 2 3 4 5 6 
#
# 1 65.9108 38.7655 29.4818 0.0000 0.0000 0.0000
# 2 38.7655 108.3917 52.3978 0.0000 0.0000 0.0000
# 3 29.4818 52.3978 95.2337 0.0000 0.0000 0.0000
# 4 0.0000 0.0000 0.0000 29.4417 0.0000 0.0000
# 5 0.0000 0.0000 0.0000 0.0000 18.8159 0.0000
# 6 0.0000 0.0000 0.0000 0.0000 0.0000 14.6577
#
#
#
# Elastic Compliance Matrix: (Units=1/GPa)
#
#
# Indices 1 2 3 4 5 6 
#
# 1 0.019843 -0.005623 -0.003049 0.000000 0.000000 0.000000
# 2 -0.005623 0.014162 -0.006051 0.000000 0.000000 0.000000
# 3 -0.003049 -0.006051 0.014774 0.000000 0.000000 0.000000
# 4 0.000000 0.000000 0.000000 0.033965 0.000000 0.000000
# 5 0.000000 0.000000 0.000000 0.000000 0.053147 0.000000
# 6 0.000000 0.000000 0.000000 0.000000 0.000000 0.068223
#
#
# Mechanical properties :
#
#
# Convention : Reuss Voigt Hill
#
# Bulk Modulus (GPa) = 51.72676 56.75850 54.24263
# Shear Modulus (GPa) = 20.83292 22.50914 21.67103
#
# Velocity S-wave (km/s) = 3.67327 3.81819 3.74643
# Velocity P-wave (km/s) = 7.17584 7.49661 7.33798
#
# Compressibility (1/GPa) = 0.01933235
#
# Stress axis : x y z
#
# Youngs Moduli (GPa) = 50.39589 70.61156 67.68690
#
# Poissons Ratio (x) = 0.39702 0.20639
# Poissons Ratio (y) = 0.28336 0.40960
# Poissons Ratio (z) = 0.15367 0.42729
#
# Static dielectric constant tensor:
#      x y z
#    x 2.637330 0.000000 0.000000 
#    y 0.000000 3.041850 0.000000 
#    z 0.000000 0.000000 3.120090 
# 
# 
# High freq. dielectric constant tensor:
#      x y z
#    x 1.543970 0.000000 0.000000 
#    y 0.000000 1.593450 0.000000 
#    z 0.000000 0.000000 1.607320 
# 
# From -- ./inp_files/6052.got.cif
#   From: 2010.03.12/outbox.cif.g09.slc.cpg/sg57_4_cif.got.tgz:6052.got - 2010.04.16 15:48:40.
