data_PCOD8230755
_publ_section_title
;
Structure prediction by ZEFSAII (Michael W. Deem and Ramdas Pophale) SiO2 
 PCOD8230755
Probable space group: P B C M
;
_chemical_formula_sum "Si O2"
_cell_formula_units_Z 64
_cell_length_a 23.287590
_cell_length_b 17.882022
_cell_length_c 8.718445
_cell_angle_alpha 90.000000
_cell_angle_beta 90.000000
_cell_angle_gamma 90.000000
_cell_volume 3630.615048
_symmetry_space_group_name_H-M "P B C M"
_symmetry_group_IT_number 57
_symmetry_cell_setting 'orthorhombic'
loop_
_space_group_symop_operation_xyz
x,y,z
-x,-y,1/2+z
x,1/2-y,-z
-x,1/2+y,1/2-z
-x,-y,-z
x,y,1/2-z
-x,1/2+y,z
x,1/2-y,1/2+z
loop_
_atom_site_type_symbol
_atom_site_label
_atom_site_fract_x
_atom_site_fract_y
_atom_site_fract_z
Si Si1 0.625314 0.038553 0.430169
Si Si2 0.936563 0.830969 0.568862
Si Si3 0.548658 0.169699 0.068356
Si Si4 0.679954 0.824251 0.569441
Si Si5 0.966516 0.432840 0.571226
Si Si6 0.737928 0.537842 0.570091
Si Si7 0.132244 0.031464 0.570524
Si Si8 0.431001 0.113082 0.931838
O O1 0.618276 0.039185 0.250000
O O2 0.599704 0.115886 0.494881
O O3 0.692564 0.027906 0.474758
O O4 0.587112 0.969316 0.491177
O O5 0.921966 0.750000 0.500000
O O6 0.930934 0.823490 0.750000
O O7 0.891739 0.894982 0.515307
O O8 0.002238 0.855647 0.516864
O O9 0.547994 0.175867 0.250000
O O10 0.561358 0.250000 0.000000
O O11 0.488786 0.136265 0.014650
O O12 0.709082 0.750000 0.500000
O O13 0.670443 0.819072 0.750000
O O14 0.723497 0.890290 0.530194
O O15 0.619129 0.831342 0.483366
O O16 0.975899 0.436484 0.750000
O O17 0.900256 0.452309 0.528162
O O18 0.000000 0.500000 0.500000
O O19 0.731563 0.557542 0.750000
O O20 0.802154 0.513908 0.525883
O O21 0.125644 0.048984 0.750000
O O22 0.439291 0.118033 0.750000
#
# Coordination Sequence:
#
# PCOD8230755 Si02
#       8
#     8   8   8   8   8   8   8   8
#     4   8  17  33  52  71  94 123 157 195 237 282
#     4  10  19  30  46  70 103 133 160 192 233 280
#     4  11  21  33  49  72  98 124 154 192 239 290
#     4  11  21  33  48  68  96 129 160 193 233 282
#     4   8  15  28  46  69  93 122 156 192 230 272
#     4   9  18  34  53  72  92 121 160 201 239 280
#     4   9  17  31  52  73  94 121 159 200 240 281
#     4  10  19  34  53  73  95 121 156 197 240 289
#
# _framework density 17.627867999999999
#
# number of rings (size 3 to 8) (size 9 to 14) (size 15 to 20)
#    0.000    2.500    0.000    3.750    0.000    1.500 
#    0.000    5.625    0.000    0.750    0.000    0.000 
#    0.000    0.000    0.000    0.000    0.000    0.250 
#
# Total GULP energy -792875.621842 kJ/mol
# GULP energy per Si atom -12388.681591 kJ/mol
# Density = 1.758775 g / cm^3
# Si number density = 17.627868 Si / 1000 Ang^3
#
#
#
# Elastic Constant Matrix: (Units=GPa)
#
#
# Indices 1 2 3 4 5 6 
#
# 1 95.3002 46.4104 14.4247 0.0000 0.0000 0.0000
# 2 46.4104 82.4193 21.7364 0.0000 0.0000 0.0000
# 3 14.4247 21.7364 47.3353 0.0000 0.0000 0.0000
# 4 0.0000 0.0000 0.0000 17.9193 0.0000 0.0000
# 5 0.0000 0.0000 0.0000 0.0000 18.9773 0.0000
# 6 0.0000 0.0000 0.0000 0.0000 0.0000 22.6477
#
#
#
# Elastic Compliance Matrix: (Units=1/GPa)
#
#
# Indices 1 2 3 4 5 6 
#
# 1 0.014482 -0.007954 -0.000761 0.000000 0.000000 0.000000
# 2 -0.007954 0.018174 -0.005921 0.000000 0.000000 0.000000
# 3 -0.000761 -0.005921 0.024077 0.000000 0.000000 0.000000
# 4 0.000000 0.000000 0.000000 0.055806 0.000000 0.000000
# 5 0.000000 0.000000 0.000000 0.000000 0.052694 0.000000
# 6 0.000000 0.000000 0.000000 0.000000 0.000000 0.044155
#
#
# Mechanical properties :
#
#
# Convention : Reuss Voigt Hill
#
# Bulk Modulus (GPa) = 36.41663 43.35530 39.88596
# Shear Modulus (GPa) = 20.17651 21.40776 20.79213
#
# Velocity S-wave (km/s) = 3.38683 3.48864 3.43812
# Velocity P-wave (km/s) = 5.99980 6.39341 6.19973
#
# Compressibility (1/GPa) = 0.02745998
#
# Stress axis : x y z
#
# Youngs Moduli (GPa) = 69.05173 55.02439 41.53378
#
# Poissons Ratio (x) = 0.43767 0.03159
# Poissons Ratio (y) = 0.54925 0.24594
# Poissons Ratio (z) = 0.05252 0.32583
#
# Static dielectric constant tensor:
#      x y z
#    x 3.688570 0.000000 0.000000 
#    y 0.000000 3.438910 0.000000 
#    z 0.000000 0.000000 3.199460 
# 
# 
# High freq. dielectric constant tensor:
#      x y z
#    x 1.676830 0.000000 0.000000 
#    y 0.000000 1.667260 0.000000 
#    z 0.000000 0.000000 1.678190 
# 
# From -- ./inp_files/9549.got.cif
#   From: 2010.03.12/outbox.cif.g09.slc.cpg/sg57_5_cif.got.tgz:9549.got - 2010.04.16 15:48:40.
