data_PCOD8230352
_publ_section_title
;
Structure prediction by ZEFSAII (Michael W. Deem and Ramdas Pophale) SiO2 
 PCOD8230352
Probable space group: P B C M
;
_chemical_formula_sum "Si O2"
_cell_formula_units_Z 40
_cell_length_a 12.870000
_cell_length_b 19.254493
_cell_length_c 8.642233
_cell_angle_alpha 90.000000
_cell_angle_beta 90.000000
_cell_angle_gamma 90.000000
_cell_volume 2141.591357
_symmetry_space_group_name_H-M "P B C M"
_symmetry_group_IT_number 57
_symmetry_cell_setting 'orthorhombic'
loop_
_space_group_symop_operation_xyz
x,y,z
-x,-y,1/2+z
x,1/2-y,-z
-x,1/2+y,1/2-z
-x,-y,-z
x,y,1/2-z
-x,1/2+y,z
x,1/2-y,1/2+z
loop_
_atom_site_type_symbol
_atom_site_label
_atom_site_fract_x
_atom_site_fract_y
_atom_site_fract_z
Si Si1 0.387347 0.081731 0.928201
Si Si2 0.785658 0.674213 0.431051
Si Si3 0.795010 0.326230 0.932641
Si Si4 0.395886 0.578264 0.429571
Si Si5 0.994875 0.827040 0.433234
O O1 0.366616 0.100438 0.750000
O O2 0.365935 0.001157 0.963551
O O3 0.311903 0.125709 0.035948
O O4 0.505454 0.101297 0.969814
O O5 0.763846 0.750000 0.500000
O O6 0.803486 0.682052 0.250000
O O7 0.888516 0.637802 0.505757
O O8 0.806866 0.320819 0.750000
O O9 0.699808 0.374535 0.982833
O O10 0.775338 0.250000 0.000000
O O11 0.899705 0.361973 0.001730
O O12 0.423404 0.588858 0.250000
O O13 0.993451 0.750000 0.500000
O O14 0.996958 0.827726 0.250000
#
# Coordination Sequence:
#
# PCOD8230352 Si02
#       5
#     8   8   8   8   8
#     4  10  20  36  56  77 103 137 176 217 262 310
#     4  11  21  35  55  79 106 136 172 213 259 309
#     4  10  19  33  53  78 106 136 172 212 255 303
#     4   9  20  37  55  75 104 141 177 214 259 311
#     4  10  18  31  51  76 105 136 170 208 256 307
#
# _framework density 18.677700999999999
#
# number of rings (size 3 to 8) (size 9 to 14) (size 15 to 20)
#    0.000    2.000    0.000    7.200    0.000    3.200 
#    0.000    3.000    0.000    0.000    0.000    0.000 
#    0.000    0.000    0.000    0.000    0.000    0.000 
#
# Total GULP energy -496008.668601 kJ/mol
# GULP energy per Si atom -12400.216715 kJ/mol
# Density = 1.863519 g / cm^3
# Si number density = 18.677701 Si / 1000 Ang^3
#
#
#
# Elastic Constant Matrix: (Units=GPa)
#
#
# Indices 1 2 3 4 5 6 
#
# 1 148.9339 63.8640 58.8135 0.0000 0.0000 0.0000
# 2 63.8640 59.2987 31.7943 0.0000 0.0000 0.0000
# 3 58.8135 31.7943 120.7110 0.0000 0.0000 0.0000
# 4 0.0000 0.0000 0.0000 23.3242 0.0000 0.0000
# 5 0.0000 0.0000 0.0000 0.0000 37.8485 0.0000
# 6 0.0000 0.0000 0.0000 0.0000 0.0000 -4.5120
#
#
#
# Elastic Compliance Matrix: (Units=1/GPa)
#
#
# Indices 1 2 3 4 5 6 
#
# 1 0.013454 -0.012780 -0.003189 0.000000 0.000000 0.000000
# 2 -0.012780 0.031776 -0.002143 0.000000 0.000000 0.000000
# 3 -0.003189 -0.002143 0.010402 0.000000 0.000000 0.000000
# 4 0.000000 0.000000 0.000000 0.042874 0.000000 0.000000
# 5 0.000000 0.000000 0.000000 0.000000 0.026421 0.000000
# 6 0.000000 0.000000 0.000000 0.000000 0.000000 -0.221632
#
#
# Mechanical properties :
#
#
# Convention : Reuss Voigt Hill
#
# Bulk Modulus (GPa) = 51.52195 70.87636 61.19915
# Shear Modulus (GPa) = -92.57199 22.96361 -34.80419
#
# Velocity S-wave (km/s) = -7.04773 3.51018 -4.32141
# Velocity P-wave (km/s) = 6.21149 7.37956 2.81738
#
# Compressibility (1/GPa) = 0.01940920
#
# Stress axis : x y z
#
# Youngs Moduli (GPa) = 74.32901 31.46996 96.13123
#
# Poissons Ratio (x) = 0.40217 0.30656
# Poissons Ratio (y) = 0.94990 0.20602
# Poissons Ratio (z) = 0.23703 0.06744
#
# Static dielectric constant tensor:
#      x y z
#    x 4.017850 0.000000 0.000000 
#    y 0.000000 3.164760 0.000000 
#    z 0.000000 0.000000 3.494970 
# 
# 
# High freq. dielectric constant tensor:
#      x y z
#    x 1.745200 0.000000 0.000000 
#    y 0.000000 1.689710 0.000000 
#    z 0.000000 0.000000 1.740760 
# 
# From -- ./inp_files/2677.got.cif
#   From: 2010.03.12/outbox.cif.g09.slc.cpg/sg57_2_cif.got.tgz:2677.got - 2010.04.16 15:48:40.
