data_PCOD8230639
_publ_section_title
;
Structure prediction by ZEFSAII (Michael W. Deem and Ramdas Pophale) SiO2 
 PCOD8230639
Probable space group: P B C M
;
_chemical_formula_sum "Si O2"
_cell_formula_units_Z 56
_cell_length_a 12.882043
_cell_length_b 28.617561
_cell_length_c 9.266981
_cell_angle_alpha 90.000000
_cell_angle_beta 90.000000
_cell_angle_gamma 90.000000
_cell_volume 3416.297116
_symmetry_space_group_name_H-M "P B C M"
_symmetry_group_IT_number 57
_symmetry_cell_setting 'orthorhombic'
loop_
_space_group_symop_operation_xyz
x,y,z
-x,-y,1/2+z
x,1/2-y,-z
-x,1/2+y,1/2-z
-x,-y,-z
x,y,1/2-z
-x,1/2+y,z
x,1/2-y,1/2+z
loop_
_atom_site_type_symbol
_atom_site_label
_atom_site_fract_x
_atom_site_fract_y
_atom_site_fract_z
Si Si1 0.101227 0.551372 0.916888
Si Si2 0.806070 0.863782 0.418241
Si Si3 0.376373 0.203048 0.581903
Si Si4 0.111408 0.446855 0.582600
Si Si5 0.801747 0.145048 0.919855
Si Si6 0.999704 0.798541 0.420079
Si Si7 0.389435 0.797199 0.080626
O O1 0.067136 0.558201 0.750000
O O2 0.150716 0.500178 0.940688
O O3 0.184724 0.590681 0.964068
O O4 0.001303 0.559139 0.014266
O O5 0.805761 0.875990 0.250000
O O6 0.700603 0.838011 0.465956
O O7 0.808181 0.912242 0.505673
O O8 0.903961 0.831966 0.459665
O O9 0.345136 0.250000 0.500000
O O10 0.363829 0.214137 0.750000
O O11 0.493438 0.186993 0.542901
O O12 0.104196 0.434036 0.750000
O O13 0.805178 0.149723 0.750000
O O14 0.895983 0.176740 0.980158
O O15 0.690315 0.163214 0.976515
O O16 0.983252 0.750000 0.500000
O O17 0.004316 0.788910 0.250000
O O18 0.376819 0.787990 0.250000
O O19 0.359534 0.750000 0.000000
#
# Coordination Sequence:
#
# PCOD8230639 Si02
#       7
#     8   8   8   8   8   8   8
#     4   9  17  32  49  66  93 124 152 185 230 279
#     4  10  19  32  47  63  92 127 152 181 228 278
#     4   9  18  31  48  69  91 121 157 192 227 264
#     4  10  19  29  47  72  92 116 154 195 229 268
#     4   9  16  29  48  66  89 122 151 180 224 277
#     4  10  19  29  42  62  89 121 148 176 221 270
#     4   9  17  30  48  69  91 118 156 191 222 265
#
# _framework density 16.392016999999999
#
# number of rings (size 3 to 8) (size 9 to 14) (size 15 to 20)
#    0.000    2.571    1.429    1.286    0.000    1.714 
#    0.000    0.714    0.000    0.857    0.000    0.000 
#    0.000    0.000    0.000    0.000    0.000    0.429 
#
# Total GULP energy -694288.416480 kJ/mol
# GULP energy per Si atom -12398.007437 kJ/mol
# Density = 1.635471 g / cm^3
# Si number density = 16.392017 Si / 1000 Ang^3
#
#
#
# Elastic Constant Matrix: (Units=GPa)
#
#
# Indices 1 2 3 4 5 6 
#
# 1 106.1786 73.6830 33.1388 0.0000 0.0000 0.0000
# 2 73.6830 139.7801 49.2794 0.0000 0.0000 0.0000
# 3 33.1388 49.2794 45.1084 0.0000 0.0000 0.0000
# 4 0.0000 0.0000 0.0000 28.3045 0.0000 0.0000
# 5 0.0000 0.0000 0.0000 0.0000 13.8004 0.0000
# 6 0.0000 0.0000 0.0000 0.0000 0.0000 26.8369
#
#
#
# Elastic Compliance Matrix: (Units=1/GPa)
#
#
# Indices 1 2 3 4 5 6 
#
# 1 0.015270 -0.006659 -0.003943 0.000000 0.000000 0.000000
# 2 -0.006659 0.014540 -0.010992 0.000000 0.000000 0.000000
# 3 -0.003943 -0.010992 0.037074 0.000000 0.000000 0.000000
# 4 0.000000 0.000000 0.000000 0.035330 0.000000 0.000000
# 5 0.000000 0.000000 0.000000 0.000000 0.072462 0.000000
# 6 0.000000 0.000000 0.000000 0.000000 0.000000 0.037262
#
#
# Mechanical properties :
#
#
# Convention : Reuss Voigt Hill
#
# Bulk Modulus (GPa) = 42.20284 67.02995 54.61639
# Shear Modulus (GPa) = 19.00972 22.78609 20.89791
#
# Velocity S-wave (km/s) = 3.40912 3.73241 3.57442
# Velocity P-wave (km/s) = 6.42635 7.71720 7.10117
#
# Compressibility (1/GPa) = 0.02369509
#
# Stress axis : x y z
#
# Youngs Moduli (GPa) = 65.48830 68.77798 26.97329
#
# Poissons Ratio (x) = 0.45801 0.10636
# Poissons Ratio (y) = 0.43610 0.29648
# Poissons Ratio (z) = 0.25822 0.75599
#
# Static dielectric constant tensor:
#      x y z
#    x 3.201550 0.000000 0.000000 
#    y 0.000000 3.285750 0.000000 
#    z 0.000000 0.000000 2.989250 
# 
# 
# High freq. dielectric constant tensor:
#      x y z
#    x 1.616240 0.000000 0.000000 
#    y 0.000000 1.632650 0.000000 
#    z 0.000000 0.000000 1.618730 
# 
# From -- ./inp_files/5924.got.cif
#   From: 2010.03.12/outbox.cif.g09.slc.cpg/sg57_3_cif.got.tgz:5924.got - 2010.04.16 15:48:40.
