data_PCOD8230147
_publ_section_title
;
Structure prediction by ZEFSAII (Michael W. Deem and Ramdas Pophale) SiO2 
 PCOD8230147
Probable space group: P B C M
;
_chemical_formula_sum "Si O2"
_cell_formula_units_Z 64
_cell_length_a 15.483692
_cell_length_b 23.357206
_cell_length_c 9.076378
_cell_angle_alpha 90.000000
_cell_angle_beta 90.000000
_cell_angle_gamma 90.000000
_cell_volume 3282.524599
_symmetry_space_group_name_H-M "P B C M"
_symmetry_group_IT_number 57
_symmetry_cell_setting 'orthorhombic'
loop_
_space_group_symop_operation_xyz
x,y,z
-x,-y,1/2+z
x,1/2-y,-z
-x,1/2+y,1/2-z
-x,-y,-z
x,y,1/2-z
-x,1/2+y,z
x,1/2-y,1/2+z
loop_
_atom_site_type_symbol
_atom_site_label
_atom_site_fract_x
_atom_site_fract_y
_atom_site_fract_z
Si Si1 0.864184 0.017894 0.082120
Si Si2 0.223511 0.689427 0.924830
Si Si3 0.940811 0.381625 0.078580
Si Si4 0.612219 0.118854 0.921915
Si Si5 0.548945 0.810131 0.073755
Si Si6 0.691391 0.005092 0.920876
Si Si7 0.129198 0.114553 0.583253
Si Si8 0.302029 0.375597 0.576984
O O1 0.857468 0.036724 0.250000
O O2 0.890928 0.952331 0.063730
O O3 0.934244 0.057945 0.004445
O O4 0.771781 0.028869 0.009776
O O5 0.225717 0.696991 0.750000
O O6 0.132354 0.662328 0.976783
O O7 0.301965 0.649805 0.983761
O O8 0.234659 0.750000 0.000000
O O9 0.928671 0.395045 0.250000
O O10 0.036874 0.355169 0.048864
O O11 0.610693 0.130241 0.750000
O O12 0.524420 0.146045 0.985736
O O13 0.614264 0.050287 0.955811
O O14 0.552452 0.804415 0.250000
O O15 0.526734 0.750000 0.000000
O O16 0.640651 0.831785 0.014862
O O17 0.717284 0.006869 0.750000
O O18 0.667328 0.940138 0.965579
O O19 0.160602 0.127743 0.750000
O O20 0.202680 0.134974 0.470068
O O21 0.311213 0.363318 0.750000
#
# Coordination Sequence:
#
# PCOD8230147 Si02
#       8
#     8   8   8   8   8   8   8   8
#     4  10  18  28  47  80 115 143 181 230 273 321
#     4  10  20  35  54  76 107 145 186 226 273 329
#     4  10  19  33  53  74 105 150 189 224 274 335
#     4   9  18  35  59  84 110 145 183 223 274 333
#     4  11  23  40  62  84 110 143 186 236 281 331
#     4   9  17  34  57  81 114 152 186 217 273 348
#     4   9  19  34  53  79 110 146 187 228 277 328
#     4  10  21  37  59  85 114 148 185 230 282 337
#
# _framework density 19.497188000000001
#
# number of rings (size 3 to 8) (size 9 to 14) (size 15 to 20)
#    0.000    2.250    1.250    1.875    0.000    2.500 
#    0.000    2.500    0.000    1.500    0.000    0.000 
#    0.000    0.000    0.000    0.000    0.000    0.000 
#
# Total GULP energy -793414.547346 kJ/mol
# GULP energy per Si atom -12397.102302 kJ/mol
# Density = 1.945281 g / cm^3
# Si number density = 19.497188 Si / 1000 Ang^3
#
#
#
# Elastic Constant Matrix: (Units=GPa)
#
#
# Indices 1 2 3 4 5 6 
#
# 1 90.1614 17.9286 26.6158 0.0000 0.0000 0.0000
# 2 17.9286 36.1295 13.4229 0.0000 0.0000 0.0000
# 3 26.6158 13.4229 55.0361 0.0000 0.0000 0.0000
# 4 0.0000 0.0000 0.0000 28.6399 0.0000 0.0000
# 5 0.0000 0.0000 0.0000 0.0000 21.6863 0.0000
# 6 0.0000 0.0000 0.0000 0.0000 0.0000 23.1201
#
#
#
# Elastic Compliance Matrix: (Units=1/GPa)
#
#
# Indices 1 2 3 4 5 6 
#
# 1 0.013641 -0.004748 -0.005439 0.000000 0.000000 0.000000
# 2 -0.004748 0.032089 -0.005530 0.000000 0.000000 0.000000
# 3 -0.005439 -0.005530 0.022149 0.000000 0.000000 0.000000
# 4 0.000000 0.000000 0.000000 0.034916 0.000000 0.000000
# 5 0.000000 0.000000 0.000000 0.000000 0.046112 0.000000
# 6 0.000000 0.000000 0.000000 0.000000 0.000000 0.043252
#
#
# Mechanical properties :
#
#
# Convention : Reuss Voigt Hill
#
# Bulk Modulus (GPa) = 27.43893 33.02909 30.23401
# Shear Modulus (GPa) = 21.20964 22.91325 22.06144
#
# Velocity S-wave (km/s) = 3.30181 3.43185 3.36746
# Velocity P-wave (km/s) = 5.35161 5.71670 5.53716
#
# Compressibility (1/GPa) = 0.03644457
#
# Stress axis : x y z
#
# Youngs Moduli (GPa) = 73.30851 31.16334 45.14915
#
# Poissons Ratio (x) = 0.14798 0.24556
# Poissons Ratio (y) = 0.34810 0.24967
# Poissons Ratio (z) = 0.39871 0.17233
#
# Static dielectric constant tensor:
#      x y z
#    x 3.700310 0.000000 0.000000 
#    y 0.000000 3.463550 0.000000 
#    z 0.000000 0.000000 3.420930 
# 
# 
# High freq. dielectric constant tensor:
#      x y z
#    x 1.761800 0.000000 0.000000 
#    y 0.000000 1.745120 0.000000 
#    z 0.000000 0.000000 1.745910 
# 
# From -- ./inp_files/5577.got.cif
#   From: 2010.03.12/outbox.cif.g09.slc.cpg/sg57_3_cif.got.tgz:5577.got - 2010.04.16 15:48:40.
