data_PCOD8230670
_publ_section_title
;
Structure prediction by ZEFSAII (Michael W. Deem and Ramdas Pophale) SiO2 
 PCOD8230670
Probable space group: P B C M
;
_chemical_formula_sum "Si O2"
_cell_formula_units_Z 64
_cell_length_a 14.427919
_cell_length_b 27.414168
_cell_length_c 9.346737
_cell_angle_alpha 90.000000
_cell_angle_beta 90.000000
_cell_angle_gamma 90.000000
_cell_volume 3696.909234
_symmetry_space_group_name_H-M "P B C M"
_symmetry_group_IT_number 57
_symmetry_cell_setting 'orthorhombic'
loop_
_space_group_symop_operation_xyz
x,y,z
-x,-y,1/2+z
x,1/2-y,-z
-x,1/2+y,1/2-z
-x,-y,-z
x,y,1/2-z
-x,1/2+y,z
x,1/2-y,1/2+z
loop_
_atom_site_type_symbol
_atom_site_label
_atom_site_fract_x
_atom_site_fract_y
_atom_site_fract_z
Si Si1 0.835478 0.421091 0.412428
Si Si2 0.641419 0.797503 0.083469
Si Si3 0.339140 0.030574 0.914449
Si Si4 0.037804 0.106802 0.584330
Si Si5 0.483820 0.111721 0.916361
Si Si6 0.656947 0.082352 0.083438
Si Si7 0.158996 0.466018 0.583686
Si Si8 0.853922 0.797573 0.416637
O O1 0.799592 0.415400 0.250000
O O2 0.755635 0.401970 0.517715
O O3 0.860308 0.477209 0.443874
O O4 0.927416 0.389264 0.439308
O O5 0.630737 0.786414 0.250000
O O6 0.579619 0.843121 0.035989
O O7 0.747627 0.809867 0.044096
O O8 0.606069 0.750000 0.000000
O O9 0.308808 0.038263 0.750000
O O10 0.429839 0.061762 0.950782
O O11 0.362330 0.974499 0.947299
O O12 0.255925 0.049781 0.012664
O O13 0.061338 0.095843 0.750000
O O14 0.075658 0.062894 0.489088
O O15 0.083284 0.157295 0.533490
O O16 0.510334 0.114742 0.750000
O O17 0.576992 0.113682 0.008618
O O18 0.658052 0.094831 0.250000
O O19 0.163160 0.452760 0.750000
O O20 0.888879 0.750000 0.500000
O O21 0.866112 0.786870 0.250000
#
# Coordination Sequence:
#
# PCOD8230670 Si02
#       8
#     8   8   8   8   8   8   8   8
#     4   9  19  34  49  67  95 132 169 202 238 283
#     4   9  18  32  50  72  97 124 152 187 234 285
#     4   9  18  32  48  68  98 133 164 195 236 288
#     4  10  19  32  51  71  95 130 166 197 236 290
#     4  10  19  32  51  71  94 127 163 196 235 288
#     4  10  20  32  48  71  98 128 162 203 244 279
#     4  10  19  29  45  72 102 129 161 202 241 279
#     4   9  18  33  52  74  99 125 154 190 236 288
#
# _framework density 17.31176
#
# number of rings (size 3 to 8) (size 9 to 14) (size 15 to 20)
#    0.000    2.500    0.000    2.250    0.000    5.000 
#    0.000    2.500    0.000    0.750    0.000    1.750 
#    0.000    0.000    0.000    0.000    0.000    0.000 
#
# Total GULP energy -793819.242747 kJ/mol
# GULP energy per Si atom -12403.425668 kJ/mol
# Density = 1.727236 g / cm^3
# Si number density = 17.311760 Si / 1000 Ang^3
#
#
#
# Elastic Constant Matrix: (Units=GPa)
#
#
# Indices 1 2 3 4 5 6 
#
# 1 110.5664 54.3099 56.0500 0.0000 0.0000 0.0000
# 2 54.3099 74.0798 37.8936 0.0000 0.0000 0.0000
# 3 56.0500 37.8936 71.7193 0.0000 0.0000 0.0000
# 4 0.0000 0.0000 0.0000 26.4279 0.0000 0.0000
# 5 0.0000 0.0000 0.0000 0.0000 28.5894 0.0000
# 6 0.0000 0.0000 0.0000 0.0000 0.0000 25.6051
#
#
#
# Elastic Compliance Matrix: (Units=1/GPa)
#
#
# Indices 1 2 3 4 5 6 
#
# 1 0.018024 -0.008234 -0.009736 0.000000 0.000000 0.000000
# 2 -0.008234 0.022260 -0.005326 0.000000 0.000000 0.000000
# 3 -0.009736 -0.005326 0.024366 0.000000 0.000000 0.000000
# 4 0.000000 0.000000 0.000000 0.037839 0.000000 0.000000
# 5 0.000000 0.000000 0.000000 0.000000 0.034978 0.000000
# 6 0.000000 0.000000 0.000000 0.000000 0.000000 0.039055
#
#
# Mechanical properties :
#
#
# Convention : Reuss Voigt Hill
#
# Bulk Modulus (GPa) = 55.37617 61.43028 58.40322
# Shear Modulus (GPa) = 21.82134 23.33196 22.57665
#
# Velocity S-wave (km/s) = 3.55419 3.67516 3.61518
# Velocity P-wave (km/s) = 6.99286 7.31921 7.15789
#
# Compressibility (1/GPa) = 0.01805831
#
# Stress axis : x y z
#
# Youngs Moduli (GPa) = 55.48068 44.92355 41.04052
#
# Poissons Ratio (x) = 0.36990 0.39956
# Poissons Ratio (y) = 0.45683 0.21859
# Poissons Ratio (z) = 0.54015 0.23928
#
# Static dielectric constant tensor:
#      x y z
#    x 3.160460 0.000000 0.000000 
#    y 0.000000 3.078300 0.000000 
#    z 0.000000 0.000000 3.222210 
# 
# 
# High freq. dielectric constant tensor:
#      x y z
#    x 1.665160 0.000000 0.000000 
#    y 0.000000 1.645580 0.000000 
#    z 0.000000 0.000000 1.670400 
# 
# From -- ./inp_files/5684.got.cif
#   From: 2010.03.12/outbox.cif.g09.slc.cpg/sg57_3_cif.got.tgz:5684.got - 2010.04.16 15:48:40.
