data_PCOD8230761
_publ_section_title
;
Structure prediction by ZEFSAII (Michael W. Deem and Ramdas Pophale) SiO2 
 PCOD8230761
Probable space group: P B C M
;
_chemical_formula_sum "Si O2"
_cell_formula_units_Z 64
_cell_length_a 15.525938
_cell_length_b 28.411393
_cell_length_c 8.938397
_cell_angle_alpha 90.000000
_cell_angle_beta 90.000000
_cell_angle_gamma 90.000000
_cell_volume 3942.847819
_symmetry_space_group_name_H-M "P B C M"
_symmetry_group_IT_number 57
_symmetry_cell_setting 'orthorhombic'
loop_
_space_group_symop_operation_xyz
x,y,z
-x,-y,1/2+z
x,1/2-y,-z
-x,1/2+y,1/2-z
-x,-y,-z
x,y,1/2-z
-x,1/2+y,z
x,1/2-y,1/2+z
loop_
_atom_site_type_symbol
_atom_site_label
_atom_site_fract_x
_atom_site_fract_y
_atom_site_fract_z
Si Si1 0.308205 0.958463 0.925356
Si Si2 0.494548 0.548751 0.421273
Si Si3 0.013538 0.449966 0.926781
Si Si4 0.835173 0.605855 0.573102
Si Si5 0.154127 0.608521 0.425822
Si Si6 0.085875 0.296579 0.424564
Si Si7 0.679729 0.559868 0.426254
Si Si8 0.888689 0.202152 0.926701
O O1 0.297515 0.970983 0.750000
O O2 0.399199 0.930115 0.955322
O O3 0.232011 0.924668 0.979801
O O4 0.304007 0.006600 0.018530
O O5 0.500000 0.500000 0.500000
O O6 0.502215 0.535996 0.250000
O O7 0.581265 0.577785 0.463842
O O8 0.020435 0.455879 0.750000
O O9 0.935103 0.416018 0.972263
O O10 0.000000 0.500000 0.000000
O O11 0.101685 0.429813 0.990656
O O12 0.843737 0.598356 0.750000
O O13 0.857568 0.659007 0.525633
O O14 0.739137 0.595817 0.517155
O O15 0.158723 0.618236 0.250000
O O16 0.164419 0.657873 0.511137
O O17 0.125113 0.250000 0.500000
O O18 0.089627 0.288242 0.250000
O O19 0.987764 0.304875 0.476877
O O20 0.700248 0.562467 0.250000
O O21 0.877502 0.205218 0.750000
O O22 0.852036 0.250000 0.000000
#
# Coordination Sequence:
#
# PCOD8230761 Si02
#       8
#     8   8   8   8   8   8   8   8
#     4   9  17  31  49  69  96 130 160 195 237 282
#     4   8  15  28  46  67  93 122 157 196 238 281
#     4  11  22  33  46  66  96 132 164 195 228 272
#     4  11  21  34  48  67  94 127 163 196 235 282
#     4  10  20  32  47  69  94 124 160 193 233 280
#     4   9  19  33  50  69  89 117 153 195 239 281
#     4  10  19  30  46  71  97 126 162 200 238 280
#     4  10  19  33  51  70  92 120 154 196 239 280
#
# _framework density 16.231922999999998
#
# number of rings (size 3 to 8) (size 9 to 14) (size 15 to 20)
#    0.000    2.250    1.250    2.250    0.000    4.000 
#    0.000    0.000    0.000    0.000    0.000    0.875 
#    0.000    2.000    0.000    0.000    0.000    0.000 
#
# Total GULP energy -793267.436016 kJ/mol
# GULP energy per Si atom -12394.803688 kJ/mol
# Density = 1.619498 g / cm^3
# Si number density = 16.231923 Si / 1000 Ang^3
#
#
#
# Elastic Constant Matrix: (Units=GPa)
#
#
# Indices 1 2 3 4 5 6 
#
# 1 70.2280 17.0643 16.5013 0.0000 0.0000 0.0000
# 2 17.0643 82.9162 28.4780 0.0000 0.0000 0.0000
# 3 16.5013 28.4780 46.8623 0.0000 0.0000 0.0000
# 4 0.0000 0.0000 0.0000 29.2923 0.0000 0.0000
# 5 0.0000 0.0000 0.0000 0.0000 19.6820 0.0000
# 6 0.0000 0.0000 0.0000 0.0000 0.0000 11.8423
#
#
#
# Elastic Compliance Matrix: (Units=1/GPa)
#
#
# Indices 1 2 3 4 5 6 
#
# 1 0.015708 -0.001685 -0.004507 0.000000 0.000000 0.000000
# 2 -0.001685 0.015422 -0.008779 0.000000 0.000000 0.000000
# 3 -0.004507 -0.008779 0.028261 0.000000 0.000000 0.000000
# 4 0.000000 0.000000 0.000000 0.034139 0.000000 0.000000
# 5 0.000000 0.000000 0.000000 0.000000 0.050808 0.000000
# 6 0.000000 0.000000 0.000000 0.000000 0.000000 0.084443
#
#
# Mechanical properties :
#
#
# Convention : Reuss Voigt Hill
#
# Bulk Modulus (GPa) = 33.95641 36.01041 34.98341
# Shear Modulus (GPa) = 18.61931 21.36086 19.99009
#
# Velocity S-wave (km/s) = 3.39053 3.63158 3.51312
# Velocity P-wave (km/s) = 6.02433 6.31012 6.16888
#
# Compressibility (1/GPa) = 0.02944952
#
# Stress axis : x y z
#
# Youngs Moduli (GPa) = 63.66288 64.84169 35.38438
#
# Poissons Ratio (x) = 0.10923 0.15949
# Poissons Ratio (y) = 0.10725 0.31063
# Poissons Ratio (z) = 0.28695 0.56923
#
# Static dielectric constant tensor:
#      x y z
#    x 3.556200 0.000000 0.000000 
#    y 0.000000 2.912090 0.000000 
#    z 0.000000 0.000000 3.053430 
# 
# 
# High freq. dielectric constant tensor:
#      x y z
#    x 1.619170 0.000000 0.000000 
#    y 0.000000 1.600270 0.000000 
#    z 0.000000 0.000000 1.633850 
# 
# From -- ./inp_files/6024.got.cif
#   From: 2010.03.12/outbox.cif.g09.slc.cpg/sg57_4_cif.got.tgz:6024.got - 2010.04.16 15:48:40.
