data_PCOD8230841
_publ_section_title
;
Structure prediction by ZEFSAII (Michael W. Deem and Ramdas Pophale) SiO2 
 PCOD8230841
Probable space group: P B C M
;
_chemical_formula_sum "Si O2"
_cell_formula_units_Z 64
_cell_length_a 15.777770
_cell_length_b 28.781476
_cell_length_c 8.885543
_cell_angle_alpha 90.000000
_cell_angle_beta 90.000000
_cell_angle_gamma 90.000000
_cell_volume 4034.991794
_symmetry_space_group_name_H-M "P B C M"
_symmetry_group_IT_number 57
_symmetry_cell_setting 'orthorhombic'
loop_
_space_group_symop_operation_xyz
x,y,z
-x,-y,1/2+z
x,1/2-y,-z
-x,1/2+y,1/2-z
-x,-y,-z
x,y,1/2-z
-x,1/2+y,z
x,1/2-y,1/2+z
loop_
_atom_site_type_symbol
_atom_site_label
_atom_site_fract_x
_atom_site_fract_y
_atom_site_fract_z
Si Si1 0.668247 0.642566 0.571661
Si Si2 0.594999 0.549753 0.572889
Si Si3 0.654580 0.149076 0.425853
Si Si4 0.504008 0.699754 0.571111
Si Si5 0.008191 0.701259 0.923584
Si Si6 0.582367 0.447805 0.923907
Si Si7 0.807758 0.300852 0.072119
Si Si8 0.174551 0.199524 0.572025
O O1 0.673967 0.643610 0.750000
O O2 0.660176 0.589149 0.512269
O O3 0.586058 0.671038 0.517923
O O4 0.753714 0.665364 0.504092
O O5 0.590104 0.554425 0.750000
O O6 0.502107 0.562420 0.515188
O O7 0.622817 0.497519 0.524262
O O8 0.651062 0.161604 0.250000
O O9 0.579585 0.175359 0.509391
O O10 0.648417 0.093589 0.453162
O O11 0.743474 0.163845 0.495675
O O12 0.512457 0.750000 0.500000
O O13 0.497151 0.703594 0.750000
O O14 0.006043 0.712519 0.750000
O O15 0.098235 0.676754 0.962089
O O16 0.918541 0.676655 0.967903
O O17 0.009621 0.750000 0.000000
O O18 0.556204 0.450707 0.750000
O O19 0.790099 0.296978 0.250000
O O20 0.797201 0.250000 0.000000
O O21 0.185477 0.250000 0.500000
O O22 0.186109 0.205347 0.750000
#
# Coordination Sequence:
#
# PCOD8230841 Si02
#       8
#     8   8   8   8   8   8   8   8
#     4   9  17  28  45  66  88 115 146 175 211 255
#     4   9  16  30  48  65  85 111 143 181 221 260
#     4  11  21  32  44  63  87 115 147 182 218 257
#     4  11  21  32  43  60  87 122 152 177 207 249
#     4   8  15  27  44  63  85 110 141 178 216 253
#     4   9  18  30  46  65  85 109 143 185 224 256
#     4  10  19  31  46  65  87 115 146 180 218 258
#     4   9  16  28  44  65  90 116 144 176 211 253
#
# _framework density 15.861247000000001
#
# number of rings (size 3 to 8) (size 9 to 14) (size 15 to 20)
#    0.000    2.500    1.250    1.875    0.000    1.000 
#    0.000    1.250    0.000    0.000    0.000    0.875 
#    0.000    0.000    0.000    0.000    0.000    0.000 
#
# Total GULP energy -792865.830117 kJ/mol
# GULP energy per Si atom -12388.528596 kJ/mol
# Density = 1.582515 g / cm^3
# Si number density = 15.861247 Si / 1000 Ang^3
#
#
#
# Elastic Constant Matrix: (Units=GPa)
#
#
# Indices 1 2 3 4 5 6 
#
# 1 133.0418 64.6680 31.3597 0.0000 0.0000 0.0000
# 2 64.6680 109.5605 28.1640 0.0000 0.0000 0.0000
# 3 31.3597 28.1640 39.5153 0.0000 0.0000 0.0000
# 4 0.0000 0.0000 0.0000 6.9345 0.0000 0.0000
# 5 0.0000 0.0000 0.0000 0.0000 -6.6813 0.0000
# 6 0.0000 0.0000 0.0000 0.0000 0.0000 11.8429
#
#
#
# Elastic Compliance Matrix: (Units=1/GPa)
#
#
# Indices 1 2 3 4 5 6 
#
# 1 0.011345 -0.005365 -0.005180 0.000000 0.000000 0.000000
# 2 -0.005365 0.013712 -0.005515 0.000000 0.000000 0.000000
# 3 -0.005180 -0.005515 0.033348 0.000000 0.000000 0.000000
# 4 0.000000 0.000000 0.000000 0.144208 0.000000 0.000000
# 5 0.000000 0.000000 0.000000 0.000000 -0.149671 0.000000
# 6 0.000000 0.000000 0.000000 0.000000 0.000000 0.084439
#
#
# Mechanical properties :
#
#
# Convention : Reuss Voigt Hill
#
# Bulk Modulus (GPa) = 38.04409 58.94456 48.49432
# Shear Modulus (GPa) = 28.04854 12.94759 20.49807
#
# Velocity S-wave (km/s) = 4.20976 2.86020 3.59881
# Velocity P-wave (km/s) = 6.90413 6.93909 6.92163
#
# Compressibility (1/GPa) = 0.02628529
#
# Stress axis : x y z
#
# Youngs Moduli (GPa) = 88.14356 72.93001 29.98648
#
# Poissons Ratio (x) = 0.39126 0.15532
# Poissons Ratio (y) = 0.47288 0.16538
# Poissons Ratio (z) = 0.45657 0.40223
#
# Static dielectric constant tensor:
#      x y z
#    x 3.540780 0.000000 0.000000 
#    y 0.000000 3.192490 0.000000 
#    z 0.000000 0.000000 2.904600 
# 
# 
# High freq. dielectric constant tensor:
#      x y z
#    x 1.604990 0.000000 0.000000 
#    y 0.000000 1.591450 0.000000 
#    z 0.000000 0.000000 1.607650 
# 
# From -- ./inp_files/5977.got.cif
#   From: 2010.03.12/outbox.cif.g09.slc.cpg/sg57_3_cif.got.tgz:5977.got - 2010.04.16 15:48:40.
