data_PCOD8230740
_publ_section_title
;
Structure prediction by ZEFSAII (Michael W. Deem and Ramdas Pophale) SiO2 
 PCOD8230740
Probable space group: P B C M
;
_chemical_formula_sum "Si O2"
_cell_formula_units_Z 64
_cell_length_a 22.982452
_cell_length_b 17.051495
_cell_length_c 9.172752
_cell_angle_alpha 90.000000
_cell_angle_beta 90.000000
_cell_angle_gamma 90.000000
_cell_volume 3594.665434
_symmetry_space_group_name_H-M "P B C M"
_symmetry_group_IT_number 57
_symmetry_cell_setting 'orthorhombic'
loop_
_space_group_symop_operation_xyz
x,y,z
-x,-y,1/2+z
x,1/2-y,-z
-x,1/2+y,1/2-z
-x,-y,-z
x,y,1/2-z
-x,1/2+y,z
x,1/2-y,1/2+z
loop_
_atom_site_type_symbol
_atom_site_label
_atom_site_fract_x
_atom_site_fract_y
_atom_site_fract_z
Si Si1 0.572523 0.400105 0.415481
Si Si2 0.632613 0.938362 0.580188
Si Si3 0.672121 0.324910 0.918473
Si Si4 0.450637 0.170399 0.919637
Si Si5 0.868108 0.014328 0.421092
Si Si6 0.037684 0.435800 0.919631
Si Si7 0.064569 0.670038 0.417811
Si Si8 0.733913 0.485140 0.581587
O O1 0.589699 0.378376 0.250000
O O2 0.589275 0.489444 0.449801
O O3 0.607739 0.342687 0.521427
O O4 0.504043 0.389646 0.441977
O O5 0.637779 0.917708 0.750000
O O6 0.606990 0.864548 0.493790
O O7 0.696774 0.956125 0.518198
O O8 0.666195 0.305188 0.750000
O O9 0.715384 0.396211 0.949882
O O10 0.699054 0.250000 0.000000
O O11 0.438094 0.186189 0.750000
O O12 0.467684 0.250000 0.000000
O O13 0.879433 0.003800 0.250000
O O14 0.893970 0.098628 0.472427
O O15 0.800850 0.008021 0.462552
O O16 0.898870 0.941217 0.505172
O O17 0.043161 0.456474 0.750000
O O18 0.003773 0.353122 0.940962
O O19 0.000000 0.500000 0.000000
O O20 0.079593 0.750000 0.500000
O O21 0.077921 0.686397 0.250000
O O22 0.722988 0.506937 0.750000
#
# Coordination Sequence:
#
# PCOD8230740 Si02
#       8
#     8   8   8   8   8   8   8   8
#     4   9  19  34  52  74  99 128 164 204 247 301
#     4  10  20  35  54  76 101 129 165 208 250 297
#     4  10  19  30  46  68  98 134 167 202 246 295
#     4  11  22  35  52  75 101 129 162 203 255 308
#     4   9  18  33  51  72  98 129 168 208 243 284
#     4   9  17  30  48  71  98 128 163 200 238 282
#     4   9  18  30  46  72 104 133 160 194 237 285
#     4   9  19  35  52  70  96 132 169 205 247 292
#
# _framework density 17.804161000000001
#
# number of rings (size 3 to 8) (size 9 to 14) (size 15 to 20)
#    0.000    2.500    0.000    3.000    0.000    6.500 
#    0.000    0.000    0.000    0.750    0.000    1.750 
#    0.000    0.000    0.000    0.000    0.000    0.000 
#
# Total GULP energy -793506.676116 kJ/mol
# GULP energy per Si atom -12398.541814 kJ/mol
# Density = 1.776364 g / cm^3
# Si number density = 17.804161 Si / 1000 Ang^3
#
#
#
# Elastic Constant Matrix: (Units=GPa)
#
#
# Indices 1 2 3 4 5 6 
#
# 1 111.6506 27.6993 47.7945 0.0000 0.0000 0.0000
# 2 27.6993 38.9138 25.6582 0.0000 0.0000 0.0000
# 3 47.7945 25.6582 85.2447 0.0000 0.0000 0.0000
# 4 0.0000 0.0000 0.0000 31.7365 0.0000 0.0000
# 5 0.0000 0.0000 0.0000 0.0000 29.1962 0.0000
# 6 0.0000 0.0000 0.0000 0.0000 0.0000 16.6991
#
#
#
# Elastic Compliance Matrix: (Units=1/GPa)
#
#
# Indices 1 2 3 4 5 6 
#
# 1 0.012631 -0.005391 -0.005459 0.000000 0.000000 0.000000
# 2 -0.005391 0.034362 -0.007320 0.000000 0.000000 0.000000
# 3 -0.005459 -0.007320 0.016995 0.000000 0.000000 0.000000
# 4 0.000000 0.000000 0.000000 0.031509 0.000000 0.000000
# 5 0.000000 0.000000 0.000000 0.000000 0.034251 0.000000
# 6 0.000000 0.000000 0.000000 0.000000 0.000000 0.059884
#
#
# Mechanical properties :
#
#
# Convention : Reuss Voigt Hill
#
# Bulk Modulus (GPa) = 36.17019 48.67924 42.42472
# Shear Modulus (GPa) = 21.25955 24.50350 22.88152
#
# Velocity S-wave (km/s) = 3.45929 3.71385 3.58883
# Velocity P-wave (km/s) = 6.02622 6.76691 6.40728
#
# Compressibility (1/GPa) = 0.02764708
#
# Stress axis : x y z
#
# Youngs Moduli (GPa) = 79.17082 29.10192 58.84096
#
# Poissons Ratio (x) = 0.15690 0.32122
# Poissons Ratio (y) = 0.42684 0.43072
# Poissons Ratio (z) = 0.43220 0.21303
#
# Static dielectric constant tensor:
#      x y z
#    x 3.028980 0.000000 0.000000 
#    y 0.000000 3.020470 0.000000 
#    z 0.000000 0.000000 3.415720 
# 
# 
# High freq. dielectric constant tensor:
#      x y z
#    x 1.678930 0.000000 0.000000 
#    y 0.000000 1.666350 0.000000 
#    z 0.000000 0.000000 1.697520 
# 
# From -- ./inp_files/9545.got.cif
#   From: 2010.03.12/outbox.cif.g09.slc.cpg/sg57_5_cif.got.tgz:9545.got - 2010.04.16 15:48:40.
