data_PCOD8230975
_publ_section_title
;
Structure prediction by ZEFSAII (Michael W. Deem and Ramdas Pophale) SiO2 
 PCOD8230975
Probable space group: P B C M
;
_chemical_formula_sum "Si O2"
_cell_formula_units_Z 48
_cell_length_a 15.492707
_cell_length_b 18.123120
_cell_length_c 8.892046
_cell_angle_alpha 90.000000
_cell_angle_beta 90.000000
_cell_angle_gamma 90.000000
_cell_volume 2496.674780
_symmetry_space_group_name_H-M "P B C M"
_symmetry_group_IT_number 57
_symmetry_cell_setting 'orthorhombic'
loop_
_space_group_symop_operation_xyz
x,y,z
-x,-y,1/2+z
x,1/2-y,-z
-x,1/2+y,1/2-z
-x,-y,-z
x,y,1/2-z
-x,1/2+y,z
x,1/2-y,1/2+z
loop_
_atom_site_type_symbol
_atom_site_label
_atom_site_fract_x
_atom_site_fract_y
_atom_site_fract_z
Si Si1 0.304441 0.170701 0.426265
Si Si2 0.339351 0.670747 0.925414
Si Si3 0.494274 0.170448 0.425953
Si Si4 0.150278 0.428577 0.571887
Si Si5 0.993681 0.172889 0.427806
Si Si6 0.161685 0.594207 0.574172
O O1 0.292114 0.250000 0.500000
O O2 0.290787 0.182874 0.250000
O O3 0.399738 0.135447 0.458068
O O4 0.233578 0.114617 0.493158
O O5 0.353977 0.683106 0.750000
O O6 0.259514 0.617355 0.958082
O O7 0.321923 0.750000 0.000000
O O8 0.424409 0.629568 0.995340
O O9 0.493407 0.250000 0.500000
O O10 0.512538 0.176265 0.250000
O O11 0.157972 0.431497 0.750000
O O12 0.148810 0.511754 0.509162
O O13 0.063299 0.387875 0.519675
O O14 0.021471 0.250000 0.500000
O O15 0.991885 0.182205 0.250000
O O16 0.899947 0.149403 0.484863
O O17 0.138842 0.599432 0.750000
#
# Coordination Sequence:
#
# PCOD8230975 Si02
#       6
#     8   8   8   8   8   8
#     4   9  17  31  52  76 102 134 171 210 253 301
#     4  10  19  31  50  73  98 131 169 210 253 298
#     4   9  16  27  47  73 100 130 166 210 253 294
#     4   9  19  36  55  76 104 137 170 205 252 307
#     4  11  22  36  57  81 104 132 168 211 254 300
#     4  10  21  37  55  75 103 138 172 208 253 304
#
# _framework density 19.225573000000001
#
# number of rings (size 3 to 8) (size 9 to 14) (size 15 to 20)
#    0.000    2.333    0.000    4.000    0.000    3.333 
#    0.000    3.333    0.000    0.000    0.000    0.000 
#    0.000    0.000    0.000    0.000    0.000    0.000 
#
# Total GULP energy -595035.988471 kJ/mol
# GULP energy per Si atom -12396.583093 kJ/mol
# Density = 1.918181 g / cm^3
# Si number density = 19.225573 Si / 1000 Ang^3
#
#
#
# Elastic Constant Matrix: (Units=GPa)
#
#
# Indices 1 2 3 4 5 6 
#
# 1 117.8910 25.1597 40.9461 0.0000 0.0000 0.0000
# 2 25.1597 76.4554 21.9866 0.0000 0.0000 0.0000
# 3 40.9461 21.9866 69.1727 0.0000 0.0000 0.0000
# 4 0.0000 0.0000 0.0000 18.4097 0.0000 0.0000
# 5 0.0000 0.0000 0.0000 0.0000 7.5326 0.0000
# 6 0.0000 0.0000 0.0000 0.0000 0.0000 19.8860
#
#
#
# Elastic Compliance Matrix: (Units=1/GPa)
#
#
# Indices 1 2 3 4 5 6 
#
# 1 0.010925 -0.001910 -0.005860 0.000000 0.000000 0.000000
# 2 -0.001910 0.014729 -0.003551 0.000000 0.000000 0.000000
# 3 -0.005860 -0.003551 0.019054 0.000000 0.000000 0.000000
# 4 0.000000 0.000000 0.000000 0.054319 0.000000 0.000000
# 5 0.000000 0.000000 0.000000 0.000000 0.132757 0.000000
# 6 0.000000 0.000000 0.000000 0.000000 0.000000 0.050287
#
#
# Mechanical properties :
#
#
# Convention : Reuss Voigt Hill
#
# Bulk Modulus (GPa) = 45.31789 48.85599 47.08694
# Shear Modulus (GPa) = 16.02209 20.86077 18.44143
#
# Velocity S-wave (km/s) = 2.88995 3.29759 3.10048
# Velocity P-wave (km/s) = 5.89564 6.32186 6.11247
#
# Compressibility (1/GPa) = 0.02206634
#
# Stress axis : x y z
#
# Youngs Moduli (GPa) = 91.53004 67.89203 52.48223
#
# Poissons Ratio (x) = 0.12968 0.30755
# Poissons Ratio (y) = 0.17483 0.18637
# Poissons Ratio (z) = 0.53637 0.24109
#
# Static dielectric constant tensor:
#      x y z
#    x 4.183040 0.000000 0.000000 
#    y 0.000000 3.395370 0.000000 
#    z 0.000000 0.000000 3.410840 
# 
# 
# High freq. dielectric constant tensor:
#      x y z
#    x 1.772720 0.000000 0.000000 
#    y 0.000000 1.722210 0.000000 
#    z 0.000000 0.000000 1.736070 
# 
# From -- ./inp_files/4866.got.cif
#   From: 2010.03.12/outbox.cif.g09.slc.cpg/sg57_3_cif.got.tgz:4866.got - 2010.04.16 15:48:40.
