data_PCOD8230608
_publ_section_title
;
Structure prediction by ZEFSAII (Michael W. Deem and Ramdas Pophale) SiO2 
 PCOD8230608
Probable space group: P B C M
;
_chemical_formula_sum "Si O2"
_cell_formula_units_Z 40
_cell_length_a 8.976468
_cell_length_b 15.035344
_cell_length_c 14.440574
_cell_angle_alpha 90.000000
_cell_angle_beta 90.000000
_cell_angle_gamma 90.000000
_cell_volume 1948.961735
_symmetry_space_group_name_H-M "P B C M"
_symmetry_group_IT_number 57
_symmetry_cell_setting 'orthorhombic'
loop_
_space_group_symop_operation_xyz
x,y,z
-x,-y,1/2+z
x,1/2-y,-z
-x,1/2+y,1/2-z
-x,-y,-z
x,y,1/2-z
-x,1/2+y,z
x,1/2-y,1/2+z
loop_
_atom_site_type_symbol
_atom_site_label
_atom_site_fract_x
_atom_site_fract_y
_atom_site_fract_z
Si Si1 0.349270 0.600373 0.095231
Si Si2 0.369288 0.235826 0.750000
Si Si3 0.716862 0.275031 0.750000
Si Si4 0.563795 0.536916 0.750000
Si Si5 0.155007 0.993478 0.448105
Si Si6 0.785787 0.077281 0.750000
Si Si7 0.329729 0.172728 0.431596
O O1 0.249245 0.667779 0.157272
O O2 0.392144 0.514936 0.157077
O O3 0.497817 0.646638 0.057706
O O4 0.259113 0.574920 0.003772
O O5 0.542620 0.256322 0.750000
O O6 0.346363 0.129564 0.750000
O O7 0.289815 0.284752 0.666263
O O8 0.808825 0.183885 0.750000
O O9 0.386667 0.549449 0.750000
O O10 0.135141 0.960696 0.342127
O O11 0.225779 0.089935 0.450337
O O12 0.000000 0.000000 0.500000
O O13 0.286561 0.250000 0.500000
#
# Coordination Sequence:
#
# PCOD8230608 Si02
#       7
#     8   4   4   4   8   4   8
#     4  10  21  39  69  99 132 166 223 274 335 398
#     4   9  19  34  61  99 132 154 207 280 338 376
#     4   8  20  36  63 102 122 159 215 282 321 393
#     4  10  18  38  71 101 130 165 218 285 340 388
#     4  12  27  44  65  94 140 186 221 267 340 421
#     4  11  23  42  67  94 132 172 226 275 345 385
#     4  11  22  39  65 100 129 169 226 280 330 388
#
# _framework density 20.523748999999999
#
# number of rings (size 3 to 8) (size 9 to 14) (size 15 to 20)
#    0.000    1.600    2.000    3.000    8.400    1.600 
#    3.600    1.000    0.000    0.000    0.000    0.000 
#    0.000    0.000    0.000    0.000    0.000    0.000 
#
# Total GULP energy -496026.363140 kJ/mol
# GULP energy per Si atom -12400.659079 kJ/mol
# Density = 2.047704 g / cm^3
# Si number density = 20.523749 Si / 1000 Ang^3
#
#
#
# Elastic Constant Matrix: (Units=GPa)
#
#
# Indices 1 2 3 4 5 6 
#
# 1 61.5854 37.6668 49.0449 0.0000 0.0000 0.0000
# 2 37.6668 152.4246 73.6234 0.0000 0.0000 0.0000
# 3 49.0449 73.6234 174.6907 0.0000 0.0000 0.0000
# 4 0.0000 0.0000 0.0000 17.3030 0.0000 0.0000
# 5 0.0000 0.0000 0.0000 0.0000 24.7325 0.0000
# 6 0.0000 0.0000 0.0000 0.0000 0.0000 10.3601
#
#
#
# Elastic Compliance Matrix: (Units=1/GPa)
#
#
# Indices 1 2 3 4 5 6 
#
# 1 0.022009 -0.003081 -0.004880 0.000000 0.000000 0.000000
# 2 -0.003081 0.008669 -0.002788 0.000000 0.000000 0.000000
# 3 -0.004880 -0.002788 0.008270 0.000000 0.000000 0.000000
# 4 0.000000 0.000000 0.000000 0.057794 0.000000 0.000000
# 5 0.000000 0.000000 0.000000 0.000000 0.040433 0.000000
# 6 0.000000 0.000000 0.000000 0.000000 0.000000 0.096524
#
#
# Mechanical properties :
#
#
# Convention : Reuss Voigt Hill
#
# Bulk Modulus (GPa) = 57.31613 78.81899 68.06756
# Shear Modulus (GPa) = 19.15608 25.70350 22.42979
#
# Velocity S-wave (km/s) = 3.05841 3.54274 3.30944
# Velocity P-wave (km/s) = 6.36075 7.43114 6.91668
#
# Compressibility (1/GPa) = 0.01744710
#
# Stress axis : x y z
#
# Youngs Moduli (GPa) = 45.43619 115.35429 120.92273
#
# Poissons Ratio (x) = 0.35546 0.59015
# Poissons Ratio (y) = 0.14001 0.33718
# Poissons Ratio (z) = 0.22175 0.32165
#
# Static dielectric constant tensor:
#      x y z
#    x 3.265250 0.000000 0.000000 
#    y 0.000000 4.102790 0.000000 
#    z 0.000000 0.000000 3.955750 
# 
# 
# High freq. dielectric constant tensor:
#      x y z
#    x 1.755470 0.000000 0.000000 
#    y 0.000000 1.824460 0.000000 
#    z 0.000000 0.000000 1.821810 
# 
# From -- ./inp_files/15990.got.cif
#   From: 2010.03.12/outbox.cif.g09.slc.cpg/sg57_8_cif.got.tgz:15990.got - 2010.04.16 15:48:40.
