data_PCOD8230965
_publ_section_title
;
Structure prediction by ZEFSAII (Michael W. Deem and Ramdas Pophale) SiO2 
 PCOD8230965
Probable space group: P B C M
;
_chemical_formula_sum "Si O2"
_cell_formula_units_Z 64
_cell_length_a 23.719988
_cell_length_b 14.613031
_cell_length_c 9.160373
_cell_angle_alpha 90.000000
_cell_angle_beta 90.000000
_cell_angle_gamma 90.000000
_cell_volume 3175.176916
_symmetry_space_group_name_H-M "P B C M"
_symmetry_group_IT_number 57
_symmetry_cell_setting 'orthorhombic'
loop_
_space_group_symop_operation_xyz
x,y,z
-x,-y,1/2+z
x,1/2-y,-z
-x,1/2+y,1/2-z
-x,-y,-z
x,y,1/2-z
-x,1/2+y,z
x,1/2-y,1/2+z
loop_
_atom_site_type_symbol
_atom_site_label
_atom_site_fract_x
_atom_site_fract_y
_atom_site_fract_z
Si Si1 0.518536 0.087420 0.416394
Si Si2 0.367133 0.978878 0.918580
Si Si3 0.770277 0.667732 0.908599
Si Si4 0.404533 0.161231 0.421010
Si Si5 0.758147 0.463687 0.921118
Si Si6 0.940689 0.001038 0.580185
Si Si7 0.900108 0.667180 0.588954
Si Si8 0.148548 0.654436 0.920065
O O1 0.511780 0.060821 0.250000
O O2 0.585495 0.100649 0.452829
O O3 0.472876 0.165990 0.452637
O O4 0.500000 0.000000 0.500000
O O5 0.370409 0.010193 0.750000
O O6 0.306409 0.933108 0.949580
O O7 0.376257 0.069624 0.015081
O O8 0.740551 0.666191 0.750000
O O9 0.763329 0.567852 0.981230
O O10 0.835464 0.692154 0.888281
O O11 0.741383 0.750000 0.000000
O O12 0.378362 0.250000 0.500000
O O13 0.390869 0.165266 0.250000
O O14 0.775253 0.459055 0.750000
O O15 0.798190 0.397670 0.012140
O O16 0.949012 0.977786 0.750000
O O17 0.908972 0.097227 0.558694
O O18 0.902542 0.924689 0.504652
O O19 0.000000 0.000000 0.500000
O O20 0.930236 0.750000 0.500000
O O21 0.928795 0.655994 0.750000
O O22 0.161177 0.671231 0.750000
O O23 0.139220 0.750000 0.000000
#
# Coordination Sequence:
#
# PCOD8230965 Si02
#       8
#     8   8   8   8   8   8   8   8
#     4   8  15  29  48  70  97 135 180 225 274 330
#     4   9  18  33  54  78 107 142 184 232 285 342
#     4   9  18  31  51  79 110 147 186 226 276 334
#     4  10  19  31  49  74 107 144 184 230 285 344
#     4  10  20  37  60  86 118 157 196 241 295 348
#     4  11  24  41  63  92 122 155 194 240 292 346
#     4  10  19  34  57  84 117 152 187 229 278 337
#     4  11  25  44  67  91 118 156 201 245 292 344
#
# _framework density 20.156357
#
# number of rings (size 3 to 8) (size 9 to 14) (size 15 to 20)
#    0.000    2.250    1.250    1.500    0.000    4.500 
#    0.000    3.125    0.000    1.500    0.000    0.000 
#    0.000    0.000    0.000    0.000    0.000    0.000 
#
# Total GULP energy -792950.393260 kJ/mol
# GULP energy per Si atom -12389.849895 kJ/mol
# Density = 2.011048 g / cm^3
# Si number density = 20.156357 Si / 1000 Ang^3
#
#
#
# Elastic Constant Matrix: (Units=GPa)
#
#
# Indices 1 2 3 4 5 6 
#
# 1 92.0073 21.6333 41.3660 0.0000 0.0000 0.0000
# 2 21.6333 96.0576 56.4194 0.0000 0.0000 0.0000
# 3 41.3660 56.4194 118.4681 0.0000 0.0000 0.0000
# 4 0.0000 0.0000 0.0000 33.5496 0.0000 0.0000
# 5 0.0000 0.0000 0.0000 0.0000 21.7712 0.0000
# 6 0.0000 0.0000 0.0000 0.0000 0.0000 10.8114
#
#
#
# Elastic Compliance Matrix: (Units=1/GPa)
#
#
# Indices 1 2 3 4 5 6 
#
# 1 0.012902 -0.000360 -0.004333 0.000000 0.000000 0.000000
# 2 -0.000360 0.014463 -0.006762 0.000000 0.000000 0.000000
# 3 -0.004333 -0.006762 0.013175 0.000000 0.000000 0.000000
# 4 0.000000 0.000000 0.000000 0.029807 0.000000 0.000000
# 5 0.000000 0.000000 0.000000 0.000000 0.045932 0.000000
# 6 0.000000 0.000000 0.000000 0.000000 0.000000 0.092495
#
#
# Mechanical properties :
#
#
# Convention : Reuss Voigt Hill
#
# Bulk Modulus (GPa) = 56.72859 60.59670 58.66265
# Shear Modulus (GPa) = 21.04723 25.70073 23.37398
#
# Velocity S-wave (km/s) = 3.23491 3.57468 3.40903
# Velocity P-wave (km/s) = 6.49294 6.86778 6.68299
#
# Compressibility (1/GPa) = 0.01762779
#
# Stress axis : x y z
#
# Youngs Moduli (GPa) = 77.50940 69.14021 75.90371
#
# Poissons Ratio (x) = 0.02492 0.32891
# Poissons Ratio (y) = 0.02794 0.51327
# Poissons Ratio (z) = 0.33587 0.46754
#
# Static dielectric constant tensor:
#      x y z
#    x 4.272450 0.000000 0.000000 
#    y 0.000000 3.653670 0.000000 
#    z 0.000000 0.000000 3.898290 
# 
# 
# High freq. dielectric constant tensor:
#      x y z
#    x 1.787520 0.000000 0.000000 
#    y 0.000000 1.764440 0.000000 
#    z 0.000000 0.000000 1.793520 
# 
# From -- ./inp_files/9345.got.cif
#   From: 2010.03.12/outbox.cif.g09.slc.cpg/sg57_5_cif.got.tgz:9345.got - 2010.04.16 15:48:40.
