data_PCOD8230945
_publ_section_title
;
Structure prediction by ZEFSAII (Michael W. Deem and Ramdas Pophale) SiO2 
 PCOD8230945
Probable space group: P B C M
;
_chemical_formula_sum "Si O2"
_cell_formula_units_Z 48
_cell_length_a 10.263190
_cell_length_b 29.731487
_cell_length_c 8.828808
_cell_angle_alpha 90.000000
_cell_angle_beta 90.000000
_cell_angle_gamma 90.000000
_cell_volume 2694.021591
_symmetry_space_group_name_H-M "P B C M"
_symmetry_group_IT_number 57
_symmetry_cell_setting 'orthorhombic'
loop_
_space_group_symop_operation_xyz
x,y,z
-x,-y,1/2+z
x,1/2-y,-z
-x,1/2+y,1/2-z
-x,-y,-z
x,y,1/2-z
-x,1/2+y,z
x,1/2-y,1/2+z
loop_
_atom_site_type_symbol
_atom_site_label
_atom_site_fract_x
_atom_site_fract_y
_atom_site_fract_z
Si Si1 0.370724 0.519001 0.074105
Si Si2 0.121498 0.025460 0.070115
Si Si3 0.013516 0.390404 0.431438
Si Si4 0.018934 0.207416 0.583889
Si Si5 0.736726 0.114211 0.425154
Si Si6 0.709194 0.205426 0.919808
O O1 0.363756 0.505269 0.250000
O O2 0.365169 0.573193 0.056431
O O3 0.500000 0.500000 0.000000
O O4 0.253260 0.496641 0.984637
O O5 0.112582 0.023970 0.250000
O O6 0.115855 0.076479 0.009935
O O7 0.000000 0.000000 0.000000
O O8 0.015377 0.394856 0.250000
O O9 0.866724 0.400193 0.485752
O O10 0.057910 0.340668 0.487068
O O11 0.081365 0.250000 0.500000
O O12 0.077913 0.210209 0.750000
O O13 0.863715 0.210251 0.585674
O O14 0.772899 0.122362 0.250000
O O15 0.671669 0.159753 0.490899
O O16 0.652155 0.202294 0.750000
O O17 0.649762 0.250000 0.000000
#
# Coordination Sequence:
#
# PCOD8230945 Si02
#       6
#     8   8   8   8   8   8
#     4  11  24  40  57  79 108 144 183 225 273 325
#     4  12  23  36  56  80 107 140 180 225 269 319
#     4  10  19  31  49  74 104 138 177 219 266 318
#     4   8  15  25  39  63  96 133 167 206 255 309
#     4  10  19  31  49  73 103 138 176 216 266 319
#     4   9  16  26  42  66  98 133 170 212 261 313
#
# _framework density 17.817229999999999
#
# number of rings (size 3 to 8) (size 9 to 14) (size 15 to 20)
#    0.000    2.000    1.667    4.500    0.000    6.667 
#    0.000    0.000    0.000    0.000    0.000    1.167 
#    0.000    2.667    0.000    0.000    0.000    0.000 
#
# Total GULP energy -595018.933134 kJ/mol
# GULP energy per Si atom -12396.227774 kJ/mol
# Density = 1.777668 g / cm^3
# Si number density = 17.817230 Si / 1000 Ang^3
#
#
#
# Elastic Constant Matrix: (Units=GPa)
#
#
# Indices 1 2 3 4 5 6 
#
# 1 60.5597 42.3613 37.0653 0.0000 0.0000 0.0000
# 2 42.3613 158.8339 72.1910 0.0000 0.0000 0.0000
# 3 37.0653 72.1910 142.6246 0.0000 0.0000 0.0000
# 4 0.0000 0.0000 0.0000 37.0434 0.0000 0.0000
# 5 0.0000 0.0000 0.0000 0.0000 21.4848 0.0000
# 6 0.0000 0.0000 0.0000 0.0000 0.0000 15.2142
#
#
#
# Elastic Compliance Matrix: (Units=1/GPa)
#
#
# Indices 1 2 3 4 5 6 
#
# 1 0.021564 -0.004162 -0.003498 0.000000 0.000000 0.000000
# 2 -0.004162 0.008980 -0.003464 0.000000 0.000000 0.000000
# 3 -0.003498 -0.003464 0.009674 0.000000 0.000000 0.000000
# 4 0.000000 0.000000 0.000000 0.026995 0.000000 0.000000
# 5 0.000000 0.000000 0.000000 0.000000 0.046545 0.000000
# 6 0.000000 0.000000 0.000000 0.000000 0.000000 0.065728
#
#
# Mechanical properties :
#
#
# Convention : Reuss Voigt Hill
#
# Bulk Modulus (GPa) = 55.64248 73.91705 64.77977
# Shear Modulus (GPa) = 24.07048 28.77517 26.42283
#
# Velocity S-wave (km/s) = 3.67954 4.02309 3.85514
# Velocity P-wave (km/s) = 7.02491 7.94712 7.50020
#
# Compressibility (1/GPa) = 0.01797188
#
# Stress axis : x y z
#
# Youngs Moduli (GPa) = 46.37278 111.35700 103.37305
#
# Poissons Ratio (x) = 0.46341 0.36157
# Poissons Ratio (y) = 0.19298 0.35807
# Poissons Ratio (z) = 0.16220 0.38573
#
# Static dielectric constant tensor:
#      x y z
#    x 4.935830 0.000000 0.000000 
#    y 0.000000 4.498840 0.000000 
#    z 0.000000 0.000000 3.561480 
# 
# 
# High freq. dielectric constant tensor:
#      x y z
#    x 1.615260 0.000000 0.000000 
#    y 0.000000 1.714750 0.000000 
#    z 0.000000 0.000000 1.707500 
# 
# From -- ./inp_files/2087.got.cif
#   From: 2010.03.12/outbox.cif.g09.slc.cpg/sg57_2_cif.got.tgz:2087.got - 2010.04.16 15:48:40.
