data_PCOD8230693
_publ_section_title
;
Structure prediction by ZEFSAII (Michael W. Deem and Ramdas Pophale) SiO2 
 PCOD8230693
Probable space group: P B C M
;
_chemical_formula_sum "Si O2"
_cell_formula_units_Z 64
_cell_length_a 22.805047
_cell_length_b 19.212939
_cell_length_c 9.185722
_cell_angle_alpha 90.000000
_cell_angle_beta 90.000000
_cell_angle_gamma 90.000000
_cell_volume 4024.742254
_symmetry_space_group_name_H-M "P B C M"
_symmetry_group_IT_number 57
_symmetry_cell_setting 'orthorhombic'
loop_
_space_group_symop_operation_xyz
x,y,z
-x,-y,1/2+z
x,1/2-y,-z
-x,1/2+y,1/2-z
-x,-y,-z
x,y,1/2-z
-x,1/2+y,z
x,1/2-y,1/2+z
loop_
_atom_site_type_symbol
_atom_site_label
_atom_site_fract_x
_atom_site_fract_y
_atom_site_fract_z
Si Si1 0.509886 0.605850 0.585174
Si Si2 0.808521 0.990544 0.586626
Si Si3 0.896134 0.066035 0.417600
Si Si4 0.986483 0.321674 0.917772
Si Si5 0.608988 0.819340 0.578013
Si Si6 0.069410 0.441809 0.915605
Si Si7 0.415447 0.966255 0.914130
Si Si8 0.320020 0.044043 0.420271
O O1 0.499882 0.633322 0.750000
O O2 0.546239 0.661804 0.492046
O O3 0.543948 0.533609 0.589366
O O4 0.447525 0.594550 0.505485
O O5 0.799076 0.017932 0.750000
O O6 0.859308 0.930768 0.581055
O O7 0.747568 0.959529 0.527466
O O8 0.832230 0.057181 0.493762
O O9 0.888411 0.048197 0.250000
O O10 0.922768 0.142790 0.442147
O O11 0.943052 0.010585 0.485967
O O12 0.997665 0.305371 0.750000
O O13 0.037300 0.373364 0.977371
O O14 0.989364 0.250000 0.000000
O O15 0.632903 0.750000 0.500000
O O16 0.601194 0.807698 0.750000
O O17 0.656176 0.879269 0.542893
O O18 0.047424 0.455648 0.750000
O O19 0.403307 0.939925 0.750000
O O20 0.354423 0.984664 0.991866
O O21 0.328205 0.028569 0.250000
#
# Coordination Sequence:
#
# PCOD8230693 Si02
#       8
#     8   8   8   8   8   8   8   8
#     4   9  16  27  42  61  86 115 145 177 218 265
#     4   8  16  30  48  65  87 119 156 192 229 273
#     4   9  17  29  47  70  92 117 153 194 234 278
#     4  10  20  31  45  69  98 123 151 190 235 282
#     4  10  19  30  44  62  88 120 153 187 223 266
#     4   8  16  31  48  65  89 122 155 188 228 278
#     4   9  16  25  41  65  90 112 138 180 225 260
#     4   9  17  30  46  65  88 118 153 188 225 266
#
# _framework density 15.90164
#
# number of rings (size 3 to 8) (size 9 to 14) (size 15 to 20)
#    0.750    2.250    0.000    1.500    0.000    5.500 
#    0.000    0.625    0.000    0.000    0.000    0.875 
#    0.000    4.000    0.000    0.000    0.000    0.000 
#
# Total GULP energy -793012.805143 kJ/mol
# GULP energy per Si atom -12390.825080 kJ/mol
# Density = 1.586545 g / cm^3
# Si number density = 15.901640 Si / 1000 Ang^3
#
#
#
# Elastic Constant Matrix: (Units=GPa)
#
#
# Indices 1 2 3 4 5 6 
#
# 1 68.9874 25.8169 31.4288 0.0000 0.0000 0.0000
# 2 25.8169 60.0108 31.5501 0.0000 0.0000 0.0000
# 3 31.4288 31.5501 80.7230 0.0000 0.0000 0.0000
# 4 0.0000 0.0000 0.0000 27.1761 0.0000 0.0000
# 5 0.0000 0.0000 0.0000 0.0000 22.3228 0.0000
# 6 0.0000 0.0000 0.0000 0.0000 0.0000 13.5188
#
#
#
# Elastic Compliance Matrix: (Units=1/GPa)
#
#
# Indices 1 2 3 4 5 6 
#
# 1 0.018900 -0.005365 -0.005262 0.000000 0.000000 0.000000
# 2 -0.005365 0.022496 -0.006704 0.000000 0.000000 0.000000
# 3 -0.005262 -0.006704 0.017057 0.000000 0.000000 0.000000
# 4 0.000000 0.000000 0.000000 0.036797 0.000000 0.000000
# 5 0.000000 0.000000 0.000000 0.000000 0.044797 0.000000
# 6 0.000000 0.000000 0.000000 0.000000 0.000000 0.073971
#
#
# Mechanical properties :
#
#
# Convention : Reuss Voigt Hill
#
# Bulk Modulus (GPa) = 42.03001 43.03475 42.53238
# Shear Modulus (GPa) = 19.48487 20.66524 20.07505
#
# Velocity S-wave (km/s) = 3.50428 3.60886 3.55695
# Velocity P-wave (km/s) = 6.54690 6.66986 6.60867
#
# Compressibility (1/GPa) = 0.02379252
#
# Stress axis : x y z
#
# Youngs Moduli (GPa) = 52.90965 44.45246 58.62754
#
# Poissons Ratio (x) = 0.23847 0.30849
# Poissons Ratio (y) = 0.28384 0.39303
# Poissons Ratio (z) = 0.27841 0.29800
#
# Static dielectric constant tensor:
#      x y z
#    x 3.011760 0.000000 0.000000 
#    y 0.000000 2.709670 0.000000 
#    z 0.000000 0.000000 3.141050 
# 
# 
# High freq. dielectric constant tensor:
#      x y z
#    x 1.598700 0.000000 0.000000 
#    y 0.000000 1.570560 0.000000 
#    z 0.000000 0.000000 1.621860 
# 
# From -- ./inp_files/9585.got.cif
#   From: 2010.03.12/outbox.cif.g09.slc.cpg/sg57_5_cif.got.tgz:9585.got - 2010.04.16 15:48:40.
