data_PCOD8230304
_publ_section_title
;
Structure prediction by ZEFSAII (Michael W. Deem and Ramdas Pophale) SiO2 
 PCOD8230304
Probable space group: P B C M
;
_chemical_formula_sum "Si O2"
_cell_formula_units_Z 48
_cell_length_a 8.789182
_cell_length_b 16.243107
_cell_length_c 19.084875
_cell_angle_alpha 90.000000
_cell_angle_beta 90.000000
_cell_angle_gamma 90.000000
_cell_volume 2724.625912
_symmetry_space_group_name_H-M "P B C M"
_symmetry_group_IT_number 57
_symmetry_cell_setting 'orthorhombic'
loop_
_space_group_symop_operation_xyz
x,y,z
-x,-y,1/2+z
x,1/2-y,-z
-x,1/2+y,1/2-z
-x,-y,-z
x,y,1/2-z
-x,1/2+y,z
x,1/2-y,1/2+z
loop_
_atom_site_type_symbol
_atom_site_label
_atom_site_fract_x
_atom_site_fract_y
_atom_site_fract_z
Si Si1 0.107804 0.504125 0.602075
Si Si2 0.896543 0.515377 0.250000
Si Si3 0.851888 0.365480 0.900375
Si Si4 0.030208 0.250000 0.000000
Si Si5 0.914880 0.848029 0.250000
Si Si6 0.669669 0.492130 0.526616
Si Si7 0.091260 0.821939 0.750000
Si Si8 0.845428 0.874451 0.399338
O O1 0.196647 0.496802 0.677353
O O2 0.224473 0.494452 0.540262
O O3 0.980602 0.434601 0.598692
O O4 0.017463 0.589536 0.596744
O O5 0.022178 0.442014 0.250000
O O6 0.960699 0.608473 0.250000
O O7 0.700570 0.403467 0.937032
O O8 0.810951 0.335950 0.821236
O O9 0.916389 0.290494 0.944570
O O10 0.151526 0.304832 0.041929
O O11 0.814233 0.839568 0.320891
O O12 0.033567 0.772281 0.250000
O O13 0.500000 0.500000 0.500000
O O14 0.709618 0.562411 0.583145
#
# Coordination Sequence:
#
# PCOD8230304 Si02
#       8
#     8   4   8   4   4   8   4   8
#     4   9  16  34  50  72  99 134 182 228 268 328
#     4   8  18  28  48  76 102 132 178 228 282 350
#     4  10  19  32  54  81 105 139 184 234 288 340
#     4  12  16  28  58  84 104 132 182 232 288 332
#     4  10  18  30  53  85 113 137 181 249 303 333
#     4  11  21  35  52  74 108 150 187 223 276 344
#     4  10  18  30  53  85 113 137 181 249 303 333
#     4  10  19  32  54  81 105 139 184 234 288 340
#
# _framework density 17.617099
#
# number of rings (size 3 to 8) (size 9 to 14) (size 15 to 20)
#    0.000    2.000    5.000    2.000    0.000    0.000 
#    0.000    2.500    0.000    0.000    0.000    7.000 
#    0.000    0.000    0.000    0.000    0.000    0.000 
#
# Total GULP energy -594638.805728 kJ/mol
# GULP energy per Si atom -12388.308453 kJ/mol
# Density = 1.757700 g / cm^3
# Si number density = 17.617099 Si / 1000 Ang^3
#
#
#
# Elastic Constant Matrix: (Units=GPa)
#
#
# Indices 1 2 3 4 5 6 
#
# 1 56.9516 5.5719 22.0055 0.0000 0.0000 0.0000
# 2 5.5719 66.3851 12.2002 0.0000 0.0000 0.0000
# 3 22.0055 12.2002 139.4197 0.0000 0.0000 0.0000
# 4 0.0000 0.0000 0.0000 30.6799 0.0000 0.0000
# 5 0.0000 0.0000 0.0000 0.0000 10.6005 0.0000
# 6 0.0000 0.0000 0.0000 0.0000 0.0000 14.7968
#
#
#
# Elastic Compliance Matrix: (Units=1/GPa)
#
#
# Indices 1 2 3 4 5 6 
#
# 1 0.018771 -0.001048 -0.002871 0.000000 0.000000 0.000000
# 2 -0.001048 0.015368 -0.001179 0.000000 0.000000 0.000000
# 3 -0.002871 -0.001179 0.007729 0.000000 0.000000 0.000000
# 4 0.000000 0.000000 0.000000 0.032595 0.000000 0.000000
# 5 0.000000 0.000000 0.000000 0.000000 0.094335 0.000000
# 6 0.000000 0.000000 0.000000 0.000000 0.000000 0.067582
#
#
# Mechanical properties :
#
#
# Convention : Reuss Voigt Hill
#
# Bulk Modulus (GPa) = 31.57431 38.03460 34.80445
# Shear Modulus (GPa) = 19.44515 26.08070 22.76292
#
# Velocity S-wave (km/s) = 3.32590 3.85180 3.59847
# Velocity P-wave (km/s) = 5.71929 6.43570 6.08804
#
# Compressibility (1/GPa) = 0.03167132
#
# Stress axis : x y z
#
# Youngs Moduli (GPa) = 53.27477 65.06894 129.38383
#
# Poissons Ratio (x) = 0.06818 0.37146
# Poissons Ratio (y) = 0.05582 0.15260
# Poissons Ratio (z) = 0.15295 0.07675
#
# Static dielectric constant tensor:
#      x y z
#    x 2.714080 0.000000 0.000000 
#    y 0.000000 3.536980 0.000000 
#    z 0.000000 0.000000 4.132890 
# 
# 
# High freq. dielectric constant tensor:
#      x y z
#    x 1.593220 0.000000 0.000000 
#    y 0.000000 1.692100 0.000000 
#    z 0.000000 0.000000 1.721660 
# 
# From -- ./inp_files/21173.got.cif
#   From: 2010.03.12/outbox.cif.g09.slc.cpg/sg57_11_cif.got.tgz:21173.got - 2010.04.16 15:48:40.
