data_PCOD8230596
_publ_section_title
;
Structure prediction by ZEFSAII (Michael W. Deem and Ramdas Pophale) SiO2 
 PCOD8230596
Probable space group: P B C M
;
_chemical_formula_sum "Si O2"
_cell_formula_units_Z 48
_cell_length_a 18.390982
_cell_length_b 9.076792
_cell_length_c 13.946807
_cell_angle_alpha 90.000000
_cell_angle_beta 90.000000
_cell_angle_gamma 90.000000
_cell_volume 2328.156089
_symmetry_space_group_name_H-M "P B C M"
_symmetry_group_IT_number 57
_symmetry_cell_setting 'orthorhombic'
loop_
_space_group_symop_operation_xyz
x,y,z
-x,-y,1/2+z
x,1/2-y,-z
-x,1/2+y,1/2-z
-x,-y,-z
x,y,1/2-z
-x,1/2+y,z
x,1/2-y,1/2+z
loop_
_atom_site_type_symbol
_atom_site_label
_atom_site_fract_x
_atom_site_fract_y
_atom_site_fract_z
Si Si1 0.165487 0.548543 0.552816
Si Si2 0.114544 0.848530 0.858600
Si Si3 0.035542 0.379729 0.566755
Si Si4 0.673562 0.426071 0.484937
Si Si5 0.411574 0.078990 0.861232
Si Si6 0.441883 0.413576 0.638566
O O1 0.153494 0.702016 0.605488
O O2 0.141011 0.536784 0.439964
O O3 0.112194 0.437220 0.611725
O O4 0.250629 0.512427 0.557781
O O5 0.139633 0.889679 0.750000
O O6 0.026177 0.832003 0.856407
O O7 0.060265 0.250000 0.500000
O O8 0.000000 0.500000 0.500000
O O9 0.676448 0.250000 0.500000
O O10 0.658102 0.512798 0.584100
O O11 0.612061 0.471167 0.410179
O O12 0.392305 0.079361 0.750000
O O13 0.431108 0.244830 0.896574
O O14 0.477254 0.967987 0.886176
O O15 0.426449 0.426063 0.750000
#
# Coordination Sequence:
#
# PCOD8230596 Si02
#       6
#     8   8   8   8   8   8
#     4  10  22  40  56  91 123 157 201 256 308 358
#     4  10  19  37  61  84 114 155 200 246 301 364
#     4  10  18  37  61  80 117 153 193 250 302 355
#     4  12  23  38  61  90 127 169 209 249 320 373
#     4  10  22  41  65  92 125 164 212 259 305 369
#     4  10  22  41  64  92 125 164 210 262 310 364
#
# _framework density 20.617175
#
# number of rings (size 3 to 8) (size 9 to 14) (size 15 to 20)
#    0.000    1.667    5.000    2.000    0.000    5.333 
#    0.000    0.000    0.000    0.000    0.000    0.000 
#    0.000    0.000    0.000    0.000    0.000    0.000 
#
# Total GULP energy -594632.453962 kJ/mol
# GULP energy per Si atom -12388.176124 kJ/mol
# Density = 2.057025 g / cm^3
# Si number density = 20.617175 Si / 1000 Ang^3
#
#
#
# Elastic Constant Matrix: (Units=GPa)
#
#
# Indices 1 2 3 4 5 6 
#
# 1 114.3926 29.6492 16.2134 0.0000 0.0000 0.0000
# 2 29.6492 85.3164 -2.1836 0.0000 0.0000 0.0000
# 3 16.2134 -2.1836 76.8173 0.0000 0.0000 0.0000
# 4 0.0000 0.0000 0.0000 18.9041 0.0000 0.0000
# 5 0.0000 0.0000 0.0000 0.0000 -36.3274 0.0000
# 6 0.0000 0.0000 0.0000 0.0000 0.0000 21.0786
#
#
#
# Elastic Compliance Matrix: (Units=1/GPa)
#
#
# Indices 1 2 3 4 5 6 
#
# 1 0.009966 -0.003520 -0.002204 0.000000 0.000000 0.000000
# 2 -0.003520 0.012973 0.001112 0.000000 0.000000 0.000000
# 3 -0.002204 0.001112 0.013515 0.000000 0.000000 0.000000
# 4 0.000000 0.000000 0.000000 0.052899 0.000000 0.000000
# 5 0.000000 0.000000 0.000000 0.000000 -0.027527 0.000000
# 6 0.000000 0.000000 0.000000 0.000000 0.000000 0.047442
#
#
# Mechanical properties :
#
#
# Convention : Reuss Voigt Hill
#
# Bulk Modulus (GPa) = 36.72406 40.43158 38.57782
# Shear Modulus (GPa) = 39.19508 16.25420 27.72464
#
# Velocity S-wave (km/s) = 4.36488 2.81086 3.67104
# Velocity P-wave (km/s) = 6.57677 5.49434 6.05977
#
# Compressibility (1/GPa) = 0.02723010
#
# Stress axis : x y z
#
# Youngs Moduli (GPa) = 100.33629 77.08449 73.99404
#
# Poissons Ratio (x) = 0.27133 0.16305
# Poissons Ratio (y) = 0.35318 -0.08226
# Poissons Ratio (z) = 0.22110 -0.08569
#
# Static dielectric constant tensor:
#      x y z
#    x 4.370840 0.000000 0.000000 
#    y 0.000000 3.891820 0.000000 
#    z 0.000000 0.000000 3.681640 
# 
# 
# High freq. dielectric constant tensor:
#      x y z
#    x 1.807310 0.000000 0.000000 
#    y 0.000000 1.801580 0.000000 
#    z 0.000000 0.000000 1.791470 
# 
# From -- ./inp_files/19267.got.cif
#   From: 2010.03.12/outbox.cif.g09.slc.cpg/sg57_10_cif.got.tgz:19267.got - 2010.04.16 15:48:40.
