data_PCOD8230410
_publ_section_title
;
Structure prediction by ZEFSAII (Michael W. Deem and Ramdas Pophale) SiO2 
 PCOD8230410
Probable space group: P B C M
;
_chemical_formula_sum "Si O2"
_cell_formula_units_Z 64
_cell_length_a 14.802137
_cell_length_b 29.732688
_cell_length_c 8.649969
_cell_angle_alpha 90.000000
_cell_angle_beta 90.000000
_cell_angle_gamma 90.000000
_cell_volume 3806.914685
_symmetry_space_group_name_H-M "P B C M"
_symmetry_group_IT_number 57
_symmetry_cell_setting 'orthorhombic'
loop_
_space_group_symop_operation_xyz
x,y,z
-x,-y,1/2+z
x,1/2-y,-z
-x,1/2+y,1/2-z
-x,-y,-z
x,y,1/2-z
-x,1/2+y,z
x,1/2-y,1/2+z
loop_
_atom_site_type_symbol
_atom_site_label
_atom_site_fract_x
_atom_site_fract_y
_atom_site_fract_z
Si Si1 0.674648 0.463381 0.069942
Si Si2 0.864435 0.030396 0.073329
Si Si3 0.373321 0.443608 0.068968
Si Si4 0.944736 0.555273 0.425862
Si Si5 0.494564 0.204255 0.431936
Si Si6 0.543940 0.394081 0.932376
Si Si7 0.781570 0.611966 0.428484
Si Si8 0.709943 0.705020 0.068051
O O1 0.661335 0.472812 0.250000
O O2 0.780720 0.457653 0.035364
O O3 0.627913 0.504027 0.977156
O O4 0.625827 0.417376 0.022170
O O5 0.830940 0.033148 0.250000
O O6 0.948862 0.064356 0.040365
O O7 0.902885 0.980856 0.042117
O O8 0.393656 0.439716 0.250000
O O9 0.449065 0.416710 0.975759
O O10 0.275900 0.423272 0.028168
O O11 0.934173 0.537100 0.250000
O O12 0.887878 0.601097 0.447561
O O13 0.539754 0.250000 0.500000
O O14 0.495302 0.208822 0.250000
O O15 0.545685 0.158595 0.482599
O O16 0.392158 0.200059 0.494740
O O17 0.558041 0.399015 0.750000
O O18 0.750135 0.607691 0.250000
O O19 0.766566 0.662241 0.491214
O O20 0.712114 0.708248 0.250000
O O21 0.755256 0.750000 0.000000
#
# Coordination Sequence:
#
# PCOD8230410 Si02
#       8
#     8   8   8   8   8   8   8   8
#     4  12  24  37  51  70  99 137 173 211 255 297
#     4  10  19  32  49  74  99 126 167 208 248 294
#     4  12  23  34  49  73 101 135 172 208 243 292
#     4   9  18  31  51  73  98 130 163 203 249 294
#     4   9  18  32  51  73  98 129 162 202 248 293
#     4  11  22  38  54  72  99 134 171 209 250 297
#     4  10  18  32  51  72 100 135 168 202 245 295
#     4   9  17  30  47  70  98 130 164 199 244 292
#
# _framework density 16.811513999999999
#
# number of rings (size 3 to 8) (size 9 to 14) (size 15 to 20)
#    0.000    1.750    2.500    3.375    0.000    2.000 
#    0.000    0.000    0.000    0.000    0.000    0.875 
#    0.000    2.000    0.000    0.000    0.000    0.000 
#
# Total GULP energy -793528.227773 kJ/mol
# GULP energy per Si atom -12398.878559 kJ/mol
# Density = 1.677325 g / cm^3
# Si number density = 16.811514 Si / 1000 Ang^3
#
#
#
# Elastic Constant Matrix: (Units=GPa)
#
#
# Indices 1 2 3 4 5 6 
#
# 1 70.6206 37.9428 14.7835 0.0000 0.0000 0.0000
# 2 37.9428 119.1779 21.7572 0.0000 0.0000 0.0000
# 3 14.7835 21.7572 44.9057 0.0000 0.0000 0.0000
# 4 0.0000 0.0000 0.0000 25.3539 0.0000 0.0000
# 5 0.0000 0.0000 0.0000 0.0000 21.7683 0.0000
# 6 0.0000 0.0000 0.0000 0.0000 0.0000 20.9367
#
#
#
# Elastic Compliance Matrix: (Units=1/GPa)
#
#
# Indices 1 2 3 4 5 6 
#
# 1 0.017534 -0.004968 -0.003365 0.000000 0.000000 0.000000
# 2 -0.004968 0.010613 -0.003506 0.000000 0.000000 0.000000
# 3 -0.003365 -0.003506 0.025076 0.000000 0.000000 0.000000
# 4 0.000000 0.000000 0.000000 0.039442 0.000000 0.000000
# 5 0.000000 0.000000 0.000000 0.000000 0.045938 0.000000
# 6 0.000000 0.000000 0.000000 0.000000 0.000000 0.047763
#
#
# Mechanical properties :
#
#
# Convention : Reuss Voigt Hill
#
# Bulk Modulus (GPa) = 33.84918 42.63012 38.23965
# Shear Modulus (GPa) = 22.73841 24.29313 23.51577
#
# Velocity S-wave (km/s) = 3.68169 3.80548 3.74410
# Velocity P-wave (km/s) = 6.18477 6.68742 6.44100
#
# Compressibility (1/GPa) = 0.02954281
#
# Stress axis : x y z
#
# Youngs Moduli (GPa) = 57.03276 94.22782 39.87922
#
# Poissons Ratio (x) = 0.46811 0.13421
# Poissons Ratio (y) = 0.28333 0.13983
# Poissons Ratio (z) = 0.19194 0.33040
#
# Static dielectric constant tensor:
#      x y z
#    x 3.159690 0.000000 0.000000 
#    y 0.000000 3.245740 0.000000 
#    z 0.000000 0.000000 3.149450 
# 
# 
# High freq. dielectric constant tensor:
#      x y z
#    x 1.626870 0.000000 0.000000 
#    y 0.000000 1.633400 0.000000 
#    z 0.000000 0.000000 1.653310 
# 
# From -- ./inp_files/5970.got.cif
#   From: 2010.03.12/outbox.cif.g09.slc.cpg/sg57_3_cif.got.tgz:5970.got - 2010.04.16 15:48:40.
