data_PCOD8230698
_publ_section_title
;
Structure prediction by ZEFSAII (Michael W. Deem and Ramdas Pophale) SiO2 
 PCOD8230698
Probable space group: P B C M
;
_chemical_formula_sum "Si O2"
_cell_formula_units_Z 48
_cell_length_a 17.967450
_cell_length_b 13.829360
_cell_length_c 9.100668
_cell_angle_alpha 90.000000
_cell_angle_beta 90.000000
_cell_angle_gamma 90.000000
_cell_volume 2261.318826
_symmetry_space_group_name_H-M "P B C M"
_symmetry_group_IT_number 57
_symmetry_cell_setting 'orthorhombic'
loop_
_space_group_symop_operation_xyz
x,y,z
-x,-y,1/2+z
x,1/2-y,-z
-x,1/2+y,1/2-z
-x,-y,-z
x,y,1/2-z
-x,1/2+y,z
x,1/2-y,1/2+z
loop_
_atom_site_type_symbol
_atom_site_label
_atom_site_fract_x
_atom_site_fract_y
_atom_site_fract_z
Si Si1 0.731587 0.052609 0.580789
Si Si2 0.895563 0.468148 0.420168
Si Si3 0.589749 0.099588 0.413423
Si Si4 0.694374 0.662101 0.080120
Si Si5 0.450419 0.376529 0.413812
Si Si6 0.959053 0.647419 0.576895
O O1 0.708388 0.068560 0.750000
O O2 0.816341 0.084505 0.548028
O O3 0.672841 0.110161 0.480902
O O4 0.731533 0.939141 0.540763
O O5 0.900950 0.499619 0.250000
O O6 0.903057 0.565845 0.515491
O O7 0.957544 0.388896 0.460667
O O8 0.591308 0.145348 0.250000
O O9 0.530915 0.152840 0.519408
O O10 0.562237 0.990407 0.403746
O O11 0.695519 0.684488 0.250000
O O12 0.738708 0.750000 0.000000
O O13 0.609794 0.666772 0.023787
O O14 0.443964 0.332043 0.250000
O O15 0.944812 0.750000 0.500000
O O16 0.946123 0.659325 0.750000
#
# Coordination Sequence:
#
# PCOD8230698 Si02
#       6
#     8   8   8   8   8   8
#     4   9  18  32  49  70  98 130 165 208 256 307
#     4   9  19  36  56  80 109 141 179 221 265 317
#     4   9  16  26  43  67  91 117 154 198 244 294
#     4  10  19  30  44  64  93 128 165 207 256 309
#     4   9  16  27  43  62  86 118 157 199 241 288
#     4  10  20  35  57  82 109 141 177 218 264 317
#
# _framework density 21.226551000000001
#
# number of rings (size 3 to 8) (size 9 to 14) (size 15 to 20)
#    0.000    2.667    0.000    2.000    0.000    6.667 
#    0.000    1.667    0.000    1.000    0.000    4.667 
#    0.000    0.000    0.000    0.000    0.000    0.000 
#
# Total GULP energy -595002.025207 kJ/mol
# GULP energy per Si atom -12395.875525 kJ/mol
# Density = 2.117824 g / cm^3
# Si number density = 21.226551 Si / 1000 Ang^3
#
#
#
# Elastic Constant Matrix: (Units=GPa)
#
#
# Indices 1 2 3 4 5 6 
#
# 1 89.9927 -16.9986 18.1299 0.0000 0.0000 0.0000
# 2 -16.9986 29.8198 8.7135 0.0000 0.0000 0.0000
# 3 18.1299 8.7135 80.7993 0.0000 0.0000 0.0000
# 4 0.0000 0.0000 0.0000 25.2361 0.0000 0.0000
# 5 0.0000 0.0000 0.0000 0.0000 26.8146 0.0000
# 6 0.0000 0.0000 0.0000 0.0000 0.0000 4.5707
#
#
#
# Elastic Compliance Matrix: (Units=1/GPa)
#
#
# Indices 1 2 3 4 5 6 
#
# 1 0.013608 0.008931 -0.004017 0.000000 0.000000 0.000000
# 2 0.008931 0.040487 -0.006370 0.000000 0.000000 0.000000
# 3 -0.004017 -0.006370 0.013965 0.000000 0.000000 0.000000
# 4 0.000000 0.000000 0.000000 0.039626 0.000000 0.000000
# 5 0.000000 0.000000 0.000000 0.000000 0.037293 0.000000
# 6 0.000000 0.000000 0.000000 0.000000 0.000000 0.218786
#
#
# Mechanical properties :
#
#
# Convention : Reuss Voigt Hill
#
# Bulk Modulus (GPa) = 15.34960 24.47792 19.91376
# Shear Modulus (GPa) = 12.87359 24.04208 18.45783
#
# Velocity S-wave (km/s) = 2.46536 3.36913 2.95204
# Velocity P-wave (km/s) = 3.91804 5.16638 4.58489
#
# Compressibility (1/GPa) = 0.06514826
#
# Stress axis : x y z
#
# Youngs Moduli (GPa) = 73.48547 24.69923 71.60999
#
# Poissons Ratio (x) = -0.22059 0.28762
# Poissons Ratio (y) = -0.65629 0.45616
# Poissons Ratio (z) = 0.29516 0.15734
#
# Static dielectric constant tensor:
#      x y z
#    x 3.821810 0.000000 0.000000 
#    y 0.000000 3.743200 0.000000 
#    z 0.000000 0.000000 3.933830 
# 
# 
# High freq. dielectric constant tensor:
#      x y z
#    x 1.824770 0.000000 0.000000 
#    y 0.000000 1.809630 0.000000 
#    z 0.000000 0.000000 1.837530 
# 
# From -- ./inp_files/6535.got.cif
#   From: 2010.03.12/outbox.cif.g09.slc.cpg/sg57_4_cif.got.tgz:6535.got - 2010.04.16 15:48:40.
