data_PCOD8230427
_publ_section_title
;
Structure prediction by ZEFSAII (Michael W. Deem and Ramdas Pophale) SiO2 
 PCOD8230427
Probable space group: P B C M
;
_chemical_formula_sum "Si O2"
_cell_formula_units_Z 48
_cell_length_a 9.879670
_cell_length_b 27.992678
_cell_length_c 9.210802
_cell_angle_alpha 90.000000
_cell_angle_beta 90.000000
_cell_angle_gamma 90.000000
_cell_volume 2547.324858
_symmetry_space_group_name_H-M "P B C M"
_symmetry_group_IT_number 57
_symmetry_cell_setting 'orthorhombic'
loop_
_space_group_symop_operation_xyz
x,y,z
-x,-y,1/2+z
x,1/2-y,-z
-x,1/2+y,1/2-z
-x,-y,-z
x,y,1/2-z
-x,1/2+y,z
x,1/2-y,1/2+z
loop_
_atom_site_type_symbol
_atom_site_label
_atom_site_fract_x
_atom_site_fract_y
_atom_site_fract_z
Si Si1 0.907030 0.461396 0.423231
Si Si2 0.263602 0.794961 0.411995
Si Si3 0.500575 0.357248 0.420721
Si Si4 0.408946 0.960688 0.422454
Si Si5 0.991556 0.359672 0.087407
Si Si6 0.237442 0.199810 0.921755
O O1 0.920531 0.464944 0.250000
O O2 0.748948 0.466420 0.467422
O O3 0.000000 0.500000 0.500000
O O4 0.968717 0.411463 0.483953
O O5 0.210335 0.750000 0.500000
O O6 0.294584 0.776981 0.250000
O O7 0.396147 0.818056 0.486460
O O8 0.152746 0.835556 0.412733
O O9 0.527659 0.358930 0.250000
O O10 0.532412 0.410047 0.481006
O O11 0.351833 0.339089 0.460542
O O12 0.426099 0.965634 0.250000
O O13 0.500000 0.000000 0.500000
O O14 0.046128 0.367681 0.250000
O O15 0.102229 0.325100 0.012220
O O16 0.229436 0.210285 0.750000
O O17 0.263889 0.250000 0.000000
#
# Coordination Sequence:
#
# PCOD8230427 Si02
#       6
#     8   8   8   8   8   8
#     4  10  21  38  59  84 112 144 185 232 278 330
#     4  10  18  32  53  76 102 134 173 216 263 316
#     4   9  18  34  55  76 103 141 180 215 262 327
#     4  10  21  38  59  84 112 144 185 232 278 330
#     4   9  18  34  55  76 103 141 180 215 262 327
#     4  10  20  34  53  78 106 140 181 220 263 318
#
# _framework density 18.843297
#
# number of rings (size 3 to 8) (size 9 to 14) (size 15 to 20)
#    0.000    2.333    1.667    1.000    2.333    0.667 
#    0.000    3.333    0.000    0.000    0.000    0.000 
#    0.000    0.000    0.000    0.000    0.000    0.000 
#
# Total GULP energy -594921.542967 kJ/mol
# GULP energy per Si atom -12394.198812 kJ/mol
# Density = 1.880041 g / cm^3
# Si number density = 18.843297 Si / 1000 Ang^3
#
#
#
# Elastic Constant Matrix: (Units=GPa)
#
#
# Indices 1 2 3 4 5 6 
#
# 1 115.5489 52.7645 28.4245 0.0000 0.0000 0.0000
# 2 52.7645 150.1059 40.9750 0.0000 0.0000 0.0000
# 3 28.4245 40.9750 34.1862 0.0000 0.0000 0.0000
# 4 0.0000 0.0000 0.0000 29.0194 0.0000 0.0000
# 5 0.0000 0.0000 0.0000 0.0000 19.6077 0.0000
# 6 0.0000 0.0000 0.0000 0.0000 0.0000 38.7025
#
#
#
# Elastic Compliance Matrix: (Units=1/GPa)
#
#
# Indices 1 2 3 4 5 6 
#
# 1 0.011305 -0.002093 -0.006892 0.000000 0.000000 0.000000
# 2 -0.002093 0.010289 -0.010592 0.000000 0.000000 0.000000
# 3 -0.006892 -0.010592 0.047677 0.000000 0.000000 0.000000
# 4 0.000000 0.000000 0.000000 0.034460 0.000000 0.000000
# 5 0.000000 0.000000 0.000000 0.000000 0.051000 0.000000
# 6 0.000000 0.000000 0.000000 0.000000 0.000000 0.025838
#
#
# Mechanical properties :
#
#
# Convention : Reuss Voigt Hill
#
# Bulk Modulus (GPa) = 33.20217 60.46321 46.83269
# Shear Modulus (GPa) = 21.76167 29.31107 25.53637
#
# Velocity S-wave (km/s) = 3.40203 3.94828 3.68529
# Velocity P-wave (km/s) = 5.75241 7.27615 6.55868
#
# Compressibility (1/GPa) = 0.03011851
#
# Stress axis : x y z
#
# Youngs Moduli (GPa) = 88.45438 97.19146 20.97444
#
# Poissons Ratio (x) = 0.20340 0.14455
# Poissons Ratio (y) = 0.18511 0.22216
# Poissons Ratio (z) = 0.60959 1.02946
#
# Static dielectric constant tensor:
#      x y z
#    x 3.611980 0.000000 0.000000 
#    y 0.000000 3.599340 0.000000 
#    z 0.000000 0.000000 3.063730 
# 
# 
# High freq. dielectric constant tensor:
#      x y z
#    x 1.749090 0.000000 0.000000 
#    y 0.000000 1.747440 0.000000 
#    z 0.000000 0.000000 1.682140 
# 
# From -- ./inp_files/2025.got.cif
#   From: 2010.03.12/outbox.cif.g09.slc.cpg/sg57_2_cif.got.tgz:2025.got - 2010.04.16 15:48:40.
