data_PCOD8230135
_publ_section_title
;
Structure prediction by ZEFSAII (Michael W. Deem and Ramdas Pophale) SiO2 
 PCOD8230135
Probable space group: P B C M
;
_chemical_formula_sum "Si O2"
_cell_formula_units_Z 48
_cell_length_a 15.034153
_cell_length_b 20.889926
_cell_length_c 8.874613
_cell_angle_alpha 90.000000
_cell_angle_beta 90.000000
_cell_angle_gamma 90.000000
_cell_volume 2787.181758
_symmetry_space_group_name_H-M "P B C M"
_symmetry_group_IT_number 57
_symmetry_cell_setting 'orthorhombic'
loop_
_space_group_symop_operation_xyz
x,y,z
-x,-y,1/2+z
x,1/2-y,-z
-x,1/2+y,1/2-z
-x,-y,-z
x,y,1/2-z
-x,1/2+y,z
x,1/2-y,1/2+z
loop_
_atom_site_type_symbol
_atom_site_label
_atom_site_fract_x
_atom_site_fract_y
_atom_site_fract_z
Si Si1 0.307429 0.681817 0.573095
Si Si2 0.834264 0.096608 0.079597
Si Si3 0.436140 0.910565 0.925138
Si Si4 0.374386 0.039053 0.425429
Si Si5 0.802034 0.553354 0.923655
Si Si6 0.974823 0.565994 0.075235
O O1 0.290680 0.750000 0.500000
O O2 0.317036 0.689646 0.750000
O O3 0.223084 0.637243 0.536807
O O4 0.398575 0.651642 0.509053
O O5 0.806028 0.114633 0.250000
O O6 0.939407 0.112421 0.054935
O O7 0.817054 0.021870 0.051038
O O8 0.413010 0.905367 0.750000
O O9 0.541671 0.914534 0.954152
O O10 0.386568 0.973022 0.986324
O O11 0.363402 0.022957 0.250000
O O12 0.287511 0.074677 0.489662
O O13 0.793249 0.572249 0.750000
O O14 0.885622 0.592553 0.994389
O O15 0.954209 0.554319 0.250000
O O16 0.000000 0.500000 0.000000
#
# Coordination Sequence:
#
# PCOD8230135 Si02
#       6
#     8   8   8   8   8   8
#     4  12  24  36  53  72  96 132 171 210 251 298
#     4   9  18  32  47  67  97 130 163 204 245 286
#     4  10  20  34  49  70 100 129 165 209 250 299
#     4  10  19  30  49  73  99 133 166 201 250 303
#     4  10  18  28  46  71 102 133 161 200 242 292
#     4   9  17  28  44  66  96 129 161 196 237 287
#
# _framework density 17.221696999999999
#
# number of rings (size 3 to 8) (size 9 to 14) (size 15 to 20)
#    0.000    2.000    1.667    4.500    0.000    5.333 
#    0.000    0.000    0.000    0.000    0.000    1.167 
#    0.000    0.000    0.000    0.000    0.000    0.000 
#
# Total GULP energy -595118.063147 kJ/mol
# GULP energy per Si atom -12398.292982 kJ/mol
# Density = 1.718250 g / cm^3
# Si number density = 17.221697 Si / 1000 Ang^3
#
#
#
# Elastic Constant Matrix: (Units=GPa)
#
#
# Indices 1 2 3 4 5 6 
#
# 1 135.6823 13.8755 52.6507 0.0000 0.0000 0.0000
# 2 13.8755 34.2131 24.2977 0.0000 0.0000 0.0000
# 3 52.6507 24.2977 124.3629 0.0000 0.0000 0.0000
# 4 0.0000 0.0000 0.0000 21.0058 0.0000 0.0000
# 5 0.0000 0.0000 0.0000 0.0000 34.3013 0.0000
# 6 0.0000 0.0000 0.0000 0.0000 0.0000 11.8328
#
#
#
# Elastic Compliance Matrix: (Units=1/GPa)
#
#
# Indices 1 2 3 4 5 6 
#
# 1 0.008853 -0.001078 -0.003537 0.000000 0.000000 0.000000
# 2 -0.001078 0.034069 -0.006200 0.000000 0.000000 0.000000
# 3 -0.003537 -0.006200 0.010750 0.000000 0.000000 0.000000
# 4 0.000000 0.000000 0.000000 0.047606 0.000000 0.000000
# 5 0.000000 0.000000 0.000000 0.000000 0.029153 0.000000
# 6 0.000000 0.000000 0.000000 0.000000 0.000000 0.084511
#
#
# Mechanical properties :
#
#
# Convention : Reuss Voigt Hill
#
# Bulk Modulus (GPa) = 31.21007 52.87847 42.04427
# Shear Modulus (GPa) = 20.22219 26.99028 23.60623
#
# Velocity S-wave (km/s) = 3.43042 3.96311 3.70635
# Velocity P-wave (km/s) = 5.81827 7.19117 6.54084
#
# Compressibility (1/GPa) = 0.03204094
#
# Stress axis : x y z
#
# Youngs Moduli (GPa) = 112.95480 29.35232 93.02418
#
# Poissons Ratio (x) = 0.03165 0.32907
# Poissons Ratio (y) = 0.12179 0.57673
# Poissons Ratio (z) = 0.39957 0.18198
#
# Static dielectric constant tensor:
#      x y z
#    x 3.804330 0.000000 0.000000 
#    y 0.000000 2.702580 0.000000 
#    z 0.000000 0.000000 3.547490 
# 
# 
# High freq. dielectric constant tensor:
#      x y z
#    x 1.687970 0.000000 0.000000 
#    y 0.000000 1.590830 0.000000 
#    z 0.000000 0.000000 1.683640 
# 
# From -- ./inp_files/4877.got.cif
#   From: 2010.03.12/outbox.cif.g09.slc.cpg/sg57_3_cif.got.tgz:4877.got - 2010.04.16 15:48:40.
