data_PCOD8230395
_publ_section_title
;
Structure prediction by ZEFSAII (Michael W. Deem and Ramdas Pophale) SiO2 
 PCOD8230395
Probable space group: P B C M
;
_chemical_formula_sum "Si O2"
_cell_formula_units_Z 40
_cell_length_a 9.247260
_cell_length_b 17.784107
_cell_length_c 13.878614
_cell_angle_alpha 90.000000
_cell_angle_beta 90.000000
_cell_angle_gamma 90.000000
_cell_volume 2282.397213
_symmetry_space_group_name_H-M "P B C M"
_symmetry_group_IT_number 57
_symmetry_cell_setting 'orthorhombic'
loop_
_space_group_symop_operation_xyz
x,y,z
-x,-y,1/2+z
x,1/2-y,-z
-x,1/2+y,1/2-z
-x,-y,-z
x,y,1/2-z
-x,1/2+y,z
x,1/2-y,1/2+z
loop_
_atom_site_type_symbol
_atom_site_label
_atom_site_fract_x
_atom_site_fract_y
_atom_site_fract_z
Si Si1 0.294211 0.455968 0.956207
Si Si2 0.066083 0.164032 0.001864
Si Si3 0.052295 0.548951 0.862553
Si Si4 0.132119 0.597016 0.143532
Si Si5 0.416927 0.523529 0.358139
O O1 0.196426 0.527717 0.923556
O O2 0.422534 0.446661 0.878850
O O3 0.200368 0.380577 0.952201
O O4 0.365975 0.463361 0.061973
O O5 0.015958 0.127533 0.900184
O O6 0.114730 0.250000 0.000000
O O7 0.928239 0.159913 0.072559
O O8 0.090151 0.557063 0.750000
O O9 0.931652 0.485526 0.883328
O O10 0.080516 0.619348 0.250000
O O11 0.305836 0.593727 0.136566
O O12 0.410465 0.487973 0.250000
#
# Coordination Sequence:
#
# PCOD8230395 Si02
#       5
#     8   8   8   8   8
#     4  10  19  34  54  80 106 134 181 223 264 310
#     4  11  21  34  50  78 110 144 171 213 265 322
#     4  10  18  33  54  77 102 133 176 221 259 305
#     4   9  17  33  55  76 101 133 176 219 259 305
#     4  10  18  31  57  81 100 130 174 226 268 306
#
# _framework density 17.525433
#
# number of rings (size 3 to 8) (size 9 to 14) (size 15 to 20)
#    0.000    2.000    4.000    1.800    0.000    1.600 
#    0.000    1.000    0.000    0.000    0.000    0.000 
#    0.000    0.000    0.000    0.000    0.000    0.000 
#
# Total GULP energy -495815.856251 kJ/mol
# GULP energy per Si atom -12395.396406 kJ/mol
# Density = 1.748554 g / cm^3
# Si number density = 17.525433 Si / 1000 Ang^3
#
#
#
# Elastic Constant Matrix: (Units=GPa)
#
#
# Indices 1 2 3 4 5 6 
#
# 1 106.7690 22.1312 33.9280 0.0000 0.0000 0.0000
# 2 22.1312 76.0876 20.3554 0.0000 0.0000 0.0000
# 3 33.9280 20.3554 99.7052 0.0000 0.0000 0.0000
# 4 0.0000 0.0000 0.0000 13.7333 0.0000 0.0000
# 5 0.0000 0.0000 0.0000 0.0000 31.1718 0.0000
# 6 0.0000 0.0000 0.0000 0.0000 0.0000 10.3287
#
#
#
# Elastic Compliance Matrix: (Units=1/GPa)
#
#
# Indices 1 2 3 4 5 6 
#
# 1 0.010868 -0.002297 -0.003229 0.000000 0.000000 0.000000
# 2 -0.002297 0.014388 -0.002156 0.000000 0.000000 0.000000
# 3 -0.003229 -0.002156 0.011569 0.000000 0.000000 0.000000
# 4 0.000000 0.000000 0.000000 0.072816 0.000000 0.000000
# 5 0.000000 0.000000 0.000000 0.000000 0.032080 0.000000
# 6 0.000000 0.000000 0.000000 0.000000 0.000000 0.096817
#
#
# Mechanical properties :
#
#
# Convention : Reuss Voigt Hill
#
# Bulk Modulus (GPa) = 46.59808 48.37679 47.48743
# Shear Modulus (GPa) = 19.15301 24.78991 21.97146
#
# Velocity S-wave (km/s) = 3.30944 3.76508 3.54459
# Velocity P-wave (km/s) = 6.42260 6.82384 6.62626
#
# Compressibility (1/GPa) = 0.02146011
#
# Stress axis : x y z
#
# Youngs Moduli (GPa) = 92.01000 69.50419 86.44140
#
# Poissons Ratio (x) = 0.15967 0.27915
# Poissons Ratio (y) = 0.21137 0.18633
# Poissons Ratio (z) = 0.29713 0.14982
#
# Static dielectric constant tensor:
#      x y z
#    x 3.478850 0.000000 0.000000 
#    y 0.000000 2.696680 0.000000 
#    z 0.000000 0.000000 3.469540 
# 
# 
# High freq. dielectric constant tensor:
#      x y z
#    x 1.688250 0.000000 0.000000 
#    y 0.000000 1.609410 0.000000 
#    z 0.000000 0.000000 1.699910 
# 
# From -- ./inp_files/15909.got.cif
#   From: 2010.03.12/outbox.cif.g09.slc.cpg/sg57_8_cif.got.tgz:15909.got - 2010.04.16 15:48:40.
