data_PCOD8230882
_publ_section_title
;
Structure prediction by ZEFSAII (Michael W. Deem and Ramdas Pophale) SiO2 
 PCOD8230882
Probable space group: P B C M
;
_chemical_formula_sum "Si O2"
_cell_formula_units_Z 48
_cell_length_a 26.372062
_cell_length_b 5.338963
_cell_length_c 12.587593
_cell_angle_alpha 90.000000
_cell_angle_beta 90.000000
_cell_angle_gamma 90.000000
_cell_volume 1772.326338
_symmetry_space_group_name_H-M "P B C M"
_symmetry_group_IT_number 57
_symmetry_cell_setting 'orthorhombic'
loop_
_space_group_symop_operation_xyz
x,y,z
-x,-y,1/2+z
x,1/2-y,-z
-x,1/2+y,1/2-z
-x,-y,-z
x,y,1/2-z
-x,1/2+y,z
x,1/2-y,1/2+z
loop_
_atom_site_type_symbol
_atom_site_label
_atom_site_fract_x
_atom_site_fract_y
_atom_site_fract_z
Si Si1 0.194630 0.101316 0.623848
Si Si2 0.857800 0.101480 0.623584
Si Si3 0.360211 0.602530 0.627227
Si Si4 0.973660 0.398381 0.123612
Si Si5 0.689341 0.602555 0.623621
Si Si6 0.479013 0.523683 0.884238
O O1 0.187538 0.108117 0.750000
O O2 0.176028 0.370783 0.577430
O O3 0.252674 0.055618 0.592258
O O4 0.161038 0.870625 0.577354
O O5 0.851483 0.107398 0.750000
O O6 0.915731 0.059039 0.590353
O O7 0.344320 0.616360 0.750000
O O8 0.328742 0.371125 0.574993
O O9 0.419222 0.551626 0.615191
O O10 0.345077 0.873104 0.576457
O O11 0.979940 0.392826 0.250000
O O12 0.007363 0.629312 0.077573
O O13 0.681724 0.614925 0.750000
O O14 0.504303 0.765086 0.825888
O O15 0.500000 0.500000 0.000000
#
# Coordination Sequence:
#
# PCOD8230882 Si02
#       6
#     8   8   8   8   8   8
#     4   9  15  23  34  48  68  92 120 156 202 261
#     4   9  15  21  30  43  59  86 122 158 204 263
#     4  10  19  31  48  69  91 115 144 177 217 266
#     4   9  15  21  27  36  53  78 113 160 208 253
#     4   9  17  28  42  62  86 109 134 171 218 267
#     4  10  21  36  52  70  93 120 148 178 213 258
#
# _framework density 27.083046
#
# number of rings (size 3 to 8) (size 9 to 14) (size 15 to 20)
#    0.000    2.667    0.000    3.000    0.000    8.667 
#    0.000    0.000    0.000    0.000    0.000    0.000 
#    0.000    0.000    0.000    0.000    0.000    0.000 
#
# Total GULP energy -595385.438043 kJ/mol
# GULP energy per Si atom -12403.863293 kJ/mol
# Density = 2.702140 g / cm^3
# Si number density = 27.083046 Si / 1000 Ang^3
#
#
#
# Elastic Constant Matrix: (Units=GPa)
#
#
# Indices 1 2 3 4 5 6 
#
# 1 209.2232 139.7619 -19.2378 0.0000 0.0000 0.0000
# 2 139.7619 291.2298 33.6571 0.0000 0.0000 0.0000
# 3 -19.2378 33.6571 56.9127 0.0000 0.0000 0.0000
# 4 0.0000 0.0000 0.0000 -137.2057 0.0000 0.0000
# 5 0.0000 0.0000 0.0000 0.0000 27.4973 0.0000
# 6 0.0000 0.0000 0.0000 0.0000 0.0000 63.8307
#
#
#
# Elastic Compliance Matrix: (Units=1/GPa)
#
#
# Indices 1 2 3 4 5 6 
#
# 1 0.008437 -0.004700 0.005631 0.000000 0.000000 0.000000
# 2 -0.004700 0.006303 -0.005316 0.000000 0.000000 0.000000
# 3 0.005631 -0.005316 0.022618 0.000000 0.000000 0.000000
# 4 0.000000 0.000000 0.000000 -0.007288 0.000000 0.000000
# 5 0.000000 0.000000 0.000000 0.000000 0.036367 0.000000
# 6 0.000000 0.000000 0.000000 0.000000 0.000000 0.015666
#
#
# Mechanical properties :
#
#
# Convention : Reuss Voigt Hill
#
# Bulk Modulus (GPa) = 34.97903 96.19202 65.58552
# Shear Modulus (GPa) = 49.79947 17.70342 33.75145
#
# Velocity S-wave (km/s) = 4.29274 2.55947 3.53401
# Velocity P-wave (km/s) = 6.12484 6.65801 6.39698
#
# Compressibility (1/GPa) = 0.02858856
#
# Stress axis : x y z
#
# Youngs Moduli (GPa) = 118.53035 158.64373 44.21235
#
# Poissons Ratio (x) = 0.74555 -0.24896
# Poissons Ratio (y) = 0.55704 0.23505
# Poissons Ratio (z) = -0.66744 0.84339
#
# Static dielectric constant tensor:
#      x y z
#    x 4.424790 0.000000 0.000000 
#    y 0.000000 4.190280 0.000000 
#    z 0.000000 0.000000 5.241130 
# 
# 
# High freq. dielectric constant tensor:
#      x y z
#    x 2.068510 0.000000 0.000000 
#    y 0.000000 2.118620 0.000000 
#    z 0.000000 0.000000 2.163410 
# 
# From -- ./inp_files/23104.got.cif
#   From: 2010.03.12/outbox.cif.g09.slc.cpg/sg57_12_cif.got.tgz:23104.got - 2010.04.16 15:48:40.
