data_PCOD8230347
_publ_section_title
;
Structure prediction by ZEFSAII (Michael W. Deem and Ramdas Pophale) SiO2 
 PCOD8230347
Probable space group: P B C M
;
_chemical_formula_sum "Si O2"
_cell_formula_units_Z 64
_cell_length_a 23.223843
_cell_length_b 17.860238
_cell_length_c 8.536418
_cell_angle_alpha 90.000000
_cell_angle_beta 90.000000
_cell_angle_gamma 90.000000
_cell_volume 3540.764168
_symmetry_space_group_name_H-M "P B C M"
_symmetry_group_IT_number 57
_symmetry_cell_setting 'orthorhombic'
loop_
_space_group_symop_operation_xyz
x,y,z
-x,-y,1/2+z
x,1/2-y,-z
-x,1/2+y,1/2-z
-x,-y,-z
x,y,1/2-z
-x,1/2+y,z
x,1/2-y,1/2+z
loop_
_atom_site_type_symbol
_atom_site_label
_atom_site_fract_x
_atom_site_fract_y
_atom_site_fract_z
Si Si1 0.628136 0.038869 0.434570
Si Si2 0.942830 0.832818 0.563796
Si Si3 0.549645 0.169099 0.064472
Si Si4 0.687881 0.828402 0.930386
Si Si5 0.964091 0.430957 0.436319
Si Si6 0.742326 0.530318 0.566914
Si Si7 0.129006 0.026847 0.563001
Si Si8 0.431497 0.100677 0.069561
O O1 0.633828 0.039077 0.250000
O O2 0.602365 0.117211 0.494884
O O3 0.692187 0.023692 0.507150
O O4 0.582610 0.974852 0.477907
O O5 0.927157 0.750000 0.500000
O O6 0.940463 0.831439 0.750000
O O7 0.898075 0.895565 0.501768
O O8 0.007630 0.855205 0.506521
O O9 0.546096 0.172022 0.250000
O O10 0.489192 0.137421 0.998172
O O11 0.563081 0.250000 0.000000
O O12 0.706019 0.835399 0.750000
O O13 0.619743 0.839948 0.952731
O O14 0.706199 0.750000 0.000000
O O15 0.724516 0.885484 0.032098
O O16 0.965400 0.426421 0.250000
O O17 0.900313 0.450146 0.498805
O O18 0.000000 0.500000 0.500000
O O19 0.745189 0.516738 0.750000
O O20 0.805928 0.517207 0.498422
O O21 0.124692 0.030224 0.750000
O O22 0.440086 0.078929 0.250000
#
# Coordination Sequence:
#
# PCOD8230347 Si02
#       8
#     8   8   8   8   8   8   8   8
#     4   9  18  33  51  71  94 125 162 203 246 292
#     4  11  21  34  52  77 108 137 163 197 241 288
#     4  10  20  32  48  71  98 123 155 197 247 301
#     4  10  19  30  45  65  94 127 161 198 241 292
#     4  10  18  31  51  75 102 132 164 198 236 280
#     4   9  19  34  51  69  93 127 167 205 244 285
#     4  10  19  33  52  74  98 130 170 207 242 287
#     4   9  18  31  47  70  95 123 157 197 243 297
#
# _framework density 18.075194
#
# number of rings (size 3 to 8) (size 9 to 14) (size 15 to 20)
#    0.000    2.250    0.000    5.250    0.000    3.000 
#    0.000    0.000    0.000    0.750    0.000    1.750 
#    0.000    0.000    0.000    0.000    0.000    0.000 
#
# Total GULP energy -793210.288904 kJ/mol
# GULP energy per Si atom -12393.910764 kJ/mol
# Density = 1.803405 g / cm^3
# Si number density = 18.075194 Si / 1000 Ang^3
#
#
#
# Elastic Constant Matrix: (Units=GPa)
#
#
# Indices 1 2 3 4 5 6 
#
# 1 139.5747 58.8016 24.1446 0.0000 0.0000 0.0000
# 2 58.8016 82.3764 13.5882 0.0000 0.0000 0.0000
# 3 24.1446 13.5882 55.1541 0.0000 0.0000 0.0000
# 4 0.0000 0.0000 0.0000 25.5421 0.0000 0.0000
# 5 0.0000 0.0000 0.0000 0.0000 19.1733 0.0000
# 6 0.0000 0.0000 0.0000 0.0000 0.0000 18.1133
#
#
#
# Elastic Compliance Matrix: (Units=1/GPa)
#
#
# Indices 1 2 3 4 5 6 
#
# 1 0.010677 -0.007141 -0.002915 0.000000 0.000000 0.000000
# 2 -0.007141 0.017429 -0.001168 0.000000 0.000000 0.000000
# 3 -0.002915 -0.001168 0.019695 0.000000 0.000000 0.000000
# 4 0.000000 0.000000 0.000000 0.039151 0.000000 0.000000
# 5 0.000000 0.000000 0.000000 0.000000 0.052156 0.000000
# 6 0.000000 0.000000 0.000000 0.000000 0.000000 0.055208
#
#
# Mechanical properties :
#
#
# Convention : Reuss Voigt Hill
#
# Bulk Modulus (GPa) = 39.44156 52.24157 45.84156
# Shear Modulus (GPa) = 22.20103 24.60380 23.40242
#
# Velocity S-wave (km/s) = 3.50846 3.69344 3.60213
# Velocity P-wave (km/s) = 6.18713 6.86686 6.53583
#
# Compressibility (1/GPa) = 0.02535397
#
# Stress axis : x y z
#
# Youngs Moduli (GPa) = 93.65760 57.37482 50.77483
#
# Poissons Ratio (x) = 0.40970 0.14800
# Poissons Ratio (y) = 0.66878 0.05931
# Poissons Ratio (z) = 0.27300 0.06702
#
# Static dielectric constant tensor:
#      x y z
#    x 3.875410 0.000000 0.000000 
#    y 0.000000 3.452720 0.000000 
#    z 0.000000 0.000000 3.291950 
# 
# 
# High freq. dielectric constant tensor:
#      x y z
#    x 1.698380 0.000000 0.000000 
#    y 0.000000 1.682140 0.000000 
#    z 0.000000 0.000000 1.700310 
# 
# From -- ./inp_files/9550.got.cif
#   From: 2010.03.12/outbox.cif.g09.slc.cpg/sg57_5_cif.got.tgz:9550.got - 2010.04.16 15:48:40.
