data_PCOD8230766
_publ_section_title
;
Structure prediction by ZEFSAII (Michael W. Deem and Ramdas Pophale) SiO2 
 PCOD8230766
Probable space group: P B C M
;
_chemical_formula_sum "Si O2"
_cell_formula_units_Z 56
_cell_length_a 17.557787
_cell_length_b 21.470817
_cell_length_c 9.174109
_cell_angle_alpha 90.000000
_cell_angle_beta 90.000000
_cell_angle_gamma 90.000000
_cell_volume 3458.455901
_symmetry_space_group_name_H-M "P B C M"
_symmetry_group_IT_number 57
_symmetry_cell_setting 'orthorhombic'
loop_
_space_group_symop_operation_xyz
x,y,z
-x,-y,1/2+z
x,1/2-y,-z
-x,1/2+y,1/2-z
-x,-y,-z
x,y,1/2-z
-x,1/2+y,z
x,1/2-y,1/2+z
loop_
_atom_site_type_symbol
_atom_site_label
_atom_site_fract_x
_atom_site_fract_y
_atom_site_fract_z
Si Si1 0.056740 0.416539 0.414655
Si Si2 0.446157 0.088351 0.581667
Si Si3 0.770440 0.039837 0.584240
Si Si4 0.602938 0.468298 0.416254
Si Si5 0.652896 0.684282 0.077537
Si Si6 0.912868 0.062977 0.085711
Si Si7 0.798027 0.602937 0.417647
O O1 0.048760 0.392771 0.250000
O O2 0.071611 0.489827 0.421914
O O3 0.127136 0.380556 0.488714
O O4 0.978553 0.400480 0.498405
O O5 0.423422 0.098379 0.750000
O O6 0.537582 0.083437 0.562219
O O7 0.418479 0.146206 0.485900
O O8 0.407853 0.024770 0.527350
O O9 0.795916 0.051653 0.750000
O O10 0.684700 0.064204 0.553653
O O11 0.830204 0.076820 0.483842
O O12 0.769401 0.966468 0.549122
O O13 0.601363 0.494836 0.250000
O O14 0.642334 0.691912 0.250000
O O15 0.730895 0.649292 0.037070
O O16 0.655351 0.750000 0.000000
O O17 0.912868 0.087941 0.250000
O O18 0.820958 0.610846 0.250000
#
# Coordination Sequence:
#
# PCOD8230766 Si02
#       7
#     8   8   8   8   8   8   8
#     4   9  16  25  38  56  80 111 146 179 211 254
#     4  10  19  30  47  68  90 118 154 191 233 280
#     4   9  15  26  42  60  86 118 149 181 221 266
#     4   9  17  30  46  66  92 122 153 189 230 278
#     4  11  22  36  50  66  90 120 156 196 238 278
#     4   9  16  24  35  56  84 113 145 177 212 253
#     4   9  17  29  44  59  82 115 148 184 225 266
#
# _framework density 16.192195999999999
#
# number of rings (size 3 to 8) (size 9 to 14) (size 15 to 20)
#    0.000    2.571    1.429    1.714    0.000    5.714 
#    0.000    0.000    0.000    0.000    0.000    0.000 
#    0.000    1.143    0.000    8.286    0.000    4.429 
#
# Total GULP energy -694332.672423 kJ/mol
# GULP energy per Si atom -12398.797722 kJ/mol
# Density = 1.615534 g / cm^3
# Si number density = 16.192196 Si / 1000 Ang^3
#
#
#
# Elastic Constant Matrix: (Units=GPa)
#
#
# Indices 1 2 3 4 5 6 
#
# 1 146.3523 31.4709 76.2518 0.0000 0.0000 0.0000
# 2 31.4709 40.2356 31.8682 0.0000 0.0000 0.0000
# 3 76.2518 31.8682 114.2835 0.0000 0.0000 0.0000
# 4 0.0000 0.0000 0.0000 17.7434 0.0000 0.0000
# 5 0.0000 0.0000 0.0000 0.0000 31.2900 0.0000
# 6 0.0000 0.0000 0.0000 0.0000 0.0000 12.1518
#
#
#
# Elastic Compliance Matrix: (Units=1/GPa)
#
#
# Indices 1 2 3 4 5 6 
#
# 1 0.010852 -0.003534 -0.006255 0.000000 0.000000 0.000000
# 2 -0.003534 0.033049 -0.006858 0.000000 0.000000 0.000000
# 3 -0.006255 -0.006858 0.014836 0.000000 0.000000 0.000000
# 4 0.000000 0.000000 0.000000 0.056359 0.000000 0.000000
# 5 0.000000 0.000000 0.000000 0.000000 0.031959 0.000000
# 6 0.000000 0.000000 0.000000 0.000000 0.000000 0.082292
#
#
# Mechanical properties :
#
#
# Convention : Reuss Voigt Hill
#
# Bulk Modulus (GPa) = 39.30287 64.45036 51.87661
# Shear Modulus (GPa) = 18.44186 22.98908 20.71547
#
# Velocity S-wave (km/s) = 3.37847 3.77206 3.58068
# Velocity P-wave (km/s) = 6.28842 7.67209 7.01446
#
# Compressibility (1/GPa) = 0.02544344
#
# Stress axis : x y z
#
# Youngs Moduli (GPa) = 92.15195 30.25769 67.40323
#
# Poissons Ratio (x) = 0.10692 0.42161
# Poissons Ratio (y) = 0.32562 0.46227
# Poissons Ratio (z) = 0.57642 0.20752
#
# Static dielectric constant tensor:
#      x y z
#    x 3.327870 0.000000 0.000000 
#    y 0.000000 2.491320 0.000000 
#    z 0.000000 0.000000 3.209630 
# 
# 
# High freq. dielectric constant tensor:
#      x y z
#    x 1.638170 0.000000 0.000000 
#    y 0.000000 1.544940 0.000000 
#    z 0.000000 0.000000 1.636550 
# 
# From -- ./inp_files/7004.got.cif
#   From: 2010.03.12/outbox.cif.g09.slc.cpg/sg57_4_cif.got.tgz:7004.got - 2010.04.16 15:48:40.
