data_PCOD8230503
_publ_section_title
;
Structure prediction by ZEFSAII (Michael W. Deem and Ramdas Pophale) SiO2 
 PCOD8230503
Probable space group: P B C M
;
_chemical_formula_sum "Si O2"
_cell_formula_units_Z 56
_cell_length_a 6.677873
_cell_length_b 14.217145
_cell_length_c 27.496509
_cell_angle_alpha 90.000000
_cell_angle_beta 90.000000
_cell_angle_gamma 90.000000
_cell_volume 2610.526504
_symmetry_space_group_name_H-M "P B C M"
_symmetry_group_IT_number 57
_symmetry_cell_setting 'orthorhombic'
loop_
_space_group_symop_operation_xyz
x,y,z
-x,-y,1/2+z
x,1/2-y,-z
-x,1/2+y,1/2-z
-x,-y,-z
x,y,1/2-z
-x,1/2+y,z
x,1/2-y,1/2+z
loop_
_atom_site_type_symbol
_atom_site_label
_atom_site_fract_x
_atom_site_fract_y
_atom_site_fract_z
Si Si1 0.769503 0.739810 0.392733
Si Si2 0.539993 0.771162 0.302051
Si Si3 0.919369 0.103550 0.900071
Si Si4 0.351157 0.745454 0.057178
Si Si5 0.646984 0.083003 0.193776
Si Si6 0.918084 0.086231 0.395211
Si Si7 0.715012 0.046235 0.696405
O O1 0.718158 0.776843 0.339589
O O2 0.580700 0.729814 0.428127
O O3 0.919400 0.817352 0.412887
O O4 0.875544 0.640085 0.385375
O O5 0.633711 0.742252 0.250000
O O6 0.371165 0.694765 0.316618
O O7 0.440900 0.870796 0.298755
O O8 0.717432 0.152382 0.921114
O O9 0.880442 0.072063 0.843972
O O10 0.009412 0.008076 0.924555
O O11 0.229189 0.653205 0.074358
O O12 0.330237 0.750000 0.000000
O O13 0.709406 0.060807 0.250000
O O14 0.816442 0.050654 0.155553
O O15 0.426069 0.041856 0.181513
O O16 0.815902 0.029674 0.750000
#
# Coordination Sequence:
#
# PCOD8230503 Si02
#       7
#     8   8   8   8   8   8   8
#     4  11  22  41  64  94 128 172 213 268 324 379
#     4  10  18  33  58  85 124 174 214 247 303 373
#     4  11  24  40  69  99 129 168 217 264 319 393
#     4  11  26  48  68  91 126 164 213 281 343 382
#     4  10  20  36  61  95 136 175 211 251 305 378
#     4  11  24  40  69  99 129 168 217 264 319 393
#     4  10  20  36  61  95 136 175 211 251 305 378
#
# _framework density 21.451609999999999
#
# number of rings (size 3 to 8) (size 9 to 14) (size 15 to 20)
#    0.000    1.429    2.857    2.571    0.000    4.571 
#    0.000    1.429    0.000    0.000    0.000    0.000 
#    0.000    0.000    0.000    0.000    0.000    0.000 
#
# Total GULP energy -693886.137892 kJ/mol
# GULP energy per Si atom -12390.823891 kJ/mol
# Density = 2.140279 g / cm^3
# Si number density = 21.451610 Si / 1000 Ang^3
#
#
#
# Elastic Constant Matrix: (Units=GPa)
#
#
# Indices 1 2 3 4 5 6 
#
# 1 85.3106 20.1141 30.5790 0.0000 0.0000 0.0000
# 2 20.1141 80.7207 14.1521 0.0000 0.0000 0.0000
# 3 30.5790 14.1521 99.4242 0.0000 0.0000 0.0000
# 4 0.0000 0.0000 0.0000 16.8749 0.0000 0.0000
# 5 0.0000 0.0000 0.0000 0.0000 11.7190 0.0000
# 6 0.0000 0.0000 0.0000 0.0000 0.0000 27.4556
#
#
#
# Elastic Compliance Matrix: (Units=1/GPa)
#
#
# Indices 1 2 3 4 5 6 
#
# 1 0.013746 -0.002753 -0.003836 0.000000 0.000000 0.000000
# 2 -0.002753 0.013257 -0.001040 0.000000 0.000000 0.000000
# 3 -0.003836 -0.001040 0.011386 0.000000 0.000000 0.000000
# 4 0.000000 0.000000 0.000000 0.059260 0.000000 0.000000
# 5 0.000000 0.000000 0.000000 0.000000 0.085332 0.000000
# 6 0.000000 0.000000 0.000000 0.000000 0.000000 0.036422
#
#
# Mechanical properties :
#
#
# Convention : Reuss Voigt Hill
#
# Bulk Modulus (GPa) = 43.23298 43.90511 43.56905
# Shear Modulus (GPa) = 20.62961 24.58392 22.60676
#
# Velocity S-wave (km/s) = 3.10446 3.38896 3.24983
# Velocity P-wave (km/s) = 5.74872 5.98539 5.86825
#
# Compressibility (1/GPa) = 0.02313049
#
# Stress axis : x y z
#
# Youngs Moduli (GPa) = 72.74936 75.43351 87.82901
#
# Poissons Ratio (x) = 0.20765 0.33690
# Poissons Ratio (y) = 0.20026 0.09137
# Poissons Ratio (z) = 0.27906 0.07848
#
# Static dielectric constant tensor:
#      x y z
#    x 3.781500 0.000000 0.000000 
#    y 0.000000 4.146010 0.000000 
#    z 0.000000 0.000000 3.865460 
# 
# 
# High freq. dielectric constant tensor:
#      x y z
#    x 1.833860 0.000000 0.000000 
#    y 0.000000 1.861030 0.000000 
#    z 0.000000 0.000000 1.820130 
# 
# From -- ./inp_files/29170.got.cif
#   From: 2010.03.12/outbox.cif.g09.slc.cpg/sg57_15_cif.got.tgz:29170.got - 2010.04.16 15:48:40.
