data_PCOD8230893
_publ_section_title
;
Structure prediction by ZEFSAII (Michael W. Deem and Ramdas Pophale) SiO2 
 PCOD8230893
Probable space group: P B C M
;
_chemical_formula_sum "Si O2"
_cell_formula_units_Z 64
_cell_length_a 25.082237
_cell_length_b 14.791300
_cell_length_c 9.110772
_cell_angle_alpha 90.000000
_cell_angle_beta 90.000000
_cell_angle_gamma 90.000000
_cell_volume 3380.086319
_symmetry_space_group_name_H-M "P B C M"
_symmetry_group_IT_number 57
_symmetry_cell_setting 'orthorhombic'
loop_
_space_group_symop_operation_xyz
x,y,z
-x,-y,1/2+z
x,1/2-y,-z
-x,1/2+y,1/2-z
-x,-y,-z
x,y,1/2-z
-x,1/2+y,z
x,1/2-y,1/2+z
loop_
_atom_site_type_symbol
_atom_site_label
_atom_site_fract_x
_atom_site_fract_y
_atom_site_fract_z
Si Si1 0.117882 0.171018 0.586509
Si Si2 0.755437 0.166070 0.419671
Si Si3 0.945108 0.486465 0.917199
Si Si4 0.424529 0.000525 0.578568
Si Si5 0.510540 0.349320 0.424059
Si Si6 0.789565 0.597052 0.413513
Si Si7 0.696693 0.519005 0.918683
Si Si8 0.148966 0.590999 0.915333
O O1 0.086080 0.250000 0.500000
O O2 0.127898 0.204355 0.750000
O O3 0.175791 0.163905 0.511639
O O4 0.084004 0.081503 0.581933
O O5 0.726564 0.250000 0.500000
O O6 0.763969 0.187079 0.250000
O O7 0.813799 0.157454 0.492232
O O8 0.717312 0.081842 0.445866
O O9 0.954602 0.453242 0.750000
O O10 0.908252 0.414994 0.003495
O O11 0.000000 0.500000 0.000000
O O12 0.429335 0.975729 0.750000
O O13 0.457677 0.091455 0.541261
O O14 0.364457 0.024063 0.532400
O O15 0.441690 0.911076 0.488229
O O16 0.507548 0.250000 0.500000
O O17 0.518600 0.335195 0.250000
O O18 0.782653 0.635773 0.250000
O O19 0.730871 0.587640 0.483336
O O20 0.821138 0.503666 0.410755
O O21 0.704246 0.547186 0.750000
O O22 0.139696 0.627353 0.750000
#
# Coordination Sequence:
#
# PCOD8230893 Si02
#       8
#     8   8   8   8   8   8   8   8
#     4  10  20  34  53  76 102 131 165 206 251 298
#     4  10  19  31  48  71 100 133 168 208 255 307
#     4  10  20  34  53  76 100 129 166 207 252 302
#     4   9  19  36  56  79 107 142 183 226 273 321
#     4  10  20  35  56  79 106 141 182 227 273 325
#     4   9  17  30  50  74  99 129 163 198 241 296
#     4   9  18  33  52  74 103 136 170 212 259 307
#     4   9  17  31  50  70  94 126 164 202 242 295
#
# _framework density 18.934426999999999
#
# number of rings (size 3 to 8) (size 9 to 14) (size 15 to 20)
#    0.000    2.500    0.000    2.250    0.000    6.500 
#    0.000    2.500    0.000    3.000    0.000    0.000 
#    0.000    0.000    0.000    0.000    0.000    0.000 
#
# Total GULP energy -793341.709433 kJ/mol
# GULP energy per Si atom -12395.964210 kJ/mol
# Density = 1.889133 g / cm^3
# Si number density = 18.934427 Si / 1000 Ang^3
#
#
#
# Elastic Constant Matrix: (Units=GPa)
#
#
# Indices 1 2 3 4 5 6 
#
# 1 110.0798 6.6847 46.6453 0.0000 0.0000 0.0000
# 2 6.6847 59.5807 34.9649 0.0000 0.0000 0.0000
# 3 46.6453 34.9649 137.9074 0.0000 0.0000 0.0000
# 4 0.0000 0.0000 0.0000 32.1843 0.0000 0.0000
# 5 0.0000 0.0000 0.0000 0.0000 30.0475 0.0000
# 6 0.0000 0.0000 0.0000 0.0000 0.0000 6.3107
#
#
#
# Elastic Compliance Matrix: (Units=1/GPa)
#
#
# Indices 1 2 3 4 5 6 
#
# 1 0.010663 0.001081 -0.003881 0.000000 0.000000 0.000000
# 2 0.001081 0.019827 -0.005393 0.000000 0.000000 0.000000
# 3 -0.003881 -0.005393 0.009931 0.000000 0.000000 0.000000
# 4 0.000000 0.000000 0.000000 0.031071 0.000000 0.000000
# 5 0.000000 0.000000 0.000000 0.000000 0.033281 0.000000
# 6 0.000000 0.000000 0.000000 0.000000 0.000000 0.158461
#
#
# Mechanical properties :
#
#
# Convention : Reuss Voigt Hill
#
# Bulk Modulus (GPa) = 41.60276 53.79529 47.69902
# Shear Modulus (GPa) = 17.38339 28.32672 22.85506
#
# Velocity S-wave (km/s) = 3.03328 3.87207 3.47805
# Velocity P-wave (km/s) = 5.85555 6.96158 6.43238
#
# Compressibility (1/GPa) = 0.02403687
#
# Stress axis : x y z
#
# Youngs Moduli (GPa) = 93.78146 50.43535 100.69383
#
# Poissons Ratio (x) = -0.05452 0.39077
# Poissons Ratio (y) = -0.10138 0.54301
# Poissons Ratio (z) = 0.36394 0.27198
#
# Static dielectric constant tensor:
#      x y z
#    x 3.480390 0.000000 0.000000 
#    y 0.000000 3.412840 0.000000 
#    z 0.000000 0.000000 3.789640 
# 
# 
# High freq. dielectric constant tensor:
#      x y z
#    x 1.723310 0.000000 0.000000 
#    y 0.000000 1.723000 0.000000 
#    z 0.000000 0.000000 1.751490 
# 
# From -- ./inp_files/9514.got.cif
#   From: 2010.03.12/outbox.cif.g09.slc.cpg/sg57_5_cif.got.tgz:9514.got - 2010.04.16 15:48:40.
