data_PCOD8230206
_publ_section_title
;
Structure prediction by ZEFSAII (Michael W. Deem and Ramdas Pophale) SiO2 
 PCOD8230206
Probable space group: P B C M
;
_chemical_formula_sum "Si O2"
_cell_formula_units_Z 64
_cell_length_a 16.785282
_cell_length_b 23.678627
_cell_length_c 8.922555
_cell_angle_alpha 90.000000
_cell_angle_beta 90.000000
_cell_angle_gamma 90.000000
_cell_volume 3546.291181
_symmetry_space_group_name_H-M "P B C M"
_symmetry_group_IT_number 57
_symmetry_cell_setting 'orthorhombic'
loop_
_space_group_symop_operation_xyz
x,y,z
-x,-y,1/2+z
x,1/2-y,-z
-x,1/2+y,1/2-z
-x,-y,-z
x,y,1/2-z
-x,1/2+y,z
x,1/2-y,1/2+z
loop_
_atom_site_type_symbol
_atom_site_label
_atom_site_fract_x
_atom_site_fract_y
_atom_site_fract_z
Si Si1 0.585653 0.811769 0.073482
Si Si2 0.033175 0.096522 0.078669
Si Si3 0.820747 0.979162 0.921506
Si Si4 0.239829 0.688678 0.926692
Si Si5 0.876945 0.692182 0.573042
Si Si6 0.269018 0.133122 0.073217
Si Si7 0.150204 0.910262 0.577643
Si Si8 0.587225 0.308505 0.078243
O O1 0.603924 0.806227 0.250000
O O2 0.497090 0.839683 0.045318
O O3 0.595145 0.750000 0.000000
O O4 0.644524 0.856190 0.996258
O O5 0.046855 0.117142 0.250000
O O6 0.090111 0.043302 0.046108
O O7 0.942938 0.078754 0.049215
O O8 0.055757 0.146541 0.966116
O O9 0.811336 0.997673 0.750000
O O10 0.756503 0.931076 0.963470
O O11 0.803357 0.034262 0.020847
O O12 0.226986 0.694902 0.750000
O O13 0.328407 0.662751 0.967924
O O14 0.227624 0.750000 0.000000
O O15 0.175198 0.645578 0.989341
O O16 0.906571 0.750000 0.500000
O O17 0.868081 0.698159 0.750000
O O18 0.792043 0.676274 0.502608
O O19 0.269084 0.144359 0.250000
O O20 0.170959 0.900718 0.750000
O O21 0.593427 0.293266 0.250000
O O22 0.579498 0.250000 0.000000
#
# Coordination Sequence:
#
# PCOD8230206 Si02
#       8
#     8   8   8   8   8   8   8   8
#     4  10  18  29  48  76 106 135 170 208 248 296
#     4   9  20  37  53  73 101 131 166 210 256 300
#     4   9  19  36  55  73  98 132 168 208 252 296
#     4  10  20  36  56  78 106 136 167 205 252 302
#     4  11  21  33  50  71  99 136 172 207 250 299
#     4  10  20  34  50  72 103 136 170 208 250 295
#     4  11  22  35  55  80 103 129 165 208 252 302
#     4   8  16  30  49  73 101 133 166 204 248 294
#
# _framework density 18.047024
#
# number of rings (size 3 to 8) (size 9 to 14) (size 15 to 20)
#    0.000    2.250    0.000    4.125    0.000    5.000 
#    0.000    0.000    0.000    0.750    0.000    0.000 
#    0.000    0.000    0.000    0.000    0.000    0.000 
#
# Total GULP energy -793255.919767 kJ/mol
# GULP energy per Si atom -12394.623746 kJ/mol
# Density = 1.800595 g / cm^3
# Si number density = 18.047024 Si / 1000 Ang^3
#
#
#
# Elastic Constant Matrix: (Units=GPa)
#
#
# Indices 1 2 3 4 5 6 
#
# 1 77.6300 35.5069 36.3625 0.0000 0.0000 0.0000
# 2 35.5069 89.0014 47.3724 0.0000 0.0000 0.0000
# 3 36.3625 47.3724 100.7532 0.0000 0.0000 0.0000
# 4 0.0000 0.0000 0.0000 31.4607 0.0000 0.0000
# 5 0.0000 0.0000 0.0000 0.0000 25.0605 0.0000
# 6 0.0000 0.0000 0.0000 0.0000 0.0000 16.5953
#
#
#
# Elastic Compliance Matrix: (Units=1/GPa)
#
#
# Indices 1 2 3 4 5 6 
#
# 1 0.016827 -0.004643 -0.003890 0.000000 0.000000 0.000000
# 2 -0.004643 0.016267 -0.005973 0.000000 0.000000 0.000000
# 3 -0.003890 -0.005973 0.014138 0.000000 0.000000 0.000000
# 4 0.000000 0.000000 0.000000 0.031786 0.000000 0.000000
# 5 0.000000 0.000000 0.000000 0.000000 0.039903 0.000000
# 6 0.000000 0.000000 0.000000 0.000000 0.000000 0.060258
#
#
# Mechanical properties :
#
#
# Convention : Reuss Voigt Hill
#
# Bulk Modulus (GPa) = 54.88324 56.20758 55.54541
# Shear Modulus (GPa) = 23.33566 24.49948 23.91757
#
# Velocity S-wave (km/s) = 3.59980 3.68847 3.64440
# Velocity P-wave (km/s) = 6.91052 7.02513 6.96806
#
# Compressibility (1/GPa) = 0.01822050
#
# Stress axis : x y z
#
# Youngs Moduli (GPa) = 59.42730 61.47367 70.73311
#
# Poissons Ratio (x) = 0.28540 0.27517
# Poissons Ratio (y) = 0.27589 0.42249
# Poissons Ratio (z) = 0.23119 0.36718
#
# Static dielectric constant tensor:
#      x y z
#    x 3.711230 0.000000 0.000000 
#    y 0.000000 3.037880 0.000000 
#    z 0.000000 0.000000 3.403100 
# 
# 
# High freq. dielectric constant tensor:
#      x y z
#    x 1.699980 0.000000 0.000000 
#    y 0.000000 1.672040 0.000000 
#    z 0.000000 0.000000 1.711340 
# 
# From -- ./inp_files/7410.got.cif
#   From: 2010.03.12/outbox.cif.g09.slc.cpg/sg57_4_cif.got.tgz:7410.got - 2010.04.16 15:48:40.
