data_PCOD8230716
_publ_section_title
;
Structure prediction by ZEFSAII (Michael W. Deem and Ramdas Pophale) SiO2 
 PCOD8230716
Probable space group: P B C M
;
_chemical_formula_sum "Si O2"
_cell_formula_units_Z 64
_cell_length_a 27.928254
_cell_length_b 14.163463
_cell_length_c 9.359155
_cell_angle_alpha 90.000000
_cell_angle_beta 90.000000
_cell_angle_gamma 90.000000
_cell_volume 3702.114766
_symmetry_space_group_name_H-M "P B C M"
_symmetry_group_IT_number 57
_symmetry_cell_setting 'orthorhombic'
loop_
_space_group_symop_operation_xyz
x,y,z
-x,-y,1/2+z
x,1/2-y,-z
-x,1/2+y,1/2-z
-x,-y,-z
x,y,1/2-z
-x,1/2+y,z
x,1/2-y,1/2+z
loop_
_atom_site_type_symbol
_atom_site_label
_atom_site_fract_x
_atom_site_fract_y
_atom_site_fract_z
Si Si1 0.260505 0.342363 0.916363
Si Si2 0.936721 0.959432 0.914430
Si Si3 0.513786 0.090230 0.911712
Si Si4 0.385726 0.663862 0.912108
Si Si5 0.411780 0.161972 0.911823
Si Si6 0.348058 0.033629 0.412421
Si Si7 0.847066 0.841849 0.585273
Si Si8 0.015986 0.847937 0.080999
O O1 0.263004 0.318444 0.750000
O O2 0.295965 0.427774 0.957719
O O3 0.206607 0.371465 0.962205
O O4 0.277807 0.250000 0.000000
O O5 0.951565 0.938496 0.750000
O O6 0.881559 0.931334 0.943398
O O7 0.943246 0.071547 0.946211
O O8 0.967525 0.892464 0.017891
O O9 0.524482 0.057150 0.750000
O O10 0.561716 0.137464 0.974886
O O11 0.469369 0.162243 0.917410
O O12 0.500000 0.000000 0.000000
O O13 0.391515 0.696955 0.750000
O O14 0.347804 0.579094 0.927153
O O15 0.363782 0.750000 0.000000
O O16 0.393207 0.169173 0.750000
O O17 0.391375 0.250000 0.000000
O O18 0.390050 0.069086 0.984105
O O19 0.360555 0.063750 0.250000
O O20 0.865020 0.750000 0.500000
O O21 0.848203 0.812319 0.750000
O O22 0.009715 0.827167 0.250000
O O23 0.029328 0.750000 0.000000
#
# Coordination Sequence:
#
# PCOD8230716 Si02
#       8
#     8   8   8   8   8   8   8   8
#     4   9  18  32  51  74  98 125 154 191 239 290
#     4   9  18  31  47  68  95 129 167 206 245 288
#     4  10  20  34  51  71  95 124 156 190 229 273
#     4  10  21  36  53  72  94 123 158 195 233 275
#     4  11  22  33  49  73  98 127 156 186 228 277
#     4  10  20  35  53  72  97 125 156 195 236 281
#     4   9  17  30  48  71  97 124 158 196 239 288
#     4  10  19  30  45  67  97 132 168 205 244 288
#
# _framework density 17.287417000000001
#
# number of rings (size 3 to 8) (size 9 to 14) (size 15 to 20)
#    0.000    2.250    1.250    1.875    0.000    5.000 
#    0.000    0.000    0.000    0.750    0.000    0.000 
#    0.000    0.000    0.000    0.000    0.000    0.000 
#
# Total GULP energy -793467.649996 kJ/mol
# GULP energy per Si atom -12397.932031 kJ/mol
# Density = 1.724807 g / cm^3
# Si number density = 17.287417 Si / 1000 Ang^3
#
#
#
# Elastic Constant Matrix: (Units=GPa)
#
#
# Indices 1 2 3 4 5 6 
#
# 1 91.8592 52.2267 33.6086 0.0000 0.0000 0.0000
# 2 52.2267 116.3979 54.8163 0.0000 0.0000 0.0000
# 3 33.6086 54.8163 76.6466 0.0000 0.0000 0.0000
# 4 0.0000 0.0000 0.0000 32.0240 0.0000 0.0000
# 5 0.0000 0.0000 0.0000 0.0000 18.5310 0.0000
# 6 0.0000 0.0000 0.0000 0.0000 0.0000 26.6173
#
#
#
# Elastic Compliance Matrix: (Units=1/GPa)
#
#
# Indices 1 2 3 4 5 6 
#
# 1 0.014964 -0.005465 -0.002653 0.000000 0.000000 0.000000
# 2 -0.005465 0.014950 -0.008296 0.000000 0.000000 0.000000
# 3 -0.002653 -0.008296 0.020143 0.000000 0.000000 0.000000
# 4 0.000000 0.000000 0.000000 0.031227 0.000000 0.000000
# 5 0.000000 0.000000 0.000000 0.000000 0.053964 0.000000
# 6 0.000000 0.000000 0.000000 0.000000 0.000000 0.037569
#
#
# Mechanical properties :
#
#
# Convention : Reuss Voigt Hill
#
# Bulk Modulus (GPa) = 58.03895 62.91187 60.47541
# Shear Modulus (GPa) = 23.65324 25.05128 24.35226
#
# Velocity S-wave (km/s) = 3.70298 3.81084 3.75730
# Velocity P-wave (km/s) = 7.20615 7.47222 7.34039
#
# Compressibility (1/GPa) = 0.01722981
#
# Stress axis : x y z
#
# Youngs Moduli (GPa) = 66.82749 66.88991 49.64430
#
# Poissons Ratio (x) = 0.36553 0.13172
# Poissons Ratio (y) = 0.36519 0.41184
# Poissons Ratio (z) = 0.17731 0.55490
#
# Static dielectric constant tensor:
#      x y z
#    x 3.257810 0.000000 0.000000 
#    y 0.000000 3.163860 0.000000 
#    z 0.000000 0.000000 3.268990 
# 
# 
# High freq. dielectric constant tensor:
#      x y z
#    x 1.649140 0.000000 0.000000 
#    y 0.000000 1.656710 0.000000 
#    z 0.000000 0.000000 1.672620 
# 
# From -- ./inp_files/10351.got.cif
#   From: 2010.03.12/outbox.cif.g09.slc.cpg/sg57_6_cif.got.tgz:10351.got - 2010.04.16 15:48:40.
