data_PCOD8230548
_publ_section_title
;
Structure prediction by ZEFSAII (Michael W. Deem and Ramdas Pophale) SiO2 
 PCOD8230548
Probable space group: P B C M
;
_chemical_formula_sum "Si O2"
_cell_formula_units_Z 64
_cell_length_a 11.813458
_cell_length_b 30.968883
_cell_length_c 8.707628
_cell_angle_alpha 90.000000
_cell_angle_beta 90.000000
_cell_angle_gamma 90.000000
_cell_volume 3185.682209
_symmetry_space_group_name_H-M "P B C M"
_symmetry_group_IT_number 57
_symmetry_cell_setting 'orthorhombic'
loop_
_space_group_symop_operation_xyz
x,y,z
-x,-y,1/2+z
x,1/2-y,-z
-x,1/2+y,1/2-z
-x,-y,-z
x,y,1/2-z
-x,1/2+y,z
x,1/2-y,1/2+z
loop_
_atom_site_type_symbol
_atom_site_label
_atom_site_fract_x
_atom_site_fract_y
_atom_site_fract_z
Si Si1 0.228927 0.047057 0.568647
Si Si2 0.236445 0.794778 0.069752
Si Si3 0.760882 0.451469 0.568062
Si Si4 0.627475 0.627494 0.568561
Si Si5 0.989361 0.321850 0.925642
Si Si6 0.618413 0.371665 0.568058
Si Si7 0.239866 0.205544 0.427318
Si Si8 0.002413 0.079567 0.068941
O O1 0.221933 0.050032 0.750000
O O2 0.315263 0.083299 0.506446
O O3 0.103244 0.053186 0.506680
O O4 0.272866 0.999811 0.514554
O O5 0.256115 0.794178 0.250000
O O6 0.282165 0.750000 0.000000
O O7 0.305721 0.833582 0.996992
O O8 0.103613 0.799797 0.033253
O O9 0.765922 0.448471 0.750000
O O10 0.668452 0.417288 0.506437
O O11 0.884859 0.439368 0.503864
O O12 0.609976 0.626599 0.750000
O O13 0.508444 0.633442 0.487584
O O14 0.707673 0.666750 0.523433
O O15 0.945077 0.321106 0.750000
O O16 0.104765 0.295488 0.943418
O O17 0.010911 0.370633 0.980250
O O18 0.622678 0.369174 0.750000
O O19 0.285053 0.250000 0.500000
O O20 0.277641 0.202126 0.250000
O O21 0.013231 0.074276 0.250000
#
# Coordination Sequence:
#
# PCOD8230548 Si02
#       8
#     8   8   8   8   8   8   8   8
#     4  10  21  37  59  89 124 160 199 246 299 354
#     4  12  25  41  64  93 125 158 198 244 300 360
#     4   9  19  37  61  88 121 160 198 245 301 354
#     4  11  24  41  60  87 122 157 202 254 302 354
#     4  10  20  37  62  92 125 161 200 244 297 358
#     4  11  23  43  66  86 116 159 206 252 302 355
#     4  11  23  40  63  90 121 158 201 245 299 358
#     4  10  18  34  60  89 123 159 198 242 296 358
#
# _framework density 20.089888999999999
#
# number of rings (size 3 to 8) (size 9 to 14) (size 15 to 20)
#    0.000    1.500    2.500    3.000    0.000    4.000 
#    0.000    3.750    0.000    0.000    0.000    0.000 
#    0.000    0.000    0.000    0.000    0.000    0.000 
#
# Total GULP energy -793814.084716 kJ/mol
# GULP energy per Si atom -12403.345074 kJ/mol
# Density = 2.004416 g / cm^3
# Si number density = 20.089889 Si / 1000 Ang^3
#
#
#
# Elastic Constant Matrix: (Units=GPa)
#
#
# Indices 1 2 3 4 5 6 
#
# 1 87.8347 32.3358 28.7404 0.0000 0.0000 0.0000
# 2 32.3358 149.8786 40.0844 0.0000 0.0000 0.0000
# 3 28.7404 40.0844 66.4640 0.0000 0.0000 0.0000
# 4 0.0000 0.0000 0.0000 24.6642 0.0000 0.0000
# 5 0.0000 0.0000 0.0000 0.0000 33.6517 0.0000
# 6 0.0000 0.0000 0.0000 0.0000 0.0000 9.0097
#
#
#
# Elastic Compliance Matrix: (Units=1/GPa)
#
#
# Indices 1 2 3 4 5 6 
#
# 1 0.013584 -0.001621 -0.004896 0.000000 0.000000 0.000000
# 2 -0.001621 0.008149 -0.004213 0.000000 0.000000 0.000000
# 3 -0.004896 -0.004213 0.019704 0.000000 0.000000 0.000000
# 4 0.000000 0.000000 0.000000 0.040545 0.000000 0.000000
# 5 0.000000 0.000000 0.000000 0.000000 0.029716 0.000000
# 6 0.000000 0.000000 0.000000 0.000000 0.000000 0.110992
#
#
# Mechanical properties :
#
#
# Convention : Reuss Voigt Hill
#
# Bulk Modulus (GPa) = 50.06260 56.27762 53.17011
# Shear Modulus (GPa) = 19.93547 26.99955 23.46751
#
# Velocity S-wave (km/s) = 3.15352 3.66995 3.42149
# Velocity P-wave (km/s) = 6.18328 6.78467 6.49095
#
# Compressibility (1/GPa) = 0.01997499
#
# Stress axis : x y z
#
# Youngs Moduli (GPa) = 73.61624 122.71886 50.75092
#
# Poissons Ratio (x) = 0.19895 0.24849
# Poissons Ratio (y) = 0.11935 0.21384
# Poissons Ratio (z) = 0.36044 0.51707
#
# Static dielectric constant tensor:
#      x y z
#    x 3.608200 0.000000 0.000000 
#    y 0.000000 4.002820 0.000000 
#    z 0.000000 0.000000 3.505450 
# 
# 
# High freq. dielectric constant tensor:
#      x y z
#    x 1.779970 0.000000 0.000000 
#    y 0.000000 1.804000 0.000000 
#    z 0.000000 0.000000 1.771270 
# 
# From -- ./inp_files/3739.got.cif
#   From: 2010.03.12/outbox.cif.g09.slc.cpg/sg57_2_cif.got.tgz:3739.got - 2010.04.16 15:48:40.
