data_PCOD8230285
_publ_section_title
;
Structure prediction by ZEFSAII (Michael W. Deem and Ramdas Pophale) SiO2 
 PCOD8230285
Probable space group: P B C M
;
_chemical_formula_sum "Si O2"
_cell_formula_units_Z 48
_cell_length_a 9.205642
_cell_length_b 18.278875
_cell_length_c 15.893627
_cell_angle_alpha 90.000000
_cell_angle_beta 90.000000
_cell_angle_gamma 90.000000
_cell_volume 2674.401216
_symmetry_space_group_name_H-M "P B C M"
_symmetry_group_IT_number 57
_symmetry_cell_setting 'orthorhombic'
loop_
_space_group_symop_operation_xyz
x,y,z
-x,-y,1/2+z
x,1/2-y,-z
-x,1/2+y,1/2-z
-x,-y,-z
x,y,1/2-z
-x,1/2+y,z
x,1/2-y,1/2+z
loop_
_atom_site_type_symbol
_atom_site_label
_atom_site_fract_x
_atom_site_fract_y
_atom_site_fract_z
Si Si1 0.819552 0.421307 0.483821
Si Si2 0.844891 0.583907 0.505367
Si Si3 0.347803 0.665175 0.846938
Si Si4 0.651459 0.793495 0.083273
Si Si5 0.853987 0.824979 0.656302
Si Si6 0.153198 0.787923 0.587219
O O1 0.775182 0.503169 0.510715
O O2 0.728002 0.397600 0.402290
O O3 0.785176 0.368397 0.563333
O O4 0.990231 0.417046 0.461048
O O5 0.757165 0.639331 0.563087
O O6 0.835957 0.608377 0.408186
O O7 0.329456 0.643171 0.750000
O O8 0.516165 0.671562 0.869286
O O9 0.277734 0.744311 0.864596
O O10 0.734316 0.737696 0.143920
O O11 0.600580 0.750000 0.000000
O O12 0.837296 0.856865 0.750000
O O13 0.013050 0.789861 0.646201
O O14 0.104450 0.750000 0.500000
#
# Coordination Sequence:
#
# PCOD8230285 Si02
#       6
#     8   8   8   8   8   8
#     4   9  18  35  54  74  98 129 169 204 241 296
#     4   9  19  34  54  74  98 132 168 201 242 296
#     4  11  21  32  50  75 102 129 162 207 251 289
#     4  10  19  33  51  72  98 133 169 200 240 295
#     4  10  18  30  51  76 100 124 160 210 253 290
#     4   9  17  32  52  72  94 128 168 202 243 296
#
# _framework density 17.947942000000001
#
# number of rings (size 3 to 8) (size 9 to 14) (size 15 to 20)
#    0.000    2.333    0.000    6.000    0.000    1.333 
#    0.000    0.833    0.000   14.000    0.000    0.000 
#    0.000    0.000    0.000    0.000    0.000    0.000 
#
# Total GULP energy -595229.383763 kJ/mol
# GULP energy per Si atom -12400.612162 kJ/mol
# Density = 1.790709 g / cm^3
# Si number density = 17.947942 Si / 1000 Ang^3
#
#
#
# Elastic Constant Matrix: (Units=GPa)
#
#
# Indices 1 2 3 4 5 6 
#
# 1 66.8855 14.2541 20.5382 0.0000 0.0000 0.0000
# 2 14.2541 87.5474 2.5583 0.0000 0.0000 0.0000
# 3 20.5382 2.5583 72.0265 0.0000 0.0000 0.0000
# 4 0.0000 0.0000 0.0000 13.5703 0.0000 0.0000
# 5 0.0000 0.0000 0.0000 0.0000 7.6213 0.0000
# 6 0.0000 0.0000 0.0000 0.0000 0.0000 13.0442
#
#
#
# Elastic Compliance Matrix: (Units=1/GPa)
#
#
# Indices 1 2 3 4 5 6 
#
# 1 0.016967 -0.002624 -0.004745 0.000000 0.000000 0.000000
# 2 -0.002624 0.011840 0.000328 0.000000 0.000000 0.000000
# 3 -0.004745 0.000328 0.015225 0.000000 0.000000 0.000000
# 4 0.000000 0.000000 0.000000 0.073690 0.000000 0.000000
# 5 0.000000 0.000000 0.000000 0.000000 0.131211 0.000000
# 6 0.000000 0.000000 0.000000 0.000000 0.000000 0.076662
#
#
# Mechanical properties :
#
#
# Convention : Reuss Voigt Hill
#
# Bulk Modulus (GPa) = 33.38902 33.46229 33.42566
# Shear Modulus (GPa) = 14.29954 19.45442 16.87698
#
# Velocity S-wave (km/s) = 2.82569 3.29589 3.06981
# Velocity P-wave (km/s) = 5.41199 5.75920 5.58830
#
# Compressibility (1/GPa) = 0.02994996
#
# Stress axis : x y z
#
# Youngs Moduli (GPa) = 58.93762 84.45932 65.68086
#
# Poissons Ratio (x) = 0.22161 0.31165
# Poissons Ratio (y) = 0.15464 -0.02152
# Poissons Ratio (z) = 0.27965 -0.02767
#
# Static dielectric constant tensor:
#      x y z
#    x 3.228600 0.000000 0.000000 
#    y 0.000000 3.444250 0.000000 
#    z 0.000000 0.000000 3.171250 
# 
# 
# High freq. dielectric constant tensor:
#      x y z
#    x 1.693020 0.000000 0.000000 
#    y 0.000000 1.692100 0.000000 
#    z 0.000000 0.000000 1.678980 
# 
# From -- ./inp_files/21089.got.cif
#   From: 2010.03.12/outbox.cif.g09.slc.cpg/sg57_11_cif.got.tgz:21089.got - 2010.04.16 15:48:40.
