data_PCOD8230794
_publ_section_title
;
Structure prediction by ZEFSAII (Michael W. Deem and Ramdas Pophale) SiO2 
 PCOD8230794
Probable space group: P B C M
;
_chemical_formula_sum "Si O2"
_cell_formula_units_Z 48
_cell_length_a 13.389681
_cell_length_b 23.837150
_cell_length_c 8.966822
_cell_angle_alpha 90.000000
_cell_angle_beta 90.000000
_cell_angle_gamma 90.000000
_cell_volume 2861.957027
_symmetry_space_group_name_H-M "P B C M"
_symmetry_group_IT_number 57
_symmetry_cell_setting 'orthorhombic'
loop_
_space_group_symop_operation_xyz
x,y,z
-x,-y,1/2+z
x,1/2-y,-z
-x,1/2+y,1/2-z
-x,-y,-z
x,y,1/2-z
-x,1/2+y,z
x,1/2-y,1/2+z
loop_
_atom_site_type_symbol
_atom_site_label
_atom_site_fract_x
_atom_site_fract_y
_atom_site_fract_z
Si Si1 0.051982 0.421141 0.923136
Si Si2 0.853934 0.693924 0.076317
Si Si3 0.450713 0.415802 0.076490
Si Si4 0.847647 0.476761 0.577166
Si Si5 0.648869 0.482437 0.076975
Si Si6 0.375023 0.307510 0.573842
O O1 0.079673 0.431348 0.750000
O O2 0.077293 0.358058 0.973481
O O3 0.934865 0.431515 0.952128
O O4 0.118319 0.462284 0.022070
O O5 0.861061 0.704643 0.250000
O O6 0.739997 0.681541 0.028754
O O7 0.895662 0.750000 0.000000
O O8 0.426787 0.407890 0.250000
O O9 0.562954 0.437024 0.048650
O O10 0.372454 0.460031 0.009928
O O11 0.441751 0.357202 0.991863
O O12 0.819833 0.480764 0.750000
O O13 0.751288 0.456253 0.485448
O O14 0.659466 0.497483 0.250000
O O15 0.413072 0.250000 0.500000
O O16 0.390392 0.304213 0.750000
#
# Coordination Sequence:
#
# PCOD8230794 Si02
#       6
#     8   8   8   8   8   8
#     4   9  18  32  48  69  98 127 156 193 237 280
#     4   9  18  31  47  68  94 123 153 187 229 276
#     4  10  20  33  50  72  96 124 161 200 239 286
#     4  10  19  30  48  72  96 125 160 195 233 282
#     4  10  20  33  49  70  98 128 157 195 242 289
#     4  10  19  31  49  72  99 129 158 193 238 285
#
# _framework density 16.771740999999999
#
# number of rings (size 3 to 8) (size 9 to 14) (size 15 to 20)
#    0.000    2.333    0.000    3.000    0.000    5.333 
#    0.000    0.000    0.000    1.000    0.000    4.667 
#    0.000    0.000    0.000    0.000    0.000    0.000 
#
# Total GULP energy -595366.348406 kJ/mol
# GULP energy per Si atom -12403.465592 kJ/mol
# Density = 1.673357 g / cm^3
# Si number density = 16.771741 Si / 1000 Ang^3
#
#
#
# Elastic Constant Matrix: (Units=GPa)
#
#
# Indices 1 2 3 4 5 6 
#
# 1 86.4616 48.0089 44.1800 0.0000 0.0000 0.0000
# 2 48.0089 130.8689 53.4015 0.0000 0.0000 0.0000
# 3 44.1800 53.4015 84.4927 0.0000 0.0000 0.0000
# 4 0.0000 0.0000 0.0000 31.8565 0.0000 0.0000
# 5 0.0000 0.0000 0.0000 0.0000 28.3629 0.0000
# 6 0.0000 0.0000 0.0000 0.0000 0.0000 21.6577
#
#
#
# Elastic Compliance Matrix: (Units=1/GPa)
#
#
# Indices 1 2 3 4 5 6 
#
# 1 0.016890 -0.003493 -0.006624 0.000000 0.000000 0.000000
# 2 -0.003493 0.011019 -0.005138 0.000000 0.000000 0.000000
# 3 -0.006624 -0.005138 0.018546 0.000000 0.000000 0.000000
# 4 0.000000 0.000000 0.000000 0.031391 0.000000 0.000000
# 5 0.000000 0.000000 0.000000 0.000000 0.035257 0.000000
# 6 0.000000 0.000000 0.000000 0.000000 0.000000 0.046173
#
#
# Mechanical properties :
#
#
# Convention : Reuss Voigt Hill
#
# Bulk Modulus (GPa) = 62.71298 65.88932 64.30115
# Shear Modulus (GPa) = 25.62770 26.79095 26.20933
#
# Velocity S-wave (km/s) = 3.91324 4.00107 3.95740
# Velocity P-wave (km/s) = 7.60863 7.79204 7.70088
#
# Compressibility (1/GPa) = 0.01594566
#
# Stress axis : x y z
#
# Youngs Moduli (GPa) = 59.20628 90.75033 53.91979
#
# Poissons Ratio (x) = 0.31701 0.35715
# Poissons Ratio (y) = 0.20682 0.27703
# Poissons Ratio (z) = 0.39217 0.46626
#
# Static dielectric constant tensor:
#      x y z
#    x 3.121550 0.000000 0.000000 
#    y 0.000000 3.080950 0.000000 
#    z 0.000000 0.000000 3.236600 
# 
# 
# High freq. dielectric constant tensor:
#      x y z
#    x 1.634380 0.000000 0.000000 
#    y 0.000000 1.635510 0.000000 
#    z 0.000000 0.000000 1.659960 
# 
# From -- ./inp_files/3094.got.cif
#   From: 2010.03.12/outbox.cif.g09.slc.cpg/sg57_2_cif.got.tgz:3094.got - 2010.04.16 15:48:40.
