data_PCOD8230417
_publ_section_title
;
Structure prediction by ZEFSAII (Michael W. Deem and Ramdas Pophale) SiO2 
 PCOD8230417
Probable space group: P B C M
;
_chemical_formula_sum "Si O2"
_cell_formula_units_Z 48
_cell_length_a 11.703839
_cell_length_b 9.959234
_cell_length_c 23.649856
_cell_angle_alpha 90.000000
_cell_angle_beta 90.000000
_cell_angle_gamma 90.000000
_cell_volume 2756.657281
_symmetry_space_group_name_H-M "P B C M"
_symmetry_group_IT_number 57
_symmetry_cell_setting 'orthorhombic'
loop_
_space_group_symop_operation_xyz
x,y,z
-x,-y,1/2+z
x,1/2-y,-z
-x,1/2+y,1/2-z
-x,-y,-z
x,y,1/2-z
-x,1/2+y,z
x,1/2-y,1/2+z
loop_
_atom_site_type_symbol
_atom_site_label
_atom_site_fract_x
_atom_site_fract_y
_atom_site_fract_z
Si Si1 0.435697 0.680039 0.364907
Si Si2 0.577541 0.610839 0.469801
Si Si3 0.220598 0.724471 0.434800
Si Si4 0.589497 0.023857 0.814881
Si Si5 0.225493 0.016520 0.096806
Si Si6 0.983670 0.874494 0.960135
O O1 0.533848 0.658005 0.409793
O O2 0.316912 0.648847 0.397453
O O3 0.438734 0.831087 0.341601
O O4 0.474121 0.569245 0.318093
O O5 0.594528 0.750000 0.500000
O O6 0.500000 0.500000 0.500000
O O7 0.699157 0.541068 0.459708
O O8 0.260879 0.750000 0.500000
O O9 0.105536 0.639805 0.429846
O O10 0.188760 0.862626 0.404236
O O11 0.623736 0.042434 0.750000
O O12 0.700499 0.957486 0.846086
O O13 0.111589 0.106944 0.089331
O O14 0.951302 0.750000 0.000000
O O15 0.000000 0.000000 0.000000
#
# Coordination Sequence:
#
# PCOD8230417 Si02
#       6
#     8   8   8   8   8   8
#     4  10  20  34  54  80 106 143 180 219 277 331
#     4  11  20  31  51  79 117 144 172 216 270 342
#     4  10  18  32  52  76 113 144 171 211 263 332
#     4  10  21  38  58  76 104 140 187 241 279 317
#     4  10  20  34  50  78 104 142 182 213 272 324
#     4  11  20  34  53  79 112 146 174 212 262 332
#
# _framework density 17.412393000000002
#
# number of rings (size 3 to 8) (size 9 to 14) (size 15 to 20)
#    0.000    1.667    3.333    5.500    0.000    0.000 
#    6.000    0.000    0.000    5.000    0.000    0.000 
#    0.000    0.000    0.000    0.000    0.000    0.000 
#
# Total GULP energy -594628.073328 kJ/mol
# GULP energy per Si atom -12388.084861 kJ/mol
# Density = 1.737276 g / cm^3
# Si number density = 17.412393 Si / 1000 Ang^3
#
#
#
# Elastic Constant Matrix: (Units=GPa)
#
#
# Indices 1 2 3 4 5 6 
#
# 1 113.4380 51.2540 28.6014 0.0000 0.0000 0.0000
# 2 51.2540 93.2116 33.3925 0.0000 0.0000 0.0000
# 3 28.6014 33.3925 63.8161 0.0000 0.0000 0.0000
# 4 0.0000 0.0000 0.0000 15.6747 0.0000 0.0000
# 5 0.0000 0.0000 0.0000 0.0000 28.6244 0.0000
# 6 0.0000 0.0000 0.0000 0.0000 0.0000 34.0561
#
#
#
# Elastic Compliance Matrix: (Units=1/GPa)
#
#
# Indices 1 2 3 4 5 6 
#
# 1 0.012014 -0.005756 -0.002373 0.000000 0.000000 0.000000
# 2 -0.005756 0.015961 -0.005772 0.000000 0.000000 0.000000
# 3 -0.002373 -0.005772 0.019754 0.000000 0.000000 0.000000
# 4 0.000000 0.000000 0.000000 0.063797 0.000000 0.000000
# 5 0.000000 0.000000 0.000000 0.000000 0.034935 0.000000
# 6 0.000000 0.000000 0.000000 0.000000 0.000000 0.029363
#
#
# Mechanical properties :
#
#
# Convention : Reuss Voigt Hill
#
# Bulk Modulus (GPa) = 50.18205 55.21793 52.69999
# Shear Modulus (GPa) = 23.77899 26.15221 24.96560
#
# Velocity S-wave (km/s) = 3.69946 3.87968 3.79064
# Velocity P-wave (km/s) = 6.86515 7.20069 7.03492
#
# Compressibility (1/GPa) = 0.01992744
#
# Stress axis : x y z
#
# Youngs Moduli (GPa) = 83.23292 62.65148 50.62349
#
# Poissons Ratio (x) = 0.36065 0.12011
# Poissons Ratio (y) = 0.47912 0.29220
# Poissons Ratio (z) = 0.19748 0.36163
#
# Static dielectric constant tensor:
#      x y z
#    x 3.479200 0.000000 0.000000 
#    y 0.000000 3.960030 0.000000 
#    z 0.000000 0.000000 3.101940 
# 
# 
# High freq. dielectric constant tensor:
#      x y z
#    x 1.672600 0.000000 0.000000 
#    y 0.000000 1.682980 0.000000 
#    z 0.000000 0.000000 1.642890 
# 
# From -- ./inp_files/27099.got.cif
#   From: 2010.03.12/outbox.cif.g09.slc.cpg/sg57_14_cif.got.tgz:27099.got - 2010.04.16 15:48:40.
