data_PCOD8230079
_publ_section_title
;
Structure prediction by ZEFSAII (Michael W. Deem and Ramdas Pophale) SiO2 
 PCOD8230079
Probable space group: P B C M
;
_chemical_formula_sum "Si O2"
_cell_formula_units_Z 48
_cell_length_a 11.698092
_cell_length_b 25.839132
_cell_length_c 9.093631
_cell_angle_alpha 90.000000
_cell_angle_beta 90.000000
_cell_angle_gamma 90.000000
_cell_volume 2748.718596
_symmetry_space_group_name_H-M "P B C M"
_symmetry_group_IT_number 57
_symmetry_cell_setting 'orthorhombic'
loop_
_space_group_symop_operation_xyz
x,y,z
-x,-y,1/2+z
x,1/2-y,-z
-x,1/2+y,1/2-z
-x,-y,-z
x,y,1/2-z
-x,1/2+y,z
x,1/2-y,1/2+z
loop_
_atom_site_type_symbol
_atom_site_label
_atom_site_fract_x
_atom_site_fract_y
_atom_site_fract_z
Si Si1 0.300180 0.882883 0.588882
Si Si2 0.356357 0.144642 0.582344
Si Si3 0.871563 0.802943 0.422992
Si Si4 0.892853 0.195338 0.427097
Si Si5 0.522467 0.206262 0.092759
Si Si6 0.477411 0.946212 0.423110
O O1 0.272282 0.907886 0.750000
O O2 0.190728 0.851916 0.525760
O O3 0.398576 0.842071 0.613985
O O4 0.353177 0.924993 0.477377
O O5 0.390735 0.153944 0.750000
O O6 0.219569 0.149798 0.559485
O O7 0.406726 0.191763 0.490129
O O8 0.413981 0.090252 0.533314
O O9 0.827915 0.750000 0.500000
O O10 0.896420 0.792378 0.250000
O O11 0.985075 0.821303 0.507592
O O12 0.854511 0.250000 0.500000
O O13 0.894781 0.201477 0.250000
O O14 0.487970 0.229559 0.250000
O O15 0.588746 0.250000 0.000000
O O16 0.468603 0.954396 0.250000
O O17 0.500000 0.000000 0.500000
#
# Coordination Sequence:
#
# PCOD8230079 Si02
#       6
#     8   8   8   8   8   8
#     4   9  19  33  48  69  96 126 160 197 238 284
#     4   9  19  33  48  68  94 125 159 196 239 286
#     4  10  19  31  47  69  99 133 167 198 230 274
#     4  10  19  31  48  71 101 135 168 200 234 277
#     4  10  18  27  42  65  94 125 155 190 232 281
#     4  10  20  35  55  76  97 122 155 199 251 300
#
# _framework density 17.462682000000001
#
# number of rings (size 3 to 8) (size 9 to 14) (size 15 to 20)
#    0.000    2.333    0.000    4.000    0.000    5.333 
#    0.000    0.000    0.000    1.000    0.000    0.000 
#    0.000    0.000    0.000    0.000    0.000    0.000 
#
# Total GULP energy -594628.828920 kJ/mol
# GULP energy per Si atom -12388.100602 kJ/mol
# Density = 1.742294 g / cm^3
# Si number density = 17.462682 Si / 1000 Ang^3
#
#
#
# Elastic Constant Matrix: (Units=GPa)
#
#
# Indices 1 2 3 4 5 6 
#
# 1 100.8032 44.1894 37.5892 0.0000 0.0000 0.0000
# 2 44.1894 80.6595 47.6760 0.0000 0.0000 0.0000
# 3 37.5892 47.6760 107.1062 0.0000 0.0000 0.0000
# 4 0.0000 0.0000 0.0000 27.0500 0.0000 0.0000
# 5 0.0000 0.0000 0.0000 0.0000 33.3274 0.0000
# 6 0.0000 0.0000 0.0000 0.0000 0.0000 24.5130
#
#
#
# Elastic Compliance Matrix: (Units=1/GPa)
#
#
# Indices 1 2 3 4 5 6 
#
# 1 0.013346 -0.006165 -0.001940 0.000000 0.000000 0.000000
# 2 -0.006165 0.019672 -0.006593 0.000000 0.000000 0.000000
# 3 -0.001940 -0.006593 0.012952 0.000000 0.000000 0.000000
# 4 0.000000 0.000000 0.000000 0.036969 0.000000 0.000000
# 5 0.000000 0.000000 0.000000 0.000000 0.030005 0.000000
# 6 0.000000 0.000000 0.000000 0.000000 0.000000 0.040795
#
#
# Mechanical properties :
#
#
# Convention : Reuss Voigt Hill
#
# Bulk Modulus (GPa) = 60.33228 60.83089 60.58159
# Shear Modulus (GPa) = 26.50268 27.58570 27.04419
#
# Velocity S-wave (km/s) = 3.89996 3.97885 3.93960
# Velocity P-wave (km/s) = 7.40971 7.48457 7.44723
#
# Compressibility (1/GPa) = 0.01657487
#
# Stress axis : x y z
#
# Youngs Moduli (GPa) = 74.92720 50.83247 77.20848
#
# Poissons Ratio (x) = 0.31340 0.14975
# Poissons Ratio (y) = 0.46195 0.50904
# Poissons Ratio (z) = 0.14532 0.33514
#
# Static dielectric constant tensor:
#      x y z
#    x 3.318430 0.000000 0.000000 
#    y 0.000000 3.153360 0.000000 
#    z 0.000000 0.000000 3.736560 
# 
# 
# High freq. dielectric constant tensor:
#      x y z
#    x 1.666930 0.000000 0.000000 
#    y 0.000000 1.642920 0.000000 
#    z 0.000000 0.000000 1.692450 
# 
# From -- ./inp_files/3116.got.cif
#   From: 2010.03.12/outbox.cif.g09.slc.cpg/sg57_2_cif.got.tgz:3116.got - 2010.04.16 15:48:40.
