data_PCOD8230478
_publ_section_title
;
Structure prediction by ZEFSAII (Michael W. Deem and Ramdas Pophale) SiO2 
 PCOD8230478
Probable space group: P B C M
;
_chemical_formula_sum "Si O2"
_cell_formula_units_Z 48
_cell_length_a 28.162749
_cell_length_b 8.838881
_cell_length_c 9.917717
_cell_angle_alpha 90.000000
_cell_angle_beta 90.000000
_cell_angle_gamma 90.000000
_cell_volume 2468.789395
_symmetry_space_group_name_H-M "P B C M"
_symmetry_group_IT_number 57
_symmetry_cell_setting 'orthorhombic'
loop_
_space_group_symop_operation_xyz
x,y,z
-x,-y,1/2+z
x,1/2-y,-z
-x,1/2+y,1/2-z
-x,-y,-z
x,y,1/2-z
-x,1/2+y,z
x,1/2-y,1/2+z
loop_
_atom_site_type_symbol
_atom_site_label
_atom_site_fract_x
_atom_site_fract_y
_atom_site_fract_z
Si Si1 0.227787 0.929521 0.990463
Si Si2 0.719641 0.448412 0.250000
Si Si3 0.551188 0.572546 0.002522
Si Si4 0.709759 0.410202 0.750000
Si Si5 0.390066 0.440940 0.250000
Si Si6 0.615150 0.915115 0.750000
Si Si7 0.035865 0.099046 0.588719
Si Si8 0.873273 0.392402 0.595120
O O1 0.264276 0.983389 0.877279
O O2 0.174009 0.979156 0.957097
O O3 0.226554 0.750000 0.000000
O O4 0.248498 0.004375 0.125184
O O5 0.713053 0.269582 0.250000
O O6 0.667724 0.519198 0.250000
O O7 0.584372 0.524451 0.125915
O O8 0.543258 0.750000 0.000000
O O9 0.500000 0.500000 0.000000
O O10 0.578928 0.509851 0.875599
O O11 0.655822 0.456817 0.750000
O O12 0.377646 0.264419 0.250000
O O13 0.041134 0.250000 0.500000
O O14 0.020726 0.124771 0.750000
O O15 0.085787 0.015110 0.588324
O O16 0.000000 0.000000 0.500000
O O17 0.886194 0.250000 0.500000
O O18 0.865928 0.335242 0.750000
#
# Coordination Sequence:
#
# PCOD8230478 Si02
#       8
#     8   4   8   4   4   4   8   8
#     4   9  18  33  53  81 110 141 186 232 281 326
#     4  10  20  33  53  80 106 141 182 232 266 328
#     4  10  21  36  54  75 103 134 172 217 267 327
#     4  10  18  33  55  76 106 139 182 224 266 326
#     4  10  21  35  53  76 102 141 169 214 275 326
#     4  10  21  37  51  76 108 135 175 218 273 332
#     4  11  24  43  64  93 127 165 209 260 312 370
#     4  10  21  37  61  89 121 159 202 248 303 359
#
# _framework density 19.442729
#
# number of rings (size 3 to 8) (size 9 to 14) (size 15 to 20)
#    0.000    2.000    0.833    2.500    3.500    4.000 
#    0.000    1.667    0.000    0.000    0.000    0.000 
#    0.000    0.000    0.000    0.000    0.000    0.000 
#
# Total GULP energy -594881.301392 kJ/mol
# GULP energy per Si atom -12393.360446 kJ/mol
# Density = 1.939848 g / cm^3
# Si number density = 19.442729 Si / 1000 Ang^3
#
#
#
# Elastic Constant Matrix: (Units=GPa)
#
#
# Indices 1 2 3 4 5 6 
#
# 1 159.8664 38.2724 86.9319 0.0000 0.0000 0.0000
# 2 38.2724 46.0378 43.4070 0.0000 0.0000 0.0000
# 3 86.9319 43.4070 199.2092 0.0000 0.0000 0.0000
# 4 0.0000 0.0000 0.0000 25.1893 0.0000 0.0000
# 5 0.0000 0.0000 0.0000 0.0000 26.1354 0.0000
# 6 0.0000 0.0000 0.0000 0.0000 0.0000 31.0393
#
#
#
# Elastic Compliance Matrix: (Units=1/GPa)
#
#
# Indices 1 2 3 4 5 6 
#
# 1 0.008951 -0.004730 -0.002876 0.000000 0.000000 0.000000
# 2 -0.004730 0.029837 -0.004437 0.000000 0.000000 0.000000
# 3 -0.002876 -0.004437 0.007242 0.000000 0.000000 0.000000
# 4 0.000000 0.000000 0.000000 0.039699 0.000000 0.000000
# 5 0.000000 0.000000 0.000000 0.000000 0.038262 0.000000
# 6 0.000000 0.000000 0.000000 0.000000 0.000000 0.032217
#
#
# Mechanical properties :
#
#
# Convention : Reuss Voigt Hill
#
# Bulk Modulus (GPa) = 45.57017 82.48176 64.02597
# Shear Modulus (GPa) = 26.65106 32.23960 29.44533
#
# Velocity S-wave (km/s) = 3.70638 4.07650 3.89583
# Velocity P-wave (km/s) = 6.46570 8.04190 7.29649
#
# Compressibility (1/GPa) = 0.02194418
#
# Stress axis : x y z
#
# Youngs Moduli (GPa) = 111.71570 33.51503 138.09226
#
# Poissons Ratio (x) = 0.15853 0.39708
# Poissons Ratio (y) = 0.52844 0.61275
# Poissons Ratio (z) = 0.32124 0.14871
#
# Static dielectric constant tensor:
#      x y z
#    x 3.706620 0.000000 0.000000 
#    y 0.000000 3.222140 0.000000 
#    z 0.000000 0.000000 3.854600 
# 
# 
# High freq. dielectric constant tensor:
#      x y z
#    x 1.776540 0.000000 0.000000 
#    y 0.000000 1.723390 0.000000 
#    z 0.000000 0.000000 1.782840 
# 
# From -- ./inp_files/10229.got.cif
#   From: 2010.03.12/outbox.cif.g09.slc.cpg/sg57_6_cif.got.tgz:10229.got - 2010.04.16 15:48:40.
