data_PCOD8230793
_publ_section_title
;
Structure prediction by ZEFSAII (Michael W. Deem and Ramdas Pophale) SiO2 
 PCOD8230793
Probable space group: P B C M
;
_chemical_formula_sum "Si O2"
_cell_formula_units_Z 56
_cell_length_a 16.853459
_cell_length_b 21.955492
_cell_length_c 9.078880
_cell_angle_alpha 90.000000
_cell_angle_beta 90.000000
_cell_angle_gamma 90.000000
_cell_volume 3359.421508
_symmetry_space_group_name_H-M "P B C M"
_symmetry_group_IT_number 57
_symmetry_cell_setting 'orthorhombic'
loop_
_space_group_symop_operation_xyz
x,y,z
-x,-y,1/2+z
x,1/2-y,-z
-x,1/2+y,1/2-z
-x,-y,-z
x,y,1/2-z
-x,1/2+y,z
x,1/2-y,1/2+z
loop_
_atom_site_type_symbol
_atom_site_label
_atom_site_fract_x
_atom_site_fract_y
_atom_site_fract_z
Si Si1 0.919787 0.187811 0.576550
Si Si2 0.055940 0.550039 0.925049
Si Si3 0.259704 0.663440 0.585526
Si Si4 0.622660 0.507476 0.916391
Si Si5 0.233344 0.975879 0.085269
Si Si6 0.480780 0.913462 0.414522
Si Si7 0.586080 0.193320 0.079286
O O1 0.954963 0.250000 0.500000
O O2 0.932383 0.195431 0.750000
O O3 0.958693 0.121821 0.526979
O O4 0.827414 0.183612 0.534073
O O5 0.046312 0.546476 0.750000
O O6 0.143579 0.528483 0.973076
O O7 0.000000 0.500000 0.000000
O O8 0.277007 0.688407 0.750000
O O9 0.270171 0.591181 0.585369
O O10 0.322435 0.689169 0.470669
O O11 0.625211 0.479174 0.750000
O O12 0.574408 0.570698 0.911219
O O13 0.712638 0.516924 0.975741
O O14 0.575034 0.468383 0.035398
O O15 0.235298 0.003736 0.250000
O O16 0.453373 0.893708 0.250000
O O17 0.468909 0.862148 0.534632
O O18 0.583826 0.202958 0.250000
O O19 0.545223 0.250000 0.000000
#
# Coordination Sequence:
#
# PCOD8230793 Si02
#       7
#     8   8   8   8   8   8   8
#     4   9  18  31  47  69  97 129 166 199 239 290
#     4   9  19  34  50  73 102 134 166 204 250 298
#     4   9  17  30  45  64  93 127 159 195 233 276
#     4  10  19  30  48  72  93 119 158 198 236 280
#     4   9  17  30  49  69  97 130 158 194 243 289
#     4  10  20  33  46  64  94 124 155 199 241 276
#     4  12  23  32  44  63  89 124 165 201 238 287
#
# _framework density 16.669536999999998
#
# number of rings (size 3 to 8) (size 9 to 14) (size 15 to 20)
#    0.000    2.286    1.429    4.286    0.000    4.571 
#    0.000    2.857    0.000    0.000    0.000    1.000 
#    0.000    4.571    0.000    0.000    0.000    0.000 
#
# Total GULP energy -693776.131353 kJ/mol
# GULP energy per Si atom -12388.859488 kJ/mol
# Density = 1.663160 g / cm^3
# Si number density = 16.669537 Si / 1000 Ang^3
#
#
#
# Elastic Constant Matrix: (Units=GPa)
#
#
# Indices 1 2 3 4 5 6 
#
# 1 64.9713 39.1183 32.7341 0.0000 0.0000 0.0000
# 2 39.1183 90.1499 37.8213 0.0000 0.0000 0.0000
# 3 32.7341 37.8213 95.3489 0.0000 0.0000 0.0000
# 4 0.0000 0.0000 0.0000 26.5914 0.0000 0.0000
# 5 0.0000 0.0000 0.0000 0.0000 5.4512 0.0000
# 6 0.0000 0.0000 0.0000 0.0000 0.0000 14.0041
#
#
#
# Elastic Compliance Matrix: (Units=1/GPa)
#
#
# Indices 1 2 3 4 5 6 
#
# 1 0.022399 -0.007790 -0.004600 0.000000 0.000000 0.000000
# 2 -0.007790 0.016016 -0.003679 0.000000 0.000000 0.000000
# 3 -0.004600 -0.003679 0.013526 0.000000 0.000000 0.000000
# 4 0.000000 0.000000 0.000000 0.037606 0.000000 0.000000
# 5 0.000000 0.000000 0.000000 0.000000 0.183446 0.000000
# 6 0.000000 0.000000 0.000000 0.000000 0.000000 0.071407
#
#
# Mechanical properties :
#
#
# Convention : Reuss Voigt Hill
#
# Bulk Modulus (GPa) = 50.49297 52.20194 51.34745
# Shear Modulus (GPa) = 13.05010 18.59577 15.82293
#
# Velocity S-wave (km/s) = 2.80102 3.34361 3.08427
# Velocity P-wave (km/s) = 6.38884 6.80368 6.59952
#
# Compressibility (1/GPa) = 0.01980474
#
# Stress axis : x y z
#
# Youngs Moduli (GPa) = 44.64483 62.43696 73.93059
#
# Poissons Ratio (x) = 0.48636 0.34007
# Poissons Ratio (y) = 0.34777 0.27197
# Poissons Ratio (z) = 0.20536 0.22969
#
# Static dielectric constant tensor:
#      x y z
#    x 3.042100 0.000000 0.000000 
#    y 0.000000 3.477740 0.000000 
#    z 0.000000 0.000000 3.156270 
# 
# 
# High freq. dielectric constant tensor:
#      x y z
#    x 1.610020 0.000000 0.000000 
#    y 0.000000 1.624160 0.000000 
#    z 0.000000 0.000000 1.648990 
# 
# From -- ./inp_files/7032.got.cif
#   From: 2010.03.12/outbox.cif.g09.slc.cpg/sg57_4_cif.got.tgz:7032.got - 2010.04.16 15:48:40.
