data_PCOD8230209
_publ_section_title
;
Structure prediction by ZEFSAII (Michael W. Deem and Ramdas Pophale) SiO2 
 PCOD8230209
Probable space group: P B C M
;
_chemical_formula_sum "Si O2"
_cell_formula_units_Z 48
_cell_length_a 11.341852
_cell_length_b 8.935214
_cell_length_c 25.518183
_cell_angle_alpha 90.000000
_cell_angle_beta 90.000000
_cell_angle_gamma 90.000000
_cell_volume 2586.060506
_symmetry_space_group_name_H-M "P B C M"
_symmetry_group_IT_number 57
_symmetry_cell_setting 'orthorhombic'
loop_
_space_group_symop_operation_xyz
x,y,z
-x,-y,1/2+z
x,1/2-y,-z
-x,1/2+y,1/2-z
-x,-y,-z
x,y,1/2-z
-x,1/2+y,z
x,1/2-y,1/2+z
loop_
_atom_site_type_symbol
_atom_site_label
_atom_site_fract_x
_atom_site_fract_y
_atom_site_fract_z
Si Si1 0.846993 0.998551 0.546666
Si Si2 0.078966 0.847189 0.361854
Si Si3 0.657171 0.999771 0.040322
Si Si4 0.013050 0.250000 0.500000
Si Si5 0.156458 0.012019 0.750000
Si Si6 0.838639 0.483851 0.865440
Si Si7 0.502716 0.250000 0.000000
Si Si8 0.951980 0.206552 0.750000
O O1 0.830534 0.040212 0.607923
O O2 0.728659 0.008792 0.513989
O O3 0.937276 0.129647 0.530483
O O4 0.903222 0.834952 0.541281
O O5 0.101268 0.675270 0.378718
O O6 0.111104 0.864335 0.300732
O O7 0.941570 0.892576 0.371238
O O8 0.738492 0.986514 0.091359
O O9 0.579689 0.150669 0.040481
O O10 0.575603 0.853507 0.038076
O O11 0.222667 0.991493 0.693473
O O12 0.053762 0.885870 0.750000
O O13 0.091585 0.171560 0.750000
#
# Coordination Sequence:
#
# PCOD8230209 Si02
#       8
#     8   8   8   4   4   8   4   4
#     4  11  19  30  47  72 102 132 161 196 243 301
#     4  10  18  29  48  77 110 139 166 193 234 302
#     4  11  22  37  54  71  95 131 170 217 263 300
#     4  10  20  28  42  74 108 126 150 190 242 304
#     4   8  16  30  48  74 104 140 172 192 230 292
#     4  10  19  32  53  78 109 140 166 199 243 298
#     4  10  24  40  52  70  92 122 174 224 270 304
#     4   8  16  28  42  68 108 144 166 190 224 280
#
# _framework density 18.561050999999999
#
# number of rings (size 3 to 8) (size 9 to 14) (size 15 to 20)
#    0.000    2.000    0.000    6.000    0.000    1.333 
#    0.000    0.000    0.000    1.000    0.000    4.667 
#    0.000    0.000    0.000    0.000    0.000    0.000 
#
# Total GULP energy -594654.617918 kJ/mol
# GULP energy per Si atom -12388.637873 kJ/mol
# Density = 1.851881 g / cm^3
# Si number density = 18.561051 Si / 1000 Ang^3
#
#
#
# Elastic Constant Matrix: (Units=GPa)
#
#
# Indices 1 2 3 4 5 6 
#
# 1 77.0419 29.8466 41.2229 0.0000 0.0000 0.0000
# 2 29.8466 80.5844 7.8656 0.0000 0.0000 0.0000
# 3 41.2229 7.8656 88.4872 0.0000 0.0000 0.0000
# 4 0.0000 0.0000 0.0000 19.2556 0.0000 0.0000
# 5 0.0000 0.0000 0.0000 0.0000 20.6317 0.0000
# 6 0.0000 0.0000 0.0000 0.0000 0.0000 -10.2389
#
#
#
# Elastic Compliance Matrix: (Units=1/GPa)
#
#
# Indices 1 2 3 4 5 6 
#
# 1 0.020302 -0.006654 -0.008866 0.000000 0.000000 0.000000
# 2 -0.006654 0.014699 0.001793 0.000000 0.000000 0.000000
# 3 -0.008866 0.001793 0.015272 0.000000 0.000000 0.000000
# 4 0.000000 0.000000 0.000000 0.051933 0.000000 0.000000
# 5 0.000000 0.000000 0.000000 0.000000 0.048469 0.000000
# 6 0.000000 0.000000 0.000000 0.000000 0.000000 -0.097666
#
#
# Mechanical properties :
#
#
# Convention : Reuss Voigt Hill
#
# Bulk Modulus (GPa) = 43.82378 44.88708 44.35543
# Shear Modulus (GPa) = 56.77374 17.07491 36.92432
#
# Velocity S-wave (km/s) = 5.53660 3.03633 4.46505
# Velocity P-wave (km/s) = 8.03329 6.04387 7.10852
#
# Compressibility (1/GPa) = 0.02281866
#
# Stress axis : x y z
#
# Youngs Moduli (GPa) = 49.25640 68.03280 65.47839
#
# Poissons Ratio (x) = 0.45269 0.58056
# Poissons Ratio (y) = 0.32775 -0.11742
# Poissons Ratio (z) = 0.43673 -0.12200
#
# Static dielectric constant tensor:
#      x y z
#    x 3.085860 0.000000 0.000000 
#    y 0.000000 3.767180 0.000000 
#    z 0.000000 0.000000 4.517750 
# 
# 
# High freq. dielectric constant tensor:
#      x y z
#    x 1.662230 0.000000 0.000000 
#    y 0.000000 1.741770 0.000000 
#    z 0.000000 0.000000 1.729330 
# 
# From -- ./inp_files/28542.got.cif
#   From: 2010.03.12/outbox.cif.g09.slc.cpg/sg57_15_cif.got.tgz:28542.got - 2010.04.16 15:48:40.
