data_PCOD8230918
_publ_section_title
;
Structure prediction by ZEFSAII (Michael W. Deem and Ramdas Pophale) SiO2 
 PCOD8230918
Probable space group: P B C M
;
_chemical_formula_sum "Si O2"
_cell_formula_units_Z 56
_cell_length_a 15.968757
_cell_length_b 20.073418
_cell_length_c 8.911221
_cell_angle_alpha 90.000000
_cell_angle_beta 90.000000
_cell_angle_gamma 90.000000
_cell_volume 2856.469918
_symmetry_space_group_name_H-M "P B C M"
_symmetry_group_IT_number 57
_symmetry_cell_setting 'orthorhombic'
loop_
_space_group_symop_operation_xyz
x,y,z
-x,-y,1/2+z
x,1/2-y,-z
-x,1/2+y,1/2-z
-x,-y,-z
x,y,1/2-z
-x,1/2+y,z
x,1/2-y,1/2+z
loop_
_atom_site_type_symbol
_atom_site_label
_atom_site_fract_x
_atom_site_fract_y
_atom_site_fract_z
Si Si1 0.820697 0.411587 0.423293
Si Si2 0.493161 0.815691 0.925112
Si Si3 0.028361 0.682366 0.572682
Si Si4 0.755266 0.949220 0.925664
Si Si5 0.303701 0.683362 0.426031
Si Si6 0.568894 0.953419 0.926684
Si Si7 0.150491 0.180831 0.429911
O O1 0.797701 0.399298 0.250000
O O2 0.910497 0.379670 0.461286
O O3 0.819798 0.490499 0.461590
O O4 0.748994 0.379741 0.523708
O O5 0.493486 0.803456 0.750000
O O6 0.398493 0.828196 0.982140
O O7 0.549672 0.877626 0.971965
O O8 0.532147 0.750000 0.000000
O O9 0.066408 0.750000 0.500000
O O10 0.014570 0.693047 0.750000
O O11 0.941809 0.665681 0.491466
O O12 0.744505 0.938963 0.750000
O O13 0.662676 0.966908 0.989866
O O14 0.791474 0.879749 0.989483
O O15 0.265954 0.750000 0.500000
O O16 0.297329 0.691709 0.250000
O O17 0.562381 0.965033 0.750000
O O18 0.500000 0.000000 0.000000
O O19 0.184741 0.250000 0.500000
O O20 0.148178 0.185964 0.250000
#
# Coordination Sequence:
#
# PCOD8230918 Si02
#       7
#     8   8   8   8   8   8   8
#     4  10  20  34  52  76 106 139 176 213 255 312
#     4   9  19  33  50  74 102 133 172 217 261 309
#     4  10  20  34  54  79 106 136 172 213 256 306
#     4   9  20  37  56  78 106 141 174 211 265 318
#     4  10  19  31  48  73 105 139 175 215 260 307
#     4  10  20  36  56  78 106 139 176 216 261 313
#     4  10  20  37  59  80 105 138 176 217 263 313
#
# _framework density 19.604617000000001
#
# number of rings (size 3 to 8) (size 9 to 14) (size 15 to 20)
#    0.000    2.286    0.000    3.429    0.000    4.571 
#    0.000    2.857    0.000    0.000    0.000    0.000 
#    0.000    0.000    0.000    0.000    0.000    0.000 
#
# Total GULP energy -694316.195496 kJ/mol
# GULP energy per Si atom -12398.503491 kJ/mol
# Density = 1.956000 g / cm^3
# Si number density = 19.604617 Si / 1000 Ang^3
#
#
#
# Elastic Constant Matrix: (Units=GPa)
#
#
# Indices 1 2 3 4 5 6 
#
# 1 101.4610 77.0113 30.3918 0.0000 0.0000 0.0000
# 2 77.0113 153.0063 42.8354 0.0000 0.0000 0.0000
# 3 30.3918 42.8354 57.3943 0.0000 0.0000 0.0000
# 4 0.0000 0.0000 0.0000 28.5363 0.0000 0.0000
# 5 0.0000 0.0000 0.0000 0.0000 22.3411 0.0000
# 6 0.0000 0.0000 0.0000 0.0000 0.0000 39.3813
#
#
#
# Elastic Compliance Matrix: (Units=1/GPa)
#
#
# Indices 1 2 3 4 5 6 
#
# 1 0.016398 -0.007361 -0.003190 0.000000 0.000000 0.000000
# 2 -0.007361 0.011566 -0.004734 0.000000 0.000000 0.000000
# 3 -0.003190 -0.004734 0.022646 0.000000 0.000000 0.000000
# 4 0.000000 0.000000 0.000000 0.035043 0.000000 0.000000
# 5 0.000000 0.000000 0.000000 0.000000 0.044761 0.000000
# 6 0.000000 0.000000 0.000000 0.000000 0.000000 0.025393
#
#
# Mechanical properties :
#
#
# Convention : Reuss Voigt Hill
#
# Bulk Modulus (GPa) = 49.89926 68.03764 58.96845
# Shear Modulus (GPa) = 25.89916 28.82661 27.36289
#
# Velocity S-wave (km/s) = 3.63860 3.83874 3.74001
# Velocity P-wave (km/s) = 6.56968 7.37754 6.98530
#
# Compressibility (1/GPa) = 0.02004038
#
# Stress axis : x y z
#
# Youngs Moduli (GPa) = 60.98159 86.46136 44.15812
#
# Poissons Ratio (x) = 0.63641 0.14086
# Poissons Ratio (y) = 0.44886 0.20906
# Poissons Ratio (z) = 0.19452 0.40934
#
# Static dielectric constant tensor:
#      x y z
#    x 3.648390 0.000000 0.000000 
#    y 0.000000 3.729330 0.000000 
#    z 0.000000 0.000000 3.424810 
# 
# 
# High freq. dielectric constant tensor:
#      x y z
#    x 1.759310 0.000000 0.000000 
#    y 0.000000 1.772720 0.000000 
#    z 0.000000 0.000000 1.748760 
# 
# From -- ./inp_files/5228.got.cif
#   From: 2010.03.12/outbox.cif.g09.slc.cpg/sg57_3_cif.got.tgz:5228.got - 2010.04.16 15:48:40.
