data_PCOD8230240
_publ_section_title
;
Structure prediction by ZEFSAII (Michael W. Deem and Ramdas Pophale) SiO2 
 PCOD8230240
Probable space group: P B C M
;
_chemical_formula_sum "Si O2"
_cell_formula_units_Z 64
_cell_length_a 20.372374
_cell_length_b 20.150929
_cell_length_c 9.046424
_cell_angle_alpha 90.000000
_cell_angle_beta 90.000000
_cell_angle_gamma 90.000000
_cell_volume 3713.758444
_symmetry_space_group_name_H-M "P B C M"
_symmetry_group_IT_number 57
_symmetry_cell_setting 'orthorhombic'
loop_
_space_group_symop_operation_xyz
x,y,z
-x,-y,1/2+z
x,1/2-y,-z
-x,1/2+y,1/2-z
-x,-y,-z
x,y,1/2-z
-x,1/2+y,z
x,1/2-y,1/2+z
loop_
_atom_site_type_symbol
_atom_site_label
_atom_site_fract_x
_atom_site_fract_y
_atom_site_fract_z
Si Si1 0.934138 0.181983 0.925601
Si Si2 0.300738 0.057155 0.084156
Si Si3 0.572484 0.571439 0.583316
Si Si4 0.813748 0.385269 0.923773
Si Si5 0.028338 0.063806 0.577932
Si Si6 0.173451 0.461194 0.420563
Si Si7 0.316924 0.899997 0.417512
Si Si8 0.444574 0.914079 0.582848
O O1 0.928072 0.189698 0.750000
O O2 0.989191 0.128789 0.972150
O O3 0.957271 0.250000 0.000000
O O4 0.864225 0.161629 0.991691
O O5 0.302524 0.085172 0.250000
O O6 0.310660 0.978791 0.081890
O O7 0.358944 0.092011 0.992571
O O8 0.230336 0.074608 0.013707
O O9 0.572166 0.598775 0.750000
O O10 0.512959 0.605449 0.494568
O O11 0.564373 0.492724 0.582110
O O12 0.815181 0.369766 0.750000
O O13 0.832797 0.461049 0.958799
O O14 0.741891 0.368378 0.987506
O O15 0.020042 0.050133 0.750000
O O16 0.104898 0.073736 0.537574
O O17 0.000000 0.000000 0.500000
O O18 0.192167 0.452277 0.250000
O O19 0.315093 0.872662 0.250000
O O20 0.385426 0.879349 0.493523
O O21 0.444952 0.886949 0.750000
#
# Coordination Sequence:
#
# PCOD8230240 Si02
#       8
#     8   8   8   8   8   8   8   8
#     4  11  23  37  53  73  99 129 162 199 245 297
#     4   9  16  24  35  54  79 109 145 185 227 274
#     4   9  15  22  32  46  70 106 144 183 227 273
#     4  10  18  30  48  67  90 119 153 194 240 285
#     4  10  20  34  53  75  97 124 159 201 246 295
#     4   9  17  29  45  66  90 116 149 192 239 285
#     4   9  16  25  37  55  80 109 146 188 229 273
#     4   9  15  22  32  48  71 103 145 187 226 270
#
# _framework density 17.233215999999999
#
# number of rings (size 3 to 8) (size 9 to 14) (size 15 to 20)
#    0.000    2.500    1.250    2.250    0.000    7.500 
#    0.000    0.000    0.000    0.000    0.000    0.000 
#    0.000    0.000    0.000    1.125    0.000   17.250 
#
# Total GULP energy -793596.030752 kJ/mol
# GULP energy per Si atom -12399.937980 kJ/mol
# Density = 1.719399 g / cm^3
# Si number density = 17.233216 Si / 1000 Ang^3
#
#
#
# Elastic Constant Matrix: (Units=GPa)
#
#
# Indices 1 2 3 4 5 6 
#
# 1 152.0215 43.8582 71.1110 0.0000 0.0000 0.0000
# 2 43.8582 43.4658 33.2712 0.0000 0.0000 0.0000
# 3 71.1110 33.2712 123.5114 0.0000 0.0000 0.0000
# 4 0.0000 0.0000 0.0000 14.0154 0.0000 0.0000
# 5 0.0000 0.0000 0.0000 0.0000 35.1659 0.0000
# 6 0.0000 0.0000 0.0000 0.0000 0.0000 9.4347
#
#
#
# Elastic Compliance Matrix: (Units=1/GPa)
#
#
# Indices 1 2 3 4 5 6 
#
# 1 0.010707 -0.007666 -0.004100 0.000000 0.000000 0.000000
# 2 -0.007666 0.034471 -0.004872 0.000000 0.000000 0.000000
# 3 -0.004100 -0.004872 0.011769 0.000000 0.000000 0.000000
# 4 0.000000 0.000000 0.000000 0.071350 0.000000 0.000000
# 5 0.000000 0.000000 0.000000 0.000000 0.028437 0.000000
# 6 0.000000 0.000000 0.000000 0.000000 0.000000 0.105992
#
#
# Mechanical properties :
#
#
# Convention : Reuss Voigt Hill
#
# Bulk Modulus (GPa) = 42.24351 68.38659 55.31505
# Shear Modulus (GPa) = 16.45317 23.10707 19.78012
#
# Velocity S-wave (km/s) = 3.09323 3.66573 3.39158
# Velocity P-wave (km/s) = 6.10930 7.59512 6.89237
#
# Compressibility (1/GPa) = 0.02367227
#
# Stress axis : x y z
#
# Youngs Moduli (GPa) = 93.39411 29.00981 84.96730
#
# Poissons Ratio (x) = 0.22238 0.34834
# Poissons Ratio (y) = 0.71595 0.41397
# Poissons Ratio (z) = 0.38288 0.14134
#
# Static dielectric constant tensor:
#      x y z
#    x 3.279790 0.000000 0.000000 
#    y 0.000000 2.607990 0.000000 
#    z 0.000000 0.000000 3.609770 
# 
# 
# High freq. dielectric constant tensor:
#      x y z
#    x 1.683200 0.000000 0.000000 
#    y 0.000000 1.580900 0.000000 
#    z 0.000000 0.000000 1.682100 
# 
# From -- ./inp_files/7262.got.cif
#   From: 2010.03.12/outbox.cif.g09.slc.cpg/sg57_4_cif.got.tgz:7262.got - 2010.04.16 15:48:40.
