data_PCOD8230898
_publ_section_title
;
Structure prediction by ZEFSAII (Michael W. Deem and Ramdas Pophale) SiO2 
 PCOD8230898
Probable space group: P B C M
;
_chemical_formula_sum "Si O2"
_cell_formula_units_Z 48
_cell_length_a 23.727547
_cell_length_b 13.558145
_cell_length_c 8.769456
_cell_angle_alpha 90.000000
_cell_angle_beta 90.000000
_cell_angle_gamma 90.000000
_cell_volume 2821.147349
_symmetry_space_group_name_H-M "P B C M"
_symmetry_group_IT_number 57
_symmetry_cell_setting 'orthorhombic'
loop_
_space_group_symop_operation_xyz
x,y,z
-x,-y,1/2+z
x,1/2-y,-z
-x,1/2+y,1/2-z
-x,-y,-z
x,y,1/2-z
-x,1/2+y,z
x,1/2-y,1/2+z
loop_
_atom_site_type_symbol
_atom_site_label
_atom_site_fract_x
_atom_site_fract_y
_atom_site_fract_z
Si Si1 0.584547 0.452248 0.572157
Si Si2 0.805483 0.145763 0.429033
Si Si3 0.311223 0.643342 0.569243
Si Si4 0.479765 0.149058 0.928265
Si Si5 0.022347 0.350653 0.428343
Si Si6 0.079301 0.549290 0.072802
O O1 0.593025 0.431427 0.750000
O O2 0.642677 0.435666 0.483760
O O3 0.566189 0.564540 0.539943
O O4 0.538240 0.376647 0.509826
O O5 0.823248 0.250000 0.500000
O O6 0.794313 0.159439 0.250000
O O7 0.749046 0.105261 0.508548
O O8 0.855198 0.068231 0.462742
O O9 0.325771 0.750000 0.500000
O O10 0.310190 0.651161 0.750000
O O11 0.491519 0.161764 0.750000
O O12 0.455906 0.250000 0.000000
O O13 0.045478 0.250000 0.500000
O O14 0.021609 0.336888 0.250000
O O15 0.958862 0.372733 0.482618
O O16 0.064309 0.438390 0.479877
O O17 0.065553 0.564391 0.250000
#
# Coordination Sequence:
#
# PCOD8230898 Si02
#       6
#     8   8   8   8   8   8
#     4  10  20  34  51  72  99 130 162 196 237 282
#     4  10  19  32  49  70  96 124 157 195 238 285
#     4  11  21  33  50  72  98 127 160 197 239 285
#     4  10  20  33  51  74 100 129 160 197 238 282
#     4  10  19  31  48  71  98 127 159 195 237 283
#     4   9  19  33  49  70  96 127 160 196 237 282
#
# _framework density 17.014353
#
# number of rings (size 3 to 8) (size 9 to 14) (size 15 to 20)
#    0.000    2.000    0.000    5.500    0.000    5.333 
#    0.000    0.000    0.000    1.000    0.000    2.333 
#    0.000    0.000    0.000    0.000    0.000    0.000 
#
# Total GULP energy -595351.225947 kJ/mol
# GULP energy per Si atom -12403.150541 kJ/mol
# Density = 1.697563 g / cm^3
# Si number density = 17.014353 Si / 1000 Ang^3
#
#
#
# Elastic Constant Matrix: (Units=GPa)
#
#
# Indices 1 2 3 4 5 6 
#
# 1 120.1153 56.5843 55.8925 0.0000 0.0000 0.0000
# 2 56.5843 102.3532 47.3942 0.0000 0.0000 0.0000
# 3 55.8925 47.3942 108.2909 0.0000 0.0000 0.0000
# 4 0.0000 0.0000 0.0000 29.7102 0.0000 0.0000
# 5 0.0000 0.0000 0.0000 0.0000 28.9296 0.0000
# 6 0.0000 0.0000 0.0000 0.0000 0.0000 23.5480
#
#
#
# Elastic Compliance Matrix: (Units=1/GPa)
#
#
# Indices 1 2 3 4 5 6 
#
# 1 0.012719 -0.005006 -0.004374 0.000000 0.000000 0.000000
# 2 -0.005006 0.014224 -0.003641 0.000000 0.000000 0.000000
# 3 -0.004374 -0.003641 0.013085 0.000000 0.000000 0.000000
# 4 0.000000 0.000000 0.000000 0.033658 0.000000 0.000000
# 5 0.000000 0.000000 0.000000 0.000000 0.034567 0.000000
# 6 0.000000 0.000000 0.000000 0.000000 0.000000 0.042466
#
#
# Mechanical properties :
#
#
# Convention : Reuss Voigt Hill
#
# Bulk Modulus (GPa) = 71.50103 72.27794 71.88949
# Shear Modulus (GPa) = 27.55982 27.83012 27.69497
#
# Velocity S-wave (km/s) = 4.02904 4.04875 4.03890
# Velocity P-wave (km/s) = 7.98495 8.02678 8.00589
#
# Compressibility (1/GPa) = 0.01398581
#
# Stress axis : x y z
#
# Youngs Moduli (GPa) = 78.62363 70.30492 76.42125
#
# Poissons Ratio (x) = 0.35196 0.33424
# Poissons Ratio (y) = 0.39361 0.27827
# Poissons Ratio (z) = 0.34387 0.25600
#
# Static dielectric constant tensor:
#      x y z
#    x 3.144590 0.000000 0.000000 
#    y 0.000000 3.234140 0.000000 
#    z 0.000000 0.000000 3.316840 
# 
# 
# High freq. dielectric constant tensor:
#      x y z
#    x 1.645830 0.000000 0.000000 
#    y 0.000000 1.645050 0.000000 
#    z 0.000000 0.000000 1.675250 
# 
# From -- ./inp_files/9136.got.cif
#   From: 2010.03.12/outbox.cif.g09.slc.cpg/sg57_5_cif.got.tgz:9136.got - 2010.04.16 15:48:40.
