data_PCOD8230021
_publ_section_title
;
Structure prediction by ZEFSAII (Michael W. Deem and Ramdas Pophale) SiO2 
 PCOD8230021
Probable space group: P B C M
;
_chemical_formula_sum "Si O2"
_cell_formula_units_Z 48
_cell_length_a 9.437464
_cell_length_b 14.648949
_cell_length_c 18.202112
_cell_angle_alpha 90.000000
_cell_angle_beta 90.000000
_cell_angle_gamma 90.000000
_cell_volume 2516.422486
_symmetry_space_group_name_H-M "P B C M"
_symmetry_group_IT_number 57
_symmetry_cell_setting 'orthorhombic'
loop_
_space_group_symop_operation_xyz
x,y,z
-x,-y,1/2+z
x,1/2-y,-z
-x,1/2+y,1/2-z
-x,-y,-z
x,y,1/2-z
-x,1/2+y,z
x,1/2-y,1/2+z
loop_
_atom_site_type_symbol
_atom_site_label
_atom_site_fract_x
_atom_site_fract_y
_atom_site_fract_z
Si Si1 0.331120 0.490223 0.335127
Si Si2 0.593214 0.155683 0.426975
Si Si3 0.190168 0.889557 0.163685
Si Si4 0.908964 0.219818 0.423121
Si Si5 0.479900 0.645875 0.589763
Si Si6 0.983886 0.051644 0.165508
O O1 0.368974 0.483303 0.250000
O O2 0.419085 0.575962 0.367283
O O3 0.379251 0.397913 0.375756
O O4 0.164919 0.501549 0.349383
O O5 0.755559 0.180139 0.443867
O O6 0.514956 0.245423 0.395286
O O7 0.522654 0.124139 0.503067
O O8 0.204503 0.873478 0.250000
O O9 0.102498 0.804651 0.131812
O O10 0.344139 0.899330 0.128396
O O11 0.108241 0.982482 0.144700
O O12 0.982050 0.250000 0.500000
O O13 0.002239 0.141260 0.384709
O O14 0.992134 0.082872 0.250000
#
# Coordination Sequence:
#
# PCOD8230021 Si02
#       6
#     8   8   8   8   8   8
#     4  10  20  33  52  77 105 140 174 208 260 317
#     4   9  18  34  53  75 108 135 170 217 263 300
#     4  10  19  33  55  79 103 136 176 217 256 301
#     4  10  17  33  53  77 101 137 177 210 250 312
#     4  10  18  34  56  78 101 135 178 218 252 305
#     4   9  20  35  51  76 109 139 167 213 268 307
#
# _framework density 19.074698000000001
#
# number of rings (size 3 to 8) (size 9 to 14) (size 15 to 20)
#    0.000    2.333    3.333    1.500    0.000    5.333 
#    0.000    1.667    3.667    4.000    0.000    0.000 
#    0.000    0.000    0.000    0.000    0.000    0.000 
#
# Total GULP energy -595268.417074 kJ/mol
# GULP energy per Si atom -12401.425356 kJ/mol
# Density = 1.903128 g / cm^3
# Si number density = 19.074698 Si / 1000 Ang^3
#
#
#
# Elastic Constant Matrix: (Units=GPa)
#
#
# Indices 1 2 3 4 5 6 
#
# 1 36.6760 30.5616 35.2626 0.0000 0.0000 0.0000
# 2 30.5616 90.8968 56.2073 0.0000 0.0000 0.0000
# 3 35.2626 56.2073 112.1201 0.0000 0.0000 0.0000
# 4 0.0000 0.0000 0.0000 40.9132 0.0000 0.0000
# 5 0.0000 0.0000 0.0000 0.0000 22.1041 0.0000
# 6 0.0000 0.0000 0.0000 0.0000 0.0000 27.2242
#
#
#
# Elastic Compliance Matrix: (Units=1/GPa)
#
#
# Indices 1 2 3 4 5 6 
#
# 1 0.043594 -0.008955 -0.009221 0.000000 0.000000 0.000000
# 2 -0.008955 0.017784 -0.006099 0.000000 0.000000 0.000000
# 3 -0.009221 -0.006099 0.014877 0.000000 0.000000 0.000000
# 4 0.000000 0.000000 0.000000 0.024442 0.000000 0.000000
# 5 0.000000 0.000000 0.000000 0.000000 0.045240 0.000000
# 6 0.000000 0.000000 0.000000 0.000000 0.000000 0.036732
#
#
# Mechanical properties :
#
#
# Convention : Reuss Voigt Hill
#
# Bulk Modulus (GPa) = 36.09614 53.75066 44.92340
# Shear Modulus (GPa) = 20.79404 25.89239 23.34321
#
# Velocity S-wave (km/s) = 3.30530 3.68832 3.50205
# Velocity P-wave (km/s) = 5.79063 6.81017 6.32099
#
# Compressibility (1/GPa) = 0.02770379
#
# Stress axis : x y z
#
# Youngs Moduli (GPa) = 22.93896 56.23141 67.22002
#
# Poissons Ratio (x) = 0.50356 0.61985
# Poissons Ratio (y) = 0.20542 0.40995
# Poissons Ratio (z) = 0.21153 0.34294
#
# Static dielectric constant tensor:
#      x y z
#    x 3.119930 0.000000 0.000000 
#    y 0.000000 3.611390 0.000000 
#    z 0.000000 0.000000 3.582350 
# 
# 
# High freq. dielectric constant tensor:
#      x y z
#    x 1.703250 0.000000 0.000000 
#    y 0.000000 1.746750 0.000000 
#    z 0.000000 0.000000 1.754030 
# 
# From -- ./inp_files/20934.got.cif
#   From: 2010.03.12/outbox.cif.g09.slc.cpg/sg57_11_cif.got.tgz:20934.got - 2010.04.16 15:48:40.
