data_PCOD8230622
_publ_section_title
;
Structure prediction by ZEFSAII (Michael W. Deem and Ramdas Pophale) SiO2 
 PCOD8230622
Probable space group: P B C M
;
_chemical_formula_sum "Si O2"
_cell_formula_units_Z 64
_cell_length_a 13.880744
_cell_length_b 31.869289
_cell_length_c 8.901162
_cell_angle_alpha 90.000000
_cell_angle_beta 90.000000
_cell_angle_gamma 90.000000
_cell_volume 3937.602068
_symmetry_space_group_name_H-M "P B C M"
_symmetry_group_IT_number 57
_symmetry_cell_setting 'orthorhombic'
loop_
_space_group_symop_operation_xyz
x,y,z
-x,-y,1/2+z
x,1/2-y,-z
-x,1/2+y,1/2-z
-x,-y,-z
x,y,1/2-z
-x,1/2+y,z
x,1/2-y,1/2+z
loop_
_atom_site_type_symbol
_atom_site_label
_atom_site_fract_x
_atom_site_fract_y
_atom_site_fract_z
Si Si1 0.726967 0.474868 0.919469
Si Si2 0.654973 0.931005 0.414086
Si Si3 0.783737 0.871102 0.921551
Si Si4 0.070878 0.534883 0.929730
Si Si5 0.996427 0.378973 0.928254
Si Si6 0.783327 0.709973 0.583317
Si Si7 0.987347 0.292442 0.078555
Si Si8 0.455464 0.540362 0.923494
O O1 0.751281 0.459341 0.750000
O O2 0.681585 0.520550 0.916993
O O3 0.821012 0.475971 0.022672
O O4 0.643685 0.445332 0.993618
O O5 0.684542 0.912599 0.250000
O O6 0.713623 0.909612 0.547193
O O7 0.539746 0.924473 0.437526
O O8 0.782854 0.858320 0.750000
O O9 0.891439 0.882834 0.970945
O O10 0.741312 0.831778 0.010414
O O11 0.059858 0.533678 0.750000
O O12 0.051905 0.581614 0.990465
O O13 0.000000 0.500000 0.000000
O O14 0.978018 0.380959 0.750000
O O15 0.953818 0.334759 0.991141
O O16 0.739960 0.750000 0.500000
O O17 0.744044 0.712238 0.750000
O O18 0.898132 0.709659 0.573822
O O19 0.949646 0.294219 0.250000
O O20 0.945842 0.250000 0.000000
O O21 0.431624 0.530704 0.750000
O O22 0.500000 0.500000 0.000000
#
# Coordination Sequence:
#
# PCOD8230622 Si02
#       8
#     8   8   8   8   8   8   8   8
#     4  10  20  34  50  67  88 117 152 190 231 273
#     4   9  18  30  45  65  89 115 145 182 224 266
#     4  10  19  28  42  63  87 116 150 185 222 262
#     4  12  24  36  49  66  91 125 162 197 232 275
#     4  10  20  33  46  64  91 123 159 197 232 272
#     4   9  16  26  40  57  82 113 145 178 215 261
#     4   9  16  27  44  65  87 115 149 188 233 278
#     4   9  17  30  47  67  89 114 145 183 226 269
#
# _framework density 16.253546
#
# number of rings (size 3 to 8) (size 9 to 14) (size 15 to 20)
#    0.000    2.250    0.000    4.875    0.000    9.500 
#    0.000    0.000    0.000    0.000    0.000    0.000 
#    0.000    1.000    0.000    5.500    0.000    5.875 
#
# Total GULP energy -793204.158793 kJ/mol
# GULP energy per Si atom -12393.814981 kJ/mol
# Density = 1.621655 g / cm^3
# Si number density = 16.253546 Si / 1000 Ang^3
#
#
#
# Elastic Constant Matrix: (Units=GPa)
#
#
# Indices 1 2 3 4 5 6 
#
# 1 71.5135 21.0213 32.2908 0.0000 0.0000 0.0000
# 2 21.0213 71.6985 35.6998 0.0000 0.0000 0.0000
# 3 32.2908 35.6998 106.1146 0.0000 0.0000 0.0000
# 4 0.0000 0.0000 0.0000 31.6069 0.0000 0.0000
# 5 0.0000 0.0000 0.0000 0.0000 21.8831 0.0000
# 6 0.0000 0.0000 0.0000 0.0000 0.0000 10.1598
#
#
#
# Elastic Compliance Matrix: (Units=1/GPa)
#
#
# Indices 1 2 3 4 5 6 
#
# 1 0.016678 -0.002838 -0.004120 0.000000 0.000000 0.000000
# 2 -0.002838 0.017237 -0.004935 0.000000 0.000000 0.000000
# 3 -0.004120 -0.004935 0.012338 0.000000 0.000000 0.000000
# 4 0.000000 0.000000 0.000000 0.031639 0.000000 0.000000
# 5 0.000000 0.000000 0.000000 0.000000 0.045697 0.000000
# 6 0.000000 0.000000 0.000000 0.000000 0.000000 0.098427
#
#
# Mechanical properties :
#
#
# Convention : Reuss Voigt Hill
#
# Bulk Modulus (GPa) = 44.51326 47.48336 45.99831
# Shear Modulus (GPa) = 19.74004 23.41761 21.57883
#
# Velocity S-wave (km/s) = 3.48876 3.79986 3.64763
# Velocity P-wave (km/s) = 6.60869 6.96631 6.78986
#
# Compressibility (1/GPa) = 0.02246522
#
# Stress axis : x y z
#
# Youngs Moduli (GPa) = 59.95872 58.01548 81.05093
#
# Poissons Ratio (x) = 0.16467 0.33395
# Poissons Ratio (y) = 0.17018 0.40000
# Poissons Ratio (z) = 0.24705 0.28632
#
# Static dielectric constant tensor:
#      x y z
#    x 3.031940 0.000000 0.000000 
#    y 0.000000 3.075600 0.000000 
#    z 0.000000 0.000000 3.386760 
# 
# 
# High freq. dielectric constant tensor:
#      x y z
#    x 1.586660 0.000000 0.000000 
#    y 0.000000 1.606220 0.000000 
#    z 0.000000 0.000000 1.647450 
# 
# From -- ./inp_files/6061.got.cif
#   From: 2010.03.12/outbox.cif.g09.slc.cpg/sg57_4_cif.got.tgz:6061.got - 2010.04.16 15:48:40.
