data_PCOD8230804
_publ_section_title
;
Structure prediction by ZEFSAII (Michael W. Deem and Ramdas Pophale) SiO2 
 PCOD8230804
Probable space group: P B C M
;
_chemical_formula_sum "Si O2"
_cell_formula_units_Z 64
_cell_length_a 11.259510
_cell_length_b 25.754193
_cell_length_c 10.624113
_cell_angle_alpha 90.000000
_cell_angle_beta 90.000000
_cell_angle_gamma 90.000000
_cell_volume 3080.775970
_symmetry_space_group_name_H-M "P B C M"
_symmetry_group_IT_number 57
_symmetry_cell_setting 'orthorhombic'
loop_
_space_group_symop_operation_xyz
x,y,z
-x,-y,1/2+z
x,1/2-y,-z
-x,1/2+y,1/2-z
-x,-y,-z
x,y,1/2-z
-x,1/2+y,z
x,1/2-y,1/2+z
loop_
_atom_site_type_symbol
_atom_site_label
_atom_site_fract_x
_atom_site_fract_y
_atom_site_fract_z
Si Si1 0.443927 0.894759 0.392305
Si Si2 0.862335 0.459809 0.541428
Si Si3 0.931181 0.568660 0.885676
Si Si4 0.796410 0.793539 0.605705
Si Si5 0.661894 0.502550 0.392022
Si Si6 0.068285 0.709964 0.391464
Si Si7 0.689961 0.890100 0.015942
Si Si8 0.279789 0.631829 0.387479
O O1 0.394187 0.884894 0.250000
O O2 0.430676 0.956266 0.425900
O O3 0.580187 0.874839 0.393442
O O4 0.371494 0.861146 0.496915
O O5 0.908439 0.506863 0.625957
O O6 0.795917 0.483602 0.419660
O O7 0.767627 0.427131 0.620749
O O8 0.969835 0.422707 0.493058
O O9 0.978897 0.587626 0.750000
O O10 0.811571 0.600664 0.909987
O O11 0.765022 0.750000 0.500000
O O12 0.773341 0.773594 0.750000
O O13 0.714054 0.844040 0.583620
O O14 0.933859 0.810619 0.589970
O O15 0.650418 0.518237 0.250000
O O16 0.637574 0.556887 0.459397
O O17 0.100134 0.750000 0.500000
O O18 0.080644 0.734006 0.250000
O O19 0.162539 0.664914 0.411380
O O20 0.338222 0.644650 0.250000
#
# Coordination Sequence:
#
# PCOD8230804 Si02
#       8
#     8   8   8   8   8   8   8   8
#     4  10  22  38  55  82 118 152 191 237 279 326
#     4   9  18  31  48  76 109 143 182 229 280 334
#     4  10  19  30  48  76 111 149 186 226 276 338
#     4  10  22  40  62  88 117 148 185 232 286 342
#     4   9  18  33  53  78 111 151 194 239 283 331
#     4   9  19  37  60  87 114 140 178 230 286 344
#     4  11  21  35  56  82 113 155 198 235 281 339
#     4  10  20  36  58  80 105 141 182 226 278 332
#
# _framework density 20.773987000000002
#
# number of rings (size 3 to 8) (size 9 to 14) (size 15 to 20)
#    0.000    2.250    0.000    2.625    0.000    3.000 
#    0.000   10.000    0.000    0.000    0.000    0.000 
#    0.000    0.000    0.000    0.000    0.000    0.000 
#
# Total GULP energy -792868.824803 kJ/mol
# GULP energy per Si atom -12388.575388 kJ/mol
# Density = 2.072670 g / cm^3
# Si number density = 20.773987 Si / 1000 Ang^3
#
#
#
# Elastic Constant Matrix: (Units=GPa)
#
#
# Indices 1 2 3 4 5 6 
#
# 1 88.4976 26.1856 43.4698 0.0000 0.0000 0.0000
# 2 26.1856 54.2813 41.4394 0.0000 0.0000 0.0000
# 3 43.4698 41.4394 128.6908 0.0000 0.0000 0.0000
# 4 0.0000 0.0000 0.0000 19.1261 0.0000 0.0000
# 5 0.0000 0.0000 0.0000 0.0000 20.7489 0.0000
# 6 0.0000 0.0000 0.0000 0.0000 0.0000 18.0766
#
#
#
# Elastic Compliance Matrix: (Units=1/GPa)
#
#
# Indices 1 2 3 4 5 6 
#
# 1 0.014248 -0.004242 -0.003447 0.000000 0.000000 0.000000
# 2 -0.004242 0.025690 -0.006840 0.000000 0.000000 0.000000
# 3 -0.003447 -0.006840 0.011137 0.000000 0.000000 0.000000
# 4 0.000000 0.000000 0.000000 0.052285 0.000000 0.000000
# 5 0.000000 0.000000 0.000000 0.000000 0.048195 0.000000
# 6 0.000000 0.000000 0.000000 0.000000 0.000000 0.055320
#
#
# Mechanical properties :
#
#
# Convention : Reuss Voigt Hill
#
# Bulk Modulus (GPa) = 45.41565 54.85103 50.13334
# Shear Modulus (GPa) = 20.55313 22.28198 21.41755
#
# Velocity S-wave (km/s) = 3.14884 3.27860 3.21437
# Velocity P-wave (km/s) = 5.92701 6.38696 6.16128
#
# Compressibility (1/GPa) = 0.02201884
#
# Stress axis : x y z
#
# Youngs Moduli (GPa) = 70.18555 38.92512 89.78869
#
# Poissons Ratio (x) = 0.16512 0.30949
# Poissons Ratio (y) = 0.29772 0.61412
# Poissons Ratio (z) = 0.24192 0.26623
#
# Static dielectric constant tensor:
#      x y z
#    x 3.651550 0.000000 0.000000 
#    y 0.000000 3.464820 0.000000 
#    z 0.000000 0.000000 3.750670 
# 
# 
# High freq. dielectric constant tensor:
#      x y z
#    x 1.806900 0.000000 0.000000 
#    y 0.000000 1.779400 0.000000 
#    z 0.000000 0.000000 1.817590 
# 
# From -- ./inp_files/13248.got.cif
#   From: 2010.03.12/outbox.cif.g09.slc.cpg/sg57_7_cif.got.tgz:13248.got - 2010.04.16 15:48:40.
