data_PCOD8230351
_publ_section_title
;
Structure prediction by ZEFSAII (Michael W. Deem and Ramdas Pophale) SiO2 
 PCOD8230351
Probable space group: P B C M
;
_chemical_formula_sum "Si O2"
_cell_formula_units_Z 40
_cell_length_a 9.580409
_cell_length_b 26.037728
_cell_length_c 8.564795
_cell_angle_alpha 90.000000
_cell_angle_beta 90.000000
_cell_angle_gamma 90.000000
_cell_volume 2136.505959
_symmetry_space_group_name_H-M "P B C M"
_symmetry_group_IT_number 57
_symmetry_cell_setting 'orthorhombic'
loop_
_space_group_symop_operation_xyz
x,y,z
-x,-y,1/2+z
x,1/2-y,-z
-x,1/2+y,1/2-z
-x,-y,-z
x,y,1/2-z
-x,1/2+y,z
x,1/2-y,1/2+z
loop_
_atom_site_type_symbol
_atom_site_label
_atom_site_fract_x
_atom_site_fract_y
_atom_site_fract_z
Si Si1 0.339098 0.603331 0.565044
Si Si2 0.848203 0.303677 0.066688
Si Si3 0.168363 0.195488 0.565156
Si Si4 0.352846 0.105604 0.433628
Si Si5 0.655310 0.998416 0.065162
O O1 0.331520 0.599039 0.750000
O O2 0.245994 0.650183 0.500117
O O3 0.497652 0.612730 0.514431
O O4 0.272386 0.551044 0.492796
O O5 0.833532 0.300585 0.250000
O O6 0.007806 0.313236 0.016879
O O7 0.791624 0.250000 0.000000
O O8 0.220674 0.250000 0.500000
O O9 0.191919 0.192479 0.750000
O O10 0.256270 0.152702 0.477943
O O11 0.375677 0.102381 0.250000
O O12 0.276347 0.053358 0.494330
O O13 0.657905 0.995286 0.250000
O O14 0.500000 0.000000 0.000000
#
# Coordination Sequence:
#
# PCOD8230351 Si02
#       5
#     8   8   8   8   8
#     4  10  19  34  54  79 107 137 171 214 259 307
#     4   9  20  36  56  77 103 136 172 211 258 308
#     4  10  20  37  56  77 103 136 173 213 258 308
#     4  11  21  34  53  79 106 138 174 213 256 305
#     4  10  18  31  51  76 104 137 171 211 258 308
#
# _framework density 18.722155999999998
#
# number of rings (size 3 to 8) (size 9 to 14) (size 15 to 20)
#    0.000    2.000    0.000    7.200    0.000    3.200 
#    0.000    3.000    0.000    0.000    0.000    0.000 
#    0.000    0.000    0.000    0.000    0.000    0.000 
#
# Total GULP energy -495955.908783 kJ/mol
# GULP energy per Si atom -12398.897720 kJ/mol
# Density = 1.867954 g / cm^3
# Si number density = 18.722156 Si / 1000 Ang^3
#
#
#
# Elastic Constant Matrix: (Units=GPa)
#
#
# Indices 1 2 3 4 5 6 
#
# 1 47.9298 59.1572 9.7321 0.0000 0.0000 0.0000
# 2 59.1572 192.4384 36.1813 0.0000 0.0000 0.0000
# 3 9.7321 36.1813 77.0560 0.0000 0.0000 0.0000
# 4 0.0000 0.0000 0.0000 38.7309 0.0000 0.0000
# 5 0.0000 0.0000 0.0000 0.0000 14.2480 0.0000
# 6 0.0000 0.0000 0.0000 0.0000 0.0000 -14.6168
#
#
#
# Elastic Compliance Matrix: (Units=1/GPa)
#
#
# Indices 1 2 3 4 5 6 
#
# 1 0.033651 -0.010470 0.000666 0.000000 0.000000 0.000000
# 2 -0.010470 0.008957 -0.002883 0.000000 0.000000 0.000000
# 3 0.000666 -0.002883 0.014247 0.000000 0.000000 0.000000
# 4 0.000000 0.000000 0.000000 0.025819 0.000000 0.000000
# 5 0.000000 0.000000 0.000000 0.000000 0.070185 0.000000
# 6 0.000000 0.000000 0.000000 0.000000 0.000000 -0.068415
#
#
# Mechanical properties :
#
#
# Convention : Reuss Voigt Hill
#
# Bulk Modulus (GPa) = 31.76534 58.61837 45.19186
# Shear Modulus (GPa) = 41.55813 21.82932 31.69373
#
# Velocity S-wave (km/s) = 4.71651 3.41832 4.11888
# Velocity P-wave (km/s) = 6.83112 6.85255 6.84185
#
# Compressibility (1/GPa) = 0.03148085
#
# Stress axis : x y z
#
# Youngs Moduli (GPa) = 29.71691 111.64328 70.18834
#
# Poissons Ratio (x) = 1.16888 -0.04674
# Poissons Ratio (y) = 0.31113 0.20238
# Poissons Ratio (z) = -0.01979 0.32192
#
# Static dielectric constant tensor:
#      x y z
#    x 3.243610 0.000000 0.000000 
#    y 0.000000 4.392340 0.000000 
#    z 0.000000 0.000000 3.499840 
# 
# 
# High freq. dielectric constant tensor:
#      x y z
#    x 1.690150 0.000000 0.000000 
#    y 0.000000 1.752290 0.000000 
#    z 0.000000 0.000000 1.740420 
# 
# From -- ./inp_files/1738.got.cif
#   From: 2010.03.12/outbox.cif.g09.slc.cpg/sg57_1_cif.got.tgz:1738.got - 2010.04.16 15:48:40.
