data_PCOD8230309
_publ_section_title
;
Structure prediction by ZEFSAII (Michael W. Deem and Ramdas Pophale) SiO2 
 PCOD8230309
Probable space group: P B C M
;
_chemical_formula_sum "Si O2"
_cell_formula_units_Z 56
_cell_length_a 17.629444
_cell_length_b 21.416308
_cell_length_c 8.912118
_cell_angle_alpha 90.000000
_cell_angle_beta 90.000000
_cell_angle_gamma 90.000000
_cell_volume 3364.837906
_symmetry_space_group_name_H-M "P B C M"
_symmetry_group_IT_number 57
_symmetry_cell_setting 'orthorhombic'
loop_
_space_group_symop_operation_xyz
x,y,z
-x,-y,1/2+z
x,1/2-y,-z
-x,1/2+y,1/2-z
-x,-y,-z
x,y,1/2-z
-x,1/2+y,z
x,1/2-y,1/2+z
loop_
_atom_site_type_symbol
_atom_site_label
_atom_site_fract_x
_atom_site_fract_y
_atom_site_fract_z
Si Si1 0.057869 0.415719 0.419435
Si Si2 0.454174 0.091722 0.423430
Si Si3 0.765413 0.034795 0.576153
Si Si4 0.595935 0.452106 0.422154
Si Si5 0.660194 0.683193 0.928068
Si Si6 0.911498 0.062313 0.081508
Si Si7 0.792124 0.607228 0.426724
O O1 0.061183 0.390239 0.250000
O O2 0.071308 0.489296 0.424274
O O3 0.121826 0.381407 0.518334
O O4 0.975227 0.400451 0.487886
O O5 0.448031 0.111323 0.250000
O O6 0.542424 0.089591 0.472067
O O7 0.411006 0.141200 0.525073
O O8 0.416075 0.025092 0.453696
O O9 0.786382 0.039861 0.750000
O O10 0.683205 0.064038 0.540310
O O11 0.828110 0.074394 0.486486
O O12 0.765397 0.962231 0.528932
O O13 0.576364 0.436806 0.250000
O O14 0.664038 0.688356 0.750000
O O15 0.646719 0.750000 0.000000
O O16 0.738754 0.655550 0.988439
O O17 0.912939 0.088109 0.250000
O O18 0.786407 0.619235 0.250000
#
# Coordination Sequence:
#
# PCOD8230309 Si02
#       7
#     8   8   8   8   8   8   8
#     4   9  16  26  39  58  84 118 154 186 223 269
#     4  10  19  33  49  69  93 121 157 197 240 286
#     4   9  16  27  43  63  92 124 154 190 231 279
#     4   9  17  30  47  69  95 125 157 193 237 288
#     4  12  24  37  52  69  92 123 160 201 243 288
#     4   9  16  24  36  58  86 118 154 188 223 264
#     4  10  18  31  47  65  89 119 155 195 235 277
#
# _framework density 16.642703000000001
#
# number of rings (size 3 to 8) (size 9 to 14) (size 15 to 20)
#    0.000    2.286    1.429    3.000    0.000    5.143 
#    0.000    0.000    0.000    0.000    0.000    0.000 
#    0.000    1.143    0.000    6.286    0.000    7.000 
#
# Total GULP energy -694411.674567 kJ/mol
# GULP energy per Si atom -12400.208474 kJ/mol
# Density = 1.660482 g / cm^3
# Si number density = 16.642703 Si / 1000 Ang^3
#
#
#
# Elastic Constant Matrix: (Units=GPa)
#
#
# Indices 1 2 3 4 5 6 
#
# 1 130.6261 30.3487 55.9732 0.0000 0.0000 0.0000
# 2 30.3487 34.9009 29.7190 0.0000 0.0000 0.0000
# 3 55.9732 29.7190 111.2952 0.0000 0.0000 0.0000
# 4 0.0000 0.0000 0.0000 17.9360 0.0000 0.0000
# 5 0.0000 0.0000 0.0000 0.0000 36.0981 0.0000
# 6 0.0000 0.0000 0.0000 0.0000 0.0000 9.4850
#
#
#
# Elastic Compliance Matrix: (Units=1/GPa)
#
#
# Indices 1 2 3 4 5 6 
#
# 1 0.010675 -0.006097 -0.003740 0.000000 0.000000 0.000000
# 2 -0.006097 0.040568 -0.007766 0.000000 0.000000 0.000000
# 3 -0.003740 -0.007766 0.012940 0.000000 0.000000 0.000000
# 4 0.000000 0.000000 0.000000 0.055754 0.000000 0.000000
# 5 0.000000 0.000000 0.000000 0.000000 0.027702 0.000000
# 6 0.000000 0.000000 0.000000 0.000000 0.000000 0.105430
#
#
# Mechanical properties :
#
#
# Convention : Reuss Voigt Hill
#
# Bulk Modulus (GPa) = 34.51308 56.54492 45.52900
# Shear Modulus (GPa) = 16.78219 23.42258 20.10238
#
# Velocity S-wave (km/s) = 3.17895 3.75557 3.47923
# Velocity P-wave (km/s) = 5.85294 7.27017 6.59971
#
# Compressibility (1/GPa) = 0.02897452
#
# Stress axis : x y z
#
# Youngs Moduli (GPa) = 93.67806 24.65011 77.27915
#
# Poissons Ratio (x) = 0.15030 0.28906
# Poissons Ratio (y) = 0.57119 0.60017
# Poissons Ratio (z) = 0.35040 0.19144
#
# Static dielectric constant tensor:
#      x y z
#    x 3.370210 0.000000 0.000000 
#    y 0.000000 2.601890 0.000000 
#    z 0.000000 0.000000 3.245470 
# 
# 
# High freq. dielectric constant tensor:
#      x y z
#    x 1.657200 0.000000 0.000000 
#    y 0.000000 1.565910 0.000000 
#    z 0.000000 0.000000 1.655210 
# 
# From -- ./inp_files/7003.got.cif
#   From: 2010.03.12/outbox.cif.g09.slc.cpg/sg57_4_cif.got.tgz:7003.got - 2010.04.16 15:48:40.
