data_PCOD8230573
_publ_section_title
;
Structure prediction by ZEFSAII (Michael W. Deem and Ramdas Pophale) SiO2 
 PCOD8230573
Probable space group: P B C M
;
_chemical_formula_sum "Si O2"
_cell_formula_units_Z 56
_cell_length_a 17.413939
_cell_length_b 19.412348
_cell_length_c 8.927440
_cell_angle_alpha 90.000000
_cell_angle_beta 90.000000
_cell_angle_gamma 90.000000
_cell_volume 3017.880418
_symmetry_space_group_name_H-M "P B C M"
_symmetry_group_IT_number 57
_symmetry_cell_setting 'orthorhombic'
loop_
_space_group_symop_operation_xyz
x,y,z
-x,-y,1/2+z
x,1/2-y,-z
-x,1/2+y,1/2-z
-x,-y,-z
x,y,1/2-z
-x,1/2+y,z
x,1/2-y,1/2+z
loop_
_atom_site_type_symbol
_atom_site_label
_atom_site_fract_x
_atom_site_fract_y
_atom_site_fract_z
Si Si1 0.481836 0.428110 0.925639
Si Si2 0.064981 0.092705 0.923225
Si Si3 0.310261 0.431036 0.573826
Si Si4 0.900154 0.453844 0.078789
Si Si5 0.612408 0.323827 0.927270
Si Si6 0.268175 0.581998 0.923973
Si Si7 0.813079 0.677888 0.072416
O O1 0.489750 0.439201 0.750000
O O2 0.395486 0.405539 0.969904
O O3 0.540530 0.369969 0.982198
O O4 0.500000 0.500000 0.000000
O O5 0.083846 0.104965 0.750000
O O6 0.973507 0.094385 0.954461
O O7 0.102672 0.153898 0.019025
O O8 0.100089 0.019522 0.971174
O O9 0.297912 0.434561 0.750000
O O10 0.295125 0.507848 0.511231
O O11 0.249024 0.376907 0.508942
O O12 0.902642 0.481467 0.250000
O O13 0.823282 0.409753 0.051613
O O14 0.614737 0.315820 0.750000
O O15 0.601791 0.250000 0.000000
O O16 0.691343 0.358186 0.982059
O O17 0.290757 0.590206 0.750000
O O18 0.811571 0.684905 0.250000
O O19 0.791028 0.750000 0.000000
#
# Coordination Sequence:
#
# PCOD8230573 Si02
#       7
#     8   8   8   8   8   8   8
#     4  10  20  36  58  85 112 144 186 228 274 328
#     4  10  19  32  53  82 113 144 184 229 277 330
#     4   9  18  34  58  82 110 146 184 227 279 334
#     4   9  18  33  55  83 111 144 184 228 276 328
#     4  11  24  39  57  84 116 149 186 229 279 335
#     4  10  18  35  61  84 111 148 185 228 281 332
#     4  11  22  38  56  79 113 152 191 231 285 340
#
# _framework density 18.556069000000001
#
# number of rings (size 3 to 8) (size 9 to 14) (size 15 to 20)
#    0.000    2.000    2.857    1.286    0.000    2.286 
#    0.000    2.143    0.000    0.000    0.000    0.000 
#    0.000    0.000    0.000    0.000    0.000    0.000 
#
# Total GULP energy -694482.454737 kJ/mol
# GULP energy per Si atom -12401.472406 kJ/mol
# Density = 1.851383 g / cm^3
# Si number density = 18.556069 Si / 1000 Ang^3
#
#
#
# Elastic Constant Matrix: (Units=GPa)
#
#
# Indices 1 2 3 4 5 6 
#
# 1 132.5659 64.6415 39.0510 0.0000 0.0000 0.0000
# 2 64.6415 132.2505 44.6711 0.0000 0.0000 0.0000
# 3 39.0510 44.6711 62.6612 0.0000 0.0000 0.0000
# 4 0.0000 0.0000 0.0000 32.6419 0.0000 0.0000
# 5 0.0000 0.0000 0.0000 0.0000 24.2316 0.0000
# 6 0.0000 0.0000 0.0000 0.0000 0.0000 28.9289
#
#
#
# Elastic Compliance Matrix: (Units=1/GPa)
#
#
# Indices 1 2 3 4 5 6 
#
# 1 0.010555 -0.003869 -0.003820 0.000000 0.000000 0.000000
# 2 -0.003869 0.011378 -0.005700 0.000000 0.000000 0.000000
# 3 -0.003820 -0.005700 0.022403 0.000000 0.000000 0.000000
# 4 0.000000 0.000000 0.000000 0.030636 0.000000 0.000000
# 5 0.000000 0.000000 0.000000 0.000000 0.041268 0.000000
# 6 0.000000 0.000000 0.000000 0.000000 0.000000 0.034567
#
#
# Mechanical properties :
#
#
# Convention : Reuss Voigt Hill
#
# Bulk Modulus (GPa) = 56.95351 69.35607 63.15479
# Shear Modulus (GPa) = 27.25712 29.10141 28.17927
#
# Velocity S-wave (km/s) = 3.83679 3.96447 3.90115
# Velocity P-wave (km/s) = 7.09840 7.64288 7.37566
#
# Compressibility (1/GPa) = 0.01755818
#
# Stress axis : x y z
#
# Youngs Moduli (GPa) = 94.73970 87.89032 44.63669
#
# Poissons Ratio (x) = 0.34004 0.17051
# Poissons Ratio (y) = 0.36654 0.25443
# Poissons Ratio (z) = 0.36190 0.50098
#
# Static dielectric constant tensor:
#      x y z
#    x 1.648910 0.000000 0.000000 
#    y 0.000000 3.233930 0.000000 
#    z 0.000000 0.000000 3.295220 
# 
# 
# High freq. dielectric constant tensor:
#      x y z
#    x 1.735200 0.000000 0.000000 
#    y 0.000000 1.701030 0.000000 
#    z 0.000000 0.000000 1.709370 
# 
# From -- ./inp_files/7091.got.cif
#   From: 2010.03.12/outbox.cif.g09.slc.cpg/sg57_4_cif.got.tgz:7091.got - 2010.04.16 15:48:40.
