data_PCOD8230564
_publ_section_title
;
Structure prediction by ZEFSAII (Michael W. Deem and Ramdas Pophale) SiO2 
 PCOD8230564
Probable space group: P B C M
;
_chemical_formula_sum "Si O2"
_cell_formula_units_Z 48
_cell_length_a 4.862085
_cell_length_b 13.292310
_cell_length_c 29.078214
_cell_angle_alpha 90.000000
_cell_angle_beta 90.000000
_cell_angle_gamma 90.000000
_cell_volume 1879.276732
_symmetry_space_group_name_H-M "P B C M"
_symmetry_group_IT_number 57
_symmetry_cell_setting 'orthorhombic'
loop_
_space_group_symop_operation_xyz
x,y,z
-x,-y,1/2+z
x,1/2-y,-z
-x,1/2+y,1/2-z
-x,-y,-z
x,y,1/2-z
-x,1/2+y,z
x,1/2-y,1/2+z
loop_
_atom_site_type_symbol
_atom_site_label
_atom_site_fract_x
_atom_site_fract_y
_atom_site_fract_z
Si Si1 0.987061 0.504811 0.067575
Si Si2 0.463438 0.612585 0.031454
Si Si3 0.539164 0.735102 0.750000
Si Si4 0.963540 0.132383 0.250000
Si Si5 0.160618 0.876346 0.652700
Si Si6 0.339402 0.263773 0.152046
Si Si7 0.379734 0.823288 0.434024
O O1 0.726707 0.576296 0.058978
O O2 0.117238 0.534974 0.116380
O O3 0.901395 0.387497 0.069707
O O4 0.226868 0.525200 0.029211
O O5 0.316916 0.704459 0.059381
O O6 0.544642 0.641113 0.979468
O O7 0.716253 0.838629 0.750000
O O8 0.618520 0.679201 0.701676
O O9 0.217750 0.763831 0.750000
O O10 0.896839 0.072992 0.202870
O O11 0.970265 0.776410 0.645056
O O12 0.470838 0.836228 0.650671
O O13 0.425726 0.339721 0.110566
#
# Coordination Sequence:
#
# PCOD8230564 Si02
#       7
#     8   8   4   4   8   8   8
#     4  12  23  41  61  87 119 156 199 244 292 348
#     4  11  26  42  58  87 124 155 200 243 290 353
#     4   8  16  30  55  78 111 146 186 232 285 346
#     4   8  16  28  53  78 107 150 182 224 299 336
#     4  10  18  35  55  82 115 147 189 241 283 350
#     4  10  19  36  56  85 113 151 191 236 292 343
#     4  11  24  40  64  87 118 161 196 243 297 346
#
# _framework density 25.541743
#
# number of rings (size 3 to 8) (size 9 to 14) (size 15 to 20)
#    0.000    1.667    3.333    1.000    0.000    6.667 
#    0.000    0.833    0.000    0.000    0.000   14.000 
#    0.000    0.000    0.000    0.000    0.000    0.000 
#
# Total GULP energy -594943.172141 kJ/mol
# GULP energy per Si atom -12394.649420 kJ/mol
# Density = 2.548361 g / cm^3
# Si number density = 25.541743 Si / 1000 Ang^3
#
#
#
# Elastic Constant Matrix: (Units=GPa)
#
#
# Indices 1 2 3 4 5 6 
#
# 1 69.3672 -2.3186 -17.0073 0.0000 0.0000 0.0000
# 2 -2.3186 62.9429 18.1462 0.0000 0.0000 0.0000
# 3 -17.0073 18.1462 134.0992 0.0000 0.0000 0.0000
# 4 0.0000 0.0000 0.0000 3.0182 0.0000 0.0000
# 5 0.0000 0.0000 0.0000 0.0000 -112.5518 0.0000
# 6 0.0000 0.0000 0.0000 0.0000 0.0000 21.0789
#
#
#
# Elastic Compliance Matrix: (Units=1/GPa)
#
#
# Indices 1 2 3 4 5 6 
#
# 1 0.014879 0.000004 0.001886 0.000000 0.000000 0.000000
# 2 0.000004 0.016532 -0.002237 0.000000 0.000000 0.000000
# 3 0.001886 -0.002237 0.007999 0.000000 0.000000 0.000000
# 4 0.000000 0.000000 0.000000 0.331327 0.000000 0.000000
# 5 0.000000 0.000000 0.000000 0.000000 -0.008885 0.000000
# 6 0.000000 0.000000 0.000000 0.000000 0.000000 0.047441
#
#
# Mechanical properties :
#
#
# Convention : Reuss Voigt Hill
#
# Bulk Modulus (GPa) = 25.82761 29.33888 27.58324
# Shear Modulus (GPa) = 11.82337 0.14832 5.98585
#
# Velocity S-wave (km/s) = 2.15385 0.24124 1.53253
# Velocity P-wave (km/s) = 4.03972 3.40429 3.73554
#
# Compressibility (1/GPa) = 0.03871826
#
# Stress axis : x y z
#
# Youngs Moduli (GPa) = 67.21021 60.48732 125.01451
#
# Poissons Ratio (x) = -0.00026 -0.23583
# Poissons Ratio (y) = -0.00028 0.27961
# Poissons Ratio (z) = -0.12679 0.13529
#
# Static dielectric constant tensor:
#      x y z
#    x 4.426580 0.000000 0.000000 
#    y 0.000000 4.099880 0.000000 
#    z 0.000000 0.000000 5.453060 
# 
# 
# High freq. dielectric constant tensor:
#      x y z
#    x 2.025260 0.000000 0.000000 
#    y 0.000000 1.957670 0.000000 
#    z 0.000000 0.000000 2.059610 
# 
# From -- ./inp_files/29122.got.cif
#   From: 2010.03.12/outbox.cif.g09.slc.cpg/sg57_15_cif.got.tgz:29122.got - 2010.04.16 15:48:40.
