data_PCOD8230931
_publ_section_title
;
Structure prediction by ZEFSAII (Michael W. Deem and Ramdas Pophale) SiO2 
 PCOD8230931
Probable space group: P B C M
;
_chemical_formula_sum "Si O2"
_cell_formula_units_Z 64
_cell_length_a 20.644527
_cell_length_b 18.878654
_cell_length_c 8.882168
_cell_angle_alpha 90.000000
_cell_angle_beta 90.000000
_cell_angle_gamma 90.000000
_cell_volume 3461.743992
_symmetry_space_group_name_H-M "P B C M"
_symmetry_group_IT_number 57
_symmetry_cell_setting 'orthorhombic'
loop_
_space_group_symop_operation_xyz
x,y,z
-x,-y,1/2+z
x,1/2-y,-z
-x,1/2+y,1/2-z
-x,-y,-z
x,y,1/2-z
-x,1/2+y,z
x,1/2-y,1/2+z
loop_
_atom_site_type_symbol
_atom_site_label
_atom_site_fract_x
_atom_site_fract_y
_atom_site_fract_z
Si Si1 0.140608 0.674137 0.426413
Si Si2 0.615224 0.907670 0.927474
Si Si3 0.126913 0.173165 0.572094
Si Si4 0.387119 0.930674 0.427033
Si Si5 0.499812 0.174343 0.928689
Si Si6 0.254757 0.923687 0.574518
Si Si7 0.998561 0.673477 0.073528
Si Si8 0.252295 0.413854 0.425104
O O1 0.149440 0.750000 0.500000
O O2 0.149250 0.685116 0.250000
O O3 0.195345 0.622008 0.491741
O O4 0.069389 0.639421 0.458952
O O5 0.606659 0.898033 0.750000
O O6 0.600034 0.988382 0.979988
O O7 0.568485 0.853747 0.012310
O O8 0.687741 0.886443 0.975674
O O9 0.135154 0.250000 0.500000
O O10 0.120411 0.179309 0.750000
O O11 0.188924 0.128057 0.523836
O O12 0.062173 0.133842 0.506162
O O13 0.378768 0.928444 0.250000
O O14 0.445777 0.881507 0.482078
O O15 0.321396 0.899878 0.497205
O O16 0.497444 0.181815 0.750000
O O17 0.516329 0.250000 0.000000
O O18 0.263359 0.910065 0.750000
O O19 0.238351 0.004601 0.538339
O O20 0.984507 0.679163 0.250000
O O21 0.000548 0.750000 0.000000
O O22 0.268850 0.402083 0.250000
#
# Coordination Sequence:
#
# PCOD8230931 Si02
#       8
#     8   8   8   8   8   8   8   8
#     4   9  18  31  49  73  99 130 167 207 251 298
#     4  10  20  36  58  80 102 132 171 210 250 300
#     4  10  19  31  49  72  97 127 165 206 248 296
#     4   9  20  37  56  78 103 134 171 209 249 298
#     4  11  23  38  55  78 109 138 167 207 253 298
#     4   9  18  34  54  74  99 133 170 206 246 295
#     4   9  16  28  46  68  96 128 164 204 247 297
#     4   9  19  35  53  73 100 134 169 205 247 298
#
# _framework density 18.487791000000001
#
# number of rings (size 3 to 8) (size 9 to 14) (size 15 to 20)
#    0.000    2.500    0.000    2.625    0.000    4.500 
#    0.000    4.375    0.000    0.000    0.000    0.000 
#    0.000    0.000    0.000    0.000    0.000    0.000 
#
# Total GULP energy -793444.807703 kJ/mol
# GULP energy per Si atom -12397.575120 kJ/mol
# Density = 1.844571 g / cm^3
# Si number density = 18.487791 Si / 1000 Ang^3
#
#
#
# Elastic Constant Matrix: (Units=GPa)
#
#
# Indices 1 2 3 4 5 6 
#
# 1 135.0328 47.6468 40.4354 0.0000 0.0000 0.0000
# 2 47.6468 56.4679 23.5326 0.0000 0.0000 0.0000
# 3 40.4354 23.5326 56.5101 0.0000 0.0000 0.0000
# 4 0.0000 0.0000 0.0000 23.6747 0.0000 0.0000
# 5 0.0000 0.0000 0.0000 0.0000 33.3694 0.0000
# 6 0.0000 0.0000 0.0000 0.0000 0.0000 35.3103
#
#
#
# Elastic Compliance Matrix: (Units=1/GPa)
#
#
# Indices 1 2 3 4 5 6 
#
# 1 0.011660 -0.007698 -0.005138 0.000000 0.000000 0.000000
# 2 -0.007698 0.026509 -0.005531 0.000000 0.000000 0.000000
# 3 -0.005138 -0.005531 0.023676 0.000000 0.000000 0.000000
# 4 0.000000 0.000000 0.000000 0.042239 0.000000 0.000000
# 5 0.000000 0.000000 0.000000 0.000000 0.029968 0.000000
# 6 0.000000 0.000000 0.000000 0.000000 0.000000 0.028320
#
#
# Mechanical properties :
#
#
# Convention : Reuss Voigt Hill
#
# Bulk Modulus (GPa) = 39.82208 52.36006 46.09107
# Shear Modulus (GPa) = 24.09904 27.56394 25.83149
#
# Velocity S-wave (km/s) = 3.61433 3.86544 3.74199
# Velocity P-wave (km/s) = 6.24534 6.95019 6.60717
#
# Compressibility (1/GPa) = 0.02511170
#
# Stress axis : x y z
#
# Youngs Moduli (GPa) = 85.76136 37.72239 42.23721
#
# Poissons Ratio (x) = 0.29037 0.21701
# Poissons Ratio (y) = 0.66015 0.23363
# Poissons Ratio (z) = 0.44063 0.20866
#
# Static dielectric constant tensor:
#      x y z
#    x 3.985330 0.000000 0.000000 
#    y 0.000000 3.283440 0.000000 
#    z 0.000000 0.000000 3.381840 
# 
# 
# High freq. dielectric constant tensor:
#      x y z
#    x 1.736460 0.000000 0.000000 
#    y 0.000000 1.691920 0.000000 
#    z 0.000000 0.000000 1.719210 
# 
# From -- ./inp_files/8695.got.cif
#   From: 2010.03.12/outbox.cif.g09.slc.cpg/sg57_5_cif.got.tgz:8695.got - 2010.04.16 15:48:40.
