data_PCOD8230420
_publ_section_title
;
Structure prediction by ZEFSAII (Michael W. Deem and Ramdas Pophale) SiO2 
 PCOD8230420
Probable space group: P B C M
;
_chemical_formula_sum "Si O2"
_cell_formula_units_Z 40
_cell_length_a 14.444225
_cell_length_b 8.534308
_cell_length_c 16.531630
_cell_angle_alpha 90.000000
_cell_angle_beta 90.000000
_cell_angle_gamma 90.000000
_cell_volume 2037.878248
_symmetry_space_group_name_H-M "P B C M"
_symmetry_group_IT_number 57
_symmetry_cell_setting 'orthorhombic'
loop_
_space_group_symop_operation_xyz
x,y,z
-x,-y,1/2+z
x,1/2-y,-z
-x,1/2+y,1/2-z
-x,-y,-z
x,y,1/2-z
-x,1/2+y,z
x,1/2-y,1/2+z
loop_
_atom_site_type_symbol
_atom_site_label
_atom_site_fract_x
_atom_site_fract_y
_atom_site_fract_z
Si Si1 0.898112 0.903133 0.154409
Si Si2 0.910748 0.548717 0.153552
Si Si3 0.253169 0.857875 0.075450
Si Si4 0.708002 0.443820 0.843185
Si Si5 0.398787 0.433865 0.487225
O O1 0.900647 0.902096 0.250000
O O2 0.896754 0.725456 0.122512
O O3 0.807082 0.993156 0.124164
O O4 0.988607 0.993594 0.122954
O O5 0.899664 0.532580 0.250000
O O6 0.836235 0.441532 0.110198
O O7 0.295453 0.743711 0.144335
O O8 0.329974 0.984742 0.050974
O O9 0.224550 0.750000 0.000000
O O10 0.690636 0.486172 0.750000
O O11 0.629068 0.528848 0.894967
O O12 0.396912 0.250000 0.500000
O O13 0.500000 0.500000 0.500000
#
# Coordination Sequence:
#
# PCOD8230420 Si02
#       5
#     8   8   8   8   8
#     4   9  18  31  53  81 112 148 188 231 277 325
#     4  10  18  32  52  78 111 150 190 231 277 333
#     4  10  21  36  56  82 112 146 185 231 288 338
#     4  10  20  38  61  87 115 150 194 236 276 337
#     4  11  23  43  64  84 115 150 184 233 295 345
#
# _framework density 19.628257999999999
#
# number of rings (size 3 to 8) (size 9 to 14) (size 15 to 20)
#    0.000    2.000    0.000    4.800    0.000    3.200 
#    0.000   16.000    0.000    0.000    0.000    0.000 
#    0.000    0.000    0.000    0.000    0.000    0.000 
#
# Total GULP energy -496061.669757 kJ/mol
# GULP energy per Si atom -12401.541744 kJ/mol
# Density = 1.958358 g / cm^3
# Si number density = 19.628258 Si / 1000 Ang^3
#
#
#
# Elastic Constant Matrix: (Units=GPa)
#
#
# Indices 1 2 3 4 5 6 
#
# 1 147.8693 70.6530 65.5584 0.0000 0.0000 0.0000
# 2 70.6530 168.4749 44.2042 0.0000 0.0000 0.0000
# 3 65.5584 44.2042 72.3318 0.0000 0.0000 0.0000
# 4 0.0000 0.0000 0.0000 27.9109 0.0000 0.0000
# 5 0.0000 0.0000 0.0000 0.0000 26.4041 0.0000
# 6 0.0000 0.0000 0.0000 0.0000 0.0000 41.2598
#
#
#
# Elastic Compliance Matrix: (Units=1/GPa)
#
#
# Indices 1 2 3 4 5 6 
#
# 1 0.012220 -0.002642 -0.009461 0.000000 0.000000 0.000000
# 2 -0.002642 0.007640 -0.002274 0.000000 0.000000 0.000000
# 3 -0.009461 -0.002274 0.023790 0.000000 0.000000 0.000000
# 4 0.000000 0.000000 0.000000 0.035828 0.000000 0.000000
# 5 0.000000 0.000000 0.000000 0.000000 0.037873 0.000000
# 6 0.000000 0.000000 0.000000 0.000000 0.000000 0.024237
#
#
# Mechanical properties :
#
#
# Convention : Reuss Voigt Hill
#
# Bulk Modulus (GPa) = 67.13536 83.27857 75.20696
# Shear Modulus (GPa) = 28.52134 32.99898 30.76016
#
# Velocity S-wave (km/s) = 3.81606 4.10469 3.96300
# Velocity P-wave (km/s) = 7.32762 8.06130 7.70320
#
# Compressibility (1/GPa) = 0.01489528
#
# Stress axis : x y z
#
# Youngs Moduli (GPa) = 81.83591 130.88218 42.03483
#
# Poissons Ratio (x) = 0.34582 0.39767
# Poissons Ratio (y) = 0.21623 0.09561
# Poissons Ratio (z) = 0.77421 0.29769
#
# Static dielectric constant tensor:
#      x y z
#    x 3.629280 0.000000 0.000000 
#    y 0.000000 3.580290 0.000000 
#    z 0.000000 0.000000 3.452110 
# 
# 
# High freq. dielectric constant tensor:
#      x y z
#    x 1.763320 0.000000 0.000000 
#    y 0.000000 1.784490 0.000000 
#    z 0.000000 0.000000 1.751810 
# 
# From -- ./inp_files/18199.got.cif
#   From: 2010.03.12/outbox.cif.g09.slc.cpg/sg57_10_cif.got.tgz:18199.got - 2010.04.16 15:48:40.
