data_PCOD8230886
_publ_section_title
;
Structure prediction by ZEFSAII (Michael W. Deem and Ramdas Pophale) SiO2 
 PCOD8230886
Probable space group: P B C M
;
_chemical_formula_sum "Si O2"
_cell_formula_units_Z 64
_cell_length_a 16.315103
_cell_length_b 24.034380
_cell_length_c 9.088434
_cell_angle_alpha 90.000000
_cell_angle_beta 90.000000
_cell_angle_gamma 90.000000
_cell_volume 3563.787507
_symmetry_space_group_name_H-M "P B C M"
_symmetry_group_IT_number 57
_symmetry_cell_setting 'orthorhombic'
loop_
_space_group_symop_operation_xyz
x,y,z
-x,-y,1/2+z
x,1/2-y,-z
-x,1/2+y,1/2-z
-x,-y,-z
x,y,1/2-z
-x,1/2+y,z
x,1/2-y,1/2+z
loop_
_atom_site_type_symbol
_atom_site_label
_atom_site_fract_x
_atom_site_fract_y
_atom_site_fract_z
Si Si1 0.384721 0.613381 0.413302
Si Si2 0.860631 0.394637 0.081634
Si Si3 0.794677 0.907484 0.078571
Si Si4 0.029362 0.446156 0.083400
Si Si5 0.232256 0.805502 0.915060
Si Si6 0.261059 0.527390 0.422964
Si Si7 0.292007 0.192949 0.422792
Si Si8 0.519897 0.807215 0.923877
O O1 0.413204 0.597531 0.250000
O O2 0.313865 0.658736 0.413611
O O3 0.345449 0.556823 0.484422
O O4 0.464485 0.641672 0.489982
O O5 0.830411 0.391792 0.250000
O O6 0.958636 0.399975 0.072525
O O7 0.839894 0.337750 0.998819
O O8 0.817677 0.447677 0.005491
O O9 0.794165 0.890580 0.250000
O O10 0.886233 0.920839 0.020658
O O11 0.736552 0.961296 0.051095
O O12 0.762535 0.856979 0.982291
O O13 0.046303 0.464898 0.250000
O O14 0.000000 0.500000 0.000000
O O15 0.202560 0.792160 0.750000
O O16 0.253636 0.750000 0.000000
O O17 0.251289 0.542113 0.250000
O O18 0.264444 0.250000 0.500000
O O19 0.278119 0.199716 0.250000
O O20 0.386221 0.179148 0.461208
O O21 0.504611 0.800212 0.750000
O O22 0.492412 0.750000 0.000000
#
# Coordination Sequence:
#
# PCOD8230886 Si02
#       8
#     8   8   8   8   8   8   8   8
#     4   8  15  28  48  74 102 134 170 207 249 298
#     4  10  19  31  48  73 103 132 166 210 252 294
#     4  10  20  35  55  78 105 136 171 210 255 309
#     4  10  20  33  53  79 104 131 168 211 251 298
#     4  10  19  31  48  70 100 138 174 207 250 305
#     4   9  17  31  51  74 104 140 171 202 248 304
#     4  10  21  37  57  78 101 132 170 216 264 308
#     4   9  17  31  51  74 100 130 171 217 258 302
#
# _framework density 17.958421999999999
#
# number of rings (size 3 to 8) (size 9 to 14) (size 15 to 20)
#    0.000    2.500    1.250    2.250    0.000    2.000 
#    0.000    3.750    0.000    0.000    0.000    0.000 
#    0.000    0.000    0.000    0.000    0.000    0.000 
#
# Total GULP energy -793285.043248 kJ/mol
# GULP energy per Si atom -12395.078801 kJ/mol
# Density = 1.791755 g / cm^3
# Si number density = 17.958422 Si / 1000 Ang^3
#
#
#
# Elastic Constant Matrix: (Units=GPa)
#
#
# Indices 1 2 3 4 5 6 
#
# 1 96.4693 55.4300 31.3434 0.0000 0.0000 0.0000
# 2 55.4300 106.5320 42.3341 0.0000 0.0000 0.0000
# 3 31.3434 42.3341 74.2596 0.0000 0.0000 0.0000
# 4 0.0000 0.0000 0.0000 31.9753 0.0000 0.0000
# 5 0.0000 0.0000 0.0000 0.0000 20.3020 0.0000
# 6 0.0000 0.0000 0.0000 0.0000 0.0000 27.2449
#
#
#
# Elastic Compliance Matrix: (Units=1/GPa)
#
#
# Indices 1 2 3 4 5 6 
#
# 1 0.015125 -0.006895 -0.002453 0.000000 0.000000 0.000000
# 2 -0.006895 0.015279 -0.005800 0.000000 0.000000 0.000000
# 3 -0.002453 -0.005800 0.017808 0.000000 0.000000 0.000000
# 4 0.000000 0.000000 0.000000 0.031274 0.000000 0.000000
# 5 0.000000 0.000000 0.000000 0.000000 0.049256 0.000000
# 6 0.000000 0.000000 0.000000 0.000000 0.000000 0.036704
#
#
# Mechanical properties :
#
#
# Convention : Reuss Voigt Hill
#
# Bulk Modulus (GPa) = 55.81678 59.49733 57.65706
# Shear Modulus (GPa) = 24.78742 25.78132 25.28437
#
# Velocity S-wave (km/s) = 3.71922 3.79306 3.75632
# Velocity P-wave (km/s) = 7.04217 7.23779 7.14065
#
# Compressibility (1/GPa) = 0.01791576
#
# Stress axis : x y z
#
# Youngs Moduli (GPa) = 66.11720 65.44850 56.15325
#
# Poissons Ratio (x) = 0.45125 0.13776
# Poissons Ratio (y) = 0.45586 0.32571
# Poissons Ratio (z) = 0.16220 0.37962
#
# Static dielectric constant tensor:
#      x y z
#    x 3.424460 0.000000 0.000000 
#    y 0.000000 3.341370 0.000000 
#    z 0.000000 0.000000 3.320970 
# 
# 
# High freq. dielectric constant tensor:
#      x y z
#    x 1.687570 0.000000 0.000000 
#    y 0.000000 1.688370 0.000000 
#    z 0.000000 0.000000 1.685630 
# 
# From -- ./inp_files/7212.got.cif
#   From: 2010.03.12/outbox.cif.g09.slc.cpg/sg57_4_cif.got.tgz:7212.got - 2010.04.16 15:48:40.
