data_PCOD8230814
_publ_section_title
;
Structure prediction by ZEFSAII (Michael W. Deem and Ramdas Pophale) SiO2 
 PCOD8230814
Probable space group: P B C M
;
_chemical_formula_sum "Si O2"
_cell_formula_units_Z 56
_cell_length_a 16.760284
_cell_length_b 21.097061
_cell_length_c 9.661259
_cell_angle_alpha 90.000000
_cell_angle_beta 90.000000
_cell_angle_gamma 90.000000
_cell_volume 3416.150983
_symmetry_space_group_name_H-M "P B C M"
_symmetry_group_IT_number 57
_symmetry_cell_setting 'orthorhombic'
loop_
_space_group_symop_operation_xyz
x,y,z
-x,-y,1/2+z
x,1/2-y,-z
-x,1/2+y,1/2-z
-x,-y,-z
x,y,1/2-z
-x,1/2+y,z
x,1/2-y,1/2+z
loop_
_atom_site_type_symbol
_atom_site_label
_atom_site_fract_x
_atom_site_fract_y
_atom_site_fract_z
Si Si1 0.121418 0.483665 0.090098
Si Si2 0.143681 0.690455 0.594075
Si Si3 0.033023 0.581746 0.905416
Si Si4 0.701872 0.998354 0.091600
Si Si5 0.540015 0.188431 0.910065
Si Si6 0.462570 0.056492 0.589877
Si Si7 0.300396 0.880828 0.090770
O O1 0.118275 0.502565 0.250000
O O2 0.212604 0.468097 0.046358
O O3 0.061351 0.424821 0.058186
O O4 0.089728 0.543508 0.007074
O O5 0.135427 0.750000 0.500000
O O6 0.162009 0.712537 0.750000
O O7 0.058988 0.654597 0.583485
O O8 0.215520 0.646087 0.541480
O O9 0.048925 0.556174 0.750000
O O10 0.705477 0.021832 0.250000
O O11 0.633526 0.945374 0.073136
O O12 0.678105 0.058334 0.999522
O O13 0.520999 0.203872 0.750000
O O14 0.490780 0.126124 0.959775
O O15 0.633444 0.173438 0.931725
O O16 0.516005 0.250000 0.000000
O O17 0.488527 0.046208 0.750000
O O18 0.500000 0.000000 0.500000
O O19 0.297958 0.902870 0.250000
#
# Coordination Sequence:
#
# PCOD8230814 Si02
#       7
#     8   8   8   8   8   8   8
#     4   9  17  29  47  71  95 120 152 192 236 281
#     4  10  20  31  45  66  95 130 163 194 233 282
#     4   9  17  30  47  67  93 124 157 191 232 278
#     4  10  19  30  49  76 102 127 158 199 246 294
#     4  10  21  35  51  71  98 132 169 206 246 295
#     4  10  20  34  52  75 101 130 165 206 251 298
#     4  10  19  32  48  70 100 131 160 196 243 293
#
# _framework density 16.392717999999999
#
# number of rings (size 3 to 8) (size 9 to 14) (size 15 to 20)
#    0.000    2.286    2.857    0.429    0.000    2.286 
#    0.000    0.000    0.000    0.857    0.000    0.000 
#    0.000    0.000    0.000    0.000    0.000    0.000 
#
# Total GULP energy -694130.340957 kJ/mol
# GULP energy per Si atom -12395.184660 kJ/mol
# Density = 1.635541 g / cm^3
# Si number density = 16.392718 Si / 1000 Ang^3
#
#
#
# Elastic Constant Matrix: (Units=GPa)
#
#
# Indices 1 2 3 4 5 6 
#
# 1 105.7564 49.7826 34.1602 0.0000 0.0000 0.0000
# 2 49.7826 101.7367 46.9190 0.0000 0.0000 0.0000
# 3 34.1602 46.9190 52.1115 0.0000 0.0000 0.0000
# 4 0.0000 0.0000 0.0000 28.4091 0.0000 0.0000
# 5 0.0000 0.0000 0.0000 0.0000 17.6378 0.0000
# 6 0.0000 0.0000 0.0000 0.0000 0.0000 19.8214
#
#
#
# Elastic Compliance Matrix: (Units=1/GPa)
#
#
# Indices 1 2 3 4 5 6 
#
# 1 0.012940 -0.004138 -0.004757 0.000000 0.000000 0.000000
# 2 -0.004138 0.018132 -0.013613 0.000000 0.000000 0.000000
# 3 -0.004757 -0.013613 0.034564 0.000000 0.000000 0.000000
# 4 0.000000 0.000000 0.000000 0.035200 0.000000 0.000000
# 5 0.000000 0.000000 0.000000 0.000000 0.056696 0.000000
# 6 0.000000 0.000000 0.000000 0.000000 0.000000 0.050451
#
#
# Mechanical properties :
#
#
# Convention : Reuss Voigt Hill
#
# Bulk Modulus (GPa) = 48.49403 57.92537 53.20970
# Shear Modulus (GPa) = 19.24021 21.75649 20.49835
#
# Velocity S-wave (km/s) = 3.42965 3.64703 3.54001
# Velocity P-wave (km/s) = 6.73277 7.29021 7.01703
#
# Compressibility (1/GPa) = 0.02062110
#
# Stress axis : x y z
#
# Youngs Moduli (GPa) = 77.27896 55.15035 28.93188
#
# Poissons Ratio (x) = 0.22823 0.13762
# Poissons Ratio (y) = 0.31981 0.39384
# Poissons Ratio (z) = 0.36758 0.75075
#
# Static dielectric constant tensor:
#      x y z
#    x 3.538640 0.000000 0.000000 
#    y 0.000000 2.885100 0.000000 
#    z 0.000000 0.000000 3.144930 
# 
# 
# High freq. dielectric constant tensor:
#      x y z
#    x 1.638590 0.000000 0.000000 
#    y 0.000000 1.599120 0.000000 
#    z 0.000000 0.000000 1.634320 
# 
# From -- ./inp_files/6988.got.cif
#   From: 2010.03.12/outbox.cif.g09.slc.cpg/sg57_4_cif.got.tgz:6988.got - 2010.04.16 15:48:40.
