data_PCOD8230268
_publ_section_title
;
Structure prediction by ZEFSAII (Michael W. Deem and Ramdas Pophale) SiO2 
 PCOD8230268
Probable space group: P B C M
;
_chemical_formula_sum "Si O2"
_cell_formula_units_Z 48
_cell_length_a 9.670053
_cell_length_b 7.965466
_cell_length_c 32.950973
_cell_angle_alpha 90.000000
_cell_angle_beta 90.000000
_cell_angle_gamma 90.000000
_cell_volume 2538.097410
_symmetry_space_group_name_H-M "P B C M"
_symmetry_group_IT_number 57
_symmetry_cell_setting 'orthorhombic'
loop_
_space_group_symop_operation_xyz
x,y,z
-x,-y,1/2+z
x,1/2-y,-z
-x,1/2+y,1/2-z
-x,-y,-z
x,y,1/2-z
-x,1/2+y,z
x,1/2-y,1/2+z
loop_
_atom_site_type_symbol
_atom_site_label
_atom_site_fract_x
_atom_site_fract_y
_atom_site_fract_z
Si Si1 0.936568 0.081517 0.414806
Si Si2 0.192098 0.227284 0.953221
Si Si3 0.861782 0.112451 0.866658
Si Si4 0.361285 0.334199 0.883371
Si Si5 0.692316 0.280736 0.296914
Si Si6 0.436993 0.028060 0.835366
O O1 0.846199 0.966549 0.444570
O O2 0.988364 0.969354 0.375919
O O3 0.841430 0.230219 0.397318
O O4 0.066264 0.151896 0.440197
O O5 0.334546 0.272252 0.929332
O O6 0.225991 0.250000 0.000000
O O7 0.835181 0.174293 0.820634
O O8 0.750671 0.972811 0.874969
O O9 0.341703 0.177013 0.852627
O O10 0.511062 0.416622 0.874350
O O11 0.724432 0.306267 0.250000
O O12 0.567228 0.402235 0.310129
O O13 0.653304 0.087333 0.305708
#
# Coordination Sequence:
#
# PCOD8230268 Si02
#       6
#     8   8   8   8   8   8
#     4   9  18  32  50  70  97 128 159 193 239 291
#     4  10  18  30  49  75  98 122 159 204 240 277
#     4   9  18  32  51  71  94 128 162 192 235 291
#     4   9  18  32  50  70  94 129 163 191 237 294
#     4  10  18  30  49  75  97 120 156 199 234 269
#     4   9  18  32  50  69  97 129 158 191 235 288
#
# _framework density 18.911804
#
# number of rings (size 3 to 8) (size 9 to 14) (size 15 to 20)
#    0.000    2.667    0.000    2.000    0.000    0.000 
#    0.000    2.500    0.000    0.000    0.000    0.000 
#    0.000    0.000    0.000    0.000    0.000    0.000 
#
# Total GULP energy -594755.480626 kJ/mol
# GULP energy per Si atom -12390.739180 kJ/mol
# Density = 1.886876 g / cm^3
# Si number density = 18.911804 Si / 1000 Ang^3
#
#
#
# Elastic Constant Matrix: (Units=GPa)
#
#
# Indices 1 2 3 4 5 6 
#
# 1 18.0224 13.2558 24.2582 0.0000 0.0000 0.0000
# 2 13.2558 109.8013 38.3341 0.0000 0.0000 0.0000
# 3 24.2582 38.3341 137.1739 0.0000 0.0000 0.0000
# 4 0.0000 0.0000 0.0000 23.3147 0.0000 0.0000
# 5 0.0000 0.0000 0.0000 0.0000 28.8378 0.0000
# 6 0.0000 0.0000 0.0000 0.0000 0.0000 26.3116
#
#
#
# Elastic Compliance Matrix: (Units=1/GPa)
#
#
# Indices 1 2 3 4 5 6 
#
# 1 0.075136 -0.004911 -0.011915 0.000000 0.000000 0.000000
# 2 -0.004911 0.010413 -0.002041 0.000000 0.000000 0.000000
# 3 -0.011915 -0.002041 0.009968 0.000000 0.000000 0.000000
# 4 0.000000 0.000000 0.000000 0.042891 0.000000 0.000000
# 5 0.000000 0.000000 0.000000 0.000000 0.034677 0.000000
# 6 0.000000 0.000000 0.000000 0.000000 0.000000 0.038006
#
#
# Mechanical properties :
#
#
# Convention : Reuss Voigt Hill
#
# Bulk Modulus (GPa) = 17.30643 46.29929 31.80286
# Shear Modulus (GPa) = 18.65069 28.30277 23.47673
#
# Velocity S-wave (km/s) = 3.14378 3.87275 3.52714
# Velocity P-wave (km/s) = 4.72745 6.67326 5.78278
#
# Compressibility (1/GPa) = 0.05778201
#
# Stress axis : x y z
#
# Youngs Moduli (GPa) = 13.30915 96.03397 100.32524
#
# Poissons Ratio (x) = 0.47163 1.19536
# Poissons Ratio (y) = 0.06536 0.20481
# Poissons Ratio (z) = 0.15858 0.19605
#
# Static dielectric constant tensor:
#      x y z
#    x 3.557250 0.000000 0.000000 
#    y 0.000000 3.885220 0.000000 
#    z 0.000000 0.000000 3.471290 
# 
# 
# High freq. dielectric constant tensor:
#      x y z
#    x 1.702530 0.000000 0.000000 
#    y 0.000000 1.762930 0.000000 
#    z 0.000000 0.000000 1.710360 
# 
# From -- ./inp_files/28504.got.cif
#   From: 2010.03.12/outbox.cif.g09.slc.cpg/sg57_15_cif.got.tgz:28504.got - 2010.04.16 15:48:40.
