data_PCOD8230977
_publ_section_title
;
Structure prediction by ZEFSAII (Michael W. Deem and Ramdas Pophale) SiO2 
 PCOD8230977
Probable space group: P B C M
;
_chemical_formula_sum "Si O2"
_cell_formula_units_Z 64
_cell_length_a 19.032845
_cell_length_b 21.217643
_cell_length_c 9.459649
_cell_angle_alpha 90.000000
_cell_angle_beta 90.000000
_cell_angle_gamma 90.000000
_cell_volume 3820.110020
_symmetry_space_group_name_H-M "P B C M"
_symmetry_group_IT_number 57
_symmetry_cell_setting 'orthorhombic'
loop_
_space_group_symop_operation_xyz
x,y,z
-x,-y,1/2+z
x,1/2-y,-z
-x,1/2+y,1/2-z
-x,-y,-z
x,y,1/2-z
-x,1/2+y,z
x,1/2-y,1/2+z
loop_
_atom_site_type_symbol
_atom_site_label
_atom_site_fract_x
_atom_site_fract_y
_atom_site_fract_z
Si Si1 0.666755 0.883106 0.908583
Si Si2 0.902350 0.616014 0.907024
Si Si3 0.805051 0.691492 0.410966
Si Si4 0.162847 0.521011 0.413095
Si Si5 0.960010 0.447226 0.412582
Si Si6 0.535804 0.056455 0.413416
Si Si7 0.680896 0.002630 0.411746
Si Si8 0.468832 0.187881 0.085906
O O1 0.651277 0.906660 0.750000
O O2 0.746570 0.861853 0.924461
O O3 0.613483 0.826059 0.944083
O O4 0.652671 0.941214 0.009724
O O5 0.880897 0.639065 0.750000
O O6 0.864396 0.549677 0.936695
O O7 0.987285 0.612416 0.917268
O O8 0.877339 0.666205 0.022370
O O9 0.777071 0.750000 0.500000
O O10 0.818981 0.711337 0.250000
O O11 0.154918 0.541946 0.250000
O O12 0.114733 0.566761 0.511391
O O13 0.243448 0.527301 0.467173
O O14 0.947665 0.468656 0.250000
O O15 0.000000 0.500000 0.500000
O O16 0.514321 0.046670 0.250000
O O17 0.511481 0.125649 0.465408
O O18 0.500000 0.000000 0.500000
O O19 0.620669 0.055261 0.431012
O O20 0.691335 0.982448 0.250000
O O21 0.483693 0.201928 0.250000
O O22 0.492248 0.250000 0.000000
#
# Coordination Sequence:
#
# PCOD8230977 Si02
#       8
#     8   8   8   8   8   8   8   8
#     4  10  20  33  48  70  98 130 169 211 246 291
#     4   9  17  30  45  63  90 122 157 198 238 281
#     4  11  22  32  45  65  92 129 169 205 244 288
#     4   9  17  29  45  68  96 123 156 195 236 290
#     4   9  17  28  44  66  92 122 153 188 232 278
#     4  10  20  34  53  76 103 133 169 213 259 309
#     4  10  19  31  50  74 100 134 166 201 256 307
#     4  10  21  36  52  73 101 132 172 215 255 304
#
# _framework density 16.753443999999998
#
# number of rings (size 3 to 8) (size 9 to 14) (size 15 to 20)
#    0.000    2.250    2.500    1.875    0.000    4.500 
#    0.000    0.000    0.000    0.000    0.000    0.875 
#    0.000    4.000    0.000    0.000    0.000    0.000 
#
# Total GULP energy -793282.564260 kJ/mol
# GULP energy per Si atom -12395.040067 kJ/mol
# Density = 1.671531 g / cm^3
# Si number density = 16.753444 Si / 1000 Ang^3
#
#
#
# Elastic Constant Matrix: (Units=GPa)
#
#
# Indices 1 2 3 4 5 6 
#
# 1 105.7695 38.3366 43.4261 0.0000 0.0000 0.0000
# 2 38.3366 71.7993 42.4875 0.0000 0.0000 0.0000
# 3 43.4261 42.4875 87.5114 0.0000 0.0000 0.0000
# 4 0.0000 0.0000 0.0000 26.2312 0.0000 0.0000
# 5 0.0000 0.0000 0.0000 0.0000 24.2645 0.0000
# 6 0.0000 0.0000 0.0000 0.0000 0.0000 18.0600
#
#
#
# Elastic Compliance Matrix: (Units=1/GPa)
#
#
# Indices 1 2 3 4 5 6 
#
# 1 0.012755 -0.004300 -0.004241 0.000000 0.000000 0.000000
# 2 -0.004300 0.020992 -0.008058 0.000000 0.000000 0.000000
# 3 -0.004241 -0.008058 0.017444 0.000000 0.000000 0.000000
# 4 0.000000 0.000000 0.000000 0.038122 0.000000 0.000000
# 5 0.000000 0.000000 0.000000 0.000000 0.041212 0.000000
# 6 0.000000 0.000000 0.000000 0.000000 0.000000 0.055371
#
#
# Mechanical properties :
#
#
# Convention : Reuss Voigt Hill
#
# Bulk Modulus (GPa) = 55.58193 57.06449 56.32321
# Shear Modulus (GPa) = 22.21304 23.09982 22.65643
#
# Velocity S-wave (km/s) = 3.64521 3.71726 3.68141
# Velocity P-wave (km/s) = 7.13899 7.24978 7.19460
#
# Compressibility (1/GPa) = 0.01799146
#
# Stress axis : x y z
#
# Youngs Moduli (GPa) = 78.40311 47.63692 57.32636
#
# Poissons Ratio (x) = 0.20485 0.24314
# Poissons Ratio (y) = 0.33716 0.46193
# Poissons Ratio (z) = 0.33254 0.38385
#
# Static dielectric constant tensor:
#      x y z
#    x 3.536350 0.000000 0.000000 
#    y 0.000000 2.821540 0.000000 
#    z 0.000000 0.000000 3.293600 
# 
# 
# High freq. dielectric constant tensor:
#      x y z
#    x 1.650530 0.000000 0.000000 
#    y 0.000000 1.598580 0.000000 
#    z 0.000000 0.000000 1.652840 
# 
# From -- ./inp_files/7388.got.cif
#   From: 2010.03.12/outbox.cif.g09.slc.cpg/sg57_4_cif.got.tgz:7388.got - 2010.04.16 15:48:40.
