data_PCOD8230544
_publ_section_title
;
Structure prediction by ZEFSAII (Michael W. Deem and Ramdas Pophale) SiO2 
 PCOD8230544
Probable space group: P B C M
;
_chemical_formula_sum "Si O2"
_cell_formula_units_Z 48
_cell_length_a 11.330150
_cell_length_b 17.012005
_cell_length_c 13.798348
_cell_angle_alpha 90.000000
_cell_angle_beta 90.000000
_cell_angle_gamma 90.000000
_cell_volume 2659.611824
_symmetry_space_group_name_H-M "P B C M"
_symmetry_group_IT_number 57
_symmetry_cell_setting 'orthorhombic'
loop_
_space_group_symop_operation_xyz
x,y,z
-x,-y,1/2+z
x,1/2-y,-z
-x,1/2+y,1/2-z
-x,-y,-z
x,y,1/2-z
-x,1/2+y,z
x,1/2-y,1/2+z
loop_
_atom_site_type_symbol
_atom_site_label
_atom_site_fract_x
_atom_site_fract_y
_atom_site_fract_z
Si Si1 0.219562 0.523189 0.750000
Si Si2 0.401496 0.665266 0.750000
Si Si3 0.341491 0.552020 0.426906
Si Si4 0.338175 0.357880 0.750000
Si Si5 0.617253 0.157585 0.250000
Si Si6 0.537456 0.895214 0.073981
Si Si7 0.871284 0.510058 0.457637
Si Si8 0.252643 0.328413 0.954401
O O1 0.296372 0.602309 0.750000
O O2 0.311633 0.451094 0.750000
O O3 0.137708 0.519223 0.845905
O O4 0.343393 0.751575 0.750000
O O5 0.488485 0.658615 0.840945
O O6 0.327500 0.616835 0.344247
O O7 0.394288 0.471152 0.382830
O O8 0.426080 0.579161 0.512027
O O9 0.214132 0.540544 0.474517
O O10 0.477493 0.350652 0.750000
O O11 0.281369 0.314769 0.841813
O O12 0.624597 0.844885 0.008115
O O13 0.840106 0.601756 0.465975
O O14 0.000000 0.500000 0.500000
O O15 0.195089 0.250000 0.000000
#
# Coordination Sequence:
#
# PCOD8230544 Si02
#       8
#     4   4   8   4   4   8   8   8
#     4  10  20  39  60  81 108 149 203 230 277 357
#     4  12  22  32  53  87 122 156 183 222 298 361
#     4  10  20  35  55  82 112 147 193 238 283 343
#     4  10  18  34  59  81 115 156 184 220 287 362
#     4  12  22  31  52  87 125 151 180 236 288 346
#     4  10  19  33  56  81 114 148 185 232 289 355
#     4  10  22  41  63  81 107 158 200 238 282 333
#     4  10  20  35  58  89 116 143 191 242 286 334
#
# _framework density 18.047746
#
# number of rings (size 3 to 8) (size 9 to 14) (size 15 to 20)
#    0.000    1.667    3.333    2.500    0.000    0.667 
#    0.000    4.167    0.000    0.000    0.000    0.000 
#    0.000    0.000    0.000    0.000    0.000    0.000 
#
# Total GULP energy -595299.862344 kJ/mol
# GULP energy per Si atom -12402.080466 kJ/mol
# Density = 1.800667 g / cm^3
# Si number density = 18.047746 Si / 1000 Ang^3
#
#
#
# Elastic Constant Matrix: (Units=GPa)
#
#
# Indices 1 2 3 4 5 6 
#
# 1 112.9666 39.2179 60.9833 0.0000 0.0000 0.0000
# 2 39.2179 119.3991 71.5480 0.0000 0.0000 0.0000
# 3 60.9833 71.5480 137.8858 0.0000 0.0000 0.0000
# 4 0.0000 0.0000 0.0000 50.1465 0.0000 0.0000
# 5 0.0000 0.0000 0.0000 0.0000 22.6570 0.0000
# 6 0.0000 0.0000 0.0000 0.0000 0.0000 13.6929
#
#
#
# Elastic Compliance Matrix: (Units=1/GPa)
#
#
# Indices 1 2 3 4 5 6 
#
# 1 0.011724 -0.001079 -0.004625 0.000000 0.000000 0.000000
# 2 -0.001079 0.012254 -0.005881 0.000000 0.000000 0.000000
# 3 -0.004625 -0.005881 0.012350 0.000000 0.000000 0.000000
# 4 0.000000 0.000000 0.000000 0.019942 0.000000 0.000000
# 5 0.000000 0.000000 0.000000 0.000000 0.044137 0.000000
# 6 0.000000 0.000000 0.000000 0.000000 0.000000 0.073030
#
#
# Mechanical properties :
#
#
# Convention : Reuss Voigt Hill
#
# Bulk Modulus (GPa) = 76.00948 79.30557 77.65752
# Shear Modulus (GPa) = 24.87662 30.53276 27.70469
#
# Velocity S-wave (km/s) = 3.71668 4.11758 3.92226
# Velocity P-wave (km/s) = 7.78624 8.16355 7.97712
#
# Compressibility (1/GPa) = 0.01315625
#
# Stress axis : x y z
#
# Youngs Moduli (GPa) = 85.29801 81.60624 80.97432
#
# Poissons Ratio (x) = 0.08808 0.37451
# Poissons Ratio (y) = 0.09206 0.47622
# Poissons Ratio (z) = 0.39450 0.47994
#
# Static dielectric constant tensor:
#      x y z
#    x 2.991500 0.000000 0.000000 
#    y 0.000000 3.497010 0.000000 
#    z 0.000000 0.000000 3.522240 
# 
# 
# High freq. dielectric constant tensor:
#      x y z
#    x 1.666140 0.000000 0.000000 
#    y 0.000000 1.700280 0.000000 
#    z 0.000000 0.000000 1.714990 
# 
# From -- ./inp_files/12982.got.cif
#   From: 2010.03.12/outbox.cif.g09.slc.cpg/sg57_7_cif.got.tgz:12982.got - 2010.04.16 15:48:40.
