data_PCOD8230458
_publ_section_title
;
Structure prediction by ZEFSAII (Michael W. Deem and Ramdas Pophale) SiO2 
 PCOD8230458
Probable space group: P B C M
;
_chemical_formula_sum "Si O2"
_cell_formula_units_Z 64
_cell_length_a 12.416449
_cell_length_b 15.386194
_cell_length_c 17.344647
_cell_angle_alpha 90.000000
_cell_angle_beta 90.000000
_cell_angle_gamma 90.000000
_cell_volume 3313.554198
_symmetry_space_group_name_H-M "P B C M"
_symmetry_group_IT_number 57
_symmetry_cell_setting 'orthorhombic'
loop_
_space_group_symop_operation_xyz
x,y,z
-x,-y,1/2+z
x,1/2-y,-z
-x,1/2+y,1/2-z
-x,-y,-z
x,y,1/2-z
-x,1/2+y,z
x,1/2-y,1/2+z
loop_
_atom_site_type_symbol
_atom_site_label
_atom_site_fract_x
_atom_site_fract_y
_atom_site_fract_z
Si Si1 0.355717 0.135663 0.340916
Si Si2 0.416884 0.324945 0.162294
Si Si3 0.858396 0.592619 0.414290
Si Si4 0.243644 0.541648 0.015972
Si Si5 0.006921 0.940322 0.162076
Si Si6 0.754161 0.961921 0.166002
Si Si7 0.559836 0.465201 0.425566
Si Si8 0.952325 0.343274 0.011104
O O1 0.365725 0.131656 0.250000
O O2 0.411699 0.225935 0.370803
O O3 0.228511 0.142314 0.361654
O O4 0.413971 0.049031 0.372681
O O5 0.458438 0.322551 0.250000
O O6 0.296873 0.365867 0.157419
O O7 0.497609 0.388030 0.116596
O O8 0.789854 0.551958 0.483609
O O9 0.921980 0.523022 0.361994
O O10 0.941598 0.655538 0.457541
O O11 0.295195 0.525995 0.100953
O O12 0.330503 0.581314 0.956637
O O13 0.134831 0.593979 0.025448
O O14 0.037284 0.912690 0.250000
O O15 0.029862 0.863029 0.101643
O O16 0.881677 0.960836 0.156069
O O17 0.723319 0.000330 0.250000
O O18 0.500000 0.500000 0.500000
O O19 0.900371 0.250000 0.000000
#
# Coordination Sequence:
#
# PCOD8230458 Si02
#       8
#     8   8   8   8   8   8   8   8
#     4  10  23  40  61  93 124 153 201 261 310 365
#     4  10  22  40  61  91 122 154 203 262 314 355
#     4  10  19  35  61  84 116 155 197 247 298 363
#     4  10  19  39  55  82 115 151 208 239 292 359
#     4  10  19  35  58  84 116 163 202 237 302 372
#     4  10  18  32  57  84 118 155 193 246 300 353
#     4  11  22  39  64  87 115 162 206 249 309 369
#     4  11  22  36  55  85 124 160 191 249 302 359
#
# _framework density 19.314608
#
# number of rings (size 3 to 8) (size 9 to 14) (size 15 to 20)
#    0.000    1.750    3.750    1.500    1.750    0.500 
#    2.250    1.875    0.000    0.000    0.000    0.000 
#    0.000    0.000    0.000    0.000    0.000    0.000 
#
# Total GULP energy -792969.183957 kJ/mol
# GULP energy per Si atom -12390.143499 kJ/mol
# Density = 1.927065 g / cm^3
# Si number density = 19.314608 Si / 1000 Ang^3
#
#
#
# Elastic Constant Matrix: (Units=GPa)
#
#
# Indices 1 2 3 4 5 6 
#
# 1 86.4213 43.5457 36.3142 0.0000 0.0000 0.0000
# 2 43.5457 89.3154 65.7515 0.0000 0.0000 0.0000
# 3 36.3142 65.7515 126.3311 0.0000 0.0000 0.0000
# 4 0.0000 0.0000 0.0000 21.1492 0.0000 0.0000
# 5 0.0000 0.0000 0.0000 0.0000 24.5253 0.0000
# 6 0.0000 0.0000 0.0000 0.0000 0.0000 -23.2821
#
#
#
# Elastic Compliance Matrix: (Units=1/GPa)
#
#
# Indices 1 2 3 4 5 6 
#
# 1 0.015395 -0.006886 -0.000841 0.000000 0.000000 0.000000
# 2 -0.006886 0.021231 -0.009071 0.000000 0.000000 0.000000
# 3 -0.000841 -0.009071 0.012879 0.000000 0.000000 0.000000
# 4 0.000000 0.000000 0.000000 0.047283 0.000000 0.000000
# 5 0.000000 0.000000 0.000000 0.000000 0.040774 0.000000
# 6 0.000000 0.000000 0.000000 0.000000 0.000000 -0.042951
#
#
# Mechanical properties :
#
#
# Convention : Reuss Voigt Hill
#
# Bulk Modulus (GPa) = 62.86155 65.92119 64.39137
# Shear Modulus (GPa) = 37.45048 14.90890 26.17969
#
# Velocity S-wave (km/s) = 4.40815 2.78132 3.68562
# Velocity P-wave (km/s) = 7.65022 6.67223 7.17790
#
# Compressibility (1/GPa) = 0.01590798
#
# Stress axis : x y z
#
# Youngs Moduli (GPa) = 64.95801 47.09997 77.64869
#
# Poissons Ratio (x) = 0.32435 0.06530
# Poissons Ratio (y) = 0.44733 0.70433
# Poissons Ratio (z) = 0.05463 0.42723
#
# Static dielectric constant tensor:
#      x y z
#    x 3.746110 0.000000 0.000000 
#    y 0.000000 3.549420 0.000000 
#    z 0.000000 0.000000 3.884820 
# 
# 
# High freq. dielectric constant tensor:
#      x y z
#    x 1.756310 0.000000 0.000000 
#    y 0.000000 1.723100 0.000000 
#    z 0.000000 0.000000 1.767290 
# 
# From -- ./inp_files/22045.got.cif
#   From: 2010.03.12/outbox.cif.g09.slc.cpg/sg57_12_cif.got.tgz:22045.got - 2010.04.16 15:48:40.
