data_PCOD8230029
_publ_section_title
;
Structure prediction by ZEFSAII (Michael W. Deem and Ramdas Pophale) SiO2 
 PCOD8230029
Probable space group: P B C M
;
_chemical_formula_sum "Si O2"
_cell_formula_units_Z 36
_cell_length_a 11.416064
_cell_length_b 10.399433
_cell_length_c 16.075294
_cell_angle_alpha 90.000000
_cell_angle_beta 90.000000
_cell_angle_gamma 90.000000
_cell_volume 1908.468431
_symmetry_space_group_name_H-M "P B C M"
_symmetry_group_IT_number 57
_symmetry_cell_setting 'orthorhombic'
loop_
_space_group_symop_operation_xyz
x,y,z
-x,-y,1/2+z
x,1/2-y,-z
-x,1/2+y,1/2-z
-x,-y,-z
x,y,1/2-z
-x,1/2+y,z
x,1/2-y,1/2+z
loop_
_atom_site_type_symbol
_atom_site_label
_atom_site_fract_x
_atom_site_fract_y
_atom_site_fract_z
Si Si1 0.605106 0.900552 0.006944
Si Si2 0.814095 0.893965 0.604021
Si Si3 0.030739 0.611763 0.841794
Si Si4 0.227844 0.386150 0.341246
Si Si5 0.984016 0.750000 0.000000
O O1 0.674412 0.927495 0.092656
O O2 0.565926 0.750000 0.000000
O O3 0.688237 0.937188 0.930085
O O4 0.500000 0.000000 0.000000
O O5 0.799852 0.765748 0.657582
O O6 0.898456 0.868133 0.524445
O O7 0.870227 0.003156 0.660718
O O8 0.035698 0.679340 0.750000
O O9 0.900744 0.549698 0.855661
O O10 0.060063 0.709344 0.918698
O O11 0.277030 0.423120 0.250000
#
# Coordination Sequence:
#
# PCOD8230029 Si02
#       5
#     8   8   8   8   4
#     4  10  20  38  57  79 106 149 196 232 285 340
#     4  10  17  34  53  78 109 148 187 224 288 346
#     4  10  19  31  54  85 111 145 187 228 283 351
#     4   9  18  34  55  79 110 145 185 233 285 344
#     4  10  18  32  52  76 118 146 180 228 288 350
#
# _framework density 18.863294
#
# number of rings (size 3 to 8) (size 9 to 14) (size 15 to 20)
#    0.000    2.222    5.556    1.333    0.000    0.889 
#    2.000    5.556    0.000    0.000    0.000    0.000 
#    0.000    0.000    0.000    0.000    0.000    0.000 
#
# Total GULP energy -445981.724431 kJ/mol
# GULP energy per Si atom -12388.381234 kJ/mol
# Density = 1.882036 g / cm^3
# Si number density = 18.863294 Si / 1000 Ang^3
#
#
#
# Elastic Constant Matrix: (Units=GPa)
#
#
# Indices 1 2 3 4 5 6 
#
# 1 107.3873 58.6361 38.9219 0.0000 0.0000 0.0000
# 2 58.6361 59.9014 30.1340 0.0000 0.0000 0.0000
# 3 38.9219 30.1340 119.6839 0.0000 0.0000 0.0000
# 4 0.0000 0.0000 0.0000 23.1808 0.0000 0.0000
# 5 0.0000 0.0000 0.0000 0.0000 17.3164 0.0000
# 6 0.0000 0.0000 0.0000 0.0000 0.0000 39.4453
#
#
#
# Elastic Compliance Matrix: (Units=1/GPa)
#
#
# Indices 1 2 3 4 5 6 
#
# 1 0.020350 -0.018997 -0.001835 0.000000 0.000000 0.000000
# 2 -0.018997 0.036849 -0.003100 0.000000 0.000000 0.000000
# 3 -0.001835 -0.003100 0.009733 0.000000 0.000000 0.000000
# 4 0.000000 0.000000 0.000000 0.043139 0.000000 0.000000
# 5 0.000000 0.000000 0.000000 0.000000 0.057749 0.000000
# 6 0.000000 0.000000 0.000000 0.000000 0.000000 0.025352
#
#
# Mechanical properties :
#
#
# Convention : Reuss Voigt Hill
#
# Bulk Modulus (GPa) = 52.44361 60.26186 56.35273
# Shear Modulus (GPa) = 20.21090 26.60722 23.40906
#
# Velocity S-wave (km/s) = 3.27684 3.75978 3.52658
# Velocity P-wave (km/s) = 6.49455 7.13189 6.82067
#
# Compressibility (1/GPa) = 0.01906810
#
# Stress axis : x y z
#
# Youngs Moduli (GPa) = 49.14001 27.13746 102.74795
#
# Poissons Ratio (x) = 0.51553 0.18853
# Poissons Ratio (y) = 0.93352 0.31852
# Poissons Ratio (z) = 0.09016 0.08413
#
# Static dielectric constant tensor:
#      x y z
#    x 3.237030 0.000000 0.000000 
#    y 0.000000 3.125300 0.000000 
#    z 0.000000 0.000000 3.743240 
# 
# 
# High freq. dielectric constant tensor:
#      x y z
#    x 1.698530 0.000000 0.000000 
#    y 0.000000 1.695500 0.000000 
#    z 0.000000 0.000000 1.753950 
# 
# From -- ./inp_files/21584.got.cif
#   From: 2010.03.12/outbox.cif.g09.slc.cpg/sg57_11_cif.got.tgz:21584.got - 2010.04.16 15:48:40.
