data_PCOD8230238
_publ_section_title
;
Structure prediction by ZEFSAII (Michael W. Deem and Ramdas Pophale) SiO2 
 PCOD8230238
Probable space group: P B C M
;
_chemical_formula_sum "Si O2"
_cell_formula_units_Z 64
_cell_length_a 12.181298
_cell_length_b 31.623042
_cell_length_c 8.805452
_cell_angle_alpha 90.000000
_cell_angle_beta 90.000000
_cell_angle_gamma 90.000000
_cell_volume 3391.945508
_symmetry_space_group_name_H-M "P B C M"
_symmetry_group_IT_number 57
_symmetry_cell_setting 'orthorhombic'
loop_
_space_group_symop_operation_xyz
x,y,z
-x,-y,1/2+z
x,1/2-y,-z
-x,1/2+y,1/2-z
-x,-y,-z
x,y,1/2-z
-x,1/2+y,z
x,1/2-y,1/2+z
loop_
_atom_site_type_symbol
_atom_site_label
_atom_site_fract_x
_atom_site_fract_y
_atom_site_fract_z
Si Si1 0.113797 0.503929 0.919345
Si Si2 0.121858 0.088928 0.418576
Si Si3 0.936150 0.792603 0.070880
Si Si4 0.497865 0.547749 0.932001
Si Si5 0.646822 0.620000 0.070485
Si Si6 0.931191 0.370786 0.071859
Si Si7 0.736616 0.423953 0.430596
Si Si8 0.682870 0.794430 0.069884
O O1 0.090922 0.520432 0.750000
O O2 0.170912 0.458267 0.920920
O O3 0.197450 0.536080 0.999700
O O4 0.000000 0.500000 0.000000
O O5 0.080350 0.100878 0.250000
O O6 0.223486 0.118092 0.466683
O O7 0.017309 0.092134 0.530078
O O8 0.945868 0.790481 0.250000
O O9 0.016926 0.828334 0.000194
O O10 0.810263 0.800072 0.022453
O O11 0.982628 0.750000 0.000000
O O12 0.504758 0.543840 0.750000
O O13 0.387582 0.572425 0.988930
O O14 0.500000 0.500000 0.000000
O O15 0.591756 0.579052 0.992528
O O16 0.621797 0.619142 0.250000
O O17 0.613261 0.665731 0.998785
O O18 0.928486 0.365901 0.250000
O O19 0.806849 0.382353 0.015369
O O20 0.733918 0.426047 0.250000
O O21 0.665880 0.793451 0.250000
O O22 0.638962 0.750000 0.000000
#
# Coordination Sequence:
#
# PCOD8230238 Si02
#       8
#     8   8   8   8   8   8   8   8
#     4  10  18  30  47  70 100 134 168 207 257 314
#     4  10  20  31  47  75 109 140 173 216 270 322
#     4   9  18  30  49  77 111 144 176 211 260 324
#     4  11  23  41  61  81 107 148 196 243 292 345
#     4  11  22  37  57  81 112 150 189 236 284 332
#     4  10  18  32  53  77 104 138 177 217 262 326
#     4   9  19  35  55  75 104 140 178 224 274 325
#     4  10  19  33  54  85 118 150 185 228 281 339
#
# _framework density 18.868227999999998
#
# number of rings (size 3 to 8) (size 9 to 14) (size 15 to 20)
#    0.000    2.000    2.500    1.875    0.000    3.500 
#    0.000    3.750    0.000    0.750    0.000    1.750 
#    0.000    0.000    0.000    0.000    0.000    0.000 
#
# Total GULP energy -792862.751674 kJ/mol
# GULP energy per Si atom -12388.480495 kJ/mol
# Density = 1.882528 g / cm^3
# Si number density = 18.868228 Si / 1000 Ang^3
#
#
#
# Elastic Constant Matrix: (Units=GPa)
#
#
# Indices 1 2 3 4 5 6 
#
# 1 65.1139 28.8311 19.3342 0.0000 0.0000 0.0000
# 2 28.8311 120.6808 33.5228 0.0000 0.0000 0.0000
# 3 19.3342 33.5228 48.4679 0.0000 0.0000 0.0000
# 4 0.0000 0.0000 0.0000 30.5414 0.0000 0.0000
# 5 0.0000 0.0000 0.0000 0.0000 19.0280 0.0000
# 6 0.0000 0.0000 0.0000 0.0000 0.0000 31.0935
#
#
#
# Elastic Compliance Matrix: (Units=1/GPa)
#
#
# Indices 1 2 3 4 5 6 
#
# 1 0.018198 -0.002885 -0.005264 0.000000 0.000000 0.000000
# 2 -0.002885 0.010714 -0.006260 0.000000 0.000000 0.000000
# 3 -0.005264 -0.006260 0.027061 0.000000 0.000000 0.000000
# 4 0.000000 0.000000 0.000000 0.032742 0.000000 0.000000
# 5 0.000000 0.000000 0.000000 0.000000 0.052554 0.000000
# 6 0.000000 0.000000 0.000000 0.000000 0.000000 0.032161
#
#
# Mechanical properties :
#
#
# Convention : Reuss Voigt Hill
#
# Bulk Modulus (GPa) = 36.82350 44.18210 40.50280
# Shear Modulus (GPa) = 23.66288 26.30423 24.98355
#
# Velocity S-wave (km/s) = 3.54519 3.73782 3.64278
# Velocity P-wave (km/s) = 6.02630 6.48809 6.26146
#
# Compressibility (1/GPa) = 0.02715657
#
# Stress axis : x y z
#
# Youngs Moduli (GPa) = 54.95032 93.33165 36.95304
#
# Poissons Ratio (x) = 0.26931 0.19451
# Poissons Ratio (y) = 0.15856 0.23131
# Poissons Ratio (z) = 0.28924 0.58422
#
# Static dielectric constant tensor:
#      x y z
#    x 3.454060 0.000000 0.000000 
#    y 0.000000 3.902140 0.000000 
#    z 0.000000 0.000000 3.222790 
# 
# 
# High freq. dielectric constant tensor:
#      x y z
#    x 1.703640 0.000000 0.000000 
#    y 0.000000 1.743390 0.000000 
#    z 0.000000 0.000000 1.718980 
# 
# From -- ./inp_files/3833.got.cif
#   From: 2010.03.12/outbox.cif.g09.slc.cpg/sg57_2_cif.got.tgz:3833.got - 2010.04.16 15:48:40.
