data_PCOD8230833
_publ_section_title
;
Structure prediction by ZEFSAII (Michael W. Deem and Ramdas Pophale) SiO2 
 PCOD8230833
Probable space group: P B C M
;
_chemical_formula_sum "Si O2"
_cell_formula_units_Z 64
_cell_length_a 22.447848
_cell_length_b 19.411989
_cell_length_c 9.062129
_cell_angle_alpha 90.000000
_cell_angle_beta 90.000000
_cell_angle_gamma 90.000000
_cell_volume 3948.889576
_symmetry_space_group_name_H-M "P B C M"
_symmetry_group_IT_number 57
_symmetry_cell_setting 'orthorhombic'
loop_
_space_group_symop_operation_xyz
x,y,z
-x,-y,1/2+z
x,1/2-y,-z
-x,1/2+y,1/2-z
-x,-y,-z
x,y,1/2-z
-x,1/2+y,z
x,1/2-y,1/2+z
loop_
_atom_site_type_symbol
_atom_site_label
_atom_site_fract_x
_atom_site_fract_y
_atom_site_fract_z
Si Si1 0.010423 0.394650 0.583502
Si Si2 0.181514 0.455032 0.080638
Si Si3 0.620007 0.820968 0.925389
Si Si4 0.494174 0.103094 0.413276
Si Si5 0.888679 0.819678 0.424018
Si Si6 0.086183 0.966875 0.415572
Si Si7 0.587427 0.030889 0.914286
Si Si8 0.320050 0.447279 0.078101
O O1 0.001347 0.367259 0.750000
O O2 0.046576 0.338491 0.489360
O O3 0.045651 0.465806 0.584152
O O4 0.946082 0.406608 0.508338
O O5 0.164752 0.468356 0.250000
O O6 0.159013 0.378887 0.035466
O O7 0.251110 0.461691 0.050787
O O8 0.149704 0.514570 0.986685
O O9 0.628769 0.817950 0.750000
O O10 0.550975 0.837108 0.966877
O O11 0.639030 0.750000 0.000000
O O12 0.663281 0.878961 0.989176
O O13 0.518574 0.119464 0.250000
O O14 0.550970 0.096198 0.520686
O O15 0.456447 0.033420 0.409360
O O16 0.865126 0.750000 0.500000
O O17 0.894534 0.808502 0.250000
O O18 0.096632 0.939895 0.250000
O O19 0.609542 0.049819 0.750000
O O20 0.643845 0.013190 0.016813
O O21 0.335249 0.436826 0.250000
#
# Coordination Sequence:
#
# PCOD8230833 Si02
#       8
#     8   8   8   8   8   8   8   8
#     4   9  16  27  43  62  83 107 136 172 216 260
#     4   9  19  32  44  60  84 116 150 182 214 252
#     4  10  20  32  45  62  85 114 148 182 216 254
#     4   8  15  27  42  60  81 106 136 172 215 260
#     4  10  19  31  44  60  84 113 148 183 215 252
#     4   9  16  26  43  64  83 106 136 174 218 258
#     4   9  16  26  42  63  83 105 136 175 218 259
#     4  10  19  31  45  61  85 117 150 182 216 252
#
# _framework density 16.207087999999999
#
# number of rings (size 3 to 8) (size 9 to 14) (size 15 to 20)
#    0.000    2.750    0.000    3.000    0.000    8.500 
#    0.000    1.250    0.000    0.000    0.000    0.000 
#    0.000    1.000    0.000    5.250    0.000    5.250 
#
# Total GULP energy -793460.865448 kJ/mol
# GULP energy per Si atom -12397.826023 kJ/mol
# Density = 1.617020 g / cm^3
# Si number density = 16.207088 Si / 1000 Ang^3
#
#
#
# Elastic Constant Matrix: (Units=GPa)
#
#
# Indices 1 2 3 4 5 6 
#
# 1 84.1484 18.3885 48.7464 0.0000 0.0000 0.0000
# 2 18.3885 6.0692 13.0312 0.0000 0.0000 0.0000
# 3 48.7464 13.0312 105.1896 0.0000 0.0000 0.0000
# 4 0.0000 0.0000 0.0000 22.3736 0.0000 0.0000
# 5 0.0000 0.0000 0.0000 0.0000 26.4437 0.0000
# 6 0.0000 0.0000 0.0000 0.0000 0.0000 15.4856
#
#
#
# Elastic Compliance Matrix: (Units=1/GPa)
#
#
# Indices 1 2 3 4 5 6 
#
# 1 0.036599 -0.101458 -0.004391 0.000000 0.000000 0.000000
# 2 -0.101458 0.505731 -0.015635 0.000000 0.000000 0.000000
# 3 -0.004391 -0.015635 0.013479 0.000000 0.000000 0.000000
# 4 0.000000 0.000000 0.000000 0.044695 0.000000 0.000000
# 5 0.000000 0.000000 0.000000 0.000000 0.037816 0.000000
# 6 0.000000 0.000000 0.000000 0.000000 0.000000 0.064576
#
#
# Mechanical properties :
#
#
# Convention : Reuss Voigt Hill
#
# Bulk Modulus (GPa) = 3.19652 39.52663 21.36157
# Shear Modulus (GPa) = 4.76125 20.54331 12.65228
#
# Velocity S-wave (km/s) = 1.71585 3.56413 2.79707
# Velocity P-wave (km/s) = 2.42942 6.43264 4.86214
#
# Compressibility (1/GPa) = 0.31284044
#
# Stress axis : x y z
#
# Youngs Moduli (GPa) = 27.32326 1.97734 74.19176
#
# Poissons Ratio (x) = 0.20062 0.32581
# Poissons Ratio (y) = 2.77216 1.15995
# Poissons Ratio (z) = 0.11999 0.03091
#
# Static dielectric constant tensor:
#      x y z
#    x 2.973110 0.000000 0.000000 
#    y 0.000000 2.788100 0.000000 
#    z 0.000000 0.000000 3.303280 
# 
# 
# High freq. dielectric constant tensor:
#      x y z
#    x 1.605310 0.000000 0.000000 
#    y 0.000000 1.576100 0.000000 
#    z 0.000000 0.000000 1.642200 
# 
# From -- ./inp_files/8758.got.cif
#   From: 2010.03.12/outbox.cif.g09.slc.cpg/sg57_5_cif.got.tgz:8758.got - 2010.04.16 15:48:40.
