data_PCOD8230905
_publ_section_title
;
Structure prediction by ZEFSAII (Michael W. Deem and Ramdas Pophale) SiO2 
 PCOD8230905
Probable space group: P B C M
;
_chemical_formula_sum "Si O2"
_cell_formula_units_Z 64
_cell_length_a 19.921316
_cell_length_b 19.177211
_cell_length_c 9.455417
_cell_angle_alpha 90.000000
_cell_angle_beta 90.000000
_cell_angle_gamma 90.000000
_cell_volume 3612.302884
_symmetry_space_group_name_H-M "P B C M"
_symmetry_group_IT_number 57
_symmetry_cell_setting 'orthorhombic'
loop_
_space_group_symop_operation_xyz
x,y,z
-x,-y,1/2+z
x,1/2-y,-z
-x,1/2+y,1/2-z
-x,-y,-z
x,y,1/2-z
-x,1/2+y,z
x,1/2-y,1/2+z
loop_
_atom_site_type_symbol
_atom_site_label
_atom_site_fract_x
_atom_site_fract_y
_atom_site_fract_z
Si Si1 0.053297 0.414345 0.085204
Si Si2 0.517432 0.178404 0.081983
Si Si3 0.838057 0.812393 0.405121
Si Si4 0.599927 0.569590 0.412950
Si Si5 0.763810 0.449174 0.411047
Si Si6 0.381557 0.591494 0.912682
Si Si7 0.089515 0.548602 0.588606
Si Si8 0.275703 0.424407 0.092895
O O1 0.069608 0.425247 0.250000
O O2 0.095693 0.348840 0.028518
O O3 0.973751 0.400302 0.057152
O O4 0.081295 0.482241 0.009482
O O5 0.524941 0.193153 0.250000
O O6 0.464660 0.116349 0.052029
O O7 0.497562 0.250000 0.000000
O O8 0.586326 0.148560 0.016712
O O9 0.814551 0.750000 0.500000
O O10 0.855954 0.784031 0.250000
O O11 0.774618 0.861524 0.397511
O O12 0.620538 0.577517 0.250000
O O13 0.591660 0.486905 0.448602
O O14 0.658799 0.600675 0.508640
O O15 0.758070 0.476429 0.250000
O O16 0.698961 0.400677 0.440266
O O17 0.837623 0.413654 0.436319
O O18 0.762474 0.514097 0.514331
O O19 0.399255 0.609741 0.750000
O O20 0.084771 0.522424 0.750000
O O21 0.297174 0.449025 0.250000
#
# Coordination Sequence:
#
# PCOD8230905 Si02
#       8
#     8   8   8   8   8   8   8   8
#     4   9  17  30  45  68  99 126 161 205 246 288
#     4  11  23  38  56  78 105 137 174 214 260 312
#     4  10  21  33  45  64  95 134 171 206 242 287
#     4   9  20  37  56  78 105 136 170 212 257 309
#     4   9  17  30  50  77 104 130 161 200 252 306
#     4   9  18  34  55  79 107 135 169 214 258 308
#     4   9  16  27  49  74  97 127 158 198 251 298
#     4  10  19  31  48  72 100 129 163 205 249 292
#
# _framework density 17.717230000000001
#
# number of rings (size 3 to 8) (size 9 to 14) (size 15 to 20)
#    0.000    2.500    1.250    1.875    0.000    5.000 
#    0.000    2.500    0.000    0.750    0.000    1.750 
#    0.000    0.000    0.000    0.000    0.000    0.000 
#
# Total GULP energy -792981.415049 kJ/mol
# GULP energy per Si atom -12390.334610 kJ/mol
# Density = 1.767690 g / cm^3
# Si number density = 17.717230 Si / 1000 Ang^3
#
#
#
# Elastic Constant Matrix: (Units=GPa)
#
#
# Indices 1 2 3 4 5 6 
#
# 1 110.0689 19.6569 34.0293 0.0000 0.0000 0.0000
# 2 19.6569 41.1770 27.0989 0.0000 0.0000 0.0000
# 3 34.0293 27.0989 72.5473 0.0000 0.0000 0.0000
# 4 0.0000 0.0000 0.0000 22.5673 0.0000 0.0000
# 5 0.0000 0.0000 0.0000 0.0000 25.3076 0.0000
# 6 0.0000 0.0000 0.0000 0.0000 0.0000 11.8909
#
#
#
# Elastic Compliance Matrix: (Units=1/GPa)
#
#
# Indices 1 2 3 4 5 6 
#
# 1 0.010805 -0.002417 -0.004165 0.000000 0.000000 0.000000
# 2 -0.002417 0.032742 -0.011097 0.000000 0.000000 0.000000
# 3 -0.004165 -0.011097 0.019883 0.000000 0.000000 0.000000
# 4 0.000000 0.000000 0.000000 0.044312 0.000000 0.000000
# 5 0.000000 0.000000 0.000000 0.000000 0.039514 0.000000
# 6 0.000000 0.000000 0.000000 0.000000 0.000000 0.084098
#
#
# Mechanical properties :
#
#
# Convention : Reuss Voigt Hill
#
# Bulk Modulus (GPa) = 35.62255 42.81813 39.22034
# Shear Modulus (GPa) = 18.11153 21.48703 19.79928
#
# Velocity S-wave (km/s) = 3.20074 3.48627 3.34655
# Velocity P-wave (km/s) = 5.81459 6.35810 6.09241
#
# Compressibility (1/GPa) = 0.02807211
#
# Stress axis : x y z
#
# Youngs Moduli (GPa) = 92.55348 30.54202 50.29452
#
# Poissons Ratio (x) = 0.07381 0.20949
# Poissons Ratio (y) = 0.22366 0.55810
# Poissons Ratio (z) = 0.38552 0.33891
#
# Static dielectric constant tensor:
#      x y z
#    x 3.634180 0.000000 0.000000 
#    y 0.000000 2.923020 0.000000 
#    z 0.000000 0.000000 3.422030 
# 
# 
# High freq. dielectric constant tensor:
#      x y z
#    x 1.702140 0.000000 0.000000 
#    y 0.000000 1.637090 0.000000 
#    z 0.000000 0.000000 1.694140 
# 
# From -- ./inp_files/8762.got.cif
#   From: 2010.03.12/outbox.cif.g09.slc.cpg/sg57_5_cif.got.tgz:8762.got - 2010.04.16 15:48:40.
