data_PCOD8230023
_publ_section_title
;
Structure prediction by ZEFSAII (Michael W. Deem and Ramdas Pophale) SiO2 
 PCOD8230023
Probable space group: P B C M
;
_chemical_formula_sum "Si O2"
_cell_formula_units_Z 64
_cell_length_a 11.494780
_cell_length_b 17.460707
_cell_length_c 17.183513
_cell_angle_alpha 90.000000
_cell_angle_beta 90.000000
_cell_angle_gamma 90.000000
_cell_volume 3448.851096
_symmetry_space_group_name_H-M "P B C M"
_symmetry_group_IT_number 57
_symmetry_cell_setting 'orthorhombic'
loop_
_space_group_symop_operation_xyz
x,y,z
-x,-y,1/2+z
x,1/2-y,-z
-x,1/2+y,1/2-z
-x,-y,-z
x,y,1/2-z
-x,1/2+y,z
x,1/2-y,1/2+z
loop_
_atom_site_type_symbol
_atom_site_label
_atom_site_fract_x
_atom_site_fract_y
_atom_site_fract_z
Si Si1 0.241248 0.336058 0.470576
Si Si2 0.083891 0.043129 0.439720
Si Si3 0.843972 0.116736 0.594504
Si Si4 0.657770 0.211174 0.838437
Si Si5 0.716463 0.141467 0.440028
Si Si6 0.880222 0.051786 0.336420
Si Si7 0.910278 0.871842 0.337053
Si Si8 0.499999 0.334408 0.032353
O O1 0.238309 0.250000 0.500000
O O2 0.161349 0.391270 0.522359
O O3 0.195915 0.332238 0.382084
O O4 0.371859 0.371389 0.470759
O O5 0.000177 0.082547 0.375344
O O6 0.165538 0.976217 0.404283
O O7 0.000000 0.000000 0.500000
O O8 0.759262 0.147611 0.661909
O O9 0.807323 0.152890 0.511082
O O10 0.973250 0.145097 0.614393
O O11 0.627771 0.235320 0.750000
O O12 0.704431 0.282205 0.889162
O O13 0.544864 0.172505 0.878577
O O14 0.765099 0.074775 0.384619
O O15 0.591515 0.118276 0.478173
O O16 0.871906 0.087140 0.250000
O O17 0.884701 0.961240 0.333650
O O18 0.918989 0.837739 0.250000
O O19 0.491366 0.250000 0.000000
#
# Coordination Sequence:
#
# PCOD8230023 Si02
#       8
#     8   8   8   8   8   8   8   8
#     4  11  21  37  59  82 104 141 188 226 258 321
#     4  11  19  38  56  79 110 147 180 211 277 327
#     4  10  18  33  53  75 109 143 180 218 267 337
#     4  10  20  33  53  81 110 141 180 232 281 316
#     4  10  17  33  54  78 106 140 187 231 267 318
#     4  10  19  33  55  81 111 143 176 221 275 328
#     4  10  20  34  52  77 111 144 173 218 280 332
#     4   8  19  35  53  75 105 143 183 222 274 320
#
# _framework density 18.556905
#
# number of rings (size 3 to 8) (size 9 to 14) (size 15 to 20)
#    0.000    2.000    3.750    1.875    0.000    3.000 
#    0.000    7.500    0.000    3.750    0.000    0.000 
#    0.000    0.000    0.000    0.000    0.000    0.000 
#
# Total GULP energy -793172.350043 kJ/mol
# GULP energy per Si atom -12393.317969 kJ/mol
# Density = 1.851467 g / cm^3
# Si number density = 18.556905 Si / 1000 Ang^3
#
#
#
# Elastic Constant Matrix: (Units=GPa)
#
#
# Indices 1 2 3 4 5 6 
#
# 1 148.6164 41.8234 75.6724 0.0000 0.0000 0.0000
# 2 41.8234 44.2771 25.6638 0.0000 0.0000 0.0000
# 3 75.6724 25.6638 148.2567 0.0000 0.0000 0.0000
# 4 0.0000 0.0000 0.0000 26.2083 0.0000 0.0000
# 5 0.0000 0.0000 0.0000 0.0000 17.3703 0.0000
# 6 0.0000 0.0000 0.0000 0.0000 0.0000 19.1936
#
#
#
# Elastic Compliance Matrix: (Units=1/GPa)
#
#
# Indices 1 2 3 4 5 6 
#
# 1 0.011201 -0.008077 -0.004319 0.000000 0.000000 0.000000
# 2 -0.008077 0.030928 -0.001231 0.000000 0.000000 0.000000
# 3 -0.004319 -0.001231 0.009163 0.000000 0.000000 0.000000
# 4 0.000000 0.000000 0.000000 0.038156 0.000000 0.000000
# 5 0.000000 0.000000 0.000000 0.000000 0.057569 0.000000
# 6 0.000000 0.000000 0.000000 0.000000 0.000000 0.052101
#
#
# Mechanical properties :
#
#
# Convention : Reuss Voigt Hill
#
# Bulk Modulus (GPa) = 41.60180 69.71881 55.66030
# Shear Modulus (GPa) = 21.33257 25.75382 23.54320
#
# Velocity S-wave (km/s) = 3.39422 3.72940 3.56575
# Velocity P-wave (km/s) = 6.15046 7.49643 6.85655
#
# Compressibility (1/GPa) = 0.02403742
#
# Stress axis : x y z
#
# Youngs Moduli (GPa) = 89.27951 32.33335 109.13889
#
# Poissons Ratio (x) = 0.26115 0.47136
# Poissons Ratio (y) = 0.72109 0.13438
# Poissons Ratio (z) = 0.38559 0.03981
#
# Static dielectric constant tensor:
#      x y z
#    x 3.781730 0.000000 0.000000 
#    y 0.000000 3.282050 0.000000 
#    z 0.000000 0.000000 3.847020 
# 
# 
# High freq. dielectric constant tensor:
#      x y z
#    x 1.716900 0.000000 0.000000 
#    y 0.000000 1.694320 0.000000 
#    z 0.000000 0.000000 1.724590 
# 
# From -- ./inp_files/22147.got.cif
#   From: 2010.03.12/outbox.cif.g09.slc.cpg/sg57_12_cif.got.tgz:22147.got - 2010.04.16 15:48:40.
