data_PCOD8230900
_publ_section_title
;
Structure prediction by ZEFSAII (Michael W. Deem and Ramdas Pophale) SiO2 
 PCOD8230900
Probable space group: P B C M
;
_chemical_formula_sum "Si O2"
_cell_formula_units_Z 64
_cell_length_a 30.470536
_cell_length_b 13.656398
_cell_length_c 8.983194
_cell_angle_alpha 90.000000
_cell_angle_beta 90.000000
_cell_angle_gamma 90.000000
_cell_volume 3738.066627
_symmetry_space_group_name_H-M "P B C M"
_symmetry_group_IT_number 57
_symmetry_cell_setting 'orthorhombic'
loop_
_space_group_symop_operation_xyz
x,y,z
-x,-y,1/2+z
x,1/2-y,-z
-x,1/2+y,1/2-z
-x,-y,-z
x,y,1/2-z
-x,1/2+y,z
x,1/2-y,1/2+z
loop_
_atom_site_type_symbol
_atom_site_label
_atom_site_fract_x
_atom_site_fract_y
_atom_site_fract_z
Si Si1 0.124604 0.145680 0.573227
Si Si2 0.351364 0.849511 0.924704
Si Si3 0.260134 0.645630 0.928323
Si Si4 0.483731 0.150809 0.576223
Si Si5 0.185578 0.530546 0.426613
Si Si6 0.044096 0.479229 0.414065
Si Si7 0.893393 0.157729 0.412547
Si Si8 0.560442 0.452412 0.920864
O O1 0.132820 0.250000 0.500000
O O2 0.121283 0.155316 0.750000
O O3 0.166261 0.076760 0.532389
O O4 0.078434 0.098986 0.513630
O O5 0.340994 0.832034 0.750000
O O6 0.388188 0.932473 0.947243
O O7 0.368892 0.750000 0.000000
O O8 0.307991 0.883859 0.011300
O O9 0.259935 0.653959 0.750000
O O10 0.245673 0.750000 0.000000
O O11 0.229140 0.556474 0.981541
O O12 0.466900 0.250000 0.500000
O O13 0.486679 0.170132 0.750000
O O14 0.532013 0.121507 0.519793
O O15 0.449263 0.064906 0.535280
O O16 0.194261 0.537377 0.250000
O O17 0.149824 0.609232 0.482943
O O18 0.031205 0.441817 0.250000
O O19 0.067297 0.582705 0.404431
O O20 0.000000 0.500000 0.500000
O O21 0.910928 0.250000 0.500000
O O22 0.880413 0.194987 0.250000
O O23 0.547141 0.433190 0.750000
#
# Coordination Sequence:
#
# PCOD8230900 Si02
#       8
#     8   8   8   8   8   8   8   8
#     4   9  19  35  54  74  98 127 162 203 245 286
#     4  10  19  32  49  70  98 130 163 198 240 290
#     4  11  21  32  49  75 103 130 160 194 238 293
#     4  10  19  31  48  71  98 128 164 205 249 293
#     4   9  18  34  52  71  97 126 155 194 238 280
#     4   9  19  34  48  67  95 126 157 192 232 276
#     4   9  18  31  47  67  92 120 151 184 224 271
#     4   9  19  33  49  70  96 129 167 205 245 290
#
# _framework density 17.121148999999999
#
# number of rings (size 3 to 8) (size 9 to 14) (size 15 to 20)
#    0.000    2.500    0.000    4.875    0.000    6.000 
#    0.000    5.000    0.000    0.750    0.000    1.750 
#    0.000    0.000    0.000    0.000    0.000    0.000 
#
# Total GULP energy -793273.082188 kJ/mol
# GULP energy per Si atom -12394.891909 kJ/mol
# Density = 1.708218 g / cm^3
# Si number density = 17.121149 Si / 1000 Ang^3
#
#
#
# Elastic Constant Matrix: (Units=GPa)
#
#
# Indices 1 2 3 4 5 6 
#
# 1 109.2947 55.1310 48.6488 0.0000 0.0000 0.0000
# 2 55.1310 110.5542 49.9487 0.0000 0.0000 0.0000
# 3 48.6488 49.9487 86.6881 0.0000 0.0000 0.0000
# 4 0.0000 0.0000 0.0000 30.6729 0.0000 0.0000
# 5 0.0000 0.0000 0.0000 0.0000 28.0919 0.0000
# 6 0.0000 0.0000 0.0000 0.0000 0.0000 18.0235
#
#
#
# Elastic Compliance Matrix: (Units=1/GPa)
#
#
# Indices 1 2 3 4 5 6 
#
# 1 0.013696 -0.004539 -0.005071 0.000000 0.000000 0.000000
# 2 -0.004539 0.013733 -0.005366 0.000000 0.000000 0.000000
# 3 -0.005071 -0.005366 0.017473 0.000000 0.000000 0.000000
# 4 0.000000 0.000000 0.000000 0.032602 0.000000 0.000000
# 5 0.000000 0.000000 0.000000 0.000000 0.035597 0.000000
# 6 0.000000 0.000000 0.000000 0.000000 0.000000 0.055483
#
#
# Mechanical properties :
#
#
# Convention : Reuss Voigt Hill
#
# Bulk Modulus (GPa) = 66.88390 68.22156 67.55273
# Shear Modulus (GPa) = 24.56764 25.54490 25.05627
#
# Velocity S-wave (km/s) = 3.79216 3.86684 3.82968
# Velocity P-wave (km/s) = 7.63700 7.73754 7.68744
#
# Compressibility (1/GPa) = 0.01495128
#
# Stress axis : x y z
#
# Youngs Moduli (GPa) = 73.01227 72.81721 57.23120
#
# Poissons Ratio (x) = 0.33052 0.29022
# Poissons Ratio (y) = 0.33140 0.30708
# Poissons Ratio (z) = 0.37024 0.39071
#
# Static dielectric constant tensor:
#      x y z
#    x 3.208560 0.000000 0.000000 
#    y 0.000000 3.170190 0.000000 
#    z 0.000000 0.000000 3.293870 
# 
# 
# High freq. dielectric constant tensor:
#      x y z
#    x 1.653450 0.000000 0.000000 
#    y 0.000000 1.649820 0.000000 
#    z 0.000000 0.000000 1.663220 
# 
# From -- ./inp_files/10333.got.cif
#   From: 2010.03.12/outbox.cif.g09.slc.cpg/sg57_6_cif.got.tgz:10333.got - 2010.04.16 15:48:40.
