data_PCOD8230590
_publ_section_title
;
Structure prediction by ZEFSAII (Michael W. Deem and Ramdas Pophale) SiO2 
 PCOD8230590
Probable space group: P B C M
;
_chemical_formula_sum "Si O2"
_cell_formula_units_Z 28
_cell_length_a 6.876020
_cell_length_b 13.217632
_cell_length_c 14.029066
_cell_angle_alpha 90.000000
_cell_angle_beta 90.000000
_cell_angle_gamma 90.000000
_cell_volume 1275.027483
_symmetry_space_group_name_H-M "P B C M"
_symmetry_group_IT_number 57
_symmetry_cell_setting 'orthorhombic'
loop_
_space_group_symop_operation_xyz
x,y,z
-x,-y,1/2+z
x,1/2-y,-z
-x,1/2+y,1/2-z
-x,-y,-z
x,y,1/2-z
-x,1/2+y,z
x,1/2-y,1/2+z
loop_
_atom_site_type_symbol
_atom_site_label
_atom_site_fract_x
_atom_site_fract_y
_atom_site_fract_z
Si Si1 0.151456 0.555960 0.750000
Si Si2 0.812930 0.673269 0.250000
Si Si3 0.824072 0.549050 0.598178
Si Si4 0.972675 0.342053 0.559916
Si Si5 0.442638 0.140189 0.750000
O O1 0.247017 0.444024 0.750000
O O2 0.324505 0.637509 0.750000
O O3 0.020449 0.571420 0.657279
O O4 0.942635 0.701828 0.158275
O O5 0.620956 0.742647 0.250000
O O6 0.845646 0.609304 0.499077
O O7 0.634371 0.583614 0.655288
O O8 0.809692 0.428118 0.578826
O O9 0.878003 0.250000 0.500000
#
# Coordination Sequence:
#
# PCOD8230590 Si02
#       5
#     4   4   8   8   4
#     4   9  21  39  57  92 120 148 203 239 281 361
#     4  10  20  36  60  86 118 158 192 242 300 342
#     4   9  20  37  62  86 115 159 190 243 295 339
#     4  10  18  36  62  85 116 151 198 238 290 352
#     4  11  19  39  63  84 126 158 187 239 301 339
#
# _framework density 21.960308999999999
#
# number of rings (size 3 to 8) (size 9 to 14) (size 15 to 20)
#    0.000    2.286    2.857    0.857    0.000    0.000 
#    5.143   12.857    0.000    0.000    0.000    0.000 
#    0.000    0.000    0.000    0.000    0.000    0.000 
#
# Total GULP energy -347206.506963 kJ/mol
# GULP energy per Si atom -12400.232392 kJ/mol
# Density = 2.191033 g / cm^3
# Si number density = 21.960309 Si / 1000 Ang^3
#
#
#
# Elastic Constant Matrix: (Units=GPa)
#
#
# Indices 1 2 3 4 5 6 
#
# 1 71.9858 19.1121 18.5854 0.0000 0.0000 0.0000
# 2 19.1121 92.5691 24.1522 0.0000 0.0000 0.0000
# 3 18.5854 24.1522 128.3116 0.0000 0.0000 0.0000
# 4 0.0000 0.0000 0.0000 30.9430 0.0000 0.0000
# 5 0.0000 0.0000 0.0000 0.0000 11.7951 0.0000
# 6 0.0000 0.0000 0.0000 0.0000 0.0000 24.8544
#
#
#
# Elastic Compliance Matrix: (Units=1/GPa)
#
#
# Indices 1 2 3 4 5 6 
#
# 1 0.015032 -0.002666 -0.001675 0.000000 0.000000 0.000000
# 2 -0.002666 0.011834 -0.001841 0.000000 0.000000 0.000000
# 3 -0.001675 -0.001841 0.008383 0.000000 0.000000 0.000000
# 4 0.000000 0.000000 0.000000 0.032317 0.000000 0.000000
# 5 0.000000 0.000000 0.000000 0.000000 0.084781 0.000000
# 6 0.000000 0.000000 0.000000 0.000000 0.000000 0.040234
#
#
# Mechanical properties :
#
#
# Convention : Reuss Voigt Hill
#
# Bulk Modulus (GPa) = 43.70180 46.28509 44.99345
# Shear Modulus (GPa) = 23.52109 28.91962 26.22036
#
# Velocity S-wave (km/s) = 3.27628 3.63285 3.45916
# Velocity P-wave (km/s) = 5.85282 6.22248 6.04048
#
# Compressibility (1/GPa) = 0.02288235
#
# Stress axis : x y z
#
# Youngs Moduli (GPa) = 66.52422 84.50477 119.29210
#
# Poissons Ratio (x) = 0.22533 0.19987
# Poissons Ratio (y) = 0.17738 0.21964
# Poissons Ratio (z) = 0.11146 0.15559
#
# Static dielectric constant tensor:
#      x y z
#    x 3.126320 0.000000 0.000000 
#    y 0.000000 4.173880 0.000000 
#    z 0.000000 0.000000 4.327440 
# 
# 
# High freq. dielectric constant tensor:
#      x y z
#    x 1.788800 0.000000 0.000000 
#    y 0.000000 1.883700 0.000000 
#    z 0.000000 0.000000 1.885860 
# 
# From -- ./inp_files/15656.got.cif
#   From: 2010.03.12/outbox.cif.g09.slc.cpg/sg57_8_cif.got.tgz:15656.got - 2010.04.16 15:48:40.
