data_PCOD8230377
_publ_section_title
;
Structure prediction by ZEFSAII (Michael W. Deem and Ramdas Pophale) SiO2 
 PCOD8230377
Probable space group: P B C M
;
_chemical_formula_sum "Si O2"
_cell_formula_units_Z 48
_cell_length_a 31.112263
_cell_length_b 9.065073
_cell_length_c 8.631016
_cell_angle_alpha 90.000000
_cell_angle_beta 90.000000
_cell_angle_gamma 90.000000
_cell_volume 2434.248039
_symmetry_space_group_name_H-M "P B C M"
_symmetry_group_IT_number 57
_symmetry_cell_setting 'orthorhombic'
loop_
_space_group_symop_operation_xyz
x,y,z
-x,-y,1/2+z
x,1/2-y,-z
-x,1/2+y,1/2-z
-x,-y,-z
x,y,1/2-z
-x,1/2+y,z
x,1/2-y,1/2+z
loop_
_atom_site_type_symbol
_atom_site_label
_atom_site_fract_x
_atom_site_fract_y
_atom_site_fract_z
Si Si1 0.201651 0.411782 0.068837
Si Si2 0.373327 0.586128 0.933819
Si Si3 0.539949 0.086612 0.433812
Si Si4 0.039692 0.411936 0.567176
Si Si5 0.876389 0.089200 0.567436
Si Si6 0.713484 0.410997 0.931825
O O1 0.193184 0.402577 0.250000
O O2 0.248057 0.478443 0.029369
O O3 0.197584 0.250000 0.000000
O O4 0.166966 0.519459 0.995844
O O5 0.377268 0.584229 0.750000
O O6 0.371034 0.750000 0.000000
O O7 0.415708 0.509077 0.007455
O O8 0.328694 0.512767 0.989976
O O9 0.537843 0.250000 0.500000
O O10 0.538503 0.088615 0.250000
O O11 0.500000 0.000000 0.500000
O O12 0.039909 0.250000 0.500000
O O13 0.035190 0.404843 0.750000
O O14 0.083552 0.490100 0.514745
O O15 0.000000 0.500000 0.500000
O O16 0.883494 0.250000 0.500000
O O17 0.872866 0.101156 0.750000
O O18 0.705545 0.392729 0.750000
O O19 0.724100 0.250000 0.000000
#
# Coordination Sequence:
#
# PCOD8230377 Si02
#       6
#     8   8   8   8   8   8
#     4  11  24  40  60  85 117 154 192 235 288 344
#     4  10  18  31  53  80 108 143 184 229 280 335
#     4  11  21  36  56  81 112 147 187 233 283 338
#     4  11  24  41  63  91 123 160 199 244 293 347
#     4  11  24  41  63  90 120 154 196 242 290 342
#     4  10  20  35  56  83 110 142 184 231 280 334
#
# _framework density 19.718613999999999
#
# number of rings (size 3 to 8) (size 9 to 14) (size 15 to 20)
#    0.000    1.333    0.000    8.500    0.000    9.333 
#    0.000    0.833    0.000    2.000    0.000    0.000 
#    0.000    0.000    0.000    0.000    0.000    0.000 
#
# Total GULP energy -595274.661968 kJ/mol
# GULP energy per Si atom -12401.555458 kJ/mol
# Density = 1.967373 g / cm^3
# Si number density = 19.718614 Si / 1000 Ang^3
#
#
#
# Elastic Constant Matrix: (Units=GPa)
#
#
# Indices 1 2 3 4 5 6 
#
# 1 160.4013 60.6521 78.6245 0.0000 0.0000 0.0000
# 2 60.6521 111.8624 47.5673 0.0000 0.0000 0.0000
# 3 78.6245 47.5673 139.2812 0.0000 0.0000 0.0000
# 4 0.0000 0.0000 0.0000 33.1170 0.0000 0.0000
# 5 0.0000 0.0000 0.0000 0.0000 37.7374 0.0000
# 6 0.0000 0.0000 0.0000 0.0000 0.0000 54.4140
#
#
#
# Elastic Compliance Matrix: (Units=1/GPa)
#
#
# Indices 1 2 3 4 5 6 
#
# 1 0.009609 -0.003397 -0.004264 0.000000 0.000000 0.000000
# 2 -0.003397 0.011659 -0.002064 0.000000 0.000000 0.000000
# 3 -0.004264 -0.002064 0.010292 0.000000 0.000000 0.000000
# 4 0.000000 0.000000 0.000000 0.030196 0.000000 0.000000
# 5 0.000000 0.000000 0.000000 0.000000 0.026499 0.000000
# 6 0.000000 0.000000 0.000000 0.000000 0.000000 0.018378
#
#
# Mechanical properties :
#
#
# Convention : Reuss Voigt Hill
#
# Bulk Modulus (GPa) = 82.58087 87.24809 84.91448
# Shear Modulus (GPa) = 38.42622 40.03377 39.22999
#
# Velocity S-wave (km/s) = 4.41923 4.51072 4.46521
# Velocity P-wave (km/s) = 8.24682 8.45408 8.35109
#
# Compressibility (1/GPa) = 0.01210934
#
# Stress axis : x y z
#
# Youngs Moduli (GPa) = 104.06937 85.77001 97.16376
#
# Poissons Ratio (x) = 0.29134 0.41433
# Poissons Ratio (y) = 0.35350 0.20058
# Poissons Ratio (z) = 0.44378 0.17706
#
# Static dielectric constant tensor:
#      x y z
#    x -0.080900 0.000000 0.000000 
#    y 0.000000 3.448570 0.000000 
#    z 0.000000 0.000000 3.812140 
# 
# 
# High freq. dielectric constant tensor:
#      x y z
#    x 1.798100 0.000000 0.000000 
#    y 0.000000 1.748620 0.000000 
#    z 0.000000 0.000000 1.790330 
# 
# From -- ./inp_files/10073.got.cif
#   From: 2010.03.12/outbox.cif.g09.slc.cpg/sg57_6_cif.got.tgz:10073.got - 2010.04.16 15:48:40.
