data_PCOD8230128
_publ_section_title
;
Structure prediction by ZEFSAII (Michael W. Deem and Ramdas Pophale) SiO2 
 PCOD8230128
Probable space group: P B C M
;
_chemical_formula_sum "Si O2"
_cell_formula_units_Z 48
_cell_length_a 13.361774
_cell_length_b 23.239016
_cell_length_c 8.646612
_cell_angle_alpha 90.000000
_cell_angle_beta 90.000000
_cell_angle_gamma 90.000000
_cell_volume 2684.898227
_symmetry_space_group_name_H-M "P B C M"
_symmetry_group_IT_number 57
_symmetry_cell_setting 'orthorhombic'
loop_
_space_group_symop_operation_xyz
x,y,z
-x,-y,1/2+z
x,1/2-y,-z
-x,1/2+y,1/2-z
-x,-y,-z
x,y,1/2-z
-x,1/2+y,z
x,1/2-y,1/2+z
loop_
_atom_site_type_symbol
_atom_site_label
_atom_site_fract_x
_atom_site_fract_y
_atom_site_fract_z
Si Si1 0.754055 0.590114 0.919495
Si Si2 0.903427 0.686570 0.564965
Si Si3 0.390407 0.497747 0.567525
Si Si4 0.757201 0.405038 0.427963
Si Si5 0.899149 0.013705 0.420949
Si Si6 0.884621 0.187947 0.431816
O O1 0.709005 0.605312 0.750000
O O2 0.809800 0.646411 0.991461
O O3 0.840680 0.544578 0.898246
O O4 0.665043 0.561860 0.020353
O O5 0.882210 0.750000 0.500000
O O6 0.908773 0.687372 0.750000
O O7 0.010721 0.663128 0.501790
O O8 0.500000 0.500000 0.500000
O O9 0.394076 0.498584 0.750000
O O10 0.336186 0.556670 0.508169
O O11 0.742148 0.387907 0.250000
O O12 0.851912 0.445488 0.450818
O O13 0.784232 0.348251 0.525923
O O14 0.909845 0.043441 0.250000
O O15 0.000000 0.000000 0.500000
O O16 0.863706 0.250000 0.500000
O O17 0.897306 0.191855 0.250000
#
# Coordination Sequence:
#
# PCOD8230128 Si02
#       6
#     8   8   8   8   8   8
#     4   9  19  33  49  70  99 132 168 208 251 297
#     4  10  19  32  50  74 106 143 177 212 248 292
#     4  10  21  36  57  79 101 128 162 208 261 312
#     4  10  20  34  50  72 100 131 167 208 252 303
#     4  10  18  28  44  68  98 132 165 203 249 300
#     4  11  21  33  51  75 105 142 177 211 247 294
#
# _framework density 17.877773000000001
#
# number of rings (size 3 to 8) (size 9 to 14) (size 15 to 20)
#    0.000    2.000    0.000    5.500    0.000    5.333 
#    0.000    0.000    0.000    1.000    0.000    4.667 
#    0.000    0.000    0.000    0.000    0.000    0.000 
#
# Total GULP energy -594634.214901 kJ/mol
# GULP energy per Si atom -12388.212810 kJ/mol
# Density = 1.783708 g / cm^3
# Si number density = 17.877773 Si / 1000 Ang^3
#
#
#
# Elastic Constant Matrix: (Units=GPa)
#
#
# Indices 1 2 3 4 5 6 
#
# 1 115.7500 50.7601 39.6406 0.0000 0.0000 0.0000
# 2 50.7601 93.2296 32.8574 0.0000 0.0000 0.0000
# 3 39.6406 32.8574 83.6841 0.0000 0.0000 0.0000
# 4 0.0000 0.0000 0.0000 27.8606 0.0000 0.0000
# 5 0.0000 0.0000 0.0000 0.0000 17.3445 0.0000
# 6 0.0000 0.0000 0.0000 0.0000 0.0000 26.1344
#
#
#
# Elastic Compliance Matrix: (Units=1/GPa)
#
#
# Indices 1 2 3 4 5 6 
#
# 1 0.012262 -0.005373 -0.003699 0.000000 0.000000 0.000000
# 2 -0.005373 0.014803 -0.003267 0.000000 0.000000 0.000000
# 3 -0.003699 -0.003267 0.014985 0.000000 0.000000 0.000000
# 4 0.000000 0.000000 0.000000 0.035893 0.000000 0.000000
# 5 0.000000 0.000000 0.000000 0.000000 0.057655 0.000000
# 6 0.000000 0.000000 0.000000 0.000000 0.000000 0.038264
#
#
# Mechanical properties :
#
#
# Convention : Reuss Voigt Hill
#
# Bulk Modulus (GPa) = 57.56349 59.90888 58.73619
# Shear Modulus (GPa) = 24.47021 25.56160 25.01591
#
# Velocity S-wave (km/s) = 3.70368 3.78537 3.74475
# Velocity P-wave (km/s) = 7.11041 7.25868 7.18492
#
# Compressibility (1/GPa) = 0.01737212
#
# Stress axis : x y z
#
# Youngs Moduli (GPa) = 81.55160 67.55445 66.73473
#
# Poissons Ratio (x) = 0.36295 0.24685
# Poissons Ratio (y) = 0.43815 0.21803
# Poissons Ratio (z) = 0.30166 0.22071
#
# Static dielectric constant tensor:
#      x y z
#    x 3.223370 0.000000 0.000000 
#    y 0.000000 3.537250 0.000000 
#    z 0.000000 0.000000 3.842640 
# 
# 
# High freq. dielectric constant tensor:
#      x y z
#    x 1.666090 0.000000 0.000000 
#    y 0.000000 1.688750 0.000000 
#    z 0.000000 0.000000 1.703190 
# 
# From -- ./inp_files/3161.got.cif
#   From: 2010.03.12/outbox.cif.g09.slc.cpg/sg57_2_cif.got.tgz:3161.got - 2010.04.16 15:48:40.
