data_PCOD8230969
_publ_section_title
;
Structure prediction by ZEFSAII (Michael W. Deem and Ramdas Pophale) SiO2 
 PCOD8230969
Probable space group: P B C M
;
_chemical_formula_sum "Si O2"
_cell_formula_units_Z 56
_cell_length_a 13.892183
_cell_length_b 23.053817
_cell_length_c 9.351828
_cell_angle_alpha 90.000000
_cell_angle_beta 90.000000
_cell_angle_gamma 90.000000
_cell_volume 2995.089797
_symmetry_space_group_name_H-M "P B C M"
_symmetry_group_IT_number 57
_symmetry_cell_setting 'orthorhombic'
loop_
_space_group_symop_operation_xyz
x,y,z
-x,-y,1/2+z
x,1/2-y,-z
-x,1/2+y,1/2-z
-x,-y,-z
x,y,1/2-z
-x,1/2+y,z
x,1/2-y,1/2+z
loop_
_atom_site_type_symbol
_atom_site_label
_atom_site_fract_x
_atom_site_fract_y
_atom_site_fract_z
Si Si1 0.246827 0.099448 0.418267
Si Si2 0.365065 0.189150 0.581880
Si Si3 0.437512 0.628118 0.585592
Si Si4 0.288908 0.803410 0.588039
Si Si5 0.839942 0.089488 0.092571
Si Si6 0.041289 0.053401 0.412742
Si Si7 0.690532 0.023341 0.584628
O O1 0.248810 0.115360 0.250000
O O2 0.275184 0.156225 0.509310
O O3 0.139699 0.081605 0.470921
O O4 0.319941 0.045204 0.451294
O O5 0.384938 0.250000 0.500000
O O6 0.346363 0.201860 0.750000
O O7 0.450672 0.142049 0.562837
O O8 0.407859 0.638949 0.750000
O O9 0.385585 0.673469 0.483877
O O10 0.403507 0.562227 0.539669
O O11 0.249233 0.750000 0.500000
O O12 0.314609 0.786441 0.750000
O O13 0.202547 0.847462 0.575081
O O14 0.817595 0.064064 0.250000
O O15 0.954066 0.099265 0.072195
O O16 0.789965 0.044928 0.984842
O O17 0.059114 0.033544 0.250000
O O18 0.000000 0.000000 0.500000
O O19 0.709781 0.031045 0.750000
#
# Coordination Sequence:
#
# PCOD8230969 Si02
#       7
#     8   8   8   8   8   8   8
#     4  10  21  36  56  83 114 147 181 224 274 324
#     4  11  24  41  59  78 104 144 190 234 274 320
#     4   9  19  35  56  81 109 141 179 222 269 326
#     4  10  19  31  49  75 105 140 177 219 269 318
#     4   9  18  31  49  76 110 141 175 218 262 315
#     4  10  19  33  55  82 110 143 179 218 266 324
#     4   9  17  32  54  83 115 143 173 215 270 326
#
# _framework density 18.697268999999999
#
# number of rings (size 3 to 8) (size 9 to 14) (size 15 to 20)
#    0.000    2.286    1.429    1.286    0.000    4.571 
#    0.000    0.714    0.000    1.714    0.000    0.000 
#    0.000    0.000    0.000    0.000    0.000    0.000 
#
# Total GULP energy -693880.120140 kJ/mol
# GULP energy per Si atom -12390.716431 kJ/mol
# Density = 1.865471 g / cm^3
# Si number density = 18.697269 Si / 1000 Ang^3
#
#
#
# Elastic Constant Matrix: (Units=GPa)
#
#
# Indices 1 2 3 4 5 6 
#
# 1 91.6696 37.9627 34.9719 0.0000 0.0000 0.0000
# 2 37.9627 77.0656 43.6466 0.0000 0.0000 0.0000
# 3 34.9719 43.6466 78.7076 0.0000 0.0000 0.0000
# 4 0.0000 0.0000 0.0000 29.0476 0.0000 0.0000
# 5 0.0000 0.0000 0.0000 0.0000 24.6139 0.0000
# 6 0.0000 0.0000 0.0000 0.0000 0.0000 16.2826
#
#
#
# Elastic Compliance Matrix: (Units=1/GPa)
#
#
# Indices 1 2 3 4 5 6 
#
# 1 0.014366 -0.005047 -0.003585 0.000000 0.000000 0.000000
# 2 -0.005047 0.020690 -0.009231 0.000000 0.000000 0.000000
# 3 -0.003585 -0.009231 0.019417 0.000000 0.000000 0.000000
# 4 0.000000 0.000000 0.000000 0.034426 0.000000 0.000000
# 5 0.000000 0.000000 0.000000 0.000000 0.040627 0.000000
# 6 0.000000 0.000000 0.000000 0.000000 0.000000 0.061415
#
#
# Mechanical properties :
#
#
# Convention : Reuss Voigt Hill
#
# Bulk Modulus (GPa) = 53.33791 53.40060 53.36925
# Shear Modulus (GPa) = 21.46692 22.71295 22.08993
#
# Velocity S-wave (km/s) = 3.39208 3.48914 3.44095
# Velocity P-wave (km/s) = 6.62802 6.69737 6.66279
#
# Compressibility (1/GPa) = 0.01874839
#
# Stress axis : x y z
#
# Youngs Moduli (GPa) = 69.60757 48.33250 51.50102
#
# Poissons Ratio (x) = 0.24391 0.18462
# Poissons Ratio (y) = 0.35128 0.47541
# Poissons Ratio (z) = 0.24953 0.44616
#
# Static dielectric constant tensor:
#      x y z
#    x 3.552740 0.000000 0.000000 
#    y 0.000000 3.634460 0.000000 
#    z 0.000000 0.000000 3.615530 
# 
# 
# High freq. dielectric constant tensor:
#      x y z
#    x 1.718070 0.000000 0.000000 
#    y 0.000000 1.716110 0.000000 
#    z 0.000000 0.000000 1.730050 
# 
# From -- ./inp_files/5146.got.cif
#   From: 2010.03.12/outbox.cif.g09.slc.cpg/sg57_3_cif.got.tgz:5146.got - 2010.04.16 15:48:40.
