data_PCOD8230634
_publ_section_title
;
Structure prediction by ZEFSAII (Michael W. Deem and Ramdas Pophale) SiO2 
 PCOD8230634
Probable space group: P B C M
;
_chemical_formula_sum "Si O2"
_cell_formula_units_Z 60
_cell_length_a 26.628540
_cell_length_b 5.181535
_cell_length_c 23.842373
_cell_angle_alpha 90.000000
_cell_angle_beta 90.000000
_cell_angle_gamma 90.000000
_cell_volume 3289.692233
_symmetry_space_group_name_H-M "P B C M"
_symmetry_group_IT_number 57
_symmetry_cell_setting 'orthorhombic'
loop_
_space_group_symop_operation_xyz
x,y,z
-x,-y,1/2+z
x,1/2-y,-z
-x,1/2+y,1/2-z
-x,-y,-z
x,y,1/2-z
-x,1/2+y,z
x,1/2-y,1/2+z
loop_
_atom_site_type_symbol
_atom_site_label
_atom_site_fract_x
_atom_site_fract_y
_atom_site_fract_z
Si Si1 0.205365 0.707882 0.874421
Si Si2 0.697325 0.210626 0.184977
Si Si3 0.032190 0.716420 0.250000
Si Si4 0.642513 0.710935 0.317123
Si Si5 0.912106 0.231964 0.633183
Si Si6 0.085098 0.239304 0.563092
Si Si7 0.797074 0.712775 0.939317
Si Si8 0.471161 0.271589 0.683163
O O1 0.242533 0.773833 0.823389
O O2 0.147576 0.718308 0.855643
O O3 0.223021 0.428433 0.896497
O O4 0.214979 0.922499 0.921701
O O5 0.686115 0.205960 0.250000
O O6 0.668531 0.454473 0.158226
O O7 0.673904 0.952153 0.158170
O O8 0.065053 0.756279 0.194713
O O9 0.012228 0.424673 0.250000
O O10 0.643786 0.710016 0.250000
O O11 0.585656 0.725793 0.339558
O O12 0.928853 0.476383 0.595581
O O13 0.933515 0.981844 0.600397
O O14 0.061118 0.250000 0.500000
O O15 0.144077 0.265554 0.556241
O O16 0.771929 0.750000 0.000000
O O17 0.471048 0.272249 0.750000
O O18 0.500633 0.519765 0.659879
#
# Coordination Sequence:
#
# PCOD8230634 Si02
#       8
#     8   8   4   8   8   8   8   8
#     4  10  19  31  50  75  97 126 165 198 234 283
#     4  10  19  29  42  60  93 130 158 195 229 278
#     4  12  26  44  62  78 108 146 176 214 258 308
#     4   9  17  28  38  55  83 121 160 195 244 280
#     4  10  21  36  58  82 104 136 174 212 250 306
#     4   9  17  33  58  86 109 130 161 210 262 300
#     4   9  17  30  48  73 101 124 154 196 240 287
#     4   9  15  23  37  54  72 102 154 211 241 269
#
# _framework density 18.238786999999999
#
# number of rings (size 3 to 8) (size 9 to 14) (size 15 to 20)
#    0.000    2.400    0.000    3.200    0.933    6.400 
#    0.000    0.000    0.000    8.000    0.000    0.000 
#    0.000    0.000    0.000    0.000    0.000  168.000 
#
# Total GULP energy -743767.437500 kJ/mol
# GULP energy per Si atom -12396.123958 kJ/mol
# Density = 1.819727 g / cm^3
# Si number density = 18.238787 Si / 1000 Ang^3
#
#
#
# Elastic Constant Matrix: (Units=GPa)
#
#
# Indices 1 2 3 4 5 6 
#
# 1 63.6529 32.3934 29.9976 0.0000 0.0000 0.0000
# 2 32.3934 132.8448 30.5690 0.0000 0.0000 0.0000
# 3 29.9976 30.5690 70.6776 0.0000 0.0000 0.0000
# 4 0.0000 0.0000 0.0000 17.5462 0.0000 0.0000
# 5 0.0000 0.0000 0.0000 0.0000 2.3245 0.0000
# 6 0.0000 0.0000 0.0000 0.0000 0.0000 24.4055
#
#
#
# Elastic Compliance Matrix: (Units=1/GPa)
#
#
# Indices 1 2 3 4 5 6 
#
# 1 0.020934 -0.003398 -0.007415 0.000000 0.000000 0.000000
# 2 -0.003398 0.008911 -0.002412 0.000000 0.000000 0.000000
# 3 -0.007415 -0.002412 0.018339 0.000000 0.000000 0.000000
# 4 0.000000 0.000000 0.000000 0.056993 0.000000 0.000000
# 5 0.000000 0.000000 0.000000 0.000000 0.430195 0.000000
# 6 0.000000 0.000000 0.000000 0.000000 0.000000 0.040974
#
#
# Mechanical properties :
#
#
# Convention : Reuss Voigt Hill
#
# Bulk Modulus (GPa) = 46.01154 50.34393 48.17773
# Shear Modulus (GPa) = 8.19616 20.46958 14.33287
#
# Velocity S-wave (km/s) = 2.12216 3.35372 2.80633
# Velocity P-wave (km/s) = 5.59346 6.53140 6.08054
#
# Compressibility (1/GPa) = 0.02173368
#
# Stress axis : x y z
#
# Youngs Moduli (GPa) = 47.76869 112.21770 54.52807
#
# Poissons Ratio (x) = 0.38136 0.40434
# Poissons Ratio (y) = 0.16233 0.13152
# Poissons Ratio (z) = 0.35422 0.27066
#
# Static dielectric constant tensor:
#      x y z
#    x 3.233930 0.000000 0.000000 
#    y 0.000000 3.758540 0.000000 
#    z 0.000000 0.000000 3.031370 
# 
# 
# High freq. dielectric constant tensor:
#      x y z
#    x 1.691640 0.000000 0.000000 
#    y 0.000000 1.732750 0.000000 
#    z 0.000000 0.000000 1.657290 
# 
# From -- ./inp_files/25876.got.cif
#   From: 2010.03.12/outbox.cif.g09.slc.cpg/sg57_13_cif.got.tgz:25876.got - 2010.04.16 15:48:40.
