data_PCOD8230723
_publ_section_title
;
Structure prediction by ZEFSAII (Michael W. Deem and Ramdas Pophale) SiO2 
 PCOD8230723
Probable space group: P B C M
;
_chemical_formula_sum "Si O2"
_cell_formula_units_Z 48
_cell_length_a 11.473259
_cell_length_b 26.654623
_cell_length_c 8.626326
_cell_angle_alpha 90.000000
_cell_angle_beta 90.000000
_cell_angle_gamma 90.000000
_cell_volume 2638.063278
_symmetry_space_group_name_H-M "P B C M"
_symmetry_group_IT_number 57
_symmetry_cell_setting 'orthorhombic'
loop_
_space_group_symop_operation_xyz
x,y,z
-x,-y,1/2+z
x,1/2-y,-z
-x,1/2+y,1/2-z
-x,-y,-z
x,y,1/2-z
-x,1/2+y,z
x,1/2-y,1/2+z
loop_
_atom_site_type_symbol
_atom_site_label
_atom_site_fract_x
_atom_site_fract_y
_atom_site_fract_z
Si Si1 0.291769 0.875380 0.080979
Si Si2 0.334202 0.134345 0.430596
Si Si3 0.862793 0.803391 0.433778
Si Si4 0.883002 0.197534 0.067350
Si Si5 0.508644 0.202464 0.918101
Si Si6 0.491646 0.944840 0.434479
O O1 0.235541 0.888929 0.250000
O O2 0.389005 0.834938 0.113198
O O3 0.365357 0.922351 0.009376
O O4 0.196279 0.851559 0.966728
O O5 0.317918 0.123850 0.250000
O O6 0.209953 0.148395 0.506026
O O7 0.413475 0.182660 0.461445
O O8 0.395836 0.086010 0.506804
O O9 0.816060 0.750000 0.500000
O O10 0.858088 0.801129 0.250000
O O11 0.993672 0.812872 0.489235
O O12 0.897274 0.203565 0.250000
O O13 0.830658 0.250000 0.000000
O O14 0.450091 0.214197 0.750000
O O15 0.565928 0.250000 0.000000
O O16 0.495252 0.944513 0.250000
O O17 0.500000 0.000000 0.500000
#
# Coordination Sequence:
#
# PCOD8230723 Si02
#       6
#     8   8   8   8   8   8
#     4   9  19  34  51  73 102 135 171 211 255 306
#     4  11  21  34  52  75 103 135 173 214 259 310
#     4  11  21  35  53  75 107 144 181 217 256 305
#     4  11  21  33  51  76 107 143 181 216 254 303
#     4  10  19  30  45  69 101 135 170 208 254 307
#     4  10  21  38  59  82 106 134 171 216 268 319
#
# _framework density 18.195167000000001
#
# number of rings (size 3 to 8) (size 9 to 14) (size 15 to 20)
#    0.000    1.667    0.000    8.500    0.000    5.333 
#    0.000    0.000    0.000    1.000    0.000    0.000 
#    0.000    0.000    0.000    0.000    0.000    0.000 
#
# Total GULP energy -594797.656542 kJ/mol
# GULP energy per Si atom -12391.617845 kJ/mol
# Density = 1.815375 g / cm^3
# Si number density = 18.195167 Si / 1000 Ang^3
#
#
#
# Elastic Constant Matrix: (Units=GPa)
#
#
# Indices 1 2 3 4 5 6 
#
# 1 83.1229 46.3734 41.0676 0.0000 0.0000 0.0000
# 2 46.3734 103.1134 52.5273 0.0000 0.0000 0.0000
# 3 41.0676 52.5273 135.1240 0.0000 0.0000 0.0000
# 4 0.0000 0.0000 0.0000 24.7872 0.0000 0.0000
# 5 0.0000 0.0000 0.0000 0.0000 28.6358 0.0000
# 6 0.0000 0.0000 0.0000 0.0000 0.0000 23.4827
#
#
#
# Elastic Compliance Matrix: (Units=1/GPa)
#
#
# Indices 1 2 3 4 5 6 
#
# 1 0.016818 -0.006185 -0.002707 0.000000 0.000000 0.000000
# 2 -0.006185 0.014367 -0.003705 0.000000 0.000000 0.000000
# 3 -0.002707 -0.003705 0.009664 0.000000 0.000000 0.000000
# 4 0.000000 0.000000 0.000000 0.040343 0.000000 0.000000
# 5 0.000000 0.000000 0.000000 0.000000 0.034921 0.000000
# 6 0.000000 0.000000 0.000000 0.000000 0.000000 0.042585
#
#
# Mechanical properties :
#
#
# Convention : Reuss Voigt Hill
#
# Bulk Modulus (GPa) = 63.87873 66.81079 65.34476
# Shear Modulus (GPa) = 26.43948 27.47392 26.95670
#
# Velocity S-wave (km/s) = 3.81610 3.89003 3.85324
# Velocity P-wave (km/s) = 7.38922 7.54819 7.46913
#
# Compressibility (1/GPa) = 0.01565466
#
# Stress axis : x y z
#
# Youngs Moduli (GPa) = 59.45915 69.60403 103.47885
#
# Poissons Ratio (x) = 0.43047 0.28015
# Poissons Ratio (y) = 0.36773 0.38342
# Poissons Ratio (z) = 0.16098 0.25790
#
# Static dielectric constant tensor:
#      x y z
#    x 3.505080 0.000000 0.000000 
#    y 0.000000 2.887060 0.000000 
#    z 0.000000 0.000000 3.452590 
# 
# 
# High freq. dielectric constant tensor:
#      x y z
#    x 1.695570 0.000000 0.000000 
#    y 0.000000 1.679730 0.000000 
#    z 0.000000 0.000000 1.722830 
# 
# From -- ./inp_files/3308.got.cif
#   From: 2010.03.12/outbox.cif.g09.slc.cpg/sg57_2_cif.got.tgz:3308.got - 2010.04.16 15:48:40.
