data_PCOD8230680
_publ_section_title
;
Structure prediction by ZEFSAII (Michael W. Deem and Ramdas Pophale) SiO2 
 PCOD8230680
Probable space group: P B C M
;
_chemical_formula_sum "Si O2"
_cell_formula_units_Z 64
_cell_length_a 11.279312
_cell_length_b 33.449874
_cell_length_c 8.722599
_cell_angle_alpha 90.000000
_cell_angle_beta 90.000000
_cell_angle_gamma 90.000000
_cell_volume 3290.963029
_symmetry_space_group_name_H-M "P B C M"
_symmetry_group_IT_number 57
_symmetry_cell_setting 'orthorhombic'
loop_
_space_group_symop_operation_xyz
x,y,z
-x,-y,1/2+z
x,1/2-y,-z
-x,1/2+y,1/2-z
-x,-y,-z
x,y,1/2-z
-x,1/2+y,z
x,1/2-y,1/2+z
loop_
_atom_site_type_symbol
_atom_site_label
_atom_site_fract_x
_atom_site_fract_y
_atom_site_fract_z
Si Si1 0.797240 0.864621 0.076299
Si Si2 0.730964 0.515336 0.069227
Si Si3 0.050439 0.437940 0.428023
Si Si4 0.351483 0.872243 0.431827
Si Si5 0.419194 0.078900 0.928779
Si Si6 0.442672 0.707927 0.067876
Si Si7 0.287949 0.290162 0.927615
Si Si8 0.799859 0.436521 0.930830
O O1 0.787769 0.849558 0.250000
O O2 0.913454 0.891511 0.050494
O O3 0.682471 0.889726 0.030761
O O4 0.801351 0.825907 0.968946
O O5 0.750413 0.517141 0.250000
O O6 0.844088 0.533725 0.983048
O O7 0.610282 0.538653 0.023549
O O8 0.717222 0.469712 0.013026
O O9 0.024371 0.447447 0.250000
O O10 0.935857 0.446231 0.529717
O O11 0.342057 0.868514 0.250000
O O12 0.459226 0.901027 0.483352
O O13 0.364069 0.828057 0.501158
O O14 0.234369 0.893040 0.501354
O O15 0.420721 0.067812 0.750000
O O16 0.430702 0.708624 0.250000
O O17 0.578443 0.701174 0.012297
O O18 0.395558 0.750000 0.000000
O O19 0.290988 0.283323 0.750000
O O20 0.235872 0.250000 0.000000
O O21 0.780497 0.437592 0.750000
#
# Coordination Sequence:
#
# PCOD8230680 Si02
#       8
#     8   8   8   8   8   8   8   8
#     4   9  17  32  54  79 108 140 175 221 273 325
#     4  11  22  37  59  84 111 144 184 232 282 331
#     4  10  21  39  60  82 108 142 184 231 281 331
#     4  11  22  38  59  82 114 151 187 231 279 333
#     4   9  19  35  55  80 111 147 183 223 277 333
#     4  10  20  34  54  83 115 150 187 227 271 322
#     4  10  19  29  48  78 113 145 178 218 266 324
#     4  12  25  40  57  80 110 146 190 235 277 328
#
# _framework density 19.447196000000002
#
# number of rings (size 3 to 8) (size 9 to 14) (size 15 to 20)
#    0.000    1.750    1.250    4.875    0.000    5.000 
#    0.000    0.000    0.000    0.750    0.000    1.750 
#    0.000    0.000    0.000    0.000    0.000    0.000 
#
# Total GULP energy -793759.620066 kJ/mol
# GULP energy per Si atom -12402.494064 kJ/mol
# Density = 1.940293 g / cm^3
# Si number density = 19.447196 Si / 1000 Ang^3
#
#
#
# Elastic Constant Matrix: (Units=GPa)
#
#
# Indices 1 2 3 4 5 6 
#
# 1 30.6454 15.3749 11.3342 0.0000 0.0000 0.0000
# 2 15.3749 121.8127 44.0144 0.0000 0.0000 0.0000
# 3 11.3342 44.0144 88.2665 0.0000 0.0000 0.0000
# 4 0.0000 0.0000 0.0000 38.2518 0.0000 0.0000
# 5 0.0000 0.0000 0.0000 0.0000 26.7820 0.0000
# 6 0.0000 0.0000 0.0000 0.0000 0.0000 10.2447
#
#
#
# Elastic Compliance Matrix: (Units=1/GPa)
#
#
# Indices 1 2 3 4 5 6 
#
# 1 0.035407 -0.003447 -0.002828 0.000000 0.000000 0.000000
# 2 -0.003447 0.010349 -0.004718 0.000000 0.000000 0.000000
# 3 -0.002828 -0.004718 0.014045 0.000000 0.000000 0.000000
# 4 0.000000 0.000000 0.000000 0.026143 0.000000 0.000000
# 5 0.000000 0.000000 0.000000 0.000000 0.037338 0.000000
# 6 0.000000 0.000000 0.000000 0.000000 0.000000 0.097611
#
#
# Mechanical properties :
#
#
# Convention : Reuss Voigt Hill
#
# Bulk Modulus (GPa) = 26.44437 42.46352 34.45394
# Shear Modulus (GPa) = 19.57073 26.38912 22.97992
#
# Velocity S-wave (km/s) = 3.17575 3.68769 3.44125
# Velocity P-wave (km/s) = 5.20334 6.32573 5.79178
#
# Compressibility (1/GPa) = 0.03781524
#
# Stress axis : x y z
#
# Youngs Moduli (GPa) = 28.24332 96.62606 71.19947
#
# Poissons Ratio (x) = 0.33310 0.20132
# Poissons Ratio (y) = 0.09736 0.33592
# Poissons Ratio (z) = 0.07986 0.45588
#
# Static dielectric constant tensor:
#      x y z
#    x 3.334800 0.000000 0.000000 
#    y 0.000000 3.740000 0.000000 
#    z 0.000000 0.000000 3.468670 
# 
# 
# High freq. dielectric constant tensor:
#      x y z
#    x 1.723310 0.000000 0.000000 
#    y 0.000000 1.764310 0.000000 
#    z 0.000000 0.000000 1.764660 
# 
# From -- ./inp_files/3917.got.cif
#   From: 2010.03.12/outbox.cif.g09.slc.cpg/sg57_2_cif.got.tgz:3917.got - 2010.04.16 15:48:40.
