data_PCOD8230328
_publ_section_title
;
Structure prediction by ZEFSAII (Michael W. Deem and Ramdas Pophale) SiO2 
 PCOD8230328
Probable space group: P B C M
;
_chemical_formula_sum "Si O2"
_cell_formula_units_Z 48
_cell_length_a 15.239050
_cell_length_b 20.549967
_cell_length_c 8.595644
_cell_angle_alpha 90.000000
_cell_angle_beta 90.000000
_cell_angle_gamma 90.000000
_cell_volume 2691.828848
_symmetry_space_group_name_H-M "P B C M"
_symmetry_group_IT_number 57
_symmetry_cell_setting 'orthorhombic'
loop_
_space_group_symop_operation_xyz
x,y,z
-x,-y,1/2+z
x,1/2-y,-z
-x,1/2+y,1/2-z
-x,-y,-z
x,y,1/2-z
-x,1/2+y,z
x,1/2-y,1/2+z
loop_
_atom_site_type_symbol
_atom_site_label
_atom_site_fract_x
_atom_site_fract_y
_atom_site_fract_z
Si Si1 0.567049 0.447776 0.564491
Si Si2 0.885090 0.682408 0.067413
Si Si3 0.299512 0.157577 0.926247
Si Si4 0.262885 0.489298 0.075475
Si Si5 0.515929 0.814658 0.566121
Si Si6 0.924501 0.545715 0.935963
O O1 0.500000 0.500000 0.500000
O O2 0.566924 0.453603 0.750000
O O3 0.665996 0.461644 0.498107
O O4 0.539169 0.376492 0.506637
O O5 0.900883 0.680298 0.250000
O O6 0.925035 0.750000 0.000000
O O7 0.781991 0.680669 0.029390
O O8 0.934945 0.620186 0.992781
O O9 0.285200 0.182635 0.750000
O O10 0.309624 0.080327 0.928930
O O11 0.386777 0.186965 0.997322
O O12 0.245480 0.513001 0.250000
O O13 0.166993 0.484393 0.995181
O O14 0.468057 0.750000 0.500000
O O15 0.521026 0.813773 0.750000
O O16 0.923917 0.546908 0.750000
O O17 0.000000 0.500000 0.000000
#
# Coordination Sequence:
#
# PCOD8230328 Si02
#       6
#     8   8   8   8   8   8
#     4  10  19  33  52  75  99 133 176 218 259 308
#     4  11  21  34  52  77 109 141 175 216 265 323
#     4  10  18  31  50  72 103 138 172 211 261 316
#     4   8  16  31  52  75 101 132 168 213 264 312
#     4  11  22  32  46  69 101 138 178 217 261 310
#     4  10  20  36  57  82 109 140 177 219 272 326
#
# _framework density 17.831744
#
# number of rings (size 3 to 8) (size 9 to 14) (size 15 to 20)
#    0.000    2.000    1.667    4.500    0.000    0.667 
#    0.000    0.833    0.000    1.000    0.000    2.333 
#    0.000    0.000    0.000    0.000    0.000    0.000 
#
# Total GULP energy -594921.711037 kJ/mol
# GULP energy per Si atom -12394.202313 kJ/mol
# Density = 1.779116 g / cm^3
# Si number density = 17.831744 Si / 1000 Ang^3
#
#
#
# Elastic Constant Matrix: (Units=GPa)
#
#
# Indices 1 2 3 4 5 6 
#
# 1 92.4552 73.7558 25.7872 0.0000 0.0000 0.0000
# 2 73.7558 148.6221 40.3683 0.0000 0.0000 0.0000
# 3 25.7872 40.3683 74.2511 0.0000 0.0000 0.0000
# 4 0.0000 0.0000 0.0000 28.6144 0.0000 0.0000
# 5 0.0000 0.0000 0.0000 0.0000 19.0426 0.0000
# 6 0.0000 0.0000 0.0000 0.0000 0.0000 23.7242
#
#
#
# Elastic Compliance Matrix: (Units=1/GPa)
#
#
# Indices 1 2 3 4 5 6 
#
# 1 0.018073 -0.008523 -0.001643 0.000000 0.000000 0.000000
# 2 -0.008523 0.011913 -0.003517 0.000000 0.000000 0.000000
# 3 -0.001643 -0.003517 0.015951 0.000000 0.000000 0.000000
# 4 0.000000 0.000000 0.000000 0.034947 0.000000 0.000000
# 5 0.000000 0.000000 0.000000 0.000000 0.052514 0.000000
# 6 0.000000 0.000000 0.000000 0.000000 0.000000 0.042151
#
#
# Mechanical properties :
#
#
# Convention : Reuss Voigt Hill
#
# Bulk Modulus (GPa) = 53.84665 66.12786 59.98725
# Shear Modulus (GPa) = 23.91128 25.97071 24.94099
#
# Velocity S-wave (km/s) = 3.66586 3.82046 3.74396
# Velocity P-wave (km/s) = 6.94123 7.52503 7.23902
#
# Compressibility (1/GPa) = 0.01857126
#
# Stress axis : x y z
#
# Youngs Moduli (GPa) = 55.32971 83.93944 62.69361
#
# Poissons Ratio (x) = 0.71541 0.10302
# Poissons Ratio (y) = 0.47157 0.22049
# Poissons Ratio (z) = 0.09092 0.29521
#
# Static dielectric constant tensor:
#      x y z
#    x 3.357440 0.000000 0.000000 
#    y 0.000000 3.651110 0.000000 
#    z 0.000000 0.000000 3.258550 
# 
# 
# High freq. dielectric constant tensor:
#      x y z
#    x 1.661470 0.000000 0.000000 
#    y 0.000000 1.695940 0.000000 
#    z 0.000000 0.000000 1.684500 
# 
# From -- ./inp_files/4913.got.cif
#   From: 2010.03.12/outbox.cif.g09.slc.cpg/sg57_3_cif.got.tgz:4913.got - 2010.04.16 15:48:40.
