data_PCOD8230514
_publ_section_title
;
Structure prediction by ZEFSAII (Michael W. Deem and Ramdas Pophale) SiO2 
 PCOD8230514
Probable space group: P B C M
;
_chemical_formula_sum "Si O2"
_cell_formula_units_Z 40
_cell_length_a 24.124077
_cell_length_b 8.756990
_cell_length_c 9.641489
_cell_angle_alpha 90.000000
_cell_angle_beta 90.000000
_cell_angle_gamma 90.000000
_cell_volume 2036.806020
_symmetry_space_group_name_H-M "P B C M"
_symmetry_group_IT_number 57
_symmetry_cell_setting 'orthorhombic'
loop_
_space_group_symop_operation_xyz
x,y,z
-x,-y,1/2+z
x,1/2-y,-z
-x,1/2+y,1/2-z
-x,-y,-z
x,y,1/2-z
-x,1/2+y,z
x,1/2-y,1/2+z
loop_
_atom_site_type_symbol
_atom_site_label
_atom_site_fract_x
_atom_site_fract_y
_atom_site_fract_z
Si Si1 0.454572 0.622037 0.250000
Si Si2 0.627013 0.071426 0.480208
Si Si3 0.956043 0.096456 0.086715
Si Si4 0.746296 0.401585 0.590420
Si Si5 0.571623 0.021641 0.750000
Si Si6 0.847835 0.604922 0.593004
O O1 0.424822 0.542837 0.379790
O O2 0.448406 0.803853 0.250000
O O3 0.519408 0.589422 0.250000
O O4 0.635203 0.250000 0.500000
O O5 0.686479 0.013877 0.425202
O O6 0.610913 0.984586 0.620413
O O7 0.973817 0.122865 0.250000
O O8 0.897659 0.013011 0.082434
O O9 0.948895 0.250000 0.000000
O O10 0.000000 0.000000 0.000000
O O11 0.751627 0.250000 0.500000
O O12 0.755761 0.354397 0.750000
O O13 0.792177 0.521954 0.540057
O O14 0.861366 0.750000 0.500000
O O15 0.840164 0.662674 0.750000
#
# Coordination Sequence:
#
# PCOD8230514 Si02
#       6
#     4   8   8   8   4   8
#     4  10  18  34  50  76 100 138 171 222 269 334
#     4   9  18  32  53  75 103 134 178 224 274 331
#     4  11  23  40  64  93 127 163 206 250 296 348
#     4  10  20  36  59  84 109 142 191 240 286 340
#     4  10  20  32  52  74 104 134 177 218 275 334
#     4  10  23  41  59  86 121 158 195 241 292 347
#
# _framework density 19.638590000000001
#
# number of rings (size 3 to 8) (size 9 to 14) (size 15 to 20)
#    0.000    2.000    1.000    2.400    4.200    4.000 
#    0.000    2.000    0.000    0.000    0.000    0.000 
#    0.000    0.000    0.000    0.000    0.000    0.000 
#
# Total GULP energy -495884.542741 kJ/mol
# GULP energy per Si atom -12397.113569 kJ/mol
# Density = 1.959389 g / cm^3
# Si number density = 19.638590 Si / 1000 Ang^3
#
#
#
# Elastic Constant Matrix: (Units=GPa)
#
#
# Indices 1 2 3 4 5 6 
#
# 1 105.4150 25.0619 31.7994 0.0000 0.0000 0.0000
# 2 25.0619 69.2014 43.2405 0.0000 0.0000 0.0000
# 3 31.7994 43.2405 127.0254 0.0000 0.0000 0.0000
# 4 0.0000 0.0000 0.0000 28.0037 0.0000 0.0000
# 5 0.0000 0.0000 0.0000 0.0000 31.9420 0.0000
# 6 0.0000 0.0000 0.0000 0.0000 0.0000 29.7815
#
#
#
# Elastic Compliance Matrix: (Units=1/GPa)
#
#
# Indices 1 2 3 4 5 6 
#
# 1 0.010668 -0.002788 -0.001722 0.000000 0.000000 0.000000
# 2 -0.002788 0.019083 -0.005798 0.000000 0.000000 0.000000
# 3 -0.001722 -0.005798 0.010277 0.000000 0.000000 0.000000
# 4 0.000000 0.000000 0.000000 0.035710 0.000000 0.000000
# 5 0.000000 0.000000 0.000000 0.000000 0.031307 0.000000
# 6 0.000000 0.000000 0.000000 0.000000 0.000000 0.033578
#
#
# Mechanical properties :
#
#
# Convention : Reuss Voigt Hill
#
# Bulk Modulus (GPa) = 51.51087 55.76060 53.63573
# Shear Modulus (GPa) = 29.81338 31.38141 30.59740
#
# Velocity S-wave (km/s) = 3.90051 4.00177 3.95146
# Velocity P-wave (km/s) = 6.82434 7.05742 6.94186
#
# Compressibility (1/GPa) = 0.01941338
#
# Stress axis : x y z
#
# Youngs Moduli (GPa) = 93.73391 52.40201 97.30270
#
# Poissons Ratio (x) = 0.14609 0.16753
# Poissons Ratio (y) = 0.26132 0.56418
# Poissons Ratio (z) = 0.16138 0.30384
#
# Static dielectric constant tensor:
#      x y z
#    x 3.823190 0.000000 0.000000 
#    y 0.000000 3.179430 0.000000 
#    z 0.000000 0.000000 2.495160 
# 
# 
# High freq. dielectric constant tensor:
#      x y z
#    x 1.783240 0.000000 0.000000 
#    y 0.000000 1.733520 0.000000 
#    z 0.000000 0.000000 1.780470 
# 
# From -- ./inp_files/8955.got.cif
#   From: 2010.03.12/outbox.cif.g09.slc.cpg/sg57_5_cif.got.tgz:8955.got - 2010.04.16 15:48:40.
