data_PCOD8230985
_publ_section_title
;
Structure prediction by ZEFSAII (Michael W. Deem and Ramdas Pophale) SiO2 
 PCOD8230985
Probable space group: P B C M
;
_chemical_formula_sum "Si O2"
_cell_formula_units_Z 64
_cell_length_a 22.879491
_cell_length_b 17.619797
_cell_length_c 9.093079
_cell_angle_alpha 90.000000
_cell_angle_beta 90.000000
_cell_angle_gamma 90.000000
_cell_volume 3665.711004
_symmetry_space_group_name_H-M "P B C M"
_symmetry_group_IT_number 57
_symmetry_cell_setting 'orthorhombic'
loop_
_space_group_symop_operation_xyz
x,y,z
-x,-y,1/2+z
x,1/2-y,-z
-x,1/2+y,1/2-z
-x,-y,-z
x,y,1/2-z
-x,1/2+y,z
x,1/2-y,1/2+z
loop_
_atom_site_type_symbol
_atom_site_label
_atom_site_fract_x
_atom_site_fract_y
_atom_site_fract_z
Si Si1 0.566436 0.830478 0.075599
Si Si2 0.635170 0.532453 0.078399
Si Si3 0.181831 0.179040 0.582347
Si Si4 0.752565 0.975164 0.415878
Si Si5 0.875285 0.034013 0.080101
Si Si6 0.075650 0.105847 0.075608
Si Si7 0.953032 0.172902 0.418846
Si Si8 0.531946 0.065125 0.582512
O O1 0.577808 0.822725 0.250000
O O2 0.498073 0.853957 0.039329
O O3 0.579691 0.750000 0.000000
O O4 0.609022 0.896192 0.012215
O O5 0.634806 0.554924 0.250000
O O6 0.600545 0.451668 0.052688
O O7 0.700030 0.511910 0.027557
O O8 0.211665 0.250000 0.500000
O O9 0.167008 0.199400 0.750000
O O10 0.227689 0.111578 0.572087
O O11 0.121661 0.161767 0.499173
O O12 0.732121 0.994004 0.250000
O O13 0.806847 0.028868 0.463223
O O14 0.882451 0.007661 0.250000
O O15 0.897241 0.119046 0.054705
O O16 0.914716 0.979400 0.980759
O O17 0.083353 0.107652 0.250000
O O18 0.011606 0.132162 0.023698
O O19 0.939169 0.250000 0.500000
O O20 0.961310 0.193159 0.250000
O O21 0.516416 0.051364 0.750000
O O22 0.500000 0.000000 0.500000
#
# Coordination Sequence:
#
# PCOD8230985 Si02
#       8
#     8   8   8   8   8   8   8   8
#     4  10  19  32  50  74 105 134 160 192 234 282
#     4  10  19  32  51  74  98 126 163 202 238 280
#     4  10  20  33  48  67  96 131 164 200 242 289
#     4   9  19  34  50  68  93 128 166 203 242 282
#     4   9  19  36  53  70  97 130 164 203 246 291
#     4  10  19  31  50  75  99 125 160 198 243 299
#     4  10  21  34  50  74 100 126 157 199 250 301
#     4   8  16  30  48  70  96 126 157 191 229 270
#
# _framework density 17.459095999999999
#
# number of rings (size 3 to 8) (size 9 to 14) (size 15 to 20)
#    0.000    2.500    0.000    3.000    0.000    6.500 
#    0.000    1.250    0.000    0.750    0.000    5.250 
#    0.000    0.000    0.000    0.000    0.000    0.000 
#
# Total GULP energy -793120.406136 kJ/mol
# GULP energy per Si atom -12392.506346 kJ/mol
# Density = 1.741936 g / cm^3
# Si number density = 17.459096 Si / 1000 Ang^3
#
#
#
# Elastic Constant Matrix: (Units=GPa)
#
#
# Indices 1 2 3 4 5 6 
#
# 1 104.7505 42.3811 41.7156 0.0000 0.0000 0.0000
# 2 42.3811 65.1291 34.2116 0.0000 0.0000 0.0000
# 3 41.7156 34.2116 74.2961 0.0000 0.0000 0.0000
# 4 0.0000 0.0000 0.0000 26.3617 0.0000 0.0000
# 5 0.0000 0.0000 0.0000 0.0000 27.9998 0.0000
# 6 0.0000 0.0000 0.0000 0.0000 0.0000 12.5214
#
#
#
# Elastic Compliance Matrix: (Units=1/GPa)
#
#
# Indices 1 2 3 4 5 6 
#
# 1 0.014194 -0.006661 -0.004902 0.000000 0.000000 0.000000
# 2 -0.006661 0.023379 -0.007025 0.000000 0.000000 0.000000
# 3 -0.004902 -0.007025 0.019447 0.000000 0.000000 0.000000
# 4 0.000000 0.000000 0.000000 0.037934 0.000000 0.000000
# 5 0.000000 0.000000 0.000000 0.000000 0.035714 0.000000
# 6 0.000000 0.000000 0.000000 0.000000 0.000000 0.079863
#
#
# Mechanical properties :
#
#
# Convention : Reuss Voigt Hill
#
# Bulk Modulus (GPa) = 50.39690 53.42136 51.90913
# Shear Modulus (GPa) = 19.66004 21.76776 20.71390
#
# Velocity S-wave (km/s) = 3.35933 3.53482 3.44819
# Velocity P-wave (km/s) = 6.63137 6.87927 6.75646
#
# Compressibility (1/GPa) = 0.01984249
#
# Stress axis : x y z
#
# Youngs Moduli (GPa) = 70.45338 42.77329 51.42140
#
# Poissons Ratio (x) = 0.28492 0.25208
# Poissons Ratio (y) = 0.46930 0.36126
# Poissons Ratio (z) = 0.34537 0.30050
#
# Static dielectric constant tensor:
#      x y z
#    x 3.542360 0.000000 0.000000 
#    y 0.000000 3.296770 0.000000 
#    z 0.000000 0.000000 3.339390 
# 
# 
# High freq. dielectric constant tensor:
#      x y z
#    x 1.667390 0.000000 0.000000 
#    y 0.000000 1.655510 0.000000 
#    z 0.000000 0.000000 1.684690 
# 
# From -- ./inp_files/9565.got.cif
#   From: 2010.03.12/outbox.cif.g09.slc.cpg/sg57_5_cif.got.tgz:9565.got - 2010.04.16 15:48:40.
