data_PCOD8230775
_publ_section_title
;
Structure prediction by ZEFSAII (Michael W. Deem and Ramdas Pophale) SiO2 
 PCOD8230775
Probable space group: P B C M
;
_chemical_formula_sum "Si O2"
_cell_formula_units_Z 64
_cell_length_a 30.611306
_cell_length_b 13.729182
_cell_length_c 8.824815
_cell_angle_alpha 90.000000
_cell_angle_beta 90.000000
_cell_angle_gamma 90.000000
_cell_volume 3708.789039
_symmetry_space_group_name_H-M "P B C M"
_symmetry_group_IT_number 57
_symmetry_cell_setting 'orthorhombic'
loop_
_space_group_symop_operation_xyz
x,y,z
-x,-y,1/2+z
x,1/2-y,-z
-x,1/2+y,1/2-z
-x,-y,-z
x,y,1/2-z
-x,1/2+y,z
x,1/2-y,1/2+z
loop_
_atom_site_type_symbol
_atom_site_label
_atom_site_fract_x
_atom_site_fract_y
_atom_site_fract_z
Si Si1 0.108523 0.349397 0.428906
Si Si2 0.355433 0.149835 0.926989
Si Si3 0.255999 0.353839 0.070737
Si Si4 0.518254 0.145967 0.572757
Si Si5 0.182069 0.466674 0.569736
Si Si6 0.952580 0.496983 0.428475
Si Si7 0.876840 0.354457 0.075026
Si Si8 0.565139 0.522989 0.927882
O O1 0.091687 0.250000 0.500000
O O2 0.115011 0.342215 0.250000
O O3 0.153771 0.376929 0.508485
O O4 0.071638 0.425020 0.470756
O O5 0.359495 0.166112 0.750000
O O6 0.306042 0.123616 0.973880
O O7 0.387739 0.063830 0.979738
O O8 0.371213 0.250000 0.000000
O O9 0.248557 0.349030 0.250000
O O10 0.241487 0.250000 0.000000
O O11 0.229705 0.446026 0.000668
O O12 0.523932 0.250000 0.500000
O O13 0.522314 0.157715 0.750000
O O14 0.471757 0.100884 0.524085
O O15 0.557552 0.077653 0.515030
O O16 0.183810 0.463631 0.750000
O O17 0.159828 0.568490 0.514014
O O18 0.953506 0.523933 0.250000
O O19 0.926129 0.395401 0.451889
O O20 0.000000 0.500000 0.500000
O O21 0.868058 0.338269 0.250000
O O22 0.870958 0.250000 0.000000
O O23 0.563128 0.501904 0.750000
#
# Coordination Sequence:
#
# PCOD8230775 Si02
#       8
#     8   8   8   8   8   8   8   8
#     4  11  21  34  52  74  99 130 163 199 242 289
#     4   9  18  31  48  71 100 131 163 199 241 292
#     4  10  19  31  49  75 103 133 164 196 241 296
#     4  10  19  30  47  70  95 126 164 206 251 297
#     4  10  20  35  52  74 102 129 160 202 244 289
#     4  10  21  37  53  75 104 134 167 203 242 288
#     4   9  20  36  55  76  99 127 163 204 245 286
#     4   9  18  32  48  68  96 129 164 204 248 295
#
# _framework density 17.256308000000001
#
# number of rings (size 3 to 8) (size 9 to 14) (size 15 to 20)
#    0.000    2.250    0.000    4.125    0.000    5.000 
#    0.000    1.250    0.000    0.750    0.000    1.750 
#    0.000    0.000    0.000    0.000    0.000    0.000 
#
# Total GULP energy -793423.346205 kJ/mol
# GULP energy per Si atom -12397.239784 kJ/mol
# Density = 1.721703 g / cm^3
# Si number density = 17.256308 Si / 1000 Ang^3
#
#
#
# Elastic Constant Matrix: (Units=GPa)
#
#
# Indices 1 2 3 4 5 6 
#
# 1 105.9666 56.8024 37.8120 0.0000 0.0000 0.0000
# 2 56.8024 121.2999 47.7770 0.0000 0.0000 0.0000
# 3 37.8120 47.7770 65.6817 0.0000 0.0000 0.0000
# 4 0.0000 0.0000 0.0000 32.6095 0.0000 0.0000
# 5 0.0000 0.0000 0.0000 0.0000 26.6542 0.0000
# 6 0.0000 0.0000 0.0000 0.0000 0.0000 23.7932
#
#
#
# Elastic Compliance Matrix: (Units=1/GPa)
#
#
# Indices 1 2 3 4 5 6 
#
# 1 0.013462 -0.004557 -0.004435 0.000000 0.000000 0.000000
# 2 -0.004557 0.013097 -0.006903 0.000000 0.000000 0.000000
# 3 -0.004435 -0.006903 0.022800 0.000000 0.000000 0.000000
# 4 0.000000 0.000000 0.000000 0.030666 0.000000 0.000000
# 5 0.000000 0.000000 0.000000 0.000000 0.037518 0.000000
# 6 0.000000 0.000000 0.000000 0.000000 0.000000 0.042029
#
#
# Mechanical properties :
#
#
# Convention : Reuss Voigt Hill
#
# Bulk Modulus (GPa) = 56.92251 64.19233 60.55742
# Shear Modulus (GPa) = 25.35251 26.64849 26.00050
#
# Velocity S-wave (km/s) = 3.83714 3.93399 3.88587
# Velocity P-wave (km/s) = 7.25876 7.61020 7.43656
#
# Compressibility (1/GPa) = 0.01756774
#
# Stress axis : x y z
#
# Youngs Moduli (GPa) = 74.28087 76.35227 43.86020
#
# Poissons Ratio (x) = 0.34796 0.19453
# Poissons Ratio (y) = 0.33852 0.30278
# Poissons Ratio (z) = 0.32945 0.52709
#
# Static dielectric constant tensor:
#      x y z
#    x 3.439280 0.000000 0.000000 
#    y 0.000000 3.181140 0.000000 
#    z 0.000000 0.000000 3.356340 
# 
# 
# High freq. dielectric constant tensor:
#      x y z
#    x 1.662370 0.000000 0.000000 
#    y 0.000000 1.655080 0.000000 
#    z 0.000000 0.000000 1.676220 
# 
# From -- ./inp_files/10334.got.cif
#   From: 2010.03.12/outbox.cif.g09.slc.cpg/sg57_6_cif.got.tgz:10334.got - 2010.04.16 15:48:40.
