data_PCOD8230257
_publ_section_title
;
Structure prediction by ZEFSAII (Michael W. Deem and Ramdas Pophale) SiO2 
 PCOD8230257
Probable space group: P B C M
;
_chemical_formula_sum "Si O2"
_cell_formula_units_Z 48
_cell_length_a 15.162690
_cell_length_b 20.030563
_cell_length_c 9.026662
_cell_angle_alpha 90.000000
_cell_angle_beta 90.000000
_cell_angle_gamma 90.000000
_cell_volume 2741.552664
_symmetry_space_group_name_H-M "P B C M"
_symmetry_group_IT_number 57
_symmetry_cell_setting 'orthorhombic'
loop_
_space_group_symop_operation_xyz
x,y,z
-x,-y,1/2+z
x,1/2-y,-z
-x,1/2+y,1/2-z
-x,-y,-z
x,y,1/2-z
-x,1/2+y,z
x,1/2-y,1/2+z
loop_
_atom_site_type_symbol
_atom_site_label
_atom_site_fract_x
_atom_site_fract_y
_atom_site_fract_z
Si Si1 0.769641 0.454518 0.921041
Si Si2 0.902459 0.819124 0.925977
Si Si3 0.570134 0.588122 0.417378
Si Si4 0.034243 0.934473 0.922418
Si Si5 0.255191 0.391866 0.075954
Si Si6 0.400668 0.569325 0.583642
O O1 0.744464 0.445670 0.750000
O O2 0.863306 0.421546 0.961714
O O3 0.774547 0.532846 0.960602
O O4 0.695255 0.416203 0.014587
O O5 0.894960 0.811603 0.750000
O O6 0.978393 0.870868 0.974071
O O7 0.930385 0.750000 0.000000
O O8 0.809071 0.842113 0.990445
O O9 0.573615 0.615902 0.250000
O O10 0.646687 0.621838 0.514984
O O11 0.475958 0.606899 0.489300
O O12 0.581801 0.509079 0.418543
O O13 0.022807 0.947984 0.750000
O O14 0.000000 0.000000 0.000000
O O15 0.252617 0.376472 0.250000
O O16 0.402673 0.597553 0.750000
#
# Coordination Sequence:
#
# PCOD8230257 Si02
#       6
#     8   8   8   8   8   8
#     4   9  17  29  46  70  99 130 164 206 258 309
#     4  11  23  37  53  74 103 137 175 216 261 312
#     4   9  16  26  41  63  95 131 164 199 244 297
#     4  10  20  34  53  76 101 133 173 217 263 314
#     4  10  18  30  49  71  98 131 167 207 254 307
#     4   9  16  25  39  64  96 129 164 201 244 296
#
# _framework density 17.508324999999999
#
# number of rings (size 3 to 8) (size 9 to 14) (size 15 to 20)
#    0.000    2.333    1.667    2.000    0.000    6.000 
#    0.000    0.000    0.000    0.000    0.000    1.167 
#    0.000    2.667    0.000    0.000    0.000    0.000 
#
# Total GULP energy -595241.941864 kJ/mol
# GULP energy per Si atom -12400.873789 kJ/mol
# Density = 1.746848 g / cm^3
# Si number density = 17.508325 Si / 1000 Ang^3
#
#
#
# Elastic Constant Matrix: (Units=GPa)
#
#
# Indices 1 2 3 4 5 6 
#
# 1 140.5566 53.7279 60.0611 0.0000 0.0000 0.0000
# 2 53.7279 64.5081 40.4723 0.0000 0.0000 0.0000
# 3 60.0611 40.4723 100.7175 0.0000 0.0000 0.0000
# 4 0.0000 0.0000 0.0000 19.3671 0.0000 0.0000
# 5 0.0000 0.0000 0.0000 0.0000 33.0823 0.0000
# 6 0.0000 0.0000 0.0000 0.0000 0.0000 14.3289
#
#
#
# Elastic Compliance Matrix: (Units=1/GPa)
#
#
# Indices 1 2 3 4 5 6 
#
# 1 0.011549 -0.007084 -0.004040 0.000000 0.000000 0.000000
# 2 -0.007084 0.025073 -0.005851 0.000000 0.000000 0.000000
# 3 -0.004040 -0.005851 0.014689 0.000000 0.000000 0.000000
# 4 0.000000 0.000000 0.000000 0.051634 0.000000 0.000000
# 5 0.000000 0.000000 0.000000 0.000000 0.030228 0.000000
# 6 0.000000 0.000000 0.000000 0.000000 0.000000 0.069789
#
#
# Mechanical properties :
#
#
# Convention : Reuss Voigt Hill
#
# Bulk Modulus (GPa) = 57.60158 68.25610 62.92884
# Shear Modulus (GPa) = 20.60163 23.45706 22.02934
#
# Velocity S-wave (km/s) = 3.43399 3.66425 3.55099
# Velocity P-wave (km/s) = 6.97811 7.54797 7.26863
#
# Compressibility (1/GPa) = 0.01736064
#
# Stress axis : x y z
#
# Youngs Moduli (GPa) = 86.58804 39.88360 68.07691
#
# Poissons Ratio (x) = 0.28254 0.27506
# Poissons Ratio (y) = 0.61339 0.39831
# Poissons Ratio (z) = 0.34985 0.23335
#
# Static dielectric constant tensor:
#      x y z
#    x 5.369000 0.000000 0.000000 
#    y 0.000000 2.816320 0.000000 
#    z 0.000000 0.000000 3.243310 
# 
# 
# High freq. dielectric constant tensor:
#      x y z
#    x 1.692670 0.000000 0.000000 
#    y 0.000000 1.611960 0.000000 
#    z 0.000000 0.000000 1.689760 
# 
# From -- ./inp_files/4571.got.cif
#   From: 2010.03.12/outbox.cif.g09.slc.cpg/sg57_3_cif.got.tgz:4571.got - 2010.04.16 15:48:40.
