data_PCOD8230863
_publ_section_title
;
Structure prediction by ZEFSAII (Michael W. Deem and Ramdas Pophale) SiO2 
 PCOD8230863
Probable space group: P B C M
;
_chemical_formula_sum "Si O2"
_cell_formula_units_Z 64
_cell_length_a 18.694824
_cell_length_b 19.197934
_cell_length_c 9.166715
_cell_angle_alpha 90.000000
_cell_angle_beta 90.000000
_cell_angle_gamma 90.000000
_cell_volume 3289.952322
_symmetry_space_group_name_H-M "P B C M"
_symmetry_group_IT_number 57
_symmetry_cell_setting 'orthorhombic'
loop_
_space_group_symop_operation_xyz
x,y,z
-x,-y,1/2+z
x,1/2-y,-z
-x,1/2+y,1/2-z
-x,-y,-z
x,y,1/2-z
-x,1/2+y,z
x,1/2-y,1/2+z
loop_
_atom_site_type_symbol
_atom_site_label
_atom_site_fract_x
_atom_site_fract_y
_atom_site_fract_z
Si Si1 0.223917 0.542094 0.410365
Si Si2 0.268124 0.108547 0.908034
Si Si3 0.357617 0.576254 0.578189
Si Si4 0.535010 0.324719 0.577093
Si Si5 0.846136 0.681414 0.078062
Si Si6 0.935770 0.037749 0.082924
Si Si7 0.601601 0.918416 0.582320
Si Si8 0.006841 0.814548 0.914883
O O1 0.215385 0.579817 0.250000
O O2 0.267619 0.472808 0.379400
O O3 0.274410 0.582398 0.525325
O O4 0.144630 0.524322 0.475997
O O5 0.263323 0.147421 0.750000
O O6 0.201307 0.120269 0.014103
O O7 0.342077 0.126663 0.987997
O O8 0.359785 0.591407 0.750000
O O9 0.395765 0.639095 0.492748
O O10 0.395715 0.501299 0.543978
O O11 0.519619 0.250000 0.500000
O O12 0.545569 0.312363 0.750000
O O13 0.473338 0.381888 0.547020
O O14 0.837116 0.686450 0.250000
O O15 0.927347 0.667064 0.027584
O O16 0.815998 0.750000 0.000000
O O17 0.943108 0.013771 0.250000
O O18 0.942786 0.120178 0.063793
O O19 0.000000 0.000000 0.000000
O O20 0.623245 0.908916 0.750000
O O21 0.000297 0.789880 0.750000
O O22 0.041217 0.750000 0.000000
#
# Coordination Sequence:
#
# PCOD8230863 Si02
#       8
#     8   8   8   8   8   8   8   8
#     4   9  19  35  54  78 109 143 178 220 270 324
#     4  10  19  31  50  76 105 138 175 215 262 316
#     4  10  20  37  61  85 109 142 185 227 270 322
#     4  11  23  39  59  84 114 145 179 223 274 325
#     4  10  19  31  47  67  96 134 175 217 263 319
#     4  10  20  34  54  81 111 142 179 226 278 327
#     4   9  20  37  57  81 110 145 182 222 268 321
#     4   9  19  34  51  72  99 135 177 220 267 320
#
# _framework density 19.45317
#
# number of rings (size 3 to 8) (size 9 to 14) (size 15 to 20)
#    0.000    2.250    0.000    2.625    0.000    4.000 
#    0.000    1.875    0.000    1.500    0.000    0.000 
#    0.000    0.000    0.000    0.000    0.000    0.000 
#
# Total GULP energy -793031.292942 kJ/mol
# GULP energy per Si atom -12391.113952 kJ/mol
# Density = 1.940889 g / cm^3
# Si number density = 19.453170 Si / 1000 Ang^3
#
#
#
# Elastic Constant Matrix: (Units=GPa)
#
#
# Indices 1 2 3 4 5 6 
#
# 1 118.0880 32.6554 51.3368 0.0000 0.0000 0.0000
# 2 32.6554 58.6001 38.1821 0.0000 0.0000 0.0000
# 3 51.3368 38.1821 99.7810 0.0000 0.0000 0.0000
# 4 0.0000 0.0000 0.0000 31.2676 0.0000 0.0000
# 5 0.0000 0.0000 0.0000 0.0000 31.4073 0.0000
# 6 0.0000 0.0000 0.0000 0.0000 0.0000 17.1509
#
#
#
# Elastic Compliance Matrix: (Units=1/GPa)
#
#
# Indices 1 2 3 4 5 6 
#
# 1 0.011386 -0.003368 -0.004569 0.000000 0.000000 0.000000
# 2 -0.003368 0.023729 -0.007347 0.000000 0.000000 0.000000
# 3 -0.004569 -0.007347 0.015184 0.000000 0.000000 0.000000
# 4 0.000000 0.000000 0.000000 0.031982 0.000000 0.000000
# 5 0.000000 0.000000 0.000000 0.000000 0.031840 0.000000
# 6 0.000000 0.000000 0.000000 0.000000 0.000000 0.058306
#
#
# Mechanical properties :
#
#
# Convention : Reuss Voigt Hill
#
# Bulk Modulus (GPa) = 50.68333 57.86865 54.27599
# Shear Modulus (GPa) = 23.85809 26.25149 25.05479
#
# Velocity S-wave (km/s) = 3.50585 3.67750 3.59270
# Velocity P-wave (km/s) = 6.51909 6.91695 6.72097
#
# Compressibility (1/GPa) = 0.01973035
#
# Stress axis : x y z
#
# Youngs Moduli (GPa) = 87.82721 42.14285 65.85699
#
# Poissons Ratio (x) = 0.14192 0.30093
# Poissons Ratio (y) = 0.29577 0.48388
# Poissons Ratio (z) = 0.40132 0.30964
#
# Static dielectric constant tensor:
#      x y z
#    x 3.492340 0.000000 0.000000 
#    y 0.000000 3.390740 0.000000 
#    z 0.000000 0.000000 3.790850 
# 
# 
# High freq. dielectric constant tensor:
#      x y z
#    x 1.755010 0.000000 0.000000 
#    y 0.000000 1.735190 0.000000 
#    z 0.000000 0.000000 1.764320 
# 
# From -- ./inp_files/7245.got.cif
#   From: 2010.03.12/outbox.cif.g09.slc.cpg/sg57_4_cif.got.tgz:7245.got - 2010.04.16 15:48:40.
