data_PCOD8230321
_publ_section_title
;
Structure prediction by ZEFSAII (Michael W. Deem and Ramdas Pophale) SiO2 
 PCOD8230321
Probable space group: P B C M
;
_chemical_formula_sum "Si O2"
_cell_formula_units_Z 56
_cell_length_a 9.569054
_cell_length_b 22.468437
_cell_length_c 14.688674
_cell_angle_alpha 90.000000
_cell_angle_beta 90.000000
_cell_angle_gamma 90.000000
_cell_volume 3158.089689
_symmetry_space_group_name_H-M "P B C M"
_symmetry_group_IT_number 57
_symmetry_cell_setting 'orthorhombic'
loop_
_space_group_symop_operation_xyz
x,y,z
-x,-y,1/2+z
x,1/2-y,-z
-x,1/2+y,1/2-z
-x,-y,-z
x,y,1/2-z
-x,1/2+y,z
x,1/2-y,1/2+z
loop_
_atom_site_type_symbol
_atom_site_label
_atom_site_fract_x
_atom_site_fract_y
_atom_site_fract_z
Si Si1 0.354664 0.980725 0.643960
Si Si2 0.150551 0.901767 0.537248
Si Si3 0.115050 0.087067 0.147150
Si Si4 0.831200 0.049548 0.650264
Si Si5 0.579227 0.881626 0.855972
Si Si6 0.473355 0.592400 0.647396
Si Si7 0.598056 0.180847 0.010423
O O1 0.312256 0.974209 0.750000
O O2 0.223780 0.960501 0.581750
O O3 0.487840 0.939775 0.620759
O O4 0.396790 0.049078 0.621050
O O5 0.105368 0.912507 0.432408
O O6 0.255184 0.846440 0.543327
O O7 0.009598 0.884419 0.589138
O O8 0.094392 0.108966 0.250000
O O9 0.263313 0.109257 0.109224
O O10 0.110149 0.016273 0.141346
O O11 0.875021 0.075675 0.750000
O O12 0.663284 0.050507 0.641917
O O13 0.574691 0.866611 0.750000
O O14 0.516536 0.826059 0.910543
O O15 0.493200 0.617033 0.750000
O O16 0.459676 0.648697 0.580759
O O17 0.624464 0.250000 0.000000
#
# Coordination Sequence:
#
# PCOD8230321 Si02
#       7
#     8   8   8   8   8   8   8
#     4   9  16  29  49  78 105 127 157 204 259 317
#     4  10  20  30  51  76 105 133 166 209 263 303
#     4  10  18  31  49  77 106 130 159 199 253 315
#     4   9  17  29  46  71 105 136 163 193 247 321
#     4   9  18  32  54  76 102 133 166 205 254 308
#     4   9  17  31  52  74 100 133 165 206 260 314
#     4  10  22  36  51  73  99 134 182 220 248 289
#
# _framework density 17.732239
#
# number of rings (size 3 to 8) (size 9 to 14) (size 15 to 20)
#    0.000    2.571    1.429    0.857    2.000    2.857 
#    0.000    0.714    0.000    0.000    0.000    0.000 
#    0.000    0.000    0.000    0.000    0.000    0.000 
#
# Total GULP energy -694190.321190 kJ/mol
# GULP energy per Si atom -12396.255736 kJ/mol
# Density = 1.769188 g / cm^3
# Si number density = 17.732239 Si / 1000 Ang^3
#
#
#
# Elastic Constant Matrix: (Units=GPa)
#
#
# Indices 1 2 3 4 5 6 
#
# 1 94.7612 28.4117 55.1930 0.0000 0.0000 0.0000
# 2 28.4117 76.8441 32.3109 0.0000 0.0000 0.0000
# 3 55.1930 32.3109 90.7230 0.0000 0.0000 0.0000
# 4 0.0000 0.0000 0.0000 18.2556 0.0000 0.0000
# 5 0.0000 0.0000 0.0000 0.0000 26.0999 0.0000
# 6 0.0000 0.0000 0.0000 0.0000 0.0000 12.3198
#
#
#
# Elastic Compliance Matrix: (Units=1/GPa)
#
#
# Indices 1 2 3 4 5 6 
#
# 1 0.016664 -0.002233 -0.009342 0.000000 0.000000 0.000000
# 2 -0.002233 0.015605 -0.004199 0.000000 0.000000 0.000000
# 3 -0.009342 -0.004199 0.018202 0.000000 0.000000 0.000000
# 4 0.000000 0.000000 0.000000 0.054778 0.000000 0.000000
# 5 0.000000 0.000000 0.000000 0.000000 0.038314 0.000000
# 6 0.000000 0.000000 0.000000 0.000000 0.000000 0.081170
#
#
# Mechanical properties :
#
#
# Convention : Reuss Voigt Hill
#
# Bulk Modulus (GPa) = 52.85103 54.90661 53.87882
# Shear Modulus (GPa) = 19.04124 21.09592 20.06858
#
# Velocity S-wave (km/s) = 3.28047 3.45293 3.36781
# Velocity P-wave (km/s) = 6.64969 6.85044 6.75081
#
# Compressibility (1/GPa) = 0.01892111
#
# Stress axis : x y z
#
# Youngs Moduli (GPa) = 60.01050 64.08393 54.93981
#
# Poissons Ratio (x) = 0.14309 0.51327
# Poissons Ratio (y) = 0.13399 0.23070
# Poissons Ratio (z) = 0.56065 0.26910
#
# Static dielectric constant tensor:
#      x y z
#    x 3.194240 0.000000 0.000000 
#    y 0.000000 2.800630 0.000000 
#    z 0.000000 0.000000 3.602320 
# 
# 
# High freq. dielectric constant tensor:
#      x y z
#    x 1.674790 0.000000 0.000000 
#    y 0.000000 1.631420 0.000000 
#    z 0.000000 0.000000 1.703220 
# 
# From -- ./inp_files/16703.got.cif
#   From: 2010.03.12/outbox.cif.g09.slc.cpg/sg57_9_cif.got.tgz:16703.got - 2010.04.16 15:48:40.
