data_PCOD8230447
_publ_section_title
;
Structure prediction by ZEFSAII (Michael W. Deem and Ramdas Pophale) SiO2 
 PCOD8230447
Probable space group: P B C M
;
_chemical_formula_sum "Si O2"
_cell_formula_units_Z 56
_cell_length_a 18.939131
_cell_length_b 17.996299
_cell_length_c 8.870098
_cell_angle_alpha 90.000000
_cell_angle_beta 90.000000
_cell_angle_gamma 90.000000
_cell_volume 3023.233326
_symmetry_space_group_name_H-M "P B C M"
_symmetry_group_IT_number 57
_symmetry_cell_setting 'orthorhombic'
loop_
_space_group_symop_operation_xyz
x,y,z
-x,-y,1/2+z
x,1/2-y,-z
-x,1/2+y,1/2-z
-x,-y,-z
x,y,1/2-z
-x,1/2+y,z
x,1/2-y,1/2+z
loop_
_atom_site_type_symbol
_atom_site_label
_atom_site_fract_x
_atom_site_fract_y
_atom_site_fract_z
Si Si1 0.722381 0.889286 0.424974
Si Si2 0.694587 0.172602 0.071684
Si Si3 0.143953 0.175041 0.428456
Si Si4 0.797619 0.042322 0.077336
Si Si5 0.434866 0.592717 0.927028
Si Si6 0.580401 0.921144 0.927064
Si Si7 0.072712 0.477100 0.573401
O O1 0.718320 0.867834 0.250000
O O2 0.777554 0.835203 0.506287
O O3 0.646426 0.878083 0.501133
O O4 0.744976 0.974172 0.449951
O O5 0.685327 0.178807 0.250000
O O6 0.756692 0.115965 0.027484
O O7 0.717937 0.250000 0.000000
O O8 0.620885 0.147567 0.001405
O O9 0.111194 0.250000 0.500000
O O10 0.148116 0.182205 0.250000
O O11 0.094485 0.106122 0.477983
O O12 0.822432 0.045822 0.250000
O O13 0.867150 0.035106 0.975859
O O14 0.437863 0.607326 0.750000
O O15 0.413607 0.508355 0.965181
O O16 0.510431 0.612366 0.998008
O O17 0.578177 0.906427 0.750000
O O18 0.063611 0.481693 0.750000
O O19 0.000000 0.500000 0.500000
#
# Coordination Sequence:
#
# PCOD8230447 Si02
#       7
#     8   8   8   8   8   8   8
#     4  10  18  32  55  81 109 143 182 227 275 326
#     4  11  22  37  55  78 109 147 189 235 285 336
#     4  10  21  37  57  85 116 149 184 223 273 330
#     4   9  19  35  56  80 109 142 182 225 269 323
#     4  10  20  33  51  75 105 142 185 232 282 334
#     4  10  19  31  51  78 107 139 181 233 280 331
#     4  10  21  37  61  89 117 146 184 226 269 322
#
# _framework density 18.523216000000001
#
# number of rings (size 3 to 8) (size 9 to 14) (size 15 to 20)
#    0.000    2.000    1.429    2.571    0.000    4.571 
#    0.000    1.429    0.000    0.000    0.000    0.000 
#    0.000    0.000    0.000    0.000    0.000    0.000 
#
# Total GULP energy -694630.637540 kJ/mol
# GULP energy per Si atom -12404.118527 kJ/mol
# Density = 1.848106 g / cm^3
# Si number density = 18.523216 Si / 1000 Ang^3
#
#
#
# Elastic Constant Matrix: (Units=GPa)
#
#
# Indices 1 2 3 4 5 6 
#
# 1 138.3834 52.4507 59.3617 0.0000 0.0000 0.0000
# 2 52.4507 99.9296 42.4015 0.0000 0.0000 0.0000
# 3 59.3617 42.4015 89.2640 0.0000 0.0000 0.0000
# 4 0.0000 0.0000 0.0000 30.2234 0.0000 0.0000
# 5 0.0000 0.0000 0.0000 0.0000 37.8318 0.0000
# 6 0.0000 0.0000 0.0000 0.0000 0.0000 20.2308
#
#
#
# Elastic Compliance Matrix: (Units=1/GPa)
#
#
# Indices 1 2 3 4 5 6 
#
# 1 0.010925 -0.003321 -0.005688 0.000000 0.000000 0.000000
# 2 -0.003321 0.013543 -0.004225 0.000000 0.000000 0.000000
# 3 -0.005688 -0.004225 0.016992 0.000000 0.000000 0.000000
# 4 0.000000 0.000000 0.000000 0.033087 0.000000 0.000000
# 5 0.000000 0.000000 0.000000 0.000000 0.026433 0.000000
# 6 0.000000 0.000000 0.000000 0.000000 0.000000 0.049430
#
#
# Mechanical properties :
#
#
# Convention : Reuss Voigt Hill
#
# Bulk Modulus (GPa) = 66.69716 70.66721 68.68219
# Shear Modulus (GPa) = 27.49182 29.21474 28.35328
#
# Velocity S-wave (km/s) = 3.85669 3.97570 3.91665
# Velocity P-wave (km/s) = 7.47780 7.70119 7.59032
#
# Compressibility (1/GPa) = 0.01499314
#
# Stress axis : x y z
#
# Youngs Moduli (GPa) = 91.53497 73.84116 58.85187
#
# Poissons Ratio (x) = 0.24521 0.33473
# Poissons Ratio (y) = 0.30397 0.24862
# Poissons Ratio (z) = 0.52062 0.31194
#
# Static dielectric constant tensor:
#      x y z
#    x 3.354110 0.000000 0.000000 
#    y 0.000000 3.369970 0.000000 
#    z 0.000000 0.000000 3.465490 
# 
# 
# High freq. dielectric constant tensor:
#      x y z
#    x 1.714690 0.000000 0.000000 
#    y 0.000000 1.702490 0.000000 
#    z 0.000000 0.000000 1.733150 
# 
# From -- ./inp_files/8277.got.cif
#   From: 2010.03.12/outbox.cif.g09.slc.cpg/sg57_5_cif.got.tgz:8277.got - 2010.04.16 15:48:40.
