data_PCOD8230444
_publ_section_title
;
Structure prediction by ZEFSAII (Michael W. Deem and Ramdas Pophale) SiO2 
 PCOD8230444
Probable space group: P B C M
;
_chemical_formula_sum "Si O2"
_cell_formula_units_Z 64
_cell_length_a 13.794635
_cell_length_b 8.511376
_cell_length_c 26.094876
_cell_angle_alpha 90.000000
_cell_angle_beta 90.000000
_cell_angle_gamma 90.000000
_cell_volume 3063.833974
_symmetry_space_group_name_H-M "P B C M"
_symmetry_group_IT_number 57
_symmetry_cell_setting 'orthorhombic'
loop_
_space_group_symop_operation_xyz
x,y,z
-x,-y,1/2+z
x,1/2-y,-z
-x,1/2+y,1/2-z
-x,-y,-z
x,y,1/2-z
-x,1/2+y,z
x,1/2-y,1/2+z
loop_
_atom_site_type_symbol
_atom_site_label
_atom_site_fract_x
_atom_site_fract_y
_atom_site_fract_z
Si Si1 0.868892 0.916970 0.193348
Si Si2 0.554413 0.890006 0.309576
Si Si3 0.864185 0.007868 0.889039
Si Si4 0.590137 0.845285 0.551276
Si Si5 0.977719 0.297122 0.651108
Si Si6 0.291886 0.642989 0.548527
Si Si7 0.282036 0.271385 0.642156
Si Si8 0.583010 0.304927 0.872749
O O1 0.822092 0.913137 0.250000
O O2 0.787773 0.878138 0.150970
O O3 0.953882 0.788454 0.191729
O O4 0.912257 0.085774 0.182961
O O5 0.535230 0.923163 0.250000
O O6 0.629506 0.742989 0.317071
O O7 0.454869 0.839761 0.337524
O O8 0.600491 0.044186 0.336412
O O9 0.781605 0.931522 0.850973
O O10 0.955517 0.886699 0.892153
O O11 0.903270 0.175984 0.872904
O O12 0.807449 0.043109 0.942070
O O13 0.572629 0.750000 0.500000
O O14 0.674381 0.761535 0.584865
O O15 0.491181 0.853104 0.582646
O O16 0.619766 0.023536 0.537374
O O17 0.272931 0.750000 0.500000
O O18 0.318646 0.747121 0.599104
#
# Coordination Sequence:
#
# PCOD8230444 Si02
#       8
#     8   8   8   8   8   8   8   8
#     4  10  18  32  54  85 115 153 199 247 303 363
#     4  11  23  41  62  88 126 175 213 250 307 368
#     4   9  20  41  59  90 119 164 202 257 321 376
#     4  10  22  40  61  89 121 164 210 258 322 367
#     4   9  19  35  61  80 119 160 200 250 314 375
#     4  11  24  38  62  94 127 161 211 267 325 375
#     4   9  21  37  58  86 124 153 203 261 303 365
#     4  11  23  40  62  88 127 168 216 265 302 368
#
# _framework density 20.888860999999999
#
# number of rings (size 3 to 8) (size 9 to 14) (size 15 to 20)
#    0.000    2.000    1.250    1.500    5.250    1.000 
#    0.000    2.500    0.000    6.750    0.000    0.000 
#    0.000    0.000    0.000    0.000    0.000    0.000 
#
# Total GULP energy -793089.302265 kJ/mol
# GULP energy per Si atom -12392.020348 kJ/mol
# Density = 2.084132 g / cm^3
# Si number density = 20.888861 Si / 1000 Ang^3
#
#
#
# Elastic Constant Matrix: (Units=GPa)
#
#
# Indices 1 2 3 4 5 6 
#
# 1 68.2304 21.6565 29.1782 0.0000 0.0000 0.0000
# 2 21.6565 101.9455 40.6241 0.0000 0.0000 0.0000
# 3 29.1782 40.6241 107.8713 0.0000 0.0000 0.0000
# 4 0.0000 0.0000 0.0000 30.2636 0.0000 0.0000
# 5 0.0000 0.0000 0.0000 0.0000 15.7422 0.0000
# 6 0.0000 0.0000 0.0000 0.0000 0.0000 30.8992
#
#
#
# Elastic Compliance Matrix: (Units=1/GPa)
#
#
# Indices 1 2 3 4 5 6 
#
# 1 0.016942 -0.002086 -0.003797 0.000000 0.000000 0.000000
# 2 -0.002086 0.011798 -0.003879 0.000000 0.000000 0.000000
# 3 -0.003797 -0.003879 0.011758 0.000000 0.000000 0.000000
# 4 0.000000 0.000000 0.000000 0.033043 0.000000 0.000000
# 5 0.000000 0.000000 0.000000 0.000000 0.063524 0.000000
# 6 0.000000 0.000000 0.000000 0.000000 0.000000 0.032363
#
#
# Mechanical properties :
#
#
# Convention : Reuss Voigt Hill
#
# Bulk Modulus (GPa) = 47.67721 51.21832 49.44777
# Shear Modulus (GPa) = 25.51758 27.82024 26.66891
#
# Velocity S-wave (km/s) = 3.49891 3.65337 3.57698
# Velocity P-wave (km/s) = 6.26075 6.50914 6.38615
#
# Compressibility (1/GPa) = 0.02097438
#
# Stress axis : x y z
#
# Youngs Moduli (GPa) = 59.02455 84.76034 85.04727
#
# Poissons Ratio (x) = 0.17681 0.32293
# Poissons Ratio (y) = 0.12312 0.32989
# Poissons Ratio (z) = 0.22412 0.32877
#
# Static dielectric constant tensor:
#      x y z
#    x 3.981450 0.000000 0.000000 
#    y 0.000000 3.985130 0.000000 
#    z 0.000000 0.000000 3.504150 
# 
# 
# High freq. dielectric constant tensor:
#      x y z
#    x 1.821320 0.000000 0.000000 
#    y 0.000000 1.828610 0.000000 
#    z 0.000000 0.000000 1.786130 
# 
# From -- ./inp_files/27503.got.cif
#   From: 2010.03.12/outbox.cif.g09.slc.cpg/sg57_14_cif.got.tgz:27503.got - 2010.04.16 15:48:40.
