data_PCOD8230218
_publ_section_title
;
Structure prediction by ZEFSAII (Michael W. Deem and Ramdas Pophale) SiO2 
 PCOD8230218
Probable space group: P B C M
;
_chemical_formula_sum "Si O2"
_cell_formula_units_Z 28
_cell_length_a 13.770813
_cell_length_b 17.165502
_cell_length_c 5.298522
_cell_angle_alpha 90.000000
_cell_angle_beta 90.000000
_cell_angle_gamma 90.000000
_cell_volume 1252.480092
_symmetry_space_group_name_H-M "P B C M"
_symmetry_group_IT_number 57
_symmetry_cell_setting 'orthorhombic'
loop_
_space_group_symop_operation_xyz
x,y,z
-x,-y,1/2+z
x,1/2-y,-z
-x,1/2+y,1/2-z
-x,-y,-z
x,y,1/2-z
-x,1/2+y,z
x,1/2-y,1/2+z
loop_
_atom_site_type_symbol
_atom_site_label
_atom_site_fract_x
_atom_site_fract_y
_atom_site_fract_z
Si Si1 0.723538 0.989485 0.250000
Si Si2 0.435217 0.626846 0.250000
Si Si3 0.940126 0.976291 0.250000
Si Si4 0.045298 0.200060 0.750000
Si Si5 0.369502 0.867093 0.250000
Si Si6 0.362883 0.044457 0.250000
Si Si7 0.823384 0.297618 0.250000
O O1 0.835755 0.020089 0.250000
O O2 0.702747 0.938793 0.502323
O O3 0.648659 0.060724 0.250000
O O4 0.414502 0.676093 0.504325
O O5 0.545183 0.599903 0.250000
O O6 0.906113 0.884961 0.250000
O O7 0.000000 0.000000 0.500000
O O8 0.071800 0.250000 0.500000
O O9 0.933079 0.173768 0.750000
O O10 0.251777 0.869465 0.250000
O O11 0.405493 0.956554 0.250000
O O12 0.799966 0.250000 0.500000
#
# Coordination Sequence:
#
# PCOD8230218 Si02
#       7
#     4   4   4   4   4   4   4
#     4  10  20  33  52  81 118 152 183 242 305 341
#     4  10  19  31  54  84 113 148 183 228 302 366
#     4  12  26  39  62  97 129 160 206 272 319 357
#     4  10  23  43  62  82 121 173 211 245 301 387
#     4  10  18  29  51  75 109 140 180 231 281 339
#     4  10  19  34  53  84 115 148 188 225 307 368
#     4  10  21  35  52  77 107 153 201 233 283 364
#
# _framework density 22.355643000000001
#
# number of rings (size 3 to 8) (size 9 to 14) (size 15 to 20)
#    0.000    1.714    0.000    6.857    8.000    0.000 
#    0.000    0.000    0.000    0.000    0.000   34.000 
#    0.000    0.000    0.000    0.000    0.000    0.000 
#
# Total GULP energy -346903.510751 kJ/mol
# GULP energy per Si atom -12389.411098 kJ/mol
# Density = 2.230476 g / cm^3
# Si number density = 22.355643 Si / 1000 Ang^3
#
#
#
# Elastic Constant Matrix: (Units=GPa)
#
#
# Indices 1 2 3 4 5 6 
#
# 1 119.8477 -9.2806 44.6576 0.0000 0.0000 0.0000
# 2 -9.2806 50.0026 6.9930 0.0000 0.0000 0.0000
# 3 44.6576 6.9930 250.9464 0.0000 0.0000 0.0000
# 4 0.0000 0.0000 0.0000 -25.2390 0.0000 0.0000
# 5 0.0000 0.0000 0.0000 0.0000 30.6180 0.0000
# 6 0.0000 0.0000 0.0000 0.0000 0.0000 26.4811
#
#
#
# Elastic Compliance Matrix: (Units=1/GPa)
#
#
# Indices 1 2 3 4 5 6 
#
# 1 0.009118 0.001927 -0.001676 0.000000 0.000000 0.000000
# 2 0.001927 0.020484 -0.000914 0.000000 0.000000 0.000000
# 3 -0.001676 -0.000914 0.004309 0.000000 0.000000 0.000000
# 4 0.000000 0.000000 0.000000 -0.039621 0.000000 0.000000
# 5 0.000000 0.000000 0.000000 0.000000 0.032660 0.000000
# 6 0.000000 0.000000 0.000000 0.000000 0.000000 0.037763
#
#
# Mechanical properties :
#
#
# Convention : Reuss Voigt Hill
#
# Bulk Modulus (GPa) = 30.68972 56.17078 43.43025
# Shear Modulus (GPa) = 65.01897 31.60048 48.30972
#
# Velocity S-wave (km/s) = 5.39880 3.76378 4.65366
# Velocity P-wave (km/s) = 7.25400 6.63842 6.95302
#
# Compressibility (1/GPa) = 0.03258420
#
# Stress axis : x y z
#
# Youngs Moduli (GPa) = 109.67655 48.81782 232.08982
#
# Poissons Ratio (x) = -0.09406 0.38904
# Poissons Ratio (y) = -0.21131 0.21206
# Poissons Ratio (z) = 0.18385 0.04460
#
# Static dielectric constant tensor:
#      x y z
#    x 3.877700 0.000000 0.000000 
#    y 0.000000 3.393450 0.000000 
#    z 0.000000 0.000000 6.284660 
# 
# 
# High freq. dielectric constant tensor:
#      x y z
#    x 1.870270 0.000000 0.000000 
#    y 0.000000 1.824290 0.000000 
#    z 0.000000 0.000000 1.928290 
# 
# From -- ./inp_files/311.got.cif
#   From: 2010.03.12/outbox.cif.g09.slc.cpg/sg57_1_cif.got.tgz:311.got - 2010.04.16 15:48:40.
