data_PCOD8230974
_publ_section_title
;
Structure prediction by ZEFSAII (Michael W. Deem and Ramdas Pophale) SiO2 
 PCOD8230974
Probable space group: P B C M
;
_chemical_formula_sum "Si O2"
_cell_formula_units_Z 56
_cell_length_a 19.544264
_cell_length_b 17.718649
_cell_length_c 9.017107
_cell_angle_alpha 90.000000
_cell_angle_beta 90.000000
_cell_angle_gamma 90.000000
_cell_volume 3122.605703
_symmetry_space_group_name_H-M "P B C M"
_symmetry_group_IT_number 57
_symmetry_cell_setting 'orthorhombic'
loop_
_space_group_symop_operation_xyz
x,y,z
-x,-y,1/2+z
x,1/2-y,-z
-x,1/2+y,1/2-z
-x,-y,-z
x,y,1/2-z
-x,1/2+y,z
x,1/2-y,1/2+z
loop_
_atom_site_type_symbol
_atom_site_label
_atom_site_fract_x
_atom_site_fract_y
_atom_site_fract_z
Si Si1 0.047254 0.560798 0.576138
Si Si2 0.290773 0.515253 0.577102
Si Si3 0.563302 0.533842 0.415413
Si Si4 0.654171 0.327169 0.423111
Si Si5 0.484203 0.677054 0.417417
Si Si6 0.844143 0.526224 0.925355
Si Si7 0.067020 0.329440 0.078148
O O1 0.052928 0.544343 0.750000
O O2 0.121160 0.548378 0.500728
O O3 0.000000 0.500000 0.500000
O O4 0.011504 0.642474 0.548320
O O5 0.279692 0.495249 0.750000
O O6 0.362647 0.482503 0.514780
O O7 0.290759 0.606009 0.552366
O O8 0.233621 0.473782 0.479987
O O9 0.500000 0.500000 0.500000
O O10 0.563488 0.499353 0.250000
O O11 0.549512 0.622822 0.415758
O O12 0.680388 0.250000 0.500000
O O13 0.643060 0.311833 0.250000
O O14 0.582148 0.354397 0.494238
O O15 0.512223 0.750000 0.500000
O O16 0.460193 0.695240 0.250000
O O17 0.848796 0.516586 0.750000
O O18 0.880411 0.604771 0.975628
O O19 0.079095 0.314676 0.250000
O O20 0.081354 0.250000 0.000000
#
# Coordination Sequence:
#
# PCOD8230974 Si02
#       7
#     8   8   8   8   8   8   8
#     4   9  17  32  54  80 108 137 173 214 254 303
#     4  10  21  36  53  75 105 143 180 221 274 327
#     4  10  20  34  52  75 101 132 175 224 273 323
#     4  10  19  32  51  73  99 129 167 215 268 325
#     4  10  19  31  50  73  98 129 166 214 271 324
#     4  10  21  36  54  80 110 143 184 223 263 317
#     4   9  19  34  55  84 112 140 177 216 257 306
#
# _framework density 17.933741000000001
#
# number of rings (size 3 to 8) (size 9 to 14) (size 15 to 20)
#    0.000    2.286    1.429    3.429    0.000    5.714 
#    0.000    1.429    0.000    3.429    0.000    0.000 
#    0.000    0.000    0.000    0.000    0.000    0.000 
#
# Total GULP energy -693946.283770 kJ/mol
# GULP energy per Si atom -12391.897924 kJ/mol
# Density = 1.789292 g / cm^3
# Si number density = 17.933741 Si / 1000 Ang^3
#
#
#
# Elastic Constant Matrix: (Units=GPa)
#
#
# Indices 1 2 3 4 5 6 
#
# 1 115.3531 52.7477 47.1142 0.0000 0.0000 0.0000
# 2 52.7477 96.3597 46.6768 0.0000 0.0000 0.0000
# 3 47.1142 46.6768 99.9156 0.0000 0.0000 0.0000
# 4 0.0000 0.0000 0.0000 27.4875 0.0000 0.0000
# 5 0.0000 0.0000 0.0000 0.0000 30.5198 0.0000
# 6 0.0000 0.0000 0.0000 0.0000 0.0000 24.0298
#
#
#
# Elastic Compliance Matrix: (Units=1/GPa)
#
#
# Indices 1 2 3 4 5 6 
#
# 1 0.012428 -0.005124 -0.003467 0.000000 0.000000 0.000000
# 2 -0.005124 0.015526 -0.004837 0.000000 0.000000 0.000000
# 3 -0.003467 -0.004837 0.013903 0.000000 0.000000 0.000000
# 4 0.000000 0.000000 0.000000 0.036380 0.000000 0.000000
# 5 0.000000 0.000000 0.000000 0.000000 0.032766 0.000000
# 6 0.000000 0.000000 0.000000 0.000000 0.000000 0.041615
#
#
# Mechanical properties :
#
#
# Convention : Reuss Voigt Hill
#
# Bulk Modulus (GPa) = 66.65975 67.18954 66.92464
# Shear Modulus (GPa) = 27.10438 27.41341 27.25889
#
# Velocity S-wave (km/s) = 3.89184 3.91397 3.90292
# Velocity P-wave (km/s) = 7.57931 7.61395 7.59665
#
# Compressibility (1/GPa) = 0.01500156
#
# Stress axis : x y z
#
# Youngs Moduli (GPa) = 80.46411 64.40982 71.92866
#
# Poissons Ratio (x) = 0.33003 0.24935
# Poissons Ratio (y) = 0.41229 0.34791
# Poissons Ratio (z) = 0.27893 0.31154
#
# Static dielectric constant tensor:
#      x y z
#    x 3.357400 0.000000 0.000000 
#    y 0.000000 3.476200 0.000000 
#    z 0.000000 0.000000 3.490360 
# 
# 
# High freq. dielectric constant tensor:
#      x y z
#    x 1.676010 0.000000 0.000000 
#    y 0.000000 1.687960 0.000000 
#    z 0.000000 0.000000 1.702320 
# 
# From -- ./inp_files/8310.got.cif
#   From: 2010.03.12/outbox.cif.g09.slc.cpg/sg57_5_cif.got.tgz:8310.got - 2010.04.16 15:48:40.
