data_PCOD8230101
_publ_section_title
;
Structure prediction by ZEFSAII (Michael W. Deem and Ramdas Pophale) SiO2 
 PCOD8230101
Probable space group: P B C M
;
_chemical_formula_sum "Si O2"
_cell_formula_units_Z 56
_cell_length_a 14.489590
_cell_length_b 26.510773
_cell_length_c 9.162356
_cell_angle_alpha 90.000000
_cell_angle_beta 90.000000
_cell_angle_gamma 90.000000
_cell_volume 3519.537930
_symmetry_space_group_name_H-M "P B C M"
_symmetry_group_IT_number 57
_symmetry_cell_setting 'orthorhombic'
loop_
_space_group_symop_operation_xyz
x,y,z
-x,-y,1/2+z
x,1/2-y,-z
-x,1/2+y,1/2-z
-x,-y,-z
x,y,1/2-z
-x,1/2+y,z
x,1/2-y,1/2+z
loop_
_atom_site_type_symbol
_atom_site_label
_atom_site_fract_x
_atom_site_fract_y
_atom_site_fract_z
Si Si1 0.476883 0.121691 0.080232
Si Si2 0.675721 0.569306 0.580272
Si Si3 0.630606 0.457205 0.915003
Si Si4 0.926753 0.437875 0.418682
Si Si5 0.610679 0.303513 0.424352
Si Si6 0.125110 0.461678 0.420624
Si Si7 0.246407 0.883794 0.418484
O O1 0.470744 0.137300 0.250000
O O2 0.533099 0.069841 0.057023
O O3 0.374887 0.112015 0.015637
O O4 0.523243 0.166551 0.988234
O O5 0.669338 0.584481 0.750000
O O6 0.624039 0.516334 0.550417
O O7 0.782297 0.566579 0.525994
O O8 0.663447 0.448669 0.750000
O O9 0.709186 0.433320 0.013533
O O10 0.919057 0.453239 0.250000
O O11 0.885143 0.484079 0.507504
O O12 0.864265 0.387668 0.450130
O O13 0.034330 0.427750 0.458627
O O14 0.615704 0.250000 0.500000
O O15 0.600921 0.298002 0.250000
O O16 0.705346 0.332336 0.473990
O O17 0.135178 0.471977 0.250000
O O18 0.269164 0.887509 0.250000
#
# Coordination Sequence:
#
# PCOD8230101 Si02
#       7
#     8   8   8   8   8   8   8
#     4  10  20  31  45  65  88 118 153 189 228 271
#     4  10  18  28  41  61  91 126 158 190 223 263
#     4   9  17  28  41  60  89 122 155 187 221 263
#     4   9  16  27  42  63  89 120 156 189 222 262
#     4  10  20  35  52  70  91 114 143 184 232 280
#     4   9  17  27  41  61  90 125 158 189 221 259
#     4   9  17  28  45  67  91 118 149 186 227 272
#
# _framework density 15.91118
#
# number of rings (size 3 to 8) (size 9 to 14) (size 15 to 20)
#    0.000    2.571    1.429    1.286    0.000    2.286 
#    0.000    0.000    0.000    0.000    0.000    1.000 
#    0.000    2.286    0.000    0.000    0.000    0.000 
#
# Total GULP energy -693941.557105 kJ/mol
# GULP energy per Si atom -12391.813520 kJ/mol
# Density = 1.587497 g / cm^3
# Si number density = 15.911180 Si / 1000 Ang^3
#
#
#
# Elastic Constant Matrix: (Units=GPa)
#
#
# Indices 1 2 3 4 5 6 
#
# 1 128.3023 53.6736 40.2870 0.0000 0.0000 0.0000
# 2 53.6736 71.1868 33.6467 0.0000 0.0000 0.0000
# 3 40.2870 33.6467 48.8154 0.0000 0.0000 0.0000
# 4 0.0000 0.0000 0.0000 22.2888 0.0000 0.0000
# 5 0.0000 0.0000 0.0000 0.0000 19.5202 0.0000
# 6 0.0000 0.0000 0.0000 0.0000 0.0000 13.7264
#
#
#
# Elastic Compliance Matrix: (Units=1/GPa)
#
#
# Indices 1 2 3 4 5 6 
#
# 1 0.012335 -0.006658 -0.005591 0.000000 0.000000 0.000000
# 2 -0.006658 0.024429 -0.011343 0.000000 0.000000 0.000000
# 3 -0.005591 -0.011343 0.032918 0.000000 0.000000 0.000000
# 4 0.000000 0.000000 0.000000 0.044866 0.000000 0.000000
# 5 0.000000 0.000000 0.000000 0.000000 0.051229 0.000000
# 6 0.000000 0.000000 0.000000 0.000000 0.000000 0.072853
#
#
# Mechanical properties :
#
#
# Convention : Reuss Voigt Hill
#
# Bulk Modulus (GPa) = 44.44893 55.94657 50.19775
# Shear Modulus (GPa) = 17.04669 19.15354 18.10012
#
# Velocity S-wave (km/s) = 3.27672 3.47332 3.37645
# Velocity P-wave (km/s) = 6.50478 7.16403 6.84235
#
# Compressibility (1/GPa) = 0.02249773
#
# Stress axis : x y z
#
# Youngs Moduli (GPa) = 81.07151 40.93530 30.37845
#
# Poissons Ratio (x) = 0.27253 0.16984
# Poissons Ratio (y) = 0.53974 0.34459
# Poissons Ratio (z) = 0.45327 0.46435
#
# Static dielectric constant tensor:
#      x y z
#    x 3.351220 0.000000 0.000000 
#    y 0.000000 2.760350 0.000000 
#    z 0.000000 0.000000 3.117220 
# 
# 
# High freq. dielectric constant tensor:
#      x y z
#    x 1.616610 0.000000 0.000000 
#    y 0.000000 1.563730 0.000000 
#    z 0.000000 0.000000 1.617790 
# 
# From -- ./inp_files/5894.got.cif
#   From: 2010.03.12/outbox.cif.g09.slc.cpg/sg57_3_cif.got.tgz:5894.got - 2010.04.16 15:48:40.
