data_PCOD8230696
_publ_section_title
;
Structure prediction by ZEFSAII (Michael W. Deem and Ramdas Pophale) SiO2 
 PCOD8230696
Probable space group: P B C M
;
_chemical_formula_sum "Si O2"
_cell_formula_units_Z 64
_cell_length_a 18.527742
_cell_length_b 24.853229
_cell_length_c 8.763553
_cell_angle_alpha 90.000000
_cell_angle_beta 90.000000
_cell_angle_gamma 90.000000
_cell_volume 4035.390186
_symmetry_space_group_name_H-M "P B C M"
_symmetry_group_IT_number 57
_symmetry_cell_setting 'orthorhombic'
loop_
_space_group_symop_operation_xyz
x,y,z
-x,-y,1/2+z
x,1/2-y,-z
-x,1/2+y,1/2-z
-x,-y,-z
x,y,1/2-z
-x,1/2+y,z
x,1/2-y,1/2+z
loop_
_atom_site_type_symbol
_atom_site_label
_atom_site_fract_x
_atom_site_fract_y
_atom_site_fract_z
Si Si1 0.492517 0.081088 0.573032
Si Si2 0.427741 0.305790 0.429584
Si Si3 0.237264 0.999255 0.429381
Si Si4 0.092145 0.952540 0.082494
Si Si5 0.273671 0.304916 0.570853
Si Si6 0.180883 0.105773 0.927284
Si Si7 0.386862 0.513606 0.426617
Si Si8 0.042052 0.424941 0.581777
O O1 0.513390 0.074072 0.750000
O O2 0.478752 0.143488 0.531524
O O3 0.558231 0.061209 0.469424
O O4 0.421904 0.044726 0.537195
O O5 0.458980 0.250000 0.500000
O O6 0.419878 0.297900 0.250000
O O7 0.350152 0.319916 0.497544
O O8 0.232821 0.014307 0.250000
O O9 0.176421 0.953899 0.468426
O O10 0.315861 0.977431 0.471735
O O11 0.221056 0.050681 0.532805
O O12 0.085648 0.926523 0.250000
O O13 0.063458 0.013105 0.087160
O O14 0.041338 0.917914 0.970578
O O15 0.243802 0.250000 0.500000
O O16 0.284186 0.298860 0.750000
O O17 0.215285 0.349399 0.533338
O O18 0.192256 0.118818 0.750000
O O19 0.095686 0.104677 0.964866
O O20 0.366176 0.518756 0.250000
O O21 0.049246 0.399309 0.750000
#
# Coordination Sequence:
#
# PCOD8230696 Si02
#       8
#     8   8   8   8   8   8   8   8
#     4   9  19  33  46  62  88 119 149 184 225 270
#     4  10  19  32  49  68  90 117 150 187 227 268
#     4  10  19  30  44  63  88 117 149 182 219 263
#     4   8  15  26  39  57  82 112 142 173 208 247
#     4  11  21  33  47  64  87 114 146 183 223 262
#     4  11  20  30  44  62  86 116 150 184 218 259
#     4  10  19  30  46  66  88 117 152 187 225 270
#     4   9  16  26  40  59  82 110 143 176 211 248
#
# _framework density 15.859681
#
# number of rings (size 3 to 8) (size 9 to 14) (size 15 to 20)
#    0.000    2.250    0.000    6.000    0.000    6.000 
#    0.000    0.000    0.000    0.000    0.000    0.000 
#    0.000    1.000    0.000    5.250    0.000    5.250 
#
# Total GULP energy -793432.113363 kJ/mol
# GULP energy per Si atom -12397.376771 kJ/mol
# Density = 1.582358 g / cm^3
# Si number density = 15.859681 Si / 1000 Ang^3
#
#
#
# Elastic Constant Matrix: (Units=GPa)
#
#
# Indices 1 2 3 4 5 6 
#
# 1 95.0047 29.7820 34.2614 0.0000 0.0000 0.0000
# 2 29.7820 65.1048 27.3760 0.0000 0.0000 0.0000
# 3 34.2614 27.3760 82.5110 0.0000 0.0000 0.0000
# 4 0.0000 0.0000 0.0000 21.9035 0.0000 0.0000
# 5 0.0000 0.0000 0.0000 0.0000 23.1193 0.0000
# 6 0.0000 0.0000 0.0000 0.0000 0.0000 15.3648
#
#
#
# Elastic Compliance Matrix: (Units=1/GPa)
#
#
# Indices 1 2 3 4 5 6 
#
# 1 0.013382 -0.004399 -0.004097 0.000000 0.000000 0.000000
# 2 -0.004399 0.019296 -0.004576 0.000000 0.000000 0.000000
# 3 -0.004097 -0.004576 0.015339 0.000000 0.000000 0.000000
# 4 0.000000 0.000000 0.000000 0.045655 0.000000 0.000000
# 5 0.000000 0.000000 0.000000 0.000000 0.043254 0.000000
# 6 0.000000 0.000000 0.000000 0.000000 0.000000 0.065084
#
#
# Mechanical properties :
#
#
# Convention : Reuss Voigt Hill
#
# Bulk Modulus (GPa) = 45.71651 47.27326 46.49488
# Shear Modulus (GPa) = 21.23636 22.15757 21.69697
#
# Velocity S-wave (km/s) = 3.66323 3.74184 3.70274
# Velocity P-wave (km/s) = 6.83963 6.96709 6.90365
#
# Compressibility (1/GPa) = 0.02187394
#
# Stress axis : x y z
#
# Youngs Moduli (GPa) = 74.72524 51.82393 65.19296
#
# Poissons Ratio (x) = 0.22796 0.26712
# Poissons Ratio (y) = 0.32870 0.29830
# Poissons Ratio (z) = 0.30618 0.23713
#
# Static dielectric constant tensor:
#      x y z
#    x 3.065710 0.000000 0.000000 
#    y 0.000000 2.753160 0.000000 
#    z 0.000000 0.000000 3.163550 
# 
# 
# High freq. dielectric constant tensor:
#      x y z
#    x 1.603320 0.000000 0.000000 
#    y 0.000000 1.562540 0.000000 
#    z 0.000000 0.000000 1.626410 
# 
# From -- ./inp_files/7366.got.cif
#   From: 2010.03.12/outbox.cif.g09.slc.cpg/sg57_4_cif.got.tgz:7366.got - 2010.04.16 15:48:40.
