data_PCOD8230242
_publ_section_title
;
Structure prediction by ZEFSAII (Michael W. Deem and Ramdas Pophale) SiO2 
 PCOD8230242
Probable space group: P B C M
;
_chemical_formula_sum "Si O2"
_cell_formula_units_Z 64
_cell_length_a 14.749679
_cell_length_b 29.309150
_cell_length_c 9.380490
_cell_angle_alpha 90.000000
_cell_angle_beta 90.000000
_cell_angle_gamma 90.000000
_cell_volume 4055.191026
_symmetry_space_group_name_H-M "P B C M"
_symmetry_group_IT_number 57
_symmetry_cell_setting 'orthorhombic'
loop_
_space_group_symop_operation_xyz
x,y,z
-x,-y,1/2+z
x,1/2-y,-z
-x,1/2+y,1/2-z
-x,-y,-z
x,y,1/2-z
-x,1/2+y,z
x,1/2-y,1/2+z
loop_
_atom_site_type_symbol
_atom_site_label
_atom_site_fract_x
_atom_site_fract_y
_atom_site_fract_z
Si Si1 0.788865 0.875919 0.089959
Si Si2 0.485173 0.293765 0.914224
Si Si3 0.529368 0.393614 0.584323
Si Si4 0.132155 0.528604 0.915318
Si Si5 0.306711 0.957759 0.915396
Si Si6 0.064235 0.054566 0.910675
Si Si7 0.373465 0.443814 0.085771
Si Si8 0.726853 0.706413 0.415026
O O1 0.773134 0.856471 0.250000
O O2 0.889999 0.895977 0.073824
O O3 0.718196 0.916146 0.058380
O O4 0.780074 0.836942 0.973430
O O5 0.505704 0.283682 0.750000
O O6 0.532657 0.340674 0.966453
O O7 0.379123 0.300807 0.943594
O O8 0.522964 0.250000 0.000000
O O9 0.502400 0.395305 0.750000
O O10 0.627364 0.415206 0.555481
O O11 0.454458 0.422572 0.503342
O O12 0.156814 0.523313 0.750000
O O13 0.043097 0.559932 0.939818
O O14 0.216285 0.551924 0.994907
O O15 0.111770 0.478854 0.977890
O O16 0.279951 0.961772 0.750000
O O17 0.355822 0.004378 0.965227
O O18 0.080262 0.035361 0.750000
O O19 0.403165 0.442641 0.250000
O O20 0.763150 0.750000 0.500000
O O21 0.749496 0.712863 0.250000
#
# Coordination Sequence:
#
# PCOD8230242 Si02
#       8
#     8   8   8   8   8   8   8   8
#     4  10  18  30  48  68  94 127 159 189 233 286
#     4   9  18  31  46  66  89 117 152 192 233 275
#     4  10  20  33  48  67  93 126 162 197 235 277
#     4  10  19  30  48  71  93 121 160 201 232 271
#     4  10  20  34  48  64  95 133 161 195 240 281
#     4   9  18  33  49  67  95 126 155 192 240 284
#     4  10  19  30  45  66  94 130 163 189 228 277
#     4  10  19  31  47  68  95 123 156 195 235 281
#
# _framework density 15.782241000000001
#
# number of rings (size 3 to 8) (size 9 to 14) (size 15 to 20)
#    0.000    2.250    2.500    1.125    0.000    3.000 
#    0.000    0.000    0.000    0.000    0.000    0.875 
#    0.000    4.000    0.000    0.000    0.000    0.000 
#
# Total GULP energy -793644.033318 kJ/mol
# GULP energy per Si atom -12400.688021 kJ/mol
# Density = 1.574632 g / cm^3
# Si number density = 15.782241 Si / 1000 Ang^3
#
#
#
# Elastic Constant Matrix: (Units=GPa)
#
#
# Indices 1 2 3 4 5 6 
#
# 1 85.0164 48.6891 50.3036 0.0000 0.0000 0.0000
# 2 48.6891 108.9861 51.2256 0.0000 0.0000 0.0000
# 3 50.3036 51.2256 80.6246 0.0000 0.0000 0.0000
# 4 0.0000 0.0000 0.0000 26.4047 0.0000 0.0000
# 5 0.0000 0.0000 0.0000 0.0000 23.7641 0.0000
# 6 0.0000 0.0000 0.0000 0.0000 0.0000 18.2973
#
#
#
# Elastic Compliance Matrix: (Units=1/GPa)
#
#
# Indices 1 2 3 4 5 6 
#
# 1 0.020012 -0.004379 -0.009703 0.000000 0.000000 0.000000
# 2 -0.004379 0.014041 -0.006188 0.000000 0.000000 0.000000
# 3 -0.009703 -0.006188 0.022389 0.000000 0.000000 0.000000
# 4 0.000000 0.000000 0.000000 0.037872 0.000000 0.000000
# 5 0.000000 0.000000 0.000000 0.000000 0.042080 0.000000
# 6 0.000000 0.000000 0.000000 0.000000 0.000000 0.054653
#
#
# Mechanical properties :
#
#
# Convention : Reuss Voigt Hill
#
# Bulk Modulus (GPa) = 62.89595 63.89597 63.39596
# Shear Modulus (GPa) = 21.10689 21.98715 21.54702
#
# Velocity S-wave (km/s) = 3.66099 3.73655 3.69896
# Velocity P-wave (km/s) = 7.60325 7.69348 7.64850
#
# Compressibility (1/GPa) = 0.01589928
#
# Stress axis : x y z
#
# Youngs Moduli (GPa) = 49.96993 71.22167 44.66430
#
# Poissons Ratio (x) = 0.31191 0.43340
# Poissons Ratio (y) = 0.21884 0.27640
# Poissons Ratio (z) = 0.48488 0.44075
#
# Static dielectric constant tensor:
#      x y z
#    x 2.933830 0.000000 0.000000 
#    y 0.000000 2.995230 0.000000 
#    z 0.000000 0.000000 3.071170 
# 
# 
# High freq. dielectric constant tensor:
#      x y z
#    x 1.585300 0.000000 0.000000 
#    y 0.000000 1.592000 0.000000 
#    z 0.000000 0.000000 1.613000 
# 
# From -- ./inp_files/5967.got.cif
#   From: 2010.03.12/outbox.cif.g09.slc.cpg/sg57_3_cif.got.tgz:5967.got - 2010.04.16 15:48:40.
