data_PCOD8230400
_publ_section_title
;
Structure prediction by ZEFSAII (Michael W. Deem and Ramdas Pophale) SiO2 
 PCOD8230400
Probable space group: P B C M
;
_chemical_formula_sum "Si O2"
_cell_formula_units_Z 64
_cell_length_a 14.610925
_cell_length_b 8.744903
_cell_length_c 30.096817
_cell_angle_alpha 90.000000
_cell_angle_beta 90.000000
_cell_angle_gamma 90.000000
_cell_volume 3845.504073
_symmetry_space_group_name_H-M "P B C M"
_symmetry_group_IT_number 57
_symmetry_cell_setting 'orthorhombic'
loop_
_space_group_symop_operation_xyz
x,y,z
-x,-y,1/2+z
x,1/2-y,-z
-x,1/2+y,1/2-z
-x,-y,-z
x,y,1/2-z
-x,1/2+y,z
x,1/2-y,1/2+z
loop_
_atom_site_type_symbol
_atom_site_label
_atom_site_fract_x
_atom_site_fract_y
_atom_site_fract_z
Si Si1 0.789757 0.330270 0.667089
Si Si2 0.071781 0.862348 0.911586
Si Si3 0.077710 0.345931 0.840453
Si Si4 0.965050 0.870448 0.032026
Si Si5 0.611131 0.483135 0.696512
Si Si6 0.427015 0.325828 0.698065
Si Si7 0.755364 0.990515 0.697952
Si Si8 0.061708 0.038050 0.702481
O O1 0.841455 0.318259 0.619237
O O2 0.694194 0.419942 0.666587
O O3 0.772280 0.166228 0.688029
O O4 0.855119 0.420602 0.700215
O O5 0.050307 0.724660 0.945995
O O6 0.975236 0.888888 0.885551
O O7 0.094757 0.031002 0.932663
O O8 0.183902 0.389678 0.836306
O O9 0.066967 0.164286 0.835690
O O10 0.031375 0.442294 0.800852
O O11 0.909294 0.750000 0.000000
O O12 0.000000 0.000000 0.000000
O O13 0.629081 0.469030 0.750000
O O14 0.523379 0.387376 0.679853
O O15 0.596923 0.657249 0.680531
O O16 0.438492 0.313240 0.750000
O O17 0.348351 0.447057 0.685490
O O18 0.774592 0.953117 0.750000
O O19 0.064709 0.121341 0.750000
#
# Coordination Sequence:
#
# PCOD8230400 Si02
#       8
#     8   8   8   8   8   8   8   8
#     4  11  21  30  46  65  93 126 154 201 248 281
#     4  10  19  33  46  71  97 120 154 185 234 285
#     4  11  21  30  44  61  91 126 155 201 243 271
#     4   9  18  33  54  70  88 120 149 180 221 281
#     4  10  18  32  47  65  88 125 170 211 250 281
#     4   9  19  31  47  63  85 119 172 226 254 278
#     4  11  20  31  43  63  89 129 175 208 238 272
#     4  11  20  30  40  58  84 125 171 202 227 271
#
# _framework density 16.642811999999999
#
# number of rings (size 3 to 8) (size 9 to 14) (size 15 to 20)
#    0.000    1.750    0.000    7.500    0.000    3.000 
#    0.000    0.000    0.000    0.000    0.000    0.000 
#    0.000    0.000    0.000  148.500    0.000    0.375 
#
# Total GULP energy -792840.400743 kJ/mol
# GULP energy per Si atom -12388.131262 kJ/mol
# Density = 1.660493 g / cm^3
# Si number density = 16.642812 Si / 1000 Ang^3
#
#
#
# Elastic Constant Matrix: (Units=GPa)
#
#
# Indices 1 2 3 4 5 6 
#
# 1 62.3032 14.2949 20.8605 0.0000 0.0000 0.0000
# 2 14.2949 92.7176 24.5010 0.0000 0.0000 0.0000
# 3 20.8605 24.5010 62.3844 0.0000 0.0000 0.0000
# 4 0.0000 0.0000 0.0000 27.9970 0.0000 0.0000
# 5 0.0000 0.0000 0.0000 0.0000 11.5023 0.0000
# 6 0.0000 0.0000 0.0000 0.0000 0.0000 30.5670
#
#
#
# Elastic Compliance Matrix: (Units=1/GPa)
#
#
# Indices 1 2 3 4 5 6 
#
# 1 0.018222 -0.001338 -0.005568 0.000000 0.000000 0.000000
# 2 -0.001338 0.012133 -0.004318 0.000000 0.000000 0.000000
# 3 -0.005568 -0.004318 0.019587 0.000000 0.000000 0.000000
# 4 0.000000 0.000000 0.000000 0.035718 0.000000 0.000000
# 5 0.000000 0.000000 0.000000 0.000000 0.086939 0.000000
# 6 0.000000 0.000000 0.000000 0.000000 0.000000 0.032715
#
#
# Mechanical properties :
#
#
# Convention : Reuss Voigt Hill
#
# Bulk Modulus (GPa) = 36.37030 37.41310 36.89170
# Shear Modulus (GPa) = 21.10373 24.52985 22.81679
#
# Velocity S-wave (km/s) = 3.56482 3.84331 3.70668
# Velocity P-wave (km/s) = 6.23256 6.49796 6.36664
#
# Compressibility (1/GPa) = 0.02749496
#
# Stress axis : x y z
#
# Youngs Moduli (GPa) = 54.87968 82.42202 51.05416
#
# Poissons Ratio (x) = 0.11029 0.28425
# Poissons Ratio (y) = 0.07344 0.22043
# Poissons Ratio (z) = 0.30554 0.35586
#
# Static dielectric constant tensor:
#      x y z
#    x 3.143900 0.000000 0.000000 
#    y 0.000000 3.734040 0.000000 
#    z 0.000000 0.000000 3.336270 
# 
# 
# High freq. dielectric constant tensor:
#      x y z
#    x 1.618430 0.000000 0.000000 
#    y 0.000000 1.671840 0.000000 
#    z 0.000000 0.000000 1.601360 
# 
# From -- ./inp_files/29891.got.cif
#   From: 2010.03.12/outbox.cif.g09.slc.cpg/sg57_15_cif.got.tgz:29891.got - 2010.04.16 15:48:40.
