data_PCOD8230109
_publ_section_title
;
Structure prediction by ZEFSAII (Michael W. Deem and Ramdas Pophale) SiO2 
 PCOD8230109
Probable space group: P B C M
;
_chemical_formula_sum "Si O2"
_cell_formula_units_Z 64
_cell_length_a 18.467712
_cell_length_b 24.911095
_cell_length_c 8.978175
_cell_angle_alpha 90.000000
_cell_angle_beta 90.000000
_cell_angle_gamma 90.000000
_cell_volume 4130.417741
_symmetry_space_group_name_H-M "P B C M"
_symmetry_group_IT_number 57
_symmetry_cell_setting 'orthorhombic'
loop_
_space_group_symop_operation_xyz
x,y,z
-x,-y,1/2+z
x,1/2-y,-z
-x,1/2+y,1/2-z
-x,-y,-z
x,y,1/2-z
-x,1/2+y,z
x,1/2-y,1/2+z
loop_
_atom_site_type_symbol
_atom_site_label
_atom_site_fract_x
_atom_site_fract_y
_atom_site_fract_z
Si Si1 0.063654 0.304279 0.074448
Si Si2 0.597584 0.455757 0.581219
Si Si3 0.216728 0.303378 0.573689
Si Si4 0.537425 0.924287 0.418073
Si Si5 0.113012 0.987638 0.923293
Si Si6 0.326856 0.395181 0.922612
Si Si7 0.265689 0.989938 0.424821
Si Si8 0.005078 0.419775 0.077788
O O1 0.073358 0.294414 0.250000
O O2 0.014808 0.356605 0.043209
O O3 0.029969 0.250000 0.000000
O O4 0.140377 0.316927 0.000554
O O5 0.608371 0.436795 0.750000
O O6 0.566927 0.515563 0.571399
O O7 0.538630 0.417276 0.503489
O O8 0.674678 0.450590 0.498056
O O9 0.249073 0.250000 0.500000
O O10 0.206535 0.297138 0.750000
O O11 0.272560 0.349019 0.529843
O O12 0.524191 0.906017 0.250000
O O13 0.598083 0.886185 0.490530
O O14 0.129868 0.981026 0.750000
O O15 0.078034 0.046115 0.958069
O O16 0.186546 0.978918 0.012434
O O17 0.058879 0.940560 0.973280
O O18 0.346598 0.394581 0.750000
O O19 0.287041 0.449785 0.967500
O O20 0.265364 0.979383 0.250000
O O21 0.983959 0.429040 0.250000
#
# Coordination Sequence:
#
# PCOD8230109 Si02
#       8
#     8   8   8   8   8   8   8   8
#     4  10  19  31  47  65  86 112 144 181 220 260
#     4   9  16  26  39  56  81 109 137 169 202 239
#     4  10  19  30  43  60  83 110 142 178 216 253
#     4   9  16  25  39  58  79 106 138 170 204 240
#     4  10  19  30  45  64  86 114 147 180 217 261
#     4   9  18  29  41  58  81 112 145 176 210 251
#     4  10  18  28  42  60  84 112 143 176 211 252
#     4   9  19  33  46  62  86 115 145 179 218 261
#
# _framework density 15.494801000000001
#
# number of rings (size 3 to 8) (size 9 to 14) (size 15 to 20)
#    0.000    2.500    0.000    3.750    0.000    6.000 
#    0.000    0.000    0.000    0.000    0.000    0.000 
#    0.000    1.000    0.000   10.500    0.000    6.250 
#
# Total GULP energy -793491.223877 kJ/mol
# GULP energy per Si atom -12398.300373 kJ/mol
# Density = 1.545953 g / cm^3
# Si number density = 15.494801 Si / 1000 Ang^3
#
#
#
# Elastic Constant Matrix: (Units=GPa)
#
#
# Indices 1 2 3 4 5 6 
#
# 1 96.4582 28.7647 50.9983 0.0000 0.0000 0.0000
# 2 28.7647 63.4221 30.1518 0.0000 0.0000 0.0000
# 3 50.9983 30.1518 92.3669 0.0000 0.0000 0.0000
# 4 0.0000 0.0000 0.0000 19.4258 0.0000 0.0000
# 5 0.0000 0.0000 0.0000 0.0000 32.5962 0.0000
# 6 0.0000 0.0000 0.0000 0.0000 0.0000 54.6201
#
#
#
# Elastic Compliance Matrix: (Units=1/GPa)
#
#
# Indices 1 2 3 4 5 6 
#
# 1 0.015253 -0.003450 -0.007296 0.000000 0.000000 0.000000
# 2 -0.003450 0.019444 -0.004443 0.000000 0.000000 0.000000
# 3 -0.007296 -0.004443 0.016305 0.000000 0.000000 0.000000
# 4 0.000000 0.000000 0.000000 0.051478 0.000000 0.000000
# 5 0.000000 0.000000 0.000000 0.000000 0.030678 0.000000
# 6 0.000000 0.000000 0.000000 0.000000 0.000000 0.018308
#
#
# Mechanical properties :
#
#
# Convention : Reuss Voigt Hill
#
# Bulk Modulus (GPa) = 48.48177 52.45297 50.46737
# Shear Modulus (GPa) = 26.49463 30.81723 28.65593
#
# Velocity S-wave (km/s) = 4.13959 4.46452 4.30512
# Velocity P-wave (km/s) = 7.36242 7.77826 7.57320
#
# Compressibility (1/GPa) = 0.02062631
#
# Stress axis : x y z
#
# Youngs Moduli (GPa) = 65.56044 51.42981 61.33193
#
# Poissons Ratio (x) = 0.17741 0.44745
# Poissons Ratio (y) = 0.22615 0.27248
# Poissons Ratio (z) = 0.47830 0.22848
#
# Static dielectric constant tensor:
#      x y z
#    x 0.000000 0.000000 0.000000 
#    y 0.000000 0.000000 0.000000 
#    z 0.000000 0.000000 0.000000 
# 
# 
# High freq. dielectric constant tensor:
#      x y z
#    x 1.587880 0.000000 0.000000 
#    y 0.000000 1.551500 0.000000 
#    z 0.000000 0.000000 1.612610 
# 
# From -- ./inp_files/7502.got.cif
#   From: 2010.03.12/outbox.cif.g09.slc.cpg/sg57_4_cif.got.tgz:7502.got - 2010.04.16 15:48:40.
