data_PCOD8230689
_publ_section_title
;
Structure prediction by ZEFSAII (Michael W. Deem and Ramdas Pophale) SiO2 
 PCOD8230689
Probable space group: P B C M
;
_chemical_formula_sum "Si O2"
_cell_formula_units_Z 56
_cell_length_a 20.655190
_cell_length_b 16.838234
_cell_length_c 9.181985
_cell_angle_alpha 90.000000
_cell_angle_beta 90.000000
_cell_angle_gamma 90.000000
_cell_volume 3193.466126
_symmetry_space_group_name_H-M "P B C M"
_symmetry_group_IT_number 57
_symmetry_cell_setting 'orthorhombic'
loop_
_space_group_symop_operation_xyz
x,y,z
-x,-y,1/2+z
x,1/2-y,-z
-x,1/2+y,1/2-z
-x,-y,-z
x,y,1/2-z
-x,1/2+y,z
x,1/2-y,1/2+z
loop_
_atom_site_type_symbol
_atom_site_label
_atom_site_fract_x
_atom_site_fract_y
_atom_site_fract_z
Si Si1 0.040308 0.566380 0.080683
Si Si2 0.076091 0.169452 0.417521
Si Si3 0.357756 0.176173 0.419312
Si Si4 0.589425 0.056966 0.086512
Si Si5 0.295912 0.009174 0.082026
Si Si6 0.147003 0.008971 0.421057
Si Si7 0.524512 0.885751 0.085966
O O1 0.047108 0.545312 0.250000
O O2 0.000490 0.648631 0.060104
O O3 0.110921 0.563639 0.005131
O O4 0.000000 0.500000 0.000000
O O5 0.094225 0.250000 0.500000
O O6 0.091682 0.185593 0.250000
O O7 0.120524 0.095539 0.472254
O O8 0.322886 0.250000 0.500000
O O9 0.365901 0.194409 0.250000
O O10 0.313733 0.100168 0.448565
O O11 0.428695 0.168254 0.489581
O O12 0.597244 0.090824 0.250000
O O13 0.553077 0.973648 0.090604
O O14 0.546181 0.116226 0.989149
O O15 0.660407 0.048999 0.015242
O O16 0.308620 0.987696 0.250000
O O17 0.221676 0.998933 0.037598
O O18 0.134179 0.999134 0.250000
O O19 0.518612 0.851966 0.250000
#
# Coordination Sequence:
#
# PCOD8230689 Si02
#       7
#     8   8   8   8   8   8   8
#     4   9  17  30  47  67  90 117 151 191 231 272
#     4   9  18  30  45  67  93 119 151 189 227 269
#     4  10  19  30  43  61  88 121 154 187 223 265
#     4   9  16  26  42  64  86 107 139 182 221 258
#     4   9  18  31  45  62  89 122 151 181 220 266
#     4   9  18  32  47  66  93 124 157 191 228 273
#     4   9  16  27  43  61  82 110 144 182 223 262
#
# _framework density 17.535806000000001
#
# number of rings (size 3 to 8) (size 9 to 14) (size 15 to 20)
#    0.000    2.857    0.000    2.571    0.000    8.000 
#    0.000    0.000    0.000    0.000    0.000    1.000 
#    0.000    4.571    0.000    0.000    0.000    0.000 
#
# Total GULP energy -694097.058477 kJ/mol
# GULP energy per Si atom -12394.590330 kJ/mol
# Density = 1.749589 g / cm^3
# Si number density = 17.535806 Si / 1000 Ang^3
#
#
#
# Elastic Constant Matrix: (Units=GPa)
#
#
# Indices 1 2 3 4 5 6 
#
# 1 112.6608 2.2469 40.5140 0.0000 0.0000 0.0000
# 2 2.2469 5.1428 3.7188 0.0000 0.0000 0.0000
# 3 40.5140 3.7188 86.8115 0.0000 0.0000 0.0000
# 4 0.0000 0.0000 0.0000 25.0812 0.0000 0.0000
# 5 0.0000 0.0000 0.0000 0.0000 28.8136 0.0000
# 6 0.0000 0.0000 0.0000 0.0000 0.0000 12.8466
#
#
#
# Elastic Compliance Matrix: (Units=1/GPa)
#
#
# Indices 1 2 3 4 5 6 
#
# 1 0.010672 -0.001095 -0.004934 0.000000 0.000000 0.000000
# 2 -0.001095 0.200773 -0.008090 0.000000 0.000000 0.000000
# 3 -0.004934 -0.008090 0.014168 0.000000 0.000000 0.000000
# 4 0.000000 0.000000 0.000000 0.039871 0.000000 0.000000
# 5 0.000000 0.000000 0.000000 0.000000 0.034706 0.000000
# 6 0.000000 0.000000 0.000000 0.000000 0.000000 0.077842
#
#
# Mechanical properties :
#
#
# Convention : Reuss Voigt Hill
#
# Bulk Modulus (GPa) = 5.06645 33.06384 19.06515
# Shear Modulus (GPa) = 10.59186 23.89064 17.24125
#
# Velocity S-wave (km/s) = 2.46033 3.69506 3.13901
# Velocity P-wave (km/s) = 3.31157 6.09103 4.90240
#
# Compressibility (1/GPa) = 0.19737681
#
# Stress axis : x y z
#
# Youngs Moduli (GPa) = 93.70092 4.98075 70.58033
#
# Poissons Ratio (x) = 0.00545 0.34822
# Poissons Ratio (y) = 0.10261 0.57097
# Poissons Ratio (z) = 0.46229 0.04029
#
# Static dielectric constant tensor:
#      x y z
#    x 3.008150 0.000000 0.000000 
#    y 0.000000 2.923470 0.000000 
#    z 0.000000 0.000000 3.458470 
# 
# 
# High freq. dielectric constant tensor:
#      x y z
#    x 1.669940 0.000000 0.000000 
#    y 0.000000 1.632680 0.000000 
#    z 0.000000 0.000000 1.688720 
# 
# From -- ./inp_files/8362.got.cif
#   From: 2010.03.12/outbox.cif.g09.slc.cpg/sg57_5_cif.got.tgz:8362.got - 2010.04.16 15:48:40.
