data_PCOD8230134
_publ_section_title
;
Structure prediction by ZEFSAII (Michael W. Deem and Ramdas Pophale) SiO2 
 PCOD8230134
Probable space group: P B C M
;
_chemical_formula_sum "Si O2"
_cell_formula_units_Z 48
_cell_length_a 15.004636
_cell_length_b 21.187241
_cell_length_c 9.057543
_cell_angle_alpha 90.000000
_cell_angle_beta 90.000000
_cell_angle_gamma 90.000000
_cell_volume 2879.454865
_symmetry_space_group_name_H-M "P B C M"
_symmetry_group_IT_number 57
_symmetry_cell_setting 'orthorhombic'
loop_
_space_group_symop_operation_xyz
x,y,z
-x,-y,1/2+z
x,1/2-y,-z
-x,1/2+y,1/2-z
-x,-y,-z
x,y,1/2-z
-x,1/2+y,z
x,1/2-y,1/2+z
loop_
_atom_site_type_symbol
_atom_site_label
_atom_site_fract_x
_atom_site_fract_y
_atom_site_fract_z
Si Si1 0.699397 0.546535 0.923199
Si Si2 0.470602 0.437053 0.579384
Si Si3 0.120342 0.449259 0.577827
Si Si4 0.950185 0.086767 0.579251
Si Si5 0.797928 0.316573 0.422934
Si Si6 0.661107 0.401259 0.582182
O O1 0.698223 0.559582 0.750000
O O2 0.686574 0.472772 0.961429
O O3 0.619231 0.587056 0.998497
O O4 0.791312 0.571420 0.991436
O O5 0.500000 0.500000 0.500000
O O6 0.449386 0.451184 0.750000
O O7 0.554445 0.389262 0.565150
O O8 0.133903 0.436515 0.750000
O O9 0.101364 0.522300 0.542262
O O10 0.038600 0.406889 0.519378
O O11 0.978397 0.088342 0.750000
O O12 0.885673 0.143824 0.535785
O O13 0.806949 0.250000 0.500000
O O14 0.788942 0.306282 0.250000
O O15 0.709838 0.352719 0.475484
O O16 0.691319 0.388224 0.750000
#
# Coordination Sequence:
#
# PCOD8230134 Si02
#       6
#     8   8   8   8   8   8
#     4  10  18  28  45  70  99 130 159 193 237 289
#     4   9  17  28  43  66  95 126 158 192 232 280
#     4  10  18  29  48  71  96 127 161 198 244 296
#     4   9  19  33  46  67  95 126 161 200 246 292
#     4  11  22  35  51  70  95 128 166 205 243 288
#     4   9  18  31  46  66  94 127 161 198 237 281
#
# _framework density 16.669823000000001
#
# number of rings (size 3 to 8) (size 9 to 14) (size 15 to 20)
#    0.000    2.333    1.667    3.000    0.000    5.333 
#    0.000    0.000    0.000    0.000    0.000    1.167 
#    0.000    2.667    0.000    0.000    0.000    0.000 
#
# Total GULP energy -595138.716123 kJ/mol
# GULP energy per Si atom -12398.723253 kJ/mol
# Density = 1.663188 g / cm^3
# Si number density = 16.669823 Si / 1000 Ang^3
#
#
#
# Elastic Constant Matrix: (Units=GPa)
#
#
# Indices 1 2 3 4 5 6 
#
# 1 145.3007 35.4357 79.4438 0.0000 0.0000 0.0000
# 2 35.4357 54.7556 36.0125 0.0000 0.0000 0.0000
# 3 79.4438 36.0125 111.0206 0.0000 0.0000 0.0000
# 4 0.0000 0.0000 0.0000 19.8090 0.0000 0.0000
# 5 0.0000 0.0000 0.0000 0.0000 37.8590 0.0000
# 6 0.0000 0.0000 0.0000 0.0000 0.0000 12.7122
#
#
#
# Elastic Compliance Matrix: (Units=1/GPa)
#
#
# Indices 1 2 3 4 5 6 
#
# 1 0.011590 -0.002601 -0.007450 0.000000 0.000000 0.000000
# 2 -0.002601 0.023799 -0.005859 0.000000 0.000000 0.000000
# 3 -0.007450 -0.005859 0.016239 0.000000 0.000000 0.000000
# 4 0.000000 0.000000 0.000000 0.050482 0.000000 0.000000
# 5 0.000000 0.000000 0.000000 0.000000 0.026414 0.000000
# 6 0.000000 0.000000 0.000000 0.000000 0.000000 0.078665
#
#
# Mechanical properties :
#
#
# Convention : Reuss Voigt Hill
#
# Bulk Modulus (GPa) = 50.48203 68.09564 59.28883
# Shear Modulus (GPa) = 20.35747 24.75504 22.55625
#
# Velocity S-wave (km/s) = 3.49838 3.85778 3.68247
# Velocity P-wave (km/s) = 6.83136 7.79626 7.32970
#
# Compressibility (1/GPa) = 0.01980903
#
# Stress axis : x y z
#
# Youngs Moduli (GPa) = 86.28340 42.01777 61.58137
#
# Poissons Ratio (x) = 0.10928 0.45876
# Poissons Ratio (y) = 0.22440 0.36080
# Poissons Ratio (z) = 0.64279 0.24618
#
# Static dielectric constant tensor:
#      x y z
#    x 3.374590 0.000000 0.000000 
#    y 0.000000 2.657620 0.000000 
#    z 0.000000 0.000000 3.262240 
# 
# 
# High freq. dielectric constant tensor:
#      x y z
#    x 1.659070 0.000000 0.000000 
#    y 0.000000 1.575100 0.000000 
#    z 0.000000 0.000000 1.658490 
# 
# From -- ./inp_files/4832.got.cif
#   From: 2010.03.12/outbox.cif.g09.slc.cpg/sg57_3_cif.got.tgz:4832.got - 2010.04.16 15:48:40.
