data_PCOD8230026
_publ_section_title
;
Structure prediction by ZEFSAII (Michael W. Deem and Ramdas Pophale) SiO2 
 PCOD8230026
Probable space group: P B C M
;
_chemical_formula_sum "Si O2"
_cell_formula_units_Z 64
_cell_length_a 12.136295
_cell_length_b 14.010601
_cell_length_c 18.302271
_cell_angle_alpha 90.000000
_cell_angle_beta 90.000000
_cell_angle_gamma 90.000000
_cell_volume 3112.059353
_symmetry_space_group_name_H-M "P B C M"
_symmetry_group_IT_number 57
_symmetry_cell_setting 'orthorhombic'
loop_
_space_group_symop_operation_xyz
x,y,z
-x,-y,1/2+z
x,1/2-y,-z
-x,1/2+y,1/2-z
-x,-y,-z
x,y,1/2-z
-x,1/2+y,z
x,1/2-y,1/2+z
loop_
_atom_site_type_symbol
_atom_site_label
_atom_site_fract_x
_atom_site_fract_y
_atom_site_fract_z
Si Si1 0.711445 0.510851 0.933738
Si Si2 0.352952 0.297710 0.834784
Si Si3 0.121679 0.576916 0.663822
Si Si4 0.341650 0.002720 0.400062
Si Si5 0.047081 0.962706 0.921919
Si Si6 0.941828 0.249497 0.920611
Si Si7 0.541183 0.904894 0.163973
Si Si8 0.816397 0.710780 0.575576
O O1 0.819613 0.445952 0.921456
O O2 0.613922 0.509895 0.873563
O O3 0.761819 0.611184 0.916998
O O4 0.657802 0.493776 0.012555
O O5 0.358995 0.320875 0.750000
O O6 0.389561 0.393319 0.877452
O O7 0.427035 0.205008 0.855938
O O8 0.226041 0.276557 0.857603
O O9 0.132150 0.577768 0.750000
O O10 0.218004 0.512971 0.629106
O O11 0.130927 0.688026 0.636410
O O12 0.004930 0.529496 0.640719
O O13 0.417287 0.920027 0.365195
O O14 0.014516 0.854667 0.900010
O O15 0.000000 0.000000 0.000000
O O16 0.054640 0.189827 0.926658
O O17 0.881850 0.250000 0.000000
O O18 0.549394 0.921361 0.250000
O O19 0.770181 0.750000 0.500000
#
# Coordination Sequence:
#
# PCOD8230026 Si02
#       8
#     8   8   8   8   8   8   8   8
#     4  11  21  38  67  93 124 167 217 264 317 393
#     4  10  21  36  61  89 116 164 213 256 327 386
#     4  12  26  40  64 101 135 172 221 276 331 387
#     4  12  22  43  67  91 129 169 219 271 330 390
#     4  12  21  42  68  95 134 177 217 264 327 397
#     4  11  21  37  63  90 129 176 214 258 325 391
#     4  10  24  42  61  91 126 164 215 278 333 380
#     4  10  17  33  58  90 121 157 204 266 302 363
#
# _framework density 20.565159999999999
#
# number of rings (size 3 to 8) (size 9 to 14) (size 15 to 20)
#    0.000    1.000    5.000    3.000    0.000    1.500 
#    2.250    0.000    0.000    0.000    0.000    0.000 
#    0.000    0.000    0.000    0.000    0.000    0.000 
#
# Total GULP energy -792865.826510 kJ/mol
# GULP energy per Si atom -12388.528539 kJ/mol
# Density = 2.051835 g / cm^3
# Si number density = 20.565160 Si / 1000 Ang^3
#
#
#
# Elastic Constant Matrix: (Units=GPa)
#
#
# Indices 1 2 3 4 5 6 
#
# 1 62.0417 28.2979 33.0792 0.0000 0.0000 0.0000
# 2 28.2979 93.1278 42.3468 0.0000 0.0000 0.0000
# 3 33.0792 42.3468 113.2563 0.0000 0.0000 0.0000
# 4 0.0000 0.0000 0.0000 26.0147 0.0000 0.0000
# 5 0.0000 0.0000 0.0000 0.0000 15.4227 0.0000
# 6 0.0000 0.0000 0.0000 0.0000 0.0000 -30.8975
#
#
#
# Elastic Compliance Matrix: (Units=1/GPa)
#
#
# Indices 1 2 3 4 5 6 
#
# 1 0.020368 -0.004198 -0.004379 0.000000 0.000000 0.000000
# 2 -0.004198 0.013803 -0.003935 0.000000 0.000000 0.000000
# 3 -0.004379 -0.003935 0.011580 0.000000 0.000000 0.000000
# 4 0.000000 0.000000 0.000000 0.038440 0.000000 0.000000
# 5 0.000000 0.000000 0.000000 0.000000 0.064839 0.000000
# 6 0.000000 0.000000 0.000000 0.000000 0.000000 -0.032365
#
#
# Mechanical properties :
#
#
# Convention : Reuss Voigt Hill
#
# Bulk Modulus (GPa) = 48.24708 52.87486 50.56097
# Shear Modulus (GPa) = 33.64804 13.08810 23.36807
#
# Velocity S-wave (km/s) = 4.04934 2.52548 3.37455
# Velocity P-wave (km/s) = 6.73606 5.85412 6.31051
#
# Compressibility (1/GPa) = 0.02072664
#
# Stress axis : x y z
#
# Youngs Moduli (GPa) = 49.09717 72.44985 86.35664
#
# Poissons Ratio (x) = 0.30411 0.37819
# Poissons Ratio (y) = 0.20609 0.33980
# Poissons Ratio (z) = 0.21502 0.28508
#
# Static dielectric constant tensor:
#      x y z
#    x 10.101840 0.000000 0.000000 
#    y 0.000000 2.677820 0.000000 
#    z 0.000000 0.000000 9.018420 
# 
# 
# High freq. dielectric constant tensor:
#      x y z
#    x 1.792370 0.000000 0.000000 
#    y 0.000000 1.810570 0.000000 
#    z 0.000000 0.000000 1.797230 
# 
# From -- ./inp_files/22003.got.cif
#   From: 2010.03.12/outbox.cif.g09.slc.cpg/sg57_12_cif.got.tgz:22003.got - 2010.04.16 15:48:40.
