data_PCOD8230712
_publ_section_title
;
Structure prediction by ZEFSAII (Michael W. Deem and Ramdas Pophale) SiO2 
 PCOD8230712
Probable space group: P B C M
;
_chemical_formula_sum "Si O2"
_cell_formula_units_Z 48
_cell_length_a 11.767938
_cell_length_b 26.096822
_cell_length_c 9.160289
_cell_angle_alpha 90.000000
_cell_angle_beta 90.000000
_cell_angle_gamma 90.000000
_cell_volume 2813.177729
_symmetry_space_group_name_H-M "P B C M"
_symmetry_group_IT_number 57
_symmetry_cell_setting 'orthorhombic'
loop_
_space_group_symop_operation_xyz
x,y,z
-x,-y,1/2+z
x,1/2-y,-z
-x,1/2+y,1/2-z
-x,-y,-z
x,y,1/2-z
-x,1/2+y,z
x,1/2-y,1/2+z
loop_
_atom_site_type_symbol
_atom_site_label
_atom_site_fract_x
_atom_site_fract_y
_atom_site_fract_z
Si Si1 0.210867 0.072777 0.922440
Si Si2 0.827850 0.303403 0.578300
Si Si3 0.531441 0.946830 0.422475
Si Si4 0.979508 0.620927 0.076807
Si Si5 0.346751 0.610116 0.416041
Si Si6 0.855587 0.035626 0.083816
O O1 0.196135 0.077887 0.750000
O O2 0.342688 0.072038 0.964922
O O3 0.153153 0.020654 0.986842
O O4 0.144431 0.119946 0.000324
O O5 0.811722 0.250000 0.500000
O O6 0.823372 0.294831 0.750000
O O7 0.949683 0.328139 0.534596
O O8 0.724411 0.340452 0.530543
O O9 0.518076 0.954972 0.250000
O O10 0.452207 0.900178 0.477111
O O11 0.500000 0.000000 0.500000
O O12 0.965566 0.617852 0.250000
O O13 0.050799 0.572553 0.010860
O O14 0.389735 0.617973 0.250000
O O15 0.268857 0.560027 0.425116
O O16 0.892164 0.029233 0.250000
#
# Coordination Sequence:
#
# PCOD8230712 Si02
#       6
#     8   8   8   8   8   8
#     4  10  19  30  45  67 100 137 166 199 241 283
#     4   9  19  35  57  79 101 127 159 208 264 306
#     4  11  21  32  48  71 102 140 176 208 244 293
#     4   9  18  31  48  71  97 128 164 201 245 297
#     4   9  17  33  52  72 101 134 166 207 253 294
#     4   8  14  28  46  65  97 132 160 196 240 284
#
# _framework density 17.062555
#
# number of rings (size 3 to 8) (size 9 to 14) (size 15 to 20)
#    0.000    2.667    1.667    3.000    0.000    2.667 
#    0.000    2.500    0.000    1.000    0.000    0.000 
#    0.000    0.000    0.000    0.000    0.000    0.000 
#
# Total GULP energy -594838.422227 kJ/mol
# GULP energy per Si atom -12392.467130 kJ/mol
# Density = 1.702372 g / cm^3
# Si number density = 17.062555 Si / 1000 Ang^3
#
#
#
# Elastic Constant Matrix: (Units=GPa)
#
#
# Indices 1 2 3 4 5 6 
#
# 1 106.9662 50.0715 47.9248 0.0000 0.0000 0.0000
# 2 50.0715 93.9220 36.0632 0.0000 0.0000 0.0000
# 3 47.9248 36.0632 49.7875 0.0000 0.0000 0.0000
# 4 0.0000 0.0000 0.0000 26.8744 0.0000 0.0000
# 5 0.0000 0.0000 0.0000 0.0000 31.3320 0.0000
# 6 0.0000 0.0000 0.0000 0.0000 0.0000 15.5629
#
#
#
# Elastic Compliance Matrix: (Units=1/GPa)
#
#
# Indices 1 2 3 4 5 6 
#
# 1 0.017435 -0.003949 -0.013922 0.000000 0.000000 0.000000
# 2 -0.003949 0.015644 -0.007530 0.000000 0.000000 0.000000
# 3 -0.013922 -0.007530 0.038941 0.000000 0.000000 0.000000
# 4 0.000000 0.000000 0.000000 0.037210 0.000000 0.000000
# 5 0.000000 0.000000 0.000000 0.000000 0.031916 0.000000
# 6 0.000000 0.000000 0.000000 0.000000 0.000000 0.064255
#
#
# Mechanical properties :
#
#
# Convention : Reuss Voigt Hill
#
# Bulk Modulus (GPa) = 47.13191 57.64386 52.38789
# Shear Modulus (GPa) = 18.99142 22.52826 20.75984
#
# Velocity S-wave (km/s) = 3.33985 3.63758 3.49189
# Velocity P-wave (km/s) = 6.52348 7.17634 6.85768
#
# Compressibility (1/GPa) = 0.02121705
#
# Stress axis : x y z
#
# Youngs Moduli (GPa) = 57.35568 63.92293 25.67989
#
# Poissons Ratio (x) = 0.25245 0.35752
# Poissons Ratio (y) = 0.22651 0.19337
# Poissons Ratio (z) = 0.79851 0.48134
#
# Static dielectric constant tensor:
#      x y z
#    x 3.295480 0.000000 0.000000 
#    y 0.000000 3.063230 0.000000 
#    z 0.000000 0.000000 2.964310 
# 
# 
# High freq. dielectric constant tensor:
#      x y z
#    x 1.661140 0.000000 0.000000 
#    y 0.000000 1.630610 0.000000 
#    z 0.000000 0.000000 1.641110 
# 
# From -- ./inp_files/3263.got.cif
#   From: 2010.03.12/outbox.cif.g09.slc.cpg/sg57_2_cif.got.tgz:3263.got - 2010.04.16 15:48:40.
