data_PCOD8230907
_publ_section_title
;
Structure prediction by ZEFSAII (Michael W. Deem and Ramdas Pophale) SiO2 
 PCOD8230907
Probable space group: P B C M
;
_chemical_formula_sum "Si O2"
_cell_formula_units_Z 64
_cell_length_a 16.950721
_cell_length_b 23.910306
_cell_length_c 8.746157
_cell_angle_alpha 90.000000
_cell_angle_beta 90.000000
_cell_angle_gamma 90.000000
_cell_volume 3544.790547
_symmetry_space_group_name_H-M "P B C M"
_symmetry_group_IT_number 57
_symmetry_cell_setting 'orthorhombic'
loop_
_space_group_symop_operation_xyz
x,y,z
-x,-y,1/2+z
x,1/2-y,-z
-x,1/2+y,1/2-z
-x,-y,-z
x,y,1/2-z
-x,1/2+y,z
x,1/2-y,1/2+z
loop_
_atom_site_type_symbol
_atom_site_label
_atom_site_fract_x
_atom_site_fract_y
_atom_site_fract_z
Si Si1 0.761543 0.811828 0.568943
Si Si2 0.730630 0.122580 0.430601
Si Si3 0.867028 0.192239 0.572922
Si Si4 0.579946 0.188782 0.069823
Si Si5 0.590403 0.809616 0.927790
Si Si6 0.968140 0.412258 0.425579
Si Si7 0.182249 0.522917 0.932193
Si Si8 0.856426 0.910884 0.432144
O O1 0.771664 0.750000 0.500000
O O2 0.775538 0.808835 0.750000
O O3 0.674143 0.838560 0.529268
O O4 0.825157 0.852068 0.492879
O O5 0.735210 0.113675 0.250000
O O6 0.792351 0.169552 0.480991
O O7 0.644982 0.144266 0.486026
O O8 0.747664 0.063498 0.512455
O O9 0.894489 0.250000 0.500000
O O10 0.843312 0.198723 0.750000
O O11 0.941475 0.151618 0.553089
O O12 0.587494 0.196758 0.250000
O O13 0.493421 0.162490 0.022536
O O14 0.594247 0.250000 0.000000
O O15 0.588280 0.799754 0.750000
O O16 0.592863 0.750000 0.000000
O O17 0.974812 0.428514 0.250000
O O18 0.901540 0.453140 0.497331
O O19 0.054658 0.419211 0.499020
O O20 0.183938 0.521011 0.750000
O O21 0.196133 0.461568 0.001859
O O22 0.853864 0.910412 0.250000
#
# Coordination Sequence:
#
# PCOD8230907 Si02
#       8
#     8   8   8   8   8   8   8   8
#     4  10  20  35  54  77 104 132 162 198 244 293
#     4  10  19  31  48  72 100 131 166 203 244 287
#     4  10  19  32  47  67  98 134 168 200 241 291
#     4   9  17  28  46  73 102 131 164 200 239 286
#     4   8  15  29  48  70  98 130 161 196 238 285
#     4   8  18  34  51  71  96 127 163 205 247 290
#     4  10  20  36  54  73  98 128 164 203 245 290
#     4  11  21  35  55  77  99 125 161 203 247 293
#
# _framework density 18.054663000000001
#
# number of rings (size 3 to 8) (size 9 to 14) (size 15 to 20)
#    0.000    2.500    0.000    3.375    0.000    3.000 
#    0.000    8.125    0.000    0.750    0.000    0.000 
#    0.000    0.000    0.000    0.000    0.000    0.000 
#
# Total GULP energy -793024.800427 kJ/mol
# GULP energy per Si atom -12391.012507 kJ/mol
# Density = 1.801357 g / cm^3
# Si number density = 18.054663 Si / 1000 Ang^3
#
#
#
# Elastic Constant Matrix: (Units=GPa)
#
#
# Indices 1 2 3 4 5 6 
#
# 1 90.4041 33.9415 28.5196 0.0000 0.0000 0.0000
# 2 33.9415 96.9487 31.6906 0.0000 0.0000 0.0000
# 3 28.5196 31.6906 59.7320 0.0000 0.0000 0.0000
# 4 0.0000 0.0000 0.0000 30.3090 0.0000 0.0000
# 5 0.0000 0.0000 0.0000 0.0000 19.7417 0.0000
# 6 0.0000 0.0000 0.0000 0.0000 0.0000 17.4340
#
#
#
# Elastic Compliance Matrix: (Units=1/GPa)
#
#
# Indices 1 2 3 4 5 6 
#
# 1 0.013818 -0.003243 -0.004877 0.000000 0.000000 0.000000
# 2 -0.003243 0.013240 -0.005476 0.000000 0.000000 0.000000
# 3 -0.004877 -0.005476 0.021975 0.000000 0.000000 0.000000
# 4 0.000000 0.000000 0.000000 0.032994 0.000000 0.000000
# 5 0.000000 0.000000 0.000000 0.000000 0.050654 0.000000
# 6 0.000000 0.000000 0.000000 0.000000 0.000000 0.057359
#
#
# Mechanical properties :
#
#
# Convention : Reuss Voigt Hill
#
# Bulk Modulus (GPa) = 45.78547 48.37646 47.08096
# Shear Modulus (GPa) = 22.27053 23.69247 22.98150
#
# Velocity S-wave (km/s) = 3.51594 3.62645 3.57162
# Velocity P-wave (km/s) = 6.47278 6.66239 6.56827
#
# Compressibility (1/GPa) = 0.02184099
#
# Stress axis : x y z
#
# Youngs Moduli (GPa) = 72.37166 75.52741 45.50628
#
# Poissons Ratio (x) = 0.24497 0.22191
# Poissons Ratio (y) = 0.23473 0.24919
# Poissons Ratio (z) = 0.35292 0.41358
#
# Static dielectric constant tensor:
#      x y z
#    x 3.950930 0.000000 0.000000 
#    y 0.000000 3.207520 0.000000 
#    z 0.000000 0.000000 3.283380 
# 
# 
# High freq. dielectric constant tensor:
#      x y z
#    x 1.701650 0.000000 0.000000 
#    y 0.000000 1.677700 0.000000 
#    z 0.000000 0.000000 1.699200 
# 
# From -- ./inp_files/7439.got.cif
#   From: 2010.03.12/outbox.cif.g09.slc.cpg/sg57_4_cif.got.tgz:7439.got - 2010.04.16 15:48:40.
