data_PCOD8230589
_publ_section_title
;
Structure prediction by ZEFSAII (Michael W. Deem and Ramdas Pophale) SiO2 
 PCOD8230589
Probable space group: P B C M
;
_chemical_formula_sum "Si O2"
_cell_formula_units_Z 64
_cell_length_a 18.632098
_cell_length_b 19.399484
_cell_length_c 9.186845
_cell_angle_alpha 90.000000
_cell_angle_beta 90.000000
_cell_angle_gamma 90.000000
_cell_volume 3320.613485
_symmetry_space_group_name_H-M "P B C M"
_symmetry_group_IT_number 57
_symmetry_cell_setting 'orthorhombic'
loop_
_space_group_symop_operation_xyz
x,y,z
-x,-y,1/2+z
x,1/2-y,-z
-x,1/2+y,1/2-z
-x,-y,-z
x,y,1/2-z
-x,1/2+y,z
x,1/2-y,1/2+z
loop_
_atom_site_type_symbol
_atom_site_label
_atom_site_fract_x
_atom_site_fract_y
_atom_site_fract_z
Si Si1 0.943407 0.951682 0.583377
Si Si2 0.802000 0.519434 0.923390
Si Si3 0.027547 0.813681 0.913464
Si Si4 0.543284 0.824272 0.420825
Si Si5 0.644265 0.555765 0.580690
Si Si6 0.322563 0.690238 0.089044
Si Si7 0.565301 0.422992 0.914604
Si Si8 0.822736 0.364682 0.923302
O O1 0.935143 0.978170 0.750000
O O2 0.867360 0.942659 0.503152
O O3 0.971954 0.874811 0.581874
O O4 0.000000 0.000000 0.500000
O O5 0.809765 0.529018 0.750000
O O6 0.724972 0.548349 0.981567
O O7 0.809730 0.441673 0.978041
O O8 0.042421 0.789309 0.750000
O O9 0.103040 0.836037 0.988082
O O10 0.993892 0.750000 0.000000
O O11 0.544855 0.750000 0.500000
O O12 0.529070 0.811166 0.250000
O O13 0.618078 0.865643 0.446731
O O14 0.484488 0.877261 0.481693
O O15 0.647457 0.537137 0.750000
O O16 0.585459 0.499125 0.519298
O O17 0.318293 0.720160 0.250000
O O18 0.359171 0.616206 0.088523
O O19 0.243284 0.681431 0.020532
O O20 0.364479 0.750000 0.000000
O O21 0.532736 0.427017 0.750000
O O22 0.825097 0.366674 0.750000
#
# Coordination Sequence:
#
# PCOD8230589 Si02
#       8
#     8   8   8   8   8   8   8   8
#     4  11  22  37  58  85 115 149 191 235 279 332
#     4  10  18  36  62  85 111 146 189 235 287 342
#     4  10  21  36  54  79 111 146 184 228 277 332
#     4  11  23  39  58  84 114 150 195 239 287 344
#     4   9  19  37  63  87 110 147 193 234 284 349
#     4  10  19  30  48  74 109 147 184 218 264 327
#     4  10  19  35  59  85 112 147 186 232 285 339
#     4   9  16  31  53  76 106 145 180 220 270 330
#
# _framework density 19.273544999999999
#
# number of rings (size 3 to 8) (size 9 to 14) (size 15 to 20)
#    0.000    2.000    2.500    1.875    0.000    2.500 
#    0.000    3.750    0.000    3.000    0.000    0.000 
#    0.000    0.000    0.000    0.000    0.000    0.000 
#
# Total GULP energy -793110.834268 kJ/mol
# GULP energy per Si atom -12392.356785 kJ/mol
# Density = 1.922968 g / cm^3
# Si number density = 19.273545 Si / 1000 Ang^3
#
#
#
# Elastic Constant Matrix: (Units=GPa)
#
#
# Indices 1 2 3 4 5 6 
#
# 1 95.5422 39.9114 39.5260 0.0000 0.0000 0.0000
# 2 39.9114 110.2337 47.0418 0.0000 0.0000 0.0000
# 3 39.5260 47.0418 78.0125 0.0000 0.0000 0.0000
# 4 0.0000 0.0000 0.0000 25.0550 0.0000 0.0000
# 5 0.0000 0.0000 0.0000 0.0000 23.0183 0.0000
# 6 0.0000 0.0000 0.0000 0.0000 0.0000 20.7815
#
#
#
# Elastic Compliance Matrix: (Units=1/GPa)
#
#
# Indices 1 2 3 4 5 6 
#
# 1 0.013820 -0.002714 -0.005366 0.000000 0.000000 0.000000
# 2 -0.002714 0.012748 -0.006312 0.000000 0.000000 0.000000
# 3 -0.005366 -0.006312 0.019343 0.000000 0.000000 0.000000
# 4 0.000000 0.000000 0.000000 0.039912 0.000000 0.000000
# 5 0.000000 0.000000 0.000000 0.000000 0.043444 0.000000
# 6 0.000000 0.000000 0.000000 0.000000 0.000000 0.048120
#
#
# Mechanical properties :
#
#
# Convention : Reuss Voigt Hill
#
# Bulk Modulus (GPa) = 58.38372 59.63855 59.01114
# Shear Modulus (GPa) = 23.59838 24.25823 23.92830
#
# Velocity S-wave (km/s) = 3.50293 3.55156 3.52733
# Velocity P-wave (km/s) = 6.83510 6.91582 6.87558
#
# Compressibility (1/GPa) = 0.01712806
#
# Stress axis : x y z
#
# Youngs Moduli (GPa) = 72.35860 78.44457 51.69801
#
# Poissons Ratio (x) = 0.21290 0.27739
# Poissons Ratio (y) = 0.19638 0.32631
# Poissons Ratio (z) = 0.38824 0.49514
#
# Static dielectric constant tensor:
#      x y z
#    x 3.648600 0.000000 0.000000 
#    y 0.000000 3.549900 0.000000 
#    z 0.000000 0.000000 3.368650 
# 
# 
# High freq. dielectric constant tensor:
#      x y z
#    x 1.750620 0.000000 0.000000 
#    y 0.000000 1.751690 0.000000 
#    z 0.000000 0.000000 1.724820 
# 
# From -- ./inp_files/8396.got.cif
#   From: 2010.03.12/outbox.cif.g09.slc.cpg/sg57_5_cif.got.tgz:8396.got - 2010.04.16 15:48:40.
