data_PCOD8230354
_publ_section_title
;
Structure prediction by ZEFSAII (Michael W. Deem and Ramdas Pophale) SiO2 
 PCOD8230354
Probable space group: P B C M
;
_chemical_formula_sum "Si O2"
_cell_formula_units_Z 56
_cell_length_a 14.768790
_cell_length_b 22.384787
_cell_length_c 9.200961
_cell_angle_alpha 90.000000
_cell_angle_beta 90.000000
_cell_angle_gamma 90.000000
_cell_volume 3041.802912
_symmetry_space_group_name_H-M "P B C M"
_symmetry_group_IT_number 57
_symmetry_cell_setting 'orthorhombic'
loop_
_space_group_symop_operation_xyz
x,y,z
-x,-y,1/2+z
x,1/2-y,-z
-x,1/2+y,1/2-z
-x,-y,-z
x,y,1/2-z
-x,1/2+y,z
x,1/2-y,1/2+z
loop_
_atom_site_type_symbol
_atom_site_label
_atom_site_fract_x
_atom_site_fract_y
_atom_site_fract_z
Si Si1 0.917902 0.690346 0.577061
Si Si2 0.087291 0.980468 0.084154
Si Si3 0.604204 0.555212 0.080588
Si Si4 0.426715 0.579027 0.579282
Si Si5 0.114515 0.650302 0.577991
Si Si6 0.693270 0.191220 0.577460
Si Si7 0.200230 0.095289 0.415774
O O1 0.882161 0.750000 0.500000
O O2 0.911933 0.696425 0.750000
O O3 0.852899 0.637010 0.527210
O O4 0.020700 0.679065 0.521838
O O5 0.057101 0.972317 0.250000
O O6 0.121841 0.917572 0.020661
O O7 0.167053 0.027623 0.066920
O O8 0.000000 0.000000 0.000000
O O9 0.581767 0.558571 0.250000
O O10 0.614889 0.485442 0.034446
O O11 0.694155 0.592823 0.043278
O O12 0.523931 0.587582 0.995012
O O13 0.441490 0.583149 0.750000
O O14 0.361098 0.632300 0.526753
O O15 0.116021 0.650942 0.750000
O O16 0.202845 0.685026 0.520942
O O17 0.652152 0.250000 0.500000
O O18 0.687444 0.199287 0.750000
O O19 0.185103 0.117670 0.250000
#
# Coordination Sequence:
#
# PCOD8230354 Si02
#       7
#     8   8   8   8   8   8   8
#     4  11  22  36  53  73 102 140 181 220 258 304
#     4  10  18  31  51  77 107 137 172 213 260 308
#     4   9  18  34  57  82 106 135 171 214 266 320
#     4   9  18  34  56  81 107 137 171 213 266 318
#     4   9  18  33  53  76 105 141 175 212 260 312
#     4  10  20  35  54  77 107 142 179 215 259 314
#     4  10  20  34  54  79 107 139 174 215 262 314
#
# _framework density 18.410133999999999
#
# number of rings (size 3 to 8) (size 9 to 14) (size 15 to 20)
#    0.000    2.286    1.429    1.714    0.000    4.571 
#    0.000    2.143    0.000    5.143    0.000    0.000 
#    0.000    0.000    0.000    0.000    0.000    0.000 
#
# Total GULP energy -694330.970480 kJ/mol
# GULP energy per Si atom -12398.767330 kJ/mol
# Density = 1.836823 g / cm^3
# Si number density = 18.410134 Si / 1000 Ang^3
#
#
#
# Elastic Constant Matrix: (Units=GPa)
#
#
# Indices 1 2 3 4 5 6 
#
# 1 112.1006 40.4639 35.7795 0.0000 0.0000 0.0000
# 2 40.4639 103.8053 34.6564 0.0000 0.0000 0.0000
# 3 35.7795 34.6564 46.6873 0.0000 0.0000 0.0000
# 4 0.0000 0.0000 0.0000 28.7801 0.0000 0.0000
# 5 0.0000 0.0000 0.0000 0.0000 29.5490 0.0000
# 6 0.0000 0.0000 0.0000 0.0000 0.0000 22.8067
#
#
#
# Elastic Compliance Matrix: (Units=1/GPa)
#
#
# Indices 1 2 3 4 5 6 
#
# 1 0.012165 -0.002166 -0.007715 0.000000 0.000000 0.000000
# 2 -0.002166 0.013193 -0.008133 0.000000 0.000000 0.000000
# 3 -0.007715 -0.008133 0.033369 0.000000 0.000000 0.000000
# 4 0.000000 0.000000 0.000000 0.034746 0.000000 0.000000
# 5 0.000000 0.000000 0.000000 0.000000 0.033842 0.000000
# 6 0.000000 0.000000 0.000000 0.000000 0.000000 0.043847
#
#
# Mechanical properties :
#
#
# Convention : Reuss Voigt Hill
#
# Bulk Modulus (GPa) = 44.05602 53.82142 48.93872
# Shear Modulus (GPa) = 23.28221 26.34007 24.81114
#
# Velocity S-wave (km/s) = 3.56004 3.78661 3.67507
# Velocity P-wave (km/s) = 6.39381 6.95816 6.68195
#
# Compressibility (1/GPa) = 0.02269837
#
# Stress axis : x y z
#
# Youngs Moduli (GPa) = 82.20435 75.79640 29.96820
#
# Poissons Ratio (x) = 0.16420 0.23119
# Poissons Ratio (y) = 0.17808 0.24374
# Poissons Ratio (z) = 0.63417 0.61647
#
# Static dielectric constant tensor:
#      x y z
#    x 3.818220 0.000000 0.000000 
#    y 0.000000 3.330110 0.000000 
#    z 0.000000 0.000000 3.148510 
# 
# 
# High freq. dielectric constant tensor:
#      x y z
#    x 1.712040 0.000000 0.000000 
#    y 0.000000 1.716060 0.000000 
#    z 0.000000 0.000000 1.694260 
# 
# From -- ./inp_files/5281.got.cif
#   From: 2010.03.12/outbox.cif.g09.slc.cpg/sg57_3_cif.got.tgz:5281.got - 2010.04.16 15:48:40.
