data_PCOD8230045
_publ_section_title
;
Structure prediction by ZEFSAII (Michael W. Deem and Ramdas Pophale) SiO2 
 PCOD8230045
Probable space group: P B C M
;
_chemical_formula_sum "Si O2"
_cell_formula_units_Z 64
_cell_length_a 23.277179
_cell_length_b 9.429190
_cell_length_c 12.931633
_cell_angle_alpha 90.000000
_cell_angle_beta 90.000000
_cell_angle_gamma 90.000000
_cell_volume 2838.298738
_symmetry_space_group_name_H-M "P B C M"
_symmetry_group_IT_number 57
_symmetry_cell_setting 'orthorhombic'
loop_
_space_group_symop_operation_xyz
x,y,z
-x,-y,1/2+z
x,1/2-y,-z
-x,1/2+y,1/2-z
-x,-y,-z
x,y,1/2-z
-x,1/2+y,z
x,1/2-y,1/2+z
loop_
_atom_site_type_symbol
_atom_site_label
_atom_site_fract_x
_atom_site_fract_y
_atom_site_fract_z
Si Si1 0.404128 0.151642 0.138273
Si Si2 0.935558 0.667125 0.127752
Si Si3 0.959426 0.517821 0.873921
Si Si4 0.474103 0.622029 0.430884
Si Si5 0.370025 0.456788 0.074444
Si Si6 0.745977 0.092800 0.466584
Si Si7 0.172277 0.513652 0.628342
Si Si8 0.858002 0.177761 0.369229
O O1 0.385813 0.089674 0.250000
O O2 0.473434 0.175407 0.140733
O O3 0.373607 0.302657 0.123775
O O4 0.383390 0.045664 0.049044
O O5 0.945297 0.679237 0.250000
O O6 0.870747 0.615703 0.104041
O O7 0.979970 0.547136 0.085806
O O8 0.947492 0.823935 0.078577
O O9 0.959025 0.529312 0.750000
O O10 0.909415 0.415471 0.916414
O O11 0.451110 0.750000 0.500000
O O12 0.500000 0.500000 0.500000
O O13 0.417888 0.559366 0.371925
O O14 0.306440 0.516271 0.090880
O O15 0.726272 0.250000 0.500000
O O16 0.797596 0.097902 0.383884
O O17 0.767859 0.998332 0.565463
O O18 0.186011 0.524459 0.750000
O O19 0.145169 0.662416 0.582940
O O20 0.871681 0.199373 0.250000
#
# Coordination Sequence:
#
# PCOD8230045 Si02
#       8
#     8   8   8   8   8   8   8   8
#     4  10  21  38  59  87 120 157 193 233 289 348
#     4   9  16  28  49  79 110 144 187 237 293 351
#     4   9  16  28  49  78 110 145 187 235 294 352
#     4  10  17  36  60  84 118 153 186 234 286 336
#     4  10  21  39  59  87 122 156 194 243 289 344
#     4  10  21  38  60  83 110 152 197 238 292 345
#     4   9  18  34  55  79 110 146 189 240 289 343
#     4   9  18  34  54  77 109 147 187 237 289 345
#
# _framework density 22.548718999999998
#
# number of rings (size 3 to 8) (size 9 to 14) (size 15 to 20)
#    0.000    2.500    2.500    1.125    0.000    4.500 
#    4.500    0.625    0.000    3.000    0.000    0.000 
#    0.000    0.000    0.000    0.000    0.000    0.000 
#
# Total GULP energy -793367.135736 kJ/mol
# GULP energy per Si atom -12396.361496 kJ/mol
# Density = 2.249740 g / cm^3
# Si number density = 22.548719 Si / 1000 Ang^3
#
#
#
# Elastic Constant Matrix: (Units=GPa)
#
#
# Indices 1 2 3 4 5 6 
#
# 1 138.7714 43.7255 -1.3692 0.0000 0.0000 0.0000
# 2 43.7255 97.4144 3.1403 0.0000 0.0000 0.0000
# 3 -1.3692 3.1403 34.6834 0.0000 0.0000 0.0000
# 4 0.0000 0.0000 0.0000 20.0647 0.0000 0.0000
# 5 0.0000 0.0000 0.0000 0.0000 -16.2092 0.0000
# 6 0.0000 0.0000 0.0000 0.0000 0.0000 40.0598
#
#
#
# Elastic Compliance Matrix: (Units=1/GPa)
#
#
# Indices 1 2 3 4 5 6 
#
# 1 0.008409 -0.003796 0.000676 0.000000 0.000000 0.000000
# 2 -0.003796 0.012009 -0.001237 0.000000 0.000000 0.000000
# 3 0.000676 -0.001237 0.028971 0.000000 0.000000 0.000000
# 4 0.000000 0.000000 0.000000 0.049839 0.000000 0.000000
# 5 0.000000 0.000000 0.000000 0.000000 -0.061693 0.000000
# 6 0.000000 0.000000 0.000000 0.000000 0.000000 0.024963
#
#
# Mechanical properties :
#
#
# Convention : Reuss Voigt Hill
#
# Bulk Modulus (GPa) = 24.58593 40.20693 32.39643
# Shear Modulus (GPa) = 58.98279 23.80791 41.39535
#
# Velocity S-wave (km/s) = 5.12003 3.25290 4.28929
# Velocity P-wave (km/s) = 6.77349 5.65494 6.23933
#
# Compressibility (1/GPa) = 0.04067366
#
# Stress axis : x y z
#
# Youngs Moduli (GPa) = 118.92152 83.26902 34.51731
#
# Poissons Ratio (x) = 0.31611 -0.02332
# Poissons Ratio (y) = 0.45145 0.04271
# Poissons Ratio (z) = -0.08035 0.10302
#
# Static dielectric constant tensor:
#      x y z
#    x 4.125570 0.000000 0.000000 
#    y 0.000000 4.062430 0.000000 
#    z 0.000000 0.000000 3.966860 
# 
# 
# High freq. dielectric constant tensor:
#      x y z
#    x 1.876350 0.000000 0.000000 
#    y 0.000000 1.883060 0.000000 
#    z 0.000000 0.000000 1.889730 
# 
# From -- ./inp_files/19514.got.cif
#   From: 2010.03.12/outbox.cif.g09.slc.cpg/sg57_10_cif.got.tgz:19514.got - 2010.04.16 15:48:40.
