data_PCOD8230896
_publ_section_title
;
Structure prediction by ZEFSAII (Michael W. Deem and Ramdas Pophale) SiO2 
 PCOD8230896
Probable space group: P B C M
;
_chemical_formula_sum "Si O2"
_cell_formula_units_Z 48
_cell_length_a 21.866760
_cell_length_b 5.022708
_cell_length_c 23.621651
_cell_angle_alpha 90.000000
_cell_angle_beta 90.000000
_cell_angle_gamma 90.000000
_cell_volume 2594.374206
_symmetry_space_group_name_H-M "P B C M"
_symmetry_group_IT_number 57
_symmetry_cell_setting 'orthorhombic'
loop_
_space_group_symop_operation_xyz
x,y,z
-x,-y,1/2+z
x,1/2-y,-z
-x,1/2+y,1/2-z
-x,-y,-z
x,y,1/2-z
-x,1/2+y,z
x,1/2-y,1/2+z
loop_
_atom_site_type_symbol
_atom_site_label
_atom_site_fract_x
_atom_site_fract_y
_atom_site_fract_z
Si Si1 0.038873 0.486953 0.250000
Si Si2 0.856831 0.006752 0.462159
Si Si3 0.041688 0.117782 0.871233
Si Si4 0.541666 0.604335 0.371218
Si Si5 0.270943 0.712921 0.434368
Si Si6 0.538531 0.710125 0.250000
Si Si7 0.662625 0.783945 0.566930
O O1 0.073811 0.418798 0.191036
O O2 0.021790 0.798760 0.250000
O O3 0.882744 0.250000 0.500000
O O4 0.799283 0.121782 0.426836
O O5 0.837134 0.750000 0.500000
O O6 0.908413 0.916272 0.419226
O O7 0.014032 0.411364 0.877949
O O8 0.513661 0.312209 0.379212
O O9 0.573168 0.639100 0.308696
O O10 0.593314 0.646092 0.417866
O O11 0.285674 0.750000 0.500000
O O12 0.315527 0.494333 0.405916
O O13 0.289627 0.996789 0.407734
O O14 0.477625 0.522919 0.250000
O O15 0.667370 0.750000 0.500000
#
# Coordination Sequence:
#
# PCOD8230896 Si02
#       7
#     4   8   8   8   8   4   8
#     4   8  16  32  50  68  94 132 170 194 228 292
#     4  11  21  33  51  74 101 131 164 203 244 291
#     4  10  20  33  51  75 102 131 162 201 248 293
#     4  10  19  31  48  71  96 122 152 190 238 284
#     4   9  18  33  48  66  91 127 166 189 221 278
#     4   8  16  30  46  64  90 124 156 182 220 284
#     4  10  19  31  49  69  93 123 156 194 231 274
#
# _framework density 18.501570000000001
#
# number of rings (size 3 to 8) (size 9 to 14) (size 15 to 20)
#    0.000    2.333    0.000    4.500    0.000    2.667 
#    0.000    0.000    0.000    2.000    0.000    0.000 
#    0.000    1.333    0.000    0.000    0.000    0.083 
#
# Total GULP energy -594665.979270 kJ/mol
# GULP energy per Si atom -12388.874568 kJ/mol
# Density = 1.845946 g / cm^3
# Si number density = 18.501570 Si / 1000 Ang^3
#
#
#
# Elastic Constant Matrix: (Units=GPa)
#
#
# Indices 1 2 3 4 5 6 
#
# 1 62.8555 11.5026 26.2870 0.0000 0.0000 0.0000
# 2 11.5026 83.9539 12.7178 0.0000 0.0000 0.0000
# 3 26.2870 12.7178 43.4689 0.0000 0.0000 0.0000
# 4 0.0000 0.0000 0.0000 20.1506 0.0000 0.0000
# 5 0.0000 0.0000 0.0000 0.0000 1.0668 0.0000
# 6 0.0000 0.0000 0.0000 0.0000 0.0000 26.9231
#
#
#
# Elastic Compliance Matrix: (Units=1/GPa)
#
#
# Indices 1 2 3 4 5 6 
#
# 1 0.021378 -0.001016 -0.012631 0.000000 0.000000 0.000000
# 2 -0.001016 0.012512 -0.003046 0.000000 0.000000 0.000000
# 3 -0.012631 -0.003046 0.031534 0.000000 0.000000 0.000000
# 4 0.000000 0.000000 0.000000 0.049626 0.000000 0.000000
# 5 0.000000 0.000000 0.000000 0.000000 0.937406 0.000000
# 6 0.000000 0.000000 0.000000 0.000000 0.000000 0.037143
#
#
# Mechanical properties :
#
#
# Convention : Reuss Voigt Hill
#
# Bulk Modulus (GPa) = 31.21233 32.36589 31.78911
# Shear Modulus (GPa) = 4.41048 18.94616 11.67832
#
# Velocity S-wave (km/s) = 1.54564 3.20352 2.51511
# Velocity P-wave (km/s) = 4.48242 5.58703 5.06493
#
# Compressibility (1/GPa) = 0.03203862
#
# Stress axis : x y z
#
# Youngs Moduli (GPa) = 46.77792 79.92364 31.71145
#
# Poissons Ratio (x) = 0.08117 0.40053
# Poissons Ratio (y) = 0.04751 0.09661
# Poissons Ratio (z) = 0.59083 0.24349
#
# Static dielectric constant tensor:
#      x y z
#    x 2.968080 0.000000 0.000000 
#    y 0.000000 3.973300 0.000000 
#    z 0.000000 0.000000 3.395190 
# 
# 
# High freq. dielectric constant tensor:
#      x y z
#    x 1.674470 0.000000 0.000000 
#    y 0.000000 1.753090 0.000000 
#    z 0.000000 0.000000 1.690630 
# 
# From -- ./inp_files/25715.got.cif
#   From: 2010.03.12/outbox.cif.g09.slc.cpg/sg57_13_cif.got.tgz:25715.got - 2010.04.16 15:48:40.
