data_PCOD8230314
_publ_section_title
;
Structure prediction by ZEFSAII (Michael W. Deem and Ramdas Pophale) SiO2 
 PCOD8230314
Probable space group: P B C M
;
_chemical_formula_sum "Si O2"
_cell_formula_units_Z 32
_cell_length_a 12.826038
_cell_length_b 22.109412
_cell_length_c 5.312589
_cell_angle_alpha 90.000000
_cell_angle_beta 90.000000
_cell_angle_gamma 90.000000
_cell_volume 1506.523580
_symmetry_space_group_name_H-M "P B C M"
_symmetry_group_IT_number 57
_symmetry_cell_setting 'orthorhombic'
loop_
_space_group_symop_operation_xyz
x,y,z
-x,-y,1/2+z
x,1/2-y,-z
-x,1/2+y,1/2-z
-x,-y,-z
x,y,1/2-z
-x,1/2+y,z
x,1/2-y,1/2+z
loop_
_atom_site_type_symbol
_atom_site_label
_atom_site_fract_x
_atom_site_fract_y
_atom_site_fract_z
Si Si1 0.518706 0.578828 0.250000
Si Si2 0.376517 0.031152 0.750000
Si Si3 0.524594 0.219856 0.250000
Si Si4 0.078717 0.534868 0.750000
Si Si5 0.767007 0.279359 0.750000
Si Si6 0.873540 0.400545 0.750000
Si Si7 0.842630 0.581325 0.750000
Si Si8 0.899398 0.609199 0.250000
O O1 0.412858 0.538671 0.250000
O O2 0.583855 0.564694 0.500290
O O3 0.489964 0.648427 0.250000
O O4 0.250926 0.032846 0.750000
O O5 0.473408 0.250000 0.500000
O O6 0.645751 0.236109 0.250000
O O7 0.136366 0.560284 0.503655
O O8 0.089996 0.463652 0.750000
O O9 0.954996 0.548128 0.750000
O O10 0.818855 0.250000 0.500000
O O11 0.782608 0.351287 0.750000
O O12 0.984213 0.363741 0.750000
O O13 0.836143 0.625529 0.504333
#
# Coordination Sequence:
#
# PCOD8230314 Si02
#       8
#     4   4   4   4   4   4   4   4
#     4  10  21  37  55  79 110 136 173 221 264 334
#     4  10  21  36  54  80 107 142 177 210 274 323
#     4  10  21  37  57  81 106 137 175 218 267 314
#     4  10  19  30  47  76 106 134 172 204 239 299
#     4  10  21  36  52  76 105 135 177 214 246 301
#     4  10  18  31  48  69 101 136 165 205 251 285
#     4  10  18  31  48  71 105 140 168 206 246 299
#     4  10  19  30  47  76 108 134 171 204 239 299
#
# _framework density 21.240953999999999
#
# number of rings (size 3 to 8) (size 9 to 14) (size 15 to 20)
#    0.000    2.000    0.000    6.000    0.000    3.000 
#    0.000    0.000    0.000    0.000    0.000   70.000 
#    0.000    0.000    0.000    0.000    0.000    0.000 
#
# Total GULP energy -396581.265199 kJ/mol
# GULP energy per Si atom -12393.164537 kJ/mol
# Density = 2.119261 g / cm^3
# Si number density = 21.240954 Si / 1000 Ang^3
#
#
#
# Elastic Constant Matrix: (Units=GPa)
#
#
# Indices 1 2 3 4 5 6 
#
# 1 29.1400 -8.2253 18.0722 0.0000 0.0000 0.0000
# 2 -8.2253 75.3820 39.2860 0.0000 0.0000 0.0000
# 3 18.0722 39.2860 229.3292 0.0000 0.0000 0.0000
# 4 0.0000 0.0000 0.0000 24.3267 0.0000 0.0000
# 5 0.0000 0.0000 0.0000 0.0000 -235.1990 0.0000
# 6 0.0000 0.0000 0.0000 0.0000 0.0000 22.0089
#
#
#
# Elastic Compliance Matrix: (Units=1/GPa)
#
#
# Indices 1 2 3 4 5 6 
#
# 1 0.038686 0.006380 -0.004142 0.000000 0.000000 0.000000
# 2 0.006380 0.015618 -0.003178 0.000000 0.000000 0.000000
# 3 -0.004142 -0.003178 0.005231 0.000000 0.000000 0.000000
# 4 0.000000 0.000000 0.000000 0.041107 0.000000 0.000000
# 5 0.000000 0.000000 0.000000 0.000000 -0.004252 0.000000
# 6 0.000000 0.000000 0.000000 0.000000 0.000000 0.045436
#
#
# Mechanical properties :
#
#
# Convention : Reuss Voigt Hill
#
# Bulk Modulus (GPa) = 17.34435 48.01302 32.67869
# Shear Modulus (GPa) = 30.68867 -18.79147 5.94860
#
# Velocity S-wave (km/s) = 3.80516 -2.97759 1.67529
# Velocity P-wave (km/s) = 5.24299 3.29115 4.37725
#
# Compressibility (1/GPa) = 0.05765565
#
# Stress axis : x y z
#
# Youngs Moduli (GPa) = 25.84890 64.02756 191.15397
#
# Poissons Ratio (x) = -0.40847 0.79167
# Poissons Ratio (y) = -0.16491 0.60754
# Poissons Ratio (z) = 0.10705 0.20350
#
# Static dielectric constant tensor:
#      x y z
#    x 3.551050 0.000000 0.000000 
#    y 0.000000 3.276430 0.000000 
#    z 0.000000 0.000000 5.985130 
# 
# 
# High freq. dielectric constant tensor:
#      x y z
#    x 1.803170 0.000000 0.000000 
#    y 0.000000 1.781460 0.000000 
#    z 0.000000 0.000000 1.881850 
# 
# From -- ./inp_files/354.got.cif
#   From: 2010.03.12/outbox.cif.g09.slc.cpg/sg57_1_cif.got.tgz:354.got - 2010.04.16 15:48:40.
