data_PCOD8230745
_publ_section_title
;
Structure prediction by ZEFSAII (Michael W. Deem and Ramdas Pophale) SiO2 
 PCOD8230745
Probable space group: P B C M
;
_chemical_formula_sum "Si O2"
_cell_formula_units_Z 64
_cell_length_a 16.920446
_cell_length_b 23.890027
_cell_length_c 9.208486
_cell_angle_alpha 90.000000
_cell_angle_beta 90.000000
_cell_angle_gamma 90.000000
_cell_volume 3722.345484
_symmetry_space_group_name_H-M "P B C M"
_symmetry_group_IT_number 57
_symmetry_cell_setting 'orthorhombic'
loop_
_space_group_symop_operation_xyz
x,y,z
-x,-y,1/2+z
x,1/2-y,-z
-x,1/2+y,1/2-z
-x,-y,-z
x,y,1/2-z
-x,1/2+y,z
x,1/2-y,1/2+z
loop_
_atom_site_type_symbol
_atom_site_label
_atom_site_fract_x
_atom_site_fract_y
_atom_site_fract_z
Si Si1 0.754318 0.809281 0.578604
Si Si2 0.741313 0.126035 0.421841
Si Si3 0.873117 0.195048 0.583623
Si Si4 0.588152 0.191444 0.081426
Si Si5 0.582445 0.806601 0.916473
Si Si6 0.977482 0.409368 0.412924
Si Si7 0.180415 0.530804 0.919130
Si Si8 0.862163 0.909017 0.580833
O O1 0.768389 0.750000 0.500000
O O2 0.765916 0.799740 0.750000
O O3 0.666461 0.835796 0.544750
O O4 0.815987 0.855125 0.517367
O O5 0.757203 0.125815 0.250000
O O6 0.798956 0.169426 0.499845
O O7 0.652670 0.145126 0.462169
O O8 0.754672 0.063748 0.485776
O O9 0.901019 0.250000 0.500000
O O10 0.848627 0.208052 0.750000
O O11 0.947904 0.154257 0.579115
O O12 0.596421 0.206395 0.250000
O O13 0.501352 0.162846 0.047580
O O14 0.601859 0.250000 0.000000
O O15 0.584309 0.790041 0.750000
O O16 0.579458 0.750000 0.000000
O O17 0.002658 0.425405 0.250000
O O18 0.907607 0.450267 0.467285
O O19 0.052407 0.416556 0.513444
O O20 0.192810 0.546650 0.750000
O O21 0.189773 0.464758 0.948562
O O22 0.875767 0.900940 0.750000
#
# Coordination Sequence:
#
# PCOD8230745 Si02
#       8
#     8   8   8   8   8   8   8   8
#     4   9  18  32  50  72  96 122 150 183 228 277
#     4  10  19  30  46  69  94 122 157 193 231 273
#     4  10  20  33  47  66  95 129 160 189 228 277
#     4   9  17  27  43  69  96 122 153 187 223 267
#     4   8  14  27  45  65  92 122 150 182 221 266
#     4   9  19  33  48  67  90 118 153 194 236 273
#     4   9  19  35  50  66  91 121 155 194 233 275
#     4  10  20  33  51  72  91 116 154 195 233 277
#
# _framework density 17.193459000000001
#
# number of rings (size 3 to 8) (size 9 to 14) (size 15 to 20)
#    0.000    2.750    0.000    2.250    0.000    6.000 
#    0.000    2.500    0.000    0.750    0.000    0.000 
#    0.000    0.000    0.000    0.000    0.000    0.125 
#
# Total GULP energy -793019.414998 kJ/mol
# GULP energy per Si atom -12390.928359 kJ/mol
# Density = 1.715433 g / cm^3
# Si number density = 17.193459 Si / 1000 Ang^3
#
#
#
# Elastic Constant Matrix: (Units=GPa)
#
#
# Indices 1 2 3 4 5 6 
#
# 1 87.9590 41.6533 30.7270 0.0000 0.0000 0.0000
# 2 41.6533 91.3018 34.1347 0.0000 0.0000 0.0000
# 3 30.7270 34.1347 54.9242 0.0000 0.0000 0.0000
# 4 0.0000 0.0000 0.0000 24.8677 0.0000 0.0000
# 5 0.0000 0.0000 0.0000 0.0000 21.5481 0.0000
# 6 0.0000 0.0000 0.0000 0.0000 0.0000 16.9154
#
#
#
# Elastic Compliance Matrix: (Units=1/GPa)
#
#
# Indices 1 2 3 4 5 6 
#
# 1 0.015746 -0.005068 -0.005659 0.000000 0.000000 0.000000
# 2 -0.005068 0.015899 -0.007046 0.000000 0.000000 0.000000
# 3 -0.005659 -0.007046 0.025752 0.000000 0.000000 0.000000
# 4 0.000000 0.000000 0.000000 0.040213 0.000000 0.000000
# 5 0.000000 0.000000 0.000000 0.000000 0.046408 0.000000
# 6 0.000000 0.000000 0.000000 0.000000 0.000000 0.059118
#
#
# Mechanical properties :
#
#
# Convention : Reuss Voigt Hill
#
# Bulk Modulus (GPa) = 45.76500 49.69053 47.72776
# Shear Modulus (GPa) = 20.32816 21.17757 20.75286
#
# Velocity S-wave (km/s) = 3.44222 3.51340 3.47799
# Velocity P-wave (km/s) = 6.51720 6.73960 6.62933
#
# Compressibility (1/GPa) = 0.02185076
#
# Stress axis : x y z
#
# Youngs Moduli (GPa) = 63.50927 62.89783 38.83198
#
# Poissons Ratio (x) = 0.31874 0.21977
# Poissons Ratio (y) = 0.32184 0.27361
# Poissons Ratio (z) = 0.35943 0.44317
#
# Static dielectric constant tensor:
#      x y z
#    x 3.722460 0.000000 0.000000 
#    y 0.000000 3.150500 0.000000 
#    z 0.000000 0.000000 3.238640 
# 
# 
# High freq. dielectric constant tensor:
#      x y z
#    x 1.662880 0.000000 0.000000 
#    y 0.000000 1.641500 0.000000 
#    z 0.000000 0.000000 1.666510 
# 
# From -- ./inp_files/7440.got.cif
#   From: 2010.03.12/outbox.cif.g09.slc.cpg/sg57_4_cif.got.tgz:7440.got - 2010.04.16 15:48:40.
