data_PCOD8230000
_publ_section_title
;
Structure prediction by ZEFSAII (Michael W. Deem and Ramdas Pophale) SiO2 
 PCOD8230000
Probable space group: P B C M
;
_chemical_formula_sum "Si O2"
_cell_formula_units_Z 64
_cell_length_a 14.983292
_cell_length_b 29.597459
_cell_length_c 9.045841
_cell_angle_alpha 90.000000
_cell_angle_beta 90.000000
_cell_angle_gamma 90.000000
_cell_volume 4011.535324
_symmetry_space_group_name_H-M "P B C M"
_symmetry_group_IT_number 57
_symmetry_cell_setting 'orthorhombic'
loop_
_space_group_symop_operation_xyz
x,y,z
-x,-y,1/2+z
x,1/2-y,-z
-x,1/2+y,1/2-z
-x,-y,-z
x,y,1/2-z
-x,1/2+y,z
x,1/2-y,1/2+z
loop_
_atom_site_type_symbol
_atom_site_label
_atom_site_fract_x
_atom_site_fract_y
_atom_site_fract_z
Si Si1 0.179489 0.460816 0.423309
Si Si2 0.208456 0.794446 0.921747
Si Si3 0.999895 0.203768 0.423601
Si Si4 0.036196 0.112207 0.924720
Si Si5 0.289178 0.614770 0.074797
Si Si6 0.378056 0.465164 0.077967
Si Si7 0.878858 0.057210 0.075175
Si Si8 0.456035 0.936984 0.922040
O O1 0.191579 0.468128 0.250000
O O2 0.125927 0.415567 0.462403
O O3 0.279340 0.457419 0.491247
O O4 0.124780 0.505001 0.478874
O O5 0.226338 0.788637 0.750000
O O6 0.104630 0.802514 0.954417
O O7 0.262487 0.836500 0.990424
O O8 0.245185 0.750000 0.000000
O O9 0.034327 0.250000 0.500000
O O10 0.022065 0.205610 0.250000
O O11 0.047887 0.160744 0.497435
O O12 0.023576 0.118993 0.750000
O O13 0.953972 0.083837 0.986849
O O14 0.290011 0.617465 0.250000
O O15 0.216319 0.577757 0.028783
O O16 0.387375 0.600985 0.017348
O O17 0.378590 0.454144 0.250000
O O18 0.408180 0.515817 0.042942
O O19 0.449240 0.431394 0.002986
O O20 0.898179 0.062606 0.250000
O O21 0.474587 0.931281 0.750000
#
# Coordination Sequence:
#
# PCOD8230000 Si02
#       8
#     8   8   8   8   8   8   8   8
#     4   9  18  31  48  65  90 130 167 195 229 277
#     4   9  17  29  45  65  87 116 150 184 222 270
#     4  10  19  33  51  69  91 121 156 193 236 280
#     4  11  21  31  44  69  97 124 160 198 235 275
#     4   9  15  27  47  66  87 121 158 183 219 279
#     4   9  16  29  46  64  88 118 151 188 230 272
#     4  10  17  31  48  63  89 130 169 192 222 273
#     4   9  16  27  46  67  87 114 150 189 226 269
#
# _framework density 15.953991
#
# number of rings (size 3 to 8) (size 9 to 14) (size 15 to 20)
#    0.000    2.500    2.500    1.125    0.000    0.500 
#    0.000    3.750    0.000    0.000    0.000    0.875 
#    0.000    4.000    0.000    0.000    0.000    0.000 
#
# Total GULP energy -793360.969875 kJ/mol
# GULP energy per Si atom -12396.265154 kJ/mol
# Density = 1.591768 g / cm^3
# Si number density = 15.953991 Si / 1000 Ang^3
#
#
#
# Elastic Constant Matrix: (Units=GPa)
#
#
# Indices 1 2 3 4 5 6 
#
# 1 82.3660 51.5468 29.0900 0.0000 0.0000 0.0000
# 2 51.5468 123.8637 44.9162 0.0000 0.0000 0.0000
# 3 29.0900 44.9162 42.4807 0.0000 0.0000 0.0000
# 4 0.0000 0.0000 0.0000 24.1311 0.0000 0.0000
# 5 0.0000 0.0000 0.0000 0.0000 19.7438 0.0000
# 6 0.0000 0.0000 0.0000 0.0000 0.0000 22.7690
#
#
#
# Elastic Compliance Matrix: (Units=1/GPa)
#
#
# Indices 1 2 3 4 5 6 
#
# 1 0.017610 -0.004793 -0.006991 0.000000 0.000000 0.000000
# 2 -0.004793 0.014399 -0.011942 0.000000 0.000000 0.000000
# 3 -0.006991 -0.011942 0.040953 0.000000 0.000000 0.000000
# 4 0.000000 0.000000 0.000000 0.041440 0.000000 0.000000
# 5 0.000000 0.000000 0.000000 0.000000 0.050649 0.000000
# 6 0.000000 0.000000 0.000000 0.000000 0.000000 0.043919
#
#
# Mechanical properties :
#
#
# Convention : Reuss Voigt Hill
#
# Bulk Modulus (GPa) = 39.19961 55.53513 47.36737
# Shear Modulus (GPa) = 18.87327 21.53926 20.20627
#
# Velocity S-wave (km/s) = 3.44318 3.67834 3.56270
# Velocity P-wave (km/s) = 6.35854 7.27498 6.83215
#
# Compressibility (1/GPa) = 0.02551046
#
# Stress axis : x y z
#
# Youngs Moduli (GPa) = 56.78688 69.45136 24.41804
#
# Poissons Ratio (x) = 0.33291 0.17069
# Poissons Ratio (y) = 0.27221 0.29159
# Poissons Ratio (z) = 0.39697 0.82936
#
# Static dielectric constant tensor:
#      x y z
#    x 3.099940 0.000000 0.000000 
#    y 0.000000 3.162100 0.000000 
#    z 0.000000 0.000000 2.859360 
# 
# 
# High freq. dielectric constant tensor:
#      x y z
#    x 1.596390 0.000000 0.000000 
#    y 0.000000 1.605190 0.000000 
#    z 0.000000 0.000000 1.594290 
# 
# From -- ./inp_files/5972.got.cif
#   From: 2010.03.12/outbox.cif.g09.slc.cpg/sg57_3_cif.got.tgz:5972.got - 2010.04.16 15:48:40.
