data_PCOD8230094
_publ_section_title
;
Structure prediction by ZEFSAII (Michael W. Deem and Ramdas Pophale) SiO2 
 PCOD8230094
Probable space group: P B C M
;
_chemical_formula_sum "Si O2"
_cell_formula_units_Z 56
_cell_length_a 18.931340
_cell_length_b 18.170574
_cell_length_c 9.383192
_cell_angle_alpha 90.000000
_cell_angle_beta 90.000000
_cell_angle_gamma 90.000000
_cell_volume 3227.755316
_symmetry_space_group_name_H-M "P B C M"
_symmetry_group_IT_number 57
_symmetry_cell_setting 'orthorhombic'
loop_
_space_group_symop_operation_xyz
x,y,z
-x,-y,1/2+z
x,1/2-y,-z
-x,1/2+y,1/2-z
-x,-y,-z
x,y,1/2-z
-x,1/2+y,z
x,1/2-y,1/2+z
loop_
_atom_site_type_symbol
_atom_site_label
_atom_site_fract_x
_atom_site_fract_y
_atom_site_fract_z
Si Si1 0.068536 0.525629 0.582110
Si Si2 0.411431 0.930268 0.915000
Si Si3 0.788505 0.541126 0.081375
Si Si4 0.570221 0.923141 0.587199
Si Si5 0.139442 0.678313 0.915840
Si Si6 0.698868 0.676258 0.415699
Si Si7 0.715543 0.394197 0.416835
O O1 0.054869 0.519582 0.750000
O O2 0.130873 0.470369 0.531450
O O3 0.090659 0.608910 0.540990
O O4 0.000000 0.500000 0.500000
O O5 0.390875 0.936349 0.750000
O O6 0.489722 0.896527 0.935694
O O7 0.355595 0.876265 0.994095
O O8 0.409480 0.011230 0.982559
O O9 0.786212 0.536576 0.250000
O O10 0.757089 0.618075 0.026749
O O11 0.739501 0.474568 0.027724
O O12 0.582099 0.950678 0.750000
O O13 0.620346 0.854016 0.554063
O O14 0.130768 0.694698 0.750000
O O15 0.221607 0.662602 0.952517
O O16 0.113200 0.750000 0.000000
O O17 0.712012 0.750000 0.500000
O O18 0.710317 0.692456 0.250000
O O19 0.697619 0.392544 0.250000
#
# Coordination Sequence:
#
# PCOD8230094 Si02
#       7
#     8   8   8   8   8   8   8
#     4   9  18  34  56  81 104 133 169 204 245 298
#     4  10  18  27  46  75  97 119 163 218 253 291
#     4   8  15  31  53  70  92 129 167 195 238 300
#     4   9  18  32  47  64  94 133 166 201 257 310
#     4   9  19  34  54  78 105 137 172 205 249 306
#     4  10  19  33  51  68  93 132 170 209 252 295
#     4   9  16  31  52  71  95 132 167 199 247 305
#
# _framework density 17.349519000000001
#
# number of rings (size 3 to 8) (size 9 to 14) (size 15 to 20)
#    0.000    2.857    1.429    2.143    0.000    2.286 
#    0.000    4.286    0.000    6.857    0.000    0.000 
#    0.000    0.000    0.000    0.000    0.000    0.000 
#
# Total GULP energy -694148.946473 kJ/mol
# GULP energy per Si atom -12395.516901 kJ/mol
# Density = 1.731003 g / cm^3
# Si number density = 17.349519 Si / 1000 Ang^3
#
#
#
# Elastic Constant Matrix: (Units=GPa)
#
#
# Indices 1 2 3 4 5 6 
#
# 1 131.6050 53.9209 49.9810 0.0000 0.0000 0.0000
# 2 53.9209 106.9288 42.2287 0.0000 0.0000 0.0000
# 3 49.9810 42.2287 62.9742 0.0000 0.0000 0.0000
# 4 0.0000 0.0000 0.0000 28.7127 0.0000 0.0000
# 5 0.0000 0.0000 0.0000 0.0000 32.0561 0.0000
# 6 0.0000 0.0000 0.0000 0.0000 0.0000 19.4466
#
#
#
# Elastic Compliance Matrix: (Units=1/GPa)
#
#
# Indices 1 2 3 4 5 6 
#
# 1 0.011542 -0.002996 -0.007152 0.000000 0.000000 0.000000
# 2 -0.002996 0.013498 -0.006674 0.000000 0.000000 0.000000
# 3 -0.007152 -0.006674 0.026031 0.000000 0.000000 0.000000
# 4 0.000000 0.000000 0.000000 0.034828 0.000000 0.000000
# 5 0.000000 0.000000 0.000000 0.000000 0.031195 0.000000
# 6 0.000000 0.000000 0.000000 0.000000 0.000000 0.051423
#
#
# Mechanical properties :
#
#
# Convention : Reuss Voigt Hill
#
# Bulk Modulus (GPa) = 57.37731 65.97434 61.67583
# Shear Modulus (GPa) = 24.04197 26.40157 25.22177
#
# Velocity S-wave (km/s) = 3.72659 3.90519 3.81694
# Velocity P-wave (km/s) = 7.18748 7.64481 7.41967
#
# Compressibility (1/GPa) = 0.01742849
#
# Stress axis : x y z
#
# Youngs Moduli (GPa) = 86.63981 74.08261 38.41596
#
# Poissons Ratio (x) = 0.22195 0.27474
# Poissons Ratio (y) = 0.25957 0.25638
# Poissons Ratio (z) = 0.61961 0.49442
#
# Static dielectric constant tensor:
#      x y z
#    x 3.437070 0.000000 0.000000 
#    y 0.000000 3.058490 0.000000 
#    z 0.000000 0.000000 3.049900 
# 
# 
# High freq. dielectric constant tensor:
#      x y z
#    x 1.675250 0.000000 0.000000 
#    y 0.000000 1.645330 0.000000 
#    z 0.000000 0.000000 1.655200 
# 
# From -- ./inp_files/8344.got.cif
#   From: 2010.03.12/outbox.cif.g09.slc.cpg/sg57_5_cif.got.tgz:8344.got - 2010.04.16 15:48:40.
