data_PCOD8230381
_publ_section_title
;
Structure prediction by ZEFSAII (Michael W. Deem and Ramdas Pophale) SiO2 
 PCOD8230381
Probable space group: P B C M
;
_chemical_formula_sum "Si O2"
_cell_formula_units_Z 56
_cell_length_a 15.306166
_cell_length_b 23.021239
_cell_length_c 8.560119
_cell_angle_alpha 90.000000
_cell_angle_beta 90.000000
_cell_angle_gamma 90.000000
_cell_volume 3016.302644
_symmetry_space_group_name_H-M "P B C M"
_symmetry_group_IT_number 57
_symmetry_cell_setting 'orthorhombic'
loop_
_space_group_symop_operation_xyz
x,y,z
-x,-y,1/2+z
x,1/2-y,-z
-x,1/2+y,1/2-z
-x,-y,-z
x,y,1/2-z
-x,1/2+y,z
x,1/2-y,1/2+z
loop_
_atom_site_type_symbol
_atom_site_label
_atom_site_fract_x
_atom_site_fract_y
_atom_site_fract_z
Si Si1 0.006438 0.312713 0.931112
Si Si2 0.849703 0.892678 0.433309
Si Si3 0.666493 0.313636 0.067763
Si Si4 0.096213 0.990999 0.433734
Si Si5 0.828551 0.374309 0.570232
Si Si6 0.311830 0.185839 0.565891
Si Si7 0.510382 0.685403 0.065574
O O1 0.033854 0.314922 0.750000
O O2 0.904981 0.327349 0.954307
O O3 0.027139 0.250000 0.000000
O O4 0.061088 0.359687 0.026878
O O5 0.847140 0.906073 0.250000
O O6 0.845657 0.952603 0.528469
O O7 0.767682 0.854466 0.488514
O O8 0.651470 0.306902 0.250000
O O9 0.685947 0.250000 0.000000
O O10 0.747058 0.355697 0.034379
O O11 0.579566 0.343798 0.993833
O O12 0.091474 0.979802 0.250000
O O13 0.140759 0.937288 0.518369
O O14 0.000000 0.000000 0.500000
O O15 0.799490 0.376395 0.750000
O O16 0.295918 0.250000 0.500000
O O17 0.317874 0.190691 0.750000
O O18 0.401193 0.156281 0.501203
O O19 0.513934 0.684565 0.250000
O O20 0.508324 0.750000 0.000000
#
# Coordination Sequence:
#
# PCOD8230381 Si02
#       7
#     8   8   8   8   8   8   8
#     4  11  23  36  54  79 112 148 182 226 278 333
#     4  11  23  38  58  81 111 147 189 234 278 331
#     4  11  21  35  56  84 117 151 187 230 279 336
#     4  12  24  40  61  82 108 145 192 237 280 329
#     4  11  23  39  58  82 111 146 189 234 279 331
#     4  10  20  34  54  83 115 149 185 228 278 333
#     4  10  18  31  53  80 112 149 185 227 275 333
#
# _framework density 18.565774999999999
#
# number of rings (size 3 to 8) (size 9 to 14) (size 15 to 20)
#    0.000    1.143    1.429    8.143    0.000    6.286 
#    0.000    0.000    0.000    0.857    0.000    0.000 
#    0.000    0.000    0.000    0.000    0.000    0.000 
#
# Total GULP energy -694578.673499 kJ/mol
# GULP energy per Si atom -12403.190598 kJ/mol
# Density = 1.852352 g / cm^3
# Si number density = 18.565775 Si / 1000 Ang^3
#
#
#
# Elastic Constant Matrix: (Units=GPa)
#
#
# Indices 1 2 3 4 5 6 
#
# 1 113.3910 21.8060 29.7629 0.0000 0.0000 0.0000
# 2 21.8060 71.1480 9.9700 0.0000 0.0000 0.0000
# 3 29.7629 9.9700 78.3040 0.0000 0.0000 0.0000
# 4 0.0000 0.0000 0.0000 28.8877 0.0000 0.0000
# 5 0.0000 0.0000 0.0000 0.0000 33.3116 0.0000
# 6 0.0000 0.0000 0.0000 0.0000 0.0000 8.9741
#
#
#
# Elastic Compliance Matrix: (Units=1/GPa)
#
#
# Indices 1 2 3 4 5 6 
#
# 1 0.010263 -0.002646 -0.003564 0.000000 0.000000 0.000000
# 2 -0.002646 0.014993 -0.000903 0.000000 0.000000 0.000000
# 3 -0.003564 -0.000903 0.014240 0.000000 0.000000 0.000000
# 4 0.000000 0.000000 0.000000 0.034617 0.000000 0.000000
# 5 0.000000 0.000000 0.000000 0.000000 0.030020 0.000000
# 6 0.000000 0.000000 0.000000 0.000000 0.000000 0.111432
#
#
# Mechanical properties :
#
#
# Convention : Reuss Voigt Hill
#
# Bulk Modulus (GPa) = 39.57307 42.88010 41.22658
# Shear Modulus (GPa) = 20.98941 27.65497 24.32219
#
# Velocity S-wave (km/s) = 3.36600 3.86368 3.62339
# Velocity P-wave (km/s) = 6.03887 6.56129 6.30549
#
# Compressibility (1/GPa) = 0.02526971
#
# Stress axis : x y z
#
# Youngs Moduli (GPa) = 97.43328 66.69878 70.22257
#
# Poissons Ratio (x) = 0.17650 0.25028
# Poissons Ratio (y) = 0.25782 0.06342
# Poissons Ratio (z) = 0.34727 0.06024
#
# Static dielectric constant tensor:
#      x y z
#    x 3.912830 0.000000 0.000000 
#    y 0.000000 3.494240 0.000000 
#    z 0.000000 0.000000 3.284220 
# 
# 
# High freq. dielectric constant tensor:
#      x y z
#    x 1.731260 0.000000 0.000000 
#    y 0.000000 1.693160 0.000000 
#    z 0.000000 0.000000 1.741860 
# 
# From -- ./inp_files/5105.got.cif
#   From: 2010.03.12/outbox.cif.g09.slc.cpg/sg57_3_cif.got.tgz:5105.got - 2010.04.16 15:48:40.
