data_PCOD8230057
_publ_section_title
;
Structure prediction by ZEFSAII (Michael W. Deem and Ramdas Pophale) SiO2 
 PCOD8230057
Probable space group: P B C M
;
_chemical_formula_sum "Si O2"
_cell_formula_units_Z 56
_cell_length_a 17.712345
_cell_length_b 20.287681
_cell_length_c 9.415193
_cell_angle_alpha 90.000000
_cell_angle_beta 90.000000
_cell_angle_gamma 90.000000
_cell_volume 3383.278097
_symmetry_space_group_name_H-M "P B C M"
_symmetry_group_IT_number 57
_symmetry_cell_setting 'orthorhombic'
loop_
_space_group_symop_operation_xyz
x,y,z
-x,-y,1/2+z
x,1/2-y,-z
-x,1/2+y,1/2-z
-x,-y,-z
x,y,1/2-z
-x,1/2+y,z
x,1/2-y,1/2+z
loop_
_atom_site_type_symbol
_atom_site_label
_atom_site_fract_x
_atom_site_fract_y
_atom_site_fract_z
Si Si1 0.291151 0.394296 0.415136
Si Si2 0.832267 0.056385 0.406750
Si Si3 0.531418 0.439284 0.412821
Si Si4 0.698290 0.473212 0.413445
Si Si5 0.563826 0.684839 0.915102
Si Si6 0.995232 0.432189 0.916290
Si Si7 0.127298 0.097308 0.592366
O O1 0.295917 0.415942 0.250000
O O2 0.312201 0.457502 0.508220
O O3 0.350265 0.336682 0.449348
O O4 0.206493 0.367281 0.450053
O O5 0.802407 0.075405 0.250000
O O6 0.766144 0.070626 0.519605
O O7 0.910195 0.096705 0.439225
O O8 0.854035 0.979870 0.411443
O O9 0.500000 0.500000 0.500000
O O10 0.508465 0.452002 0.250000
O O11 0.621428 0.431991 0.430146
O O12 0.493237 0.372082 0.467136
O O13 0.718063 0.487137 0.250000
O O14 0.552814 0.700083 0.750000
O O15 0.543324 0.750000 0.000000
O O16 0.011701 0.443732 0.750000
O O17 0.000000 0.500000 0.000000
O O18 0.059878 0.384310 0.982471
O O19 0.100991 0.118642 0.750000
#
# Coordination Sequence:
#
# PCOD8230057 Si02
#       7
#     8   8   8   8   8   8   8
#     4   9  17  30  45  61  87 121 150 182 229 276
#     4   8  15  25  35  51  81 118 147 175 221 271
#     4  10  20  33  50  71  94 121 155 196 239 284
#     4  10  18  26  42  68  89 111 151 194 227 269
#     4  10  21  36  51  68  94 125 156 194 237 282
#     4   9  15  22  32  49  76 111 146 177 214 259
#     4   8  14  23  36  54  76 108 147 178 212 260
#
# _framework density 16.551994000000001
#
# number of rings (size 3 to 8) (size 9 to 14) (size 15 to 20)
#    0.000    2.857    1.429    2.571    0.000    7.429 
#    0.000    0.000    0.000    0.000    0.000    0.000 
#    0.000    1.143    0.000    2.571    0.000    6.429 
#
# Total GULP energy -693943.264493 kJ/mol
# GULP energy per Si atom -12391.844009 kJ/mol
# Density = 1.651432 g / cm^3
# Si number density = 16.551994 Si / 1000 Ang^3
#
#
#
# Elastic Constant Matrix: (Units=GPa)
#
#
# Indices 1 2 3 4 5 6 
#
# 1 125.2809 42.7961 64.4660 0.0000 0.0000 0.0000
# 2 42.7961 59.1729 37.9188 0.0000 0.0000 0.0000
# 3 64.4660 37.9188 95.0844 0.0000 0.0000 0.0000
# 4 0.0000 0.0000 0.0000 16.7982 0.0000 0.0000
# 5 0.0000 0.0000 0.0000 0.0000 30.8245 0.0000
# 6 0.0000 0.0000 0.0000 0.0000 0.0000 12.1778
#
#
#
# Elastic Compliance Matrix: (Units=1/GPa)
#
#
# Indices 1 2 3 4 5 6 
#
# 1 0.013343 -0.005176 -0.006982 0.000000 0.000000 0.000000
# 2 -0.005176 0.024709 -0.006344 0.000000 0.000000 0.000000
# 3 -0.006982 -0.006344 0.017781 0.000000 0.000000 0.000000
# 4 0.000000 0.000000 0.000000 0.059530 0.000000 0.000000
# 5 0.000000 0.000000 0.000000 0.000000 0.032442 0.000000
# 6 0.000000 0.000000 0.000000 0.000000 0.000000 0.082117
#
#
# Mechanical properties :
#
#
# Convention : Reuss Voigt Hill
#
# Bulk Modulus (GPa) = 53.11387 63.32220 58.21803
# Shear Modulus (GPa) = 18.30147 20.91725 19.60936
#
# Velocity S-wave (km/s) = 3.32881 3.55875 3.44570
# Velocity P-wave (km/s) = 6.85079 7.43141 7.14700
#
# Compressibility (1/GPa) = 0.01882747
#
# Stress axis : x y z
#
# Youngs Moduli (GPa) = 74.94547 40.47180 56.23985
#
# Poissons Ratio (x) = 0.20947 0.39269
# Poissons Ratio (y) = 0.38790 0.35681
# Poissons Ratio (z) = 0.52329 0.25677
#
# Static dielectric constant tensor:
#      x y z
#    x 4.010100 0.000000 0.000000 
#    y 0.000000 2.515280 0.000000 
#    z 0.000000 0.000000 3.261090 
# 
# 
# High freq. dielectric constant tensor:
#      x y z
#    x 1.661080 0.000000 0.000000 
#    y 0.000000 1.554320 0.000000 
#    z 0.000000 0.000000 1.644380 
# 
# From -- ./inp_files/7043.got.cif
#   From: 2010.03.12/outbox.cif.g09.slc.cpg/sg57_4_cif.got.tgz:7043.got - 2010.04.16 15:48:40.
