data_PCOD8230062
_publ_section_title
;
Structure prediction by ZEFSAII (Michael W. Deem and Ramdas Pophale) SiO2 
 PCOD8230062
Probable space group: P B C M
;
_chemical_formula_sum "Si O2"
_cell_formula_units_Z 64
_cell_length_a 18.410983
_cell_length_b 24.782256
_cell_length_c 9.153773
_cell_angle_alpha 90.000000
_cell_angle_beta 90.000000
_cell_angle_gamma 90.000000
_cell_volume 4176.552590
_symmetry_space_group_name_H-M "P B C M"
_symmetry_group_IT_number 57
_symmetry_cell_setting 'orthorhombic'
loop_
_space_group_symop_operation_xyz
x,y,z
-x,-y,1/2+z
x,1/2-y,-z
-x,1/2+y,1/2-z
-x,-y,-z
x,y,1/2-z
-x,1/2+y,z
x,1/2-y,1/2+z
loop_
_atom_site_type_symbol
_atom_site_label
_atom_site_fract_x
_atom_site_fract_y
_atom_site_fract_z
Si Si1 0.824155 0.108709 0.082397
Si Si2 0.040251 0.923272 0.415371
Si Si3 0.732067 0.196447 0.920472
Si Si4 0.772972 0.513299 0.583955
Si Si5 0.610129 0.993862 0.420974
Si Si6 0.906486 0.954390 0.585497
Si Si7 0.479184 0.581080 0.921192
Si Si8 0.562017 0.197426 0.918067
O O1 0.830197 0.127965 0.250000
O O2 0.792404 0.049147 0.072334
O O3 0.903464 0.112228 0.008794
O O4 0.769913 0.145520 0.992225
O O5 0.035617 0.901013 0.250000
O O6 0.961453 0.918001 0.490690
O O7 0.065670 0.984736 0.414722
O O8 0.751331 0.199609 0.750000
O O9 0.646893 0.189568 0.948096
O O10 0.761213 0.250000 0.000000
O O11 0.781571 0.533511 0.750000
O O12 0.690850 0.521957 0.526993
O O13 0.826333 0.548982 0.484346
O O14 0.609631 0.006973 0.250000
O O15 0.557476 0.943972 0.460648
O O16 0.584596 0.048005 0.500871
O O17 0.903197 0.931646 0.750000
O O18 0.462345 0.578143 0.750000
O O19 0.478166 0.643215 0.974659
O O20 0.545139 0.207451 0.750000
O O21 0.531126 0.250000 0.000000
#
# Coordination Sequence:
#
# PCOD8230062 Si02
#       8
#     8   8   8   8   8   8   8   8
#     4  10  18  27  40  58  80 106 137 169 199 237
#     4   9  16  26  39  55  77 105 134 162 194 232
#     4  10  19  30  42  57  78 104 135 170 208 244
#     4   9  17  27  39  57  81 109 138 166 200 244
#     4   9  17  28  42  60  83 112 142 171 207 253
#     4   9  16  25  38  56  78 104 133 165 197 229
#     4   9  17  29  43  60  83 109 139 175 212 250
#     4   9  18  30  44  61  81 107 139 176 214 251
#
# _framework density 15.323643000000001
#
# number of rings (size 3 to 8) (size 9 to 14) (size 15 to 20)
#    0.000    2.750    0.000    2.250    0.000    5.000 
#    0.000    0.000    0.000    0.000    0.000    0.000 
#    0.000    1.000    0.000    7.000    0.000    3.625 
#
# Total GULP energy -793551.608507 kJ/mol
# GULP energy per Si atom -12399.243883 kJ/mol
# Density = 1.528877 g / cm^3
# Si number density = 15.323643 Si / 1000 Ang^3
#
#
#
# Elastic Constant Matrix: (Units=GPa)
#
#
# Indices 1 2 3 4 5 6 
#
# 1 95.6158 28.5834 47.6141 0.0000 0.0000 0.0000
# 2 28.5834 64.5546 30.4621 0.0000 0.0000 0.0000
# 3 47.6141 30.4621 87.8237 0.0000 0.0000 0.0000
# 4 0.0000 0.0000 0.0000 21.7292 0.0000 0.0000
# 5 0.0000 0.0000 0.0000 0.0000 23.7754 0.0000
# 6 0.0000 0.0000 0.0000 0.0000 0.0000 14.3767
#
#
#
# Elastic Compliance Matrix: (Units=1/GPa)
#
#
# Indices 1 2 3 4 5 6 
#
# 1 0.014902 -0.003331 -0.006924 0.000000 0.000000 0.000000
# 2 -0.003331 0.019267 -0.004877 0.000000 0.000000 0.000000
# 3 -0.006924 -0.004877 0.016832 0.000000 0.000000 0.000000
# 4 0.000000 0.000000 0.000000 0.046021 0.000000 0.000000
# 5 0.000000 0.000000 0.000000 0.000000 0.042060 0.000000
# 6 0.000000 0.000000 0.000000 0.000000 0.000000 0.069557
#
#
# Mechanical properties :
#
#
# Convention : Reuss Voigt Hill
#
# Bulk Modulus (GPa) = 48.22230 51.25701 49.73966
# Shear Modulus (GPa) = 20.34046 21.39857 20.86952
#
# Velocity S-wave (km/s) = 3.64729 3.74095 3.69442
# Velocity P-wave (km/s) = 7.01958 7.22370 7.12237
#
# Compressibility (1/GPa) = 0.02073729
#
# Stress axis : x y z
#
# Youngs Moduli (GPa) = 67.10392 51.90213 59.41123
#
# Poissons Ratio (x) = 0.17289 0.41136
# Poissons Ratio (y) = 0.22353 0.28974
# Poissons Ratio (z) = 0.46462 0.25312
#
# Static dielectric constant tensor:
#      x y z
#    x 2.995490 0.000000 0.000000 
#    y 0.000000 2.717990 0.000000 
#    z 0.000000 0.000000 3.101490 
# 
# 
# High freq. dielectric constant tensor:
#      x y z
#    x 1.580170 0.000000 0.000000 
#    y 0.000000 1.544030 0.000000 
#    z 0.000000 0.000000 1.599500 
# 
# From -- ./inp_files/7407.got.cif
#   From: 2010.03.12/outbox.cif.g09.slc.cpg/sg57_4_cif.got.tgz:7407.got - 2010.04.16 15:48:40.
