data_PCOD8230387
_publ_section_title
;
Structure prediction by ZEFSAII (Michael W. Deem and Ramdas Pophale) SiO2 
 PCOD8230387
Probable space group: P B C M
;
_chemical_formula_sum "Si O2"
_cell_formula_units_Z 48
_cell_length_a 7.809502
_cell_length_b 16.581087
_cell_length_c 20.382157
_cell_angle_alpha 90.000000
_cell_angle_beta 90.000000
_cell_angle_gamma 90.000000
_cell_volume 2639.286164
_symmetry_space_group_name_H-M "P B C M"
_symmetry_group_IT_number 57
_symmetry_cell_setting 'orthorhombic'
loop_
_space_group_symop_operation_xyz
x,y,z
-x,-y,1/2+z
x,1/2-y,-z
-x,1/2+y,1/2-z
-x,-y,-z
x,y,1/2-z
-x,1/2+y,z
x,1/2-y,1/2+z
loop_
_atom_site_type_symbol
_atom_site_label
_atom_site_fract_x
_atom_site_fract_y
_atom_site_fract_z
Si Si1 0.191411 0.184376 0.823898
Si Si2 0.808589 0.184376 0.823898
Si Si3 0.500000 0.558129 0.437923
Si Si4 0.310387 0.787309 0.934843
Si Si5 0.310387 0.212691 0.434843
Si Si6 0.500000 0.068354 0.673621
O O1 0.230397 0.214183 0.750000
O O2 0.202822 0.262379 0.870928
O O3 0.328470 0.117232 0.844930
O O4 0.000000 0.147597 0.828999
O O5 0.769603 0.214183 0.750000
O O6 0.797178 0.262379 0.870928
O O7 0.671530 0.117232 0.844930
O O8 0.500000 0.500000 0.500000
O O9 0.329887 0.615299 0.439871
O O10 0.670113 0.615299 0.439871
O O11 0.500000 0.511723 0.369452
O O12 0.500000 0.747428 0.928177
O O13 0.221243 0.750000 0.000000
O O14 0.221243 0.250000 0.500000
O O15 0.500000 0.043730 0.750000
#
# Coordination Sequence:
#
# PCOD8230387 Si02
#       6
#     8   8   8   8   8   8
#     4  10  20  35  56  79 104 138 179 217 255 308
#     4  10  20  35  56  79 104 138 179 217 255 308
#     4  10  18  31  54  79 106 137 172 213 264 316
#     4   9  18  33  55  80 101 135 179 217 257 304
#     4   9  18  33  55  80 101 135 179 217 257 304
#     4  10  19  33  53  77 106 139 169 209 265 316
#
# _framework density 18.186736
#
# number of rings (size 3 to 8) (size 9 to 14) (size 15 to 20)
#    1.000    1.333    1.667    2.000    0.000    2.000 
#    0.000    1.667    0.000    8.000    0.000    0.000 
#    0.000    0.000    0.000    0.000    0.000    0.000 
#
# Total GULP energy -594834.113403 kJ/mol
# GULP energy per Si atom -12392.377363 kJ/mol
# Density = 1.814534 g / cm^3
# Si number density = 18.186736 Si / 1000 Ang^3
#
#
#
# Elastic Constant Matrix: (Units=GPa)
#
#
# Indices 1 2 3 4 5 6 
#
# 1 82.6500 36.2902 31.8811 0.0000 0.0000 0.0000
# 2 36.2902 129.3351 77.5376 0.0000 0.0000 0.0000
# 3 31.8811 77.5376 126.1974 0.0000 0.0000 0.0000
# 4 0.0000 0.0000 0.0000 40.1904 0.0000 0.0000
# 5 0.0000 0.0000 0.0000 0.0000 17.6480 0.0000
# 6 0.0000 0.0000 0.0000 0.0000 0.0000 5.7581
#
#
#
# Elastic Compliance Matrix: (Units=1/GPa)
#
#
# Indices 1 2 3 4 5 6 
#
# 1 0.014049 -0.002872 -0.001784 0.000000 0.000000 0.000000
# 2 -0.002872 0.012828 -0.007156 0.000000 0.000000 0.000000
# 3 -0.001784 -0.007156 0.012772 0.000000 0.000000 0.000000
# 4 0.000000 0.000000 0.000000 0.024882 0.000000 0.000000
# 5 0.000000 0.000000 0.000000 0.000000 0.056664 0.000000
# 6 0.000000 0.000000 0.000000 0.000000 0.000000 0.173670
#
#
# Mechanical properties :
#
#
# Convention : Reuss Voigt Hill
#
# Bulk Modulus (GPa) = 62.41039 69.95559 66.18299
# Shear Modulus (GPa) = 15.44023 25.55087 20.49555
#
# Velocity S-wave (km/s) = 2.91689 3.75229 3.36065
# Velocity P-wave (km/s) = 6.76279 7.57110 7.17833
#
# Compressibility (1/GPa) = 0.01602297
#
# Stress axis : x y z
#
# Youngs Moduli (GPa) = 71.18136 77.95534 78.29832
#
# Poissons Ratio (x) = 0.22390 0.13972
# Poissons Ratio (y) = 0.20444 0.56031
# Poissons Ratio (z) = 0.12702 0.55785
#
# Static dielectric constant tensor:
#      x y z
#    x 3.221650 0.000000 0.000000 
#    y 0.000000 3.035630 0.000000 
#    z 0.000000 0.000000 3.452940 
# 
# 
# High freq. dielectric constant tensor:
#      x y z
#    x 1.681800 0.000000 0.000000 
#    y 0.000000 1.674170 0.000000 
#    z 0.000000 0.000000 1.723510 
# 
# From -- ./inp_files/24485.got.cif
#   From: 2010.03.12/outbox.cif.g09.slc.cpg/sg57_13_cif.got.tgz:24485.got - 2010.04.16 15:48:40.
