data_PCOD8230211
_publ_section_title
;
Structure prediction by ZEFSAII (Michael W. Deem and Ramdas Pophale) SiO2 
 PCOD8230211
Probable space group: P B C M
;
_chemical_formula_sum "Si O2"
_cell_formula_units_Z 64
_cell_length_a 15.471787
_cell_length_b 23.191032
_cell_length_c 8.801869
_cell_angle_alpha 90.000000
_cell_angle_beta 90.000000
_cell_angle_gamma 90.000000
_cell_volume 3158.169635
_symmetry_space_group_name_H-M "P B C M"
_symmetry_group_IT_number 57
_symmetry_cell_setting 'orthorhombic'
loop_
_space_group_symop_operation_xyz
x,y,z
-x,-y,1/2+z
x,1/2-y,-z
-x,1/2+y,1/2-z
-x,-y,-z
x,y,1/2-z
-x,1/2+y,z
x,1/2-y,1/2+z
loop_
_atom_site_type_symbol
_atom_site_label
_atom_site_fract_x
_atom_site_fract_y
_atom_site_fract_z
Si Si1 0.893608 0.884669 0.925750
Si Si2 0.823418 0.494682 0.425279
Si Si3 0.563222 0.878046 0.568710
Si Si4 0.963151 0.310092 0.071202
Si Si5 0.377673 0.885556 0.578598
Si Si6 0.187965 0.875534 0.930974
Si Si7 0.647573 0.516776 0.576656
Si Si8 0.270355 0.189290 0.427911
O O1 0.913177 0.870110 0.750000
O O2 0.891670 0.953576 0.952171
O O3 0.802490 0.856623 0.975960
O O4 0.969490 0.859861 0.029227
O O5 0.821488 0.475907 0.250000
O O6 0.848216 0.438879 0.524818
O O7 0.731322 0.520622 0.470931
O O8 0.565891 0.887484 0.750000
O O9 0.466691 0.856554 0.515669
O O10 0.578247 0.938563 0.486337
O O11 0.635779 0.832583 0.514605
O O12 0.956935 0.303444 0.250000
O O13 0.994824 0.250000 0.000000
O O14 0.869146 0.325773 0.005347
O O15 0.365871 0.865232 0.750000
O O16 0.286062 0.868238 0.500857
O O17 0.393836 0.953709 0.566814
O O18 0.184421 0.870667 0.750000
O O19 0.673540 0.531300 0.750000
O O20 0.246866 0.250000 0.500000
O O21 0.272430 0.198030 0.250000
#
# Coordination Sequence:
#
# PCOD8230211 Si02
#       8
#     8   8   8   8   8   8   8   8
#     4  10  21  39  61  88 117 150 192 239 290 350
#     4  10  19  35  59  88 122 158 193 232 288 354
#     4  10  18  33  53  76 109 151 193 234 284 342
#     4  12  26  44  66  90 113 150 195 243 296 347
#     4   8  17  32  54  81 112 149 189 232 285 338
#     4  10  21  40  62  89 122 154 193 245 295 348
#     4  10  18  29  48  81 117 151 191 234 282 338
#     4  10  21  36  54  78 110 151 192 235 288 342
#
# _framework density 20.264903
#
# number of rings (size 3 to 8) (size 9 to 14) (size 15 to 20)
#    0.000    2.000    1.250    3.750    0.000    3.500 
#    0.000    3.750    0.000    1.500    0.000    0.000 
#    0.000    0.000    0.000    0.000    0.000    0.000 
#
# Total GULP energy -793380.618299 kJ/mol
# GULP energy per Si atom -12396.572161 kJ/mol
# Density = 2.021878 g / cm^3
# Si number density = 20.264903 Si / 1000 Ang^3
#
#
#
# Elastic Constant Matrix: (Units=GPa)
#
#
# Indices 1 2 3 4 5 6 
#
# 1 86.5739 16.4124 24.8654 0.0000 0.0000 0.0000
# 2 16.4124 37.9845 14.7967 0.0000 0.0000 0.0000
# 3 24.8654 14.7967 68.7231 0.0000 0.0000 0.0000
# 4 0.0000 0.0000 0.0000 30.4059 0.0000 0.0000
# 5 0.0000 0.0000 0.0000 0.0000 22.1509 0.0000
# 6 0.0000 0.0000 0.0000 0.0000 0.0000 8.6593
#
#
#
# Elastic Compliance Matrix: (Units=1/GPa)
#
#
# Indices 1 2 3 4 5 6 
#
# 1 0.013502 -0.004291 -0.003961 0.000000 0.000000 0.000000
# 2 -0.004291 0.030100 -0.004928 0.000000 0.000000 0.000000
# 3 -0.003961 -0.004928 0.017046 0.000000 0.000000 0.000000
# 4 0.000000 0.000000 0.000000 0.032888 0.000000 0.000000
# 5 0.000000 0.000000 0.000000 0.000000 0.045145 0.000000
# 6 0.000000 0.000000 0.000000 0.000000 0.000000 0.115483
#
#
# Mechanical properties :
#
#
# Convention : Reuss Voigt Hill
#
# Bulk Modulus (GPa) = 29.16583 33.93672 31.55127
# Shear Modulus (GPa) = 17.12597 21.39036 19.25816
#
# Velocity S-wave (km/s) = 2.91022 3.25243 3.08607
# Velocity P-wave (km/s) = 5.07110 5.55763 5.31993
#
# Compressibility (1/GPa) = 0.03428670
#
# Stress axis : x y z
#
# Youngs Moduli (GPa) = 74.06274 33.22226 58.66612
#
# Poissons Ratio (x) = 0.14255 0.23240
# Poissons Ratio (y) = 0.31779 0.28913
# Poissons Ratio (z) = 0.29340 0.16373
#
# Static dielectric constant tensor:
#      x y z
#    x 3.903720 0.000000 0.000000 
#    y 0.000000 3.607870 0.000000 
#    z 0.000000 0.000000 3.506450 
# 
# 
# High freq. dielectric constant tensor:
#      x y z
#    x 1.800060 0.000000 0.000000 
#    y 0.000000 1.773140 0.000000 
#    z 0.000000 0.000000 1.777150 
# 
# From -- ./inp_files/5751.got.cif
#   From: 2010.03.12/outbox.cif.g09.slc.cpg/sg57_3_cif.got.tgz:5751.got - 2010.04.16 15:48:40.
