data_PCOD8230180
_publ_section_title
;
Structure prediction by ZEFSAII (Michael W. Deem and Ramdas Pophale) SiO2 
 PCOD8230180
Probable space group: P B C M
;
_chemical_formula_sum "Si O2"
_cell_formula_units_Z 56
_cell_length_a 14.490207
_cell_length_b 22.693819
_cell_length_c 8.931287
_cell_angle_alpha 90.000000
_cell_angle_beta 90.000000
_cell_angle_gamma 90.000000
_cell_volume 2936.947760
_symmetry_space_group_name_H-M "P B C M"
_symmetry_group_IT_number 57
_symmetry_cell_setting 'orthorhombic'
loop_
_space_group_symop_operation_xyz
x,y,z
-x,-y,1/2+z
x,1/2-y,-z
-x,1/2+y,1/2-z
-x,-y,-z
x,y,1/2-z
-x,1/2+y,z
x,1/2-y,1/2+z
loop_
_atom_site_type_symbol
_atom_site_label
_atom_site_fract_x
_atom_site_fract_y
_atom_site_fract_z
Si Si1 0.491925 0.113860 0.916021
Si Si2 0.265367 0.924281 0.928006
Si Si3 0.313919 0.192546 0.916885
Si Si4 0.787354 0.899357 0.581560
Si Si5 0.334691 0.814205 0.070800
Si Si6 0.610487 0.982012 0.580211
Si Si7 0.097742 0.491890 0.074704
O O1 0.525389 0.097616 0.750000
O O2 0.395759 0.146528 0.912182
O O3 0.567691 0.158205 0.986108
O O4 0.477759 0.050526 0.999672
O O5 0.278980 0.920639 0.750000
O O6 0.169792 0.956708 0.970319
O O7 0.258600 0.859296 0.002718
O O8 0.354360 0.958236 0.998301
O O9 0.280547 0.208273 0.750000
O O10 0.350552 0.250000 0.000000
O O11 0.229349 0.164801 0.009717
O O12 0.824226 0.891848 0.750000
O O13 0.693783 0.936148 0.577554
O O14 0.864847 0.929602 0.481507
O O15 0.326601 0.809269 0.250000
O O16 0.321110 0.750000 0.000000
O O17 0.582493 0.996683 0.750000
O O18 0.083847 0.489236 0.250000
O O19 0.000000 0.500000 0.000000
#
# Coordination Sequence:
#
# PCOD8230180 Si02
#       7
#     8   8   8   8   8   8   8
#     4   9  19  33  49  72 103 140 182 226 267 307
#     4  10  21  37  56  79 108 140 174 214 264 320
#     4  10  18  29  46  69 100 138 178 216 255 300
#     4   9  17  30  48  73 104 134 166 205 250 301
#     4  11  23  38  55  75 103 142 187 229 266 307
#     4   9  17  30  51  77 104 136 174 218 266 311
#     4  10  20  35  58  85 108 130 159 201 256 316
#
# _framework density 19.067415
#
# number of rings (size 3 to 8) (size 9 to 14) (size 15 to 20)
#    0.000    2.286    0.000    3.000    0.000    7.429 
#    0.000    0.000    0.000    0.857    0.000    2.000 
#    0.000    0.000    0.000    0.000    0.000    0.000 
#
# Total GULP energy -694297.911097 kJ/mol
# GULP energy per Si atom -12398.176984 kJ/mol
# Density = 1.902402 g / cm^3
# Si number density = 19.067415 Si / 1000 Ang^3
#
#
#
# Elastic Constant Matrix: (Units=GPa)
#
#
# Indices 1 2 3 4 5 6 
#
# 1 71.2586 28.4451 31.4799 0.0000 0.0000 0.0000
# 2 28.4451 125.0957 61.0983 0.0000 0.0000 0.0000
# 3 31.4799 61.0983 115.3357 0.0000 0.0000 0.0000
# 4 0.0000 0.0000 0.0000 33.1394 0.0000 0.0000
# 5 0.0000 0.0000 0.0000 0.0000 24.6275 0.0000
# 6 0.0000 0.0000 0.0000 0.0000 0.0000 14.2725
#
#
#
# Elastic Compliance Matrix: (Units=1/GPa)
#
#
# Indices 1 2 3 4 5 6 
#
# 1 0.016347 -0.002075 -0.003363 0.000000 0.000000 0.000000
# 2 -0.002075 0.011047 -0.005286 0.000000 0.000000 0.000000
# 3 -0.003363 -0.005286 0.012388 0.000000 0.000000 0.000000
# 4 0.000000 0.000000 0.000000 0.030176 0.000000 0.000000
# 5 0.000000 0.000000 0.000000 0.000000 0.040605 0.000000
# 6 0.000000 0.000000 0.000000 0.000000 0.000000 0.070065
#
#
# Mechanical properties :
#
#
# Convention : Reuss Voigt Hill
#
# Bulk Modulus (GPa) = 54.53752 61.52630 58.03191
# Shear Modulus (GPa) = 24.01686 27.11900 25.56793
#
# Velocity S-wave (km/s) = 3.55290 3.77539 3.66583
# Velocity P-wave (km/s) = 6.74503 7.16537 6.95837
#
# Compressibility (1/GPa) = 0.01833600
#
# Stress axis : x y z
#
# Youngs Moduli (GPa) = 61.17273 90.51905 80.72059
#
# Poissons Ratio (x) = 0.18780 0.27144
# Poissons Ratio (y) = 0.12692 0.42669
# Poissons Ratio (z) = 0.20571 0.47848
#
# Static dielectric constant tensor:
#      x y z
#    x 3.211140 0.000000 0.000000 
#    y 0.000000 3.541300 0.000000 
#    z 0.000000 0.000000 3.736190 
# 
# 
# High freq. dielectric constant tensor:
#      x y z
#    x 1.710830 0.000000 0.000000 
#    y 0.000000 1.748050 0.000000 
#    z 0.000000 0.000000 1.754740 
# 
# From -- ./inp_files/5182.got.cif
#   From: 2010.03.12/outbox.cif.g09.slc.cpg/sg57_3_cif.got.tgz:5182.got - 2010.04.16 15:48:40.
