data_PCOD8230533
_publ_section_title
;
Structure prediction by ZEFSAII (Michael W. Deem and Ramdas Pophale) SiO2 
 PCOD8230533
Probable space group: P B C M
;
_chemical_formula_sum "Si O2"
_cell_formula_units_Z 48
_cell_length_a 8.414745
_cell_length_b 21.939337
_cell_length_c 13.551003
_cell_angle_alpha 90.000000
_cell_angle_beta 90.000000
_cell_angle_gamma 90.000000
_cell_volume 2501.703869
_symmetry_space_group_name_H-M "P B C M"
_symmetry_group_IT_number 57
_symmetry_cell_setting 'orthorhombic'
loop_
_space_group_symop_operation_xyz
x,y,z
-x,-y,1/2+z
x,1/2-y,-z
-x,1/2+y,1/2-z
-x,-y,-z
x,y,1/2-z
-x,1/2+y,z
x,1/2-y,1/2+z
loop_
_atom_site_type_symbol
_atom_site_label
_atom_site_fract_x
_atom_site_fract_y
_atom_site_fract_z
Si Si1 0.628727 0.994904 0.638115
Si Si2 0.760357 0.657698 0.968899
Si Si3 0.442609 0.599269 0.006157
Si Si4 0.936804 0.945051 0.937803
Si Si5 0.883838 0.731371 0.361847
Si Si6 0.174937 0.850124 0.637202
O O1 0.572556 0.006961 0.750000
O O2 0.509081 0.946756 0.588723
O O3 0.804041 0.966428 0.639496
O O4 0.637063 0.058908 0.579521
O O5 0.576460 0.640331 0.951336
O O6 0.847247 0.697764 0.884335
O O7 0.863229 0.597019 0.976464
O O8 0.761612 0.692607 0.073490
O O9 0.318982 0.645508 0.059002
O O10 0.071001 0.911308 0.874583
O O11 0.000000 0.000000 0.000000
O O12 0.843149 0.716522 0.250000
O O13 0.065511 0.709860 0.386185
O O14 0.238059 0.846713 0.750000
#
# Coordination Sequence:
#
# PCOD8230533 Si02
#       6
#     8   8   8   8   8   8
#     4  10  20  34  53  82 121 157 186 225 285 351
#     4   9  20  36  56  79 110 149 185 231 287 339
#     4  10  20  34  55  84 117 151 189 236 285 343
#     4  10  18  34  56  78 115 151 184 227 280 345
#     4   9  19  38  60  79 104 145 196 240 282 334
#     4  10  19  33  58  85 110 147 196 240 278 332
#
# _framework density 19.186923
#
# number of rings (size 3 to 8) (size 9 to 14) (size 15 to 20)
#    0.000    2.333    1.667    1.000    0.000    5.333 
#    0.000    8.333    0.000    0.000    0.000    0.000 
#    0.000    0.000    0.000    0.000    0.000    0.000 
#
# Total GULP energy -594928.228780 kJ/mol
# GULP energy per Si atom -12394.338100 kJ/mol
# Density = 1.914325 g / cm^3
# Si number density = 19.186923 Si / 1000 Ang^3
#
#
#
# Elastic Constant Matrix: (Units=GPa)
#
#
# Indices 1 2 3 4 5 6 
#
# 1 73.9822 37.5406 14.6654 0.0000 0.0000 0.0000
# 2 37.5406 93.2815 23.5716 0.0000 0.0000 0.0000
# 3 14.6654 23.5716 78.4155 0.0000 0.0000 0.0000
# 4 0.0000 0.0000 0.0000 20.9365 0.0000 0.0000
# 5 0.0000 0.0000 0.0000 0.0000 23.6523 0.0000
# 6 0.0000 0.0000 0.0000 0.0000 0.0000 31.8799
#
#
#
# Elastic Compliance Matrix: (Units=1/GPa)
#
#
# Indices 1 2 3 4 5 6 
#
# 1 0.017093 -0.006570 -0.001222 0.000000 0.000000 0.000000
# 2 -0.006570 0.014127 -0.003018 0.000000 0.000000 0.000000
# 3 -0.001222 -0.003018 0.013888 0.000000 0.000000 0.000000
# 4 0.000000 0.000000 0.000000 0.047764 0.000000 0.000000
# 5 0.000000 0.000000 0.000000 0.000000 0.042279 0.000000
# 6 0.000000 0.000000 0.000000 0.000000 0.000000 0.031368
#
#
# Mechanical properties :
#
#
# Convention : Reuss Voigt Hill
#
# Bulk Modulus (GPa) = 42.57386 44.13715 43.35550
# Shear Modulus (GPa) = 25.51445 26.62051 26.06748
#
# Velocity S-wave (km/s) = 3.65058 3.72886 3.68993
# Velocity P-wave (km/s) = 6.32504 6.44926 6.38745
#
# Compressibility (1/GPa) = 0.02348859
#
# Stress axis : x y z
#
# Youngs Moduli (GPa) = 58.50402 70.78678 72.00352
#
# Poissons Ratio (x) = 0.46508 0.08797
# Poissons Ratio (y) = 0.38438 0.21729
# Poissons Ratio (z) = 0.07148 0.21362
#
# Static dielectric constant tensor:
#      x y z
#    x 3.561290 0.000000 0.000000 
#    y 0.000000 3.758580 0.000000 
#    z 0.000000 0.000000 3.512760 
# 
# 
# High freq. dielectric constant tensor:
#      x y z
#    x 1.740090 0.000000 0.000000 
#    y 0.000000 1.742730 0.000000 
#    z 0.000000 0.000000 1.731340 
# 
# From -- ./inp_files/16550.got.cif
#   From: 2010.03.12/outbox.cif.g09.slc.cpg/sg57_9_cif.got.tgz:16550.got - 2010.04.16 15:48:40.
