data_PCOD8230156
_publ_section_title
;
Structure prediction by ZEFSAII (Michael W. Deem and Ramdas Pophale) SiO2 
 PCOD8230156
Probable space group: P B C M
;
_chemical_formula_sum "Si O2"
_cell_formula_units_Z 64
_cell_length_a 20.517665
_cell_length_b 21.648759
_cell_length_c 9.137702
_cell_angle_alpha 90.000000
_cell_angle_beta 90.000000
_cell_angle_gamma 90.000000
_cell_volume 4058.802611
_symmetry_space_group_name_H-M "P B C M"
_symmetry_group_IT_number 57
_symmetry_cell_setting 'orthorhombic'
loop_
_space_group_symop_operation_xyz
x,y,z
-x,-y,1/2+z
x,1/2-y,-z
-x,1/2+y,1/2-z
-x,-y,-z
x,y,1/2-z
-x,1/2+y,z
x,1/2-y,1/2+z
loop_
_atom_site_type_symbol
_atom_site_label
_atom_site_fract_x
_atom_site_fract_y
_atom_site_fract_z
Si Si1 0.381194 0.591901 0.082043
Si Si2 0.496466 0.434457 0.076504
Si Si3 0.355606 0.446650 0.412285
Si Si4 0.858562 0.314537 0.921749
Si Si5 0.907057 0.535028 0.421406
Si Si6 0.253543 0.608945 0.921795
Si Si7 0.957868 0.082061 0.082072
Si Si8 0.234092 0.464839 0.582236
O O1 0.383463 0.614896 0.250000
O O2 0.370782 0.518905 0.072703
O O3 0.449331 0.609225 0.000040
O O4 0.323018 0.625604 0.994925
O O5 0.510391 0.440976 0.250000
O O6 0.422422 0.409436 0.048595
O O7 0.500000 0.500000 0.000000
O O8 0.333670 0.429999 0.250000
O O9 0.293755 0.427796 0.509508
O O10 0.843410 0.305962 0.750000
O O11 0.926123 0.351484 0.946519
O O12 0.869212 0.250000 0.000000
O O13 0.799473 0.349953 0.997017
O O14 0.901069 0.522987 0.250000
O O15 0.920717 0.468367 0.488101
O O16 0.836367 0.559331 0.477294
O O17 0.964898 0.583316 0.460305
O O18 0.255459 0.625039 0.750000
O O19 0.236891 0.537683 0.949936
O O20 0.950049 0.061863 0.250000
O O21 0.242586 0.449577 0.750000
#
# Coordination Sequence:
#
# PCOD8230156 Si02
#       8
#     8   8   8   8   8   8   8   8
#     4   9  16  25  37  53  73 101 134 172 207 241
#     4   9  15  23  33  48  70 101 137 172 204 238
#     4   8  15  23  32  48  74 104 135 167 199 236
#     4  11  22  34  47  63  83 111 143 179 219 260
#     4   9  16  28  44  63  85 107 135 173 214 256
#     4  10  18  29  43  60  80 105 137 174 211 253
#     4   9  18  30  45  63  82 106 137 173 214 259
#     4   9  16  24  38  58  80 106 134 167 207 249
#
# _framework density 15.768197000000001
#
# number of rings (size 3 to 8) (size 9 to 14) (size 15 to 20)
#    0.000    2.750    1.250    2.250    0.000    5.000 
#    0.000    0.000    0.000    0.000    0.000    0.000 
#    0.000    0.000    0.000    1.125    0.000   18.375 
#
# Total GULP energy -792986.515657 kJ/mol
# GULP energy per Si atom -12390.414307 kJ/mol
# Density = 1.573231 g / cm^3
# Si number density = 15.768197 Si / 1000 Ang^3
#
#
#
# Elastic Constant Matrix: (Units=GPa)
#
#
# Indices 1 2 3 4 5 6 
#
# 1 171.6980 27.8584 71.8648 0.0000 0.0000 0.0000
# 2 27.8584 23.7393 24.4630 0.0000 0.0000 0.0000
# 3 71.8648 24.4630 91.3291 0.0000 0.0000 0.0000
# 4 0.0000 0.0000 0.0000 12.9416 0.0000 0.0000
# 5 0.0000 0.0000 0.0000 0.0000 28.7099 0.0000
# 6 0.0000 0.0000 0.0000 0.0000 0.0000 7.1953
#
#
#
# Elastic Compliance Matrix: (Units=1/GPa)
#
#
# Indices 1 2 3 4 5 6 
#
# 1 0.009022 -0.004519 -0.005889 0.000000 0.000000 0.000000
# 2 -0.004519 0.060448 -0.012635 0.000000 0.000000 0.000000
# 3 -0.005889 -0.012635 0.018968 0.000000 0.000000 0.000000
# 4 0.000000 0.000000 0.000000 0.077270 0.000000 0.000000
# 5 0.000000 0.000000 0.000000 0.000000 0.034831 0.000000
# 6 0.000000 0.000000 0.000000 0.000000 0.000000 0.138980
#
#
# Mechanical properties :
#
#
# Convention : Reuss Voigt Hill
#
# Bulk Modulus (GPa) = 23.61210 59.45987 41.53598
# Shear Modulus (GPa) = 12.50867 20.60804 16.55836
#
# Velocity S-wave (km/s) = 2.81959 3.61908 3.24406
# Velocity P-wave (km/s) = 5.06035 7.43332 6.35851
#
# Compressibility (1/GPa) = 0.04235117
#
# Stress axis : x y z
#
# Youngs Moduli (GPa) = 110.83685 16.54312 52.72135
#
# Poissons Ratio (x) = 0.07476 0.31047
# Poissons Ratio (y) = 0.50091 0.66614
# Poissons Ratio (z) = 0.65271 0.20903
#
# Static dielectric constant tensor:
#      x y z
#    x 3.730920 0.000000 0.000000 
#    y 0.000000 2.494460 0.000000 
#    z 0.000000 0.000000 3.185750 
# 
# 
# High freq. dielectric constant tensor:
#      x y z
#    x 1.630950 0.000000 0.000000 
#    y 0.000000 1.517380 0.000000 
#    z 0.000000 0.000000 1.618360 
# 
# From -- ./inp_files/8765.got.cif
#   From: 2010.03.12/outbox.cif.g09.slc.cpg/sg57_5_cif.got.tgz:8765.got - 2010.04.16 15:48:40.
