data_PCOD8230281
_publ_section_title
;
Structure prediction by ZEFSAII (Michael W. Deem and Ramdas Pophale) SiO2 
 PCOD8230281
Probable space group: P B C M
;
_chemical_formula_sum "Si O2"
_cell_formula_units_Z 64
_cell_length_a 12.808003
_cell_length_b 28.152988
_cell_length_c 8.777599
_cell_angle_alpha 90.000000
_cell_angle_beta 90.000000
_cell_angle_gamma 90.000000
_cell_volume 3165.057850
_symmetry_space_group_name_H-M "P B C M"
_symmetry_group_IT_number 57
_symmetry_cell_setting 'orthorhombic'
loop_
_space_group_symop_operation_xyz
x,y,z
-x,-y,1/2+z
x,1/2-y,-z
-x,1/2+y,1/2-z
-x,-y,-z
x,y,1/2-z
-x,1/2+y,z
x,1/2-y,1/2+z
loop_
_atom_site_type_symbol
_atom_site_label
_atom_site_fract_x
_atom_site_fract_y
_atom_site_fract_z
Si Si1 0.318820 0.393741 0.426634
Si Si2 0.002413 0.302257 0.931232
Si Si3 0.309551 0.894301 0.077800
Si Si4 0.876945 0.549721 0.571079
Si Si5 0.208676 0.800537 0.071955
Si Si6 0.107075 0.548182 0.575138
Si Si7 0.492856 0.948032 0.927791
Si Si8 0.210250 0.300326 0.426587
O O1 0.334932 0.407030 0.250000
O O2 0.214689 0.417757 0.497376
O O3 0.417704 0.412509 0.517453
O O4 0.306781 0.336824 0.447404
O O5 0.002198 0.303128 0.750000
O O6 0.007593 0.250000 0.000000
O O7 0.894523 0.323915 0.994515
O O8 0.108719 0.325762 0.995868
O O9 0.348597 0.904267 0.250000
O O10 0.304470 0.837525 0.045744
O O11 0.190233 0.910395 0.056006
O O12 0.383471 0.922550 0.963833
O O13 0.870553 0.554720 0.750000
O O14 0.853456 0.496017 0.522972
O O15 0.992990 0.565590 0.514495
O O16 0.185730 0.793146 0.250000
O O17 0.240363 0.750000 0.000000
O O18 0.096518 0.531433 0.750000
O O19 0.502638 0.955564 0.750000
O O20 0.500000 0.000000 0.000000
O O21 0.241833 0.250000 0.500000
O O22 0.184472 0.291914 0.250000
#
# Coordination Sequence:
#
# PCOD8230281 Si02
#       8
#     8   8   8   8   8   8   8   8
#     4  10  22  39  62  87 115 154 201 246 296 356
#     4  10  18  30  50  78 115 158 201 244 288 346
#     4  10  22  39  62  87 115 154 201 246 296 356
#     4   9  18  33  54  81 113 147 183 229 287 350
#     4  10  20  35  57  84 119 159 200 248 297 354
#     4   9  18  33  54  81 113 147 183 229 287 350
#     4  12  26  44  67  90 119 152 195 250 298 356
#     4  10  20  35  57  84 119 159 200 248 297 354
#
# _framework density 20.220799
#
# number of rings (size 3 to 8) (size 9 to 14) (size 15 to 20)
#    0.000    2.000    0.000    5.250    1.750    5.000 
#    0.000    0.625    0.000    0.000    0.000    0.000 
#    0.000    0.000    0.000    0.000    0.000    0.000 
#
# Total GULP energy -793318.822567 kJ/mol
# GULP energy per Si atom -12395.606603 kJ/mol
# Density = 2.017478 g / cm^3
# Si number density = 20.220799 Si / 1000 Ang^3
#
#
#
# Elastic Constant Matrix: (Units=GPa)
#
#
# Indices 1 2 3 4 5 6 
#
# 1 86.3277 49.0277 41.7549 0.0000 0.0000 0.0000
# 2 49.0277 90.0425 38.5276 0.0000 0.0000 0.0000
# 3 41.7549 38.5276 113.4938 0.0000 0.0000 0.0000
# 4 0.0000 0.0000 0.0000 27.8306 0.0000 0.0000
# 5 0.0000 0.0000 0.0000 0.0000 30.1344 0.0000
# 6 0.0000 0.0000 0.0000 0.0000 0.0000 30.6981
#
#
#
# Elastic Compliance Matrix: (Units=1/GPa)
#
#
# Indices 1 2 3 4 5 6 
#
# 1 0.018122 -0.008206 -0.003881 0.000000 0.000000 0.000000
# 2 -0.008206 0.016709 -0.002653 0.000000 0.000000 0.000000
# 3 -0.003881 -0.002653 0.011140 0.000000 0.000000 0.000000
# 4 0.000000 0.000000 0.000000 0.035932 0.000000 0.000000
# 5 0.000000 0.000000 0.000000 0.000000 0.033185 0.000000
# 6 0.000000 0.000000 0.000000 0.000000 0.000000 0.032575
#
#
# Mechanical properties :
#
#
# Convention : Reuss Voigt Hill
#
# Bulk Modulus (GPa) = 60.64596 60.94270 60.79433
# Shear Modulus (GPa) = 27.37618 28.43619 27.90618
#
# Velocity S-wave (km/s) = 3.68348 3.75411 3.71896
# Velocity P-wave (km/s) = 6.93885 6.99966 6.96932
#
# Compressibility (1/GPa) = 0.01648914
#
# Stress axis : x y z
#
# Youngs Moduli (GPa) = 55.18255 59.84626 89.76952
#
# Poissons Ratio (x) = 0.49113 0.34841
# Poissons Ratio (y) = 0.45285 0.23817
# Poissons Ratio (z) = 0.21417 0.15878
#
# Static dielectric constant tensor:
#      x y z
#    x 3.882150 0.000000 0.000000 
#    y 0.000000 3.627110 0.000000 
#    z 0.000000 0.000000 3.649350 
# 
# 
# High freq. dielectric constant tensor:
#      x y z
#    x 1.778930 0.000000 0.000000 
#    y 0.000000 1.789850 0.000000 
#    z 0.000000 0.000000 1.785600 
# 
# From -- ./inp_files/3879.got.cif
#   From: 2010.03.12/outbox.cif.g09.slc.cpg/sg57_2_cif.got.tgz:3879.got - 2010.04.16 15:48:40.
