data_PCOD8230090
_publ_section_title
;
Structure prediction by ZEFSAII (Michael W. Deem and Ramdas Pophale) SiO2 
 PCOD8230090
Probable space group: P B C M
;
_chemical_formula_sum "Si O2"
_cell_formula_units_Z 48
_cell_length_a 15.038057
_cell_length_b 20.264331
_cell_length_c 9.319480
_cell_angle_alpha 90.000000
_cell_angle_beta 90.000000
_cell_angle_gamma 90.000000
_cell_volume 2839.982592
_symmetry_space_group_name_H-M "P B C M"
_symmetry_group_IT_number 57
_symmetry_cell_setting 'orthorhombic'
loop_
_space_group_symop_operation_xyz
x,y,z
-x,-y,1/2+z
x,1/2-y,-z
-x,1/2+y,1/2-z
-x,-y,-z
x,y,1/2-z
-x,1/2+y,z
x,1/2-y,1/2+z
loop_
_atom_site_type_symbol
_atom_site_label
_atom_site_fract_x
_atom_site_fract_y
_atom_site_fract_z
Si Si1 0.602779 0.565556 0.911003
Si Si2 0.034711 0.437722 0.585402
Si Si3 0.248786 0.899963 0.916625
Si Si4 0.442375 0.588279 0.090965
Si Si5 0.918329 0.183715 0.083605
Si Si6 0.767232 0.967241 0.915941
O O1 0.617761 0.592166 0.750000
O O2 0.578061 0.489185 0.911126
O O3 0.521242 0.606582 0.981394
O O4 0.692134 0.575749 0.003410
O O5 0.007534 0.449675 0.750000
O O6 0.140355 0.428211 0.568240
O O7 0.000000 0.500000 0.500000
O O8 0.986837 0.371884 0.527936
O O9 0.243705 0.922945 0.750000
O O10 0.349620 0.876108 0.953060
O O11 0.182573 0.839688 0.947367
O O12 0.220172 0.960965 0.014909
O O13 0.472776 0.609995 0.250000
O O14 0.933271 0.198376 0.250000
O O15 0.938887 0.250000 0.000000
O O16 0.739453 0.975930 0.750000
#
# Coordination Sequence:
#
# PCOD8230090 Si02
#       6
#     8   8   8   8   8   8
#     4   9  16  25  38  60  92 126 153 188 235 280
#     4  10  20  33  51  73  98 128 165 208 251 296
#     4   9  17  30  47  66  93 127 158 195 241 286
#     4   8  14  24  39  60  87 121 155 187 228 277
#     4  10  21  36  51  71 100 131 165 204 247 299
#     4  10  18  27  44  70  95 123 160 199 241 291
#
# _framework density 16.901510999999999
#
# number of rings (size 3 to 8) (size 9 to 14) (size 15 to 20)
#    0.000    2.667    1.667    2.000    0.000    6.000 
#    0.000    0.000    0.000    0.000    0.000    1.167 
#    0.000    0.000    0.000    0.000    0.000    0.000 
#
# Total GULP energy -595062.449681 kJ/mol
# GULP energy per Si atom -12397.134368 kJ/mol
# Density = 1.686304 g / cm^3
# Si number density = 16.901511 Si / 1000 Ang^3
#
#
#
# Elastic Constant Matrix: (Units=GPa)
#
#
# Indices 1 2 3 4 5 6 
#
# 1 123.2990 49.6691 62.2597 0.0000 0.0000 0.0000
# 2 49.6691 73.2991 42.3899 0.0000 0.0000 0.0000
# 3 62.2597 42.3899 99.5126 0.0000 0.0000 0.0000
# 4 0.0000 0.0000 0.0000 20.0339 0.0000 0.0000
# 5 0.0000 0.0000 0.0000 0.0000 28.4037 0.0000
# 6 0.0000 0.0000 0.0000 0.0000 0.0000 15.0403
#
#
#
# Elastic Compliance Matrix: (Units=1/GPa)
#
#
# Indices 1 2 3 4 5 6 
#
# 1 0.013396 -0.005614 -0.005990 0.000000 0.000000 0.000000
# 2 -0.005614 0.020454 -0.005201 0.000000 0.000000 0.000000
# 3 -0.005990 -0.005201 0.016012 0.000000 0.000000 0.000000
# 4 0.000000 0.000000 0.000000 0.049915 0.000000 0.000000
# 5 0.000000 0.000000 0.000000 0.000000 0.035207 0.000000
# 6 0.000000 0.000000 0.000000 0.000000 0.000000 0.066488
#
#
# Mechanical properties :
#
#
# Convention : Reuss Voigt Hill
#
# Bulk Modulus (GPa) = 61.52475 67.19423 64.35949
# Shear Modulus (GPa) = 20.78998 22.14837 21.46917
#
# Velocity S-wave (km/s) = 3.51104 3.62392 3.56793
# Velocity P-wave (km/s) = 7.27444 7.57318 7.42531
#
# Compressibility (1/GPa) = 0.01625362
#
# Stress axis : x y z
#
# Youngs Moduli (GPa) = 74.64672 48.88927 62.45224
#
# Poissons Ratio (x) = 0.27444 0.37410
# Poissons Ratio (y) = 0.41903 0.32481
# Poissons Ratio (z) = 0.44715 0.25427
#
# Static dielectric constant tensor:
#      x y z
#    x 3.584690 0.000000 0.000000 
#    y 0.000000 2.619200 0.000000 
#    z 0.000000 0.000000 3.341040 
# 
# 
# High freq. dielectric constant tensor:
#      x y z
#    x 1.670650 0.000000 0.000000 
#    y 0.000000 1.580860 0.000000 
#    z 0.000000 0.000000 1.659190 
# 
# From -- ./inp_files/4693.got.cif
#   From: 2010.03.12/outbox.cif.g09.slc.cpg/sg57_3_cif.got.tgz:4693.got - 2010.04.16 15:48:40.
