data_PCOD8230252
_publ_section_title
;
Structure prediction by ZEFSAII (Michael W. Deem and Ramdas Pophale) SiO2 
 PCOD8230252
Probable space group: P B C M
;
_chemical_formula_sum "Si O2"
_cell_formula_units_Z 40
_cell_length_a 11.145166
_cell_length_b 21.524264
_cell_length_c 8.996214
_cell_angle_alpha 90.000000
_cell_angle_beta 90.000000
_cell_angle_gamma 90.000000
_cell_volume 2158.115229
_symmetry_space_group_name_H-M "P B C M"
_symmetry_group_IT_number 57
_symmetry_cell_setting 'orthorhombic'
loop_
_space_group_symop_operation_xyz
x,y,z
-x,-y,1/2+z
x,1/2-y,-z
-x,1/2+y,1/2-z
-x,-y,-z
x,y,1/2-z
-x,1/2+y,z
x,1/2-y,1/2+z
loop_
_atom_site_type_symbol
_atom_site_label
_atom_site_fract_x
_atom_site_fract_y
_atom_site_fract_z
Si Si1 0.687068 0.497299 0.085007
Si Si2 0.389221 0.310853 0.424170
Si Si3 0.115811 0.187793 0.576545
Si Si4 0.088437 0.049716 0.573446
Si Si5 0.531954 0.086882 0.085968
O O1 0.738179 0.480080 0.250000
O O2 0.562021 0.531766 0.106697
O O3 0.780567 0.539310 0.995044
O O4 0.657120 0.436125 0.987482
O O5 0.442465 0.250000 0.500000
O O6 0.394958 0.303568 0.250000
O O7 0.252637 0.321506 0.478041
O O8 0.475745 0.365080 0.472902
O O9 0.059406 0.250000 0.500000
O O10 0.108905 0.201063 0.750000
O O11 0.049844 0.121818 0.538125
O O12 0.093693 0.039380 0.750000
O O13 0.000000 0.000000 0.500000
O O14 0.559783 0.114988 0.250000
#
# Coordination Sequence:
#
# PCOD8230252 Si02
#       5
#     8   8   8   8   8
#     4  10  20  33  51  75 103 138 174 212 261 314
#     4  10  18  30  48  74 106 139 174 216 263 317
#     4   9  19  33  52  76 106 138 175 220 269 319
#     4  11  22  37  55  80 110 143 182 228 273 324
#     4  10  19  31  50  75 105 138 171 211 259 315
#
# _framework density 18.534692
#
# number of rings (size 3 to 8) (size 9 to 14) (size 15 to 20)
#    0.000    2.000    2.000    2.400    0.000    4.000 
#    0.000    0.000    0.000    1.200    0.000    5.600 
#    0.000    0.000    0.000    0.000    0.000    0.000 
#
# Total GULP energy -495692.036278 kJ/mol
# GULP energy per Si atom -12392.300907 kJ/mol
# Density = 1.849251 g / cm^3
# Si number density = 18.534692 Si / 1000 Ang^3
#
#
#
# Elastic Constant Matrix: (Units=GPa)
#
#
# Indices 1 2 3 4 5 6 
#
# 1 30.6784 29.5937 26.2472 0.0000 0.0000 0.0000
# 2 29.5937 121.2633 50.5996 0.0000 0.0000 0.0000
# 3 26.2472 50.5996 110.2115 0.0000 0.0000 0.0000
# 4 0.0000 0.0000 0.0000 36.2481 0.0000 0.0000
# 5 0.0000 0.0000 0.0000 0.0000 20.6610 0.0000
# 6 0.0000 0.0000 0.0000 0.0000 0.0000 44.0116
#
#
#
# Elastic Compliance Matrix: (Units=1/GPa)
#
#
# Indices 1 2 3 4 5 6 
#
# 1 0.046974 -0.008406 -0.007328 0.000000 0.000000 0.000000
# 2 -0.008406 0.011705 -0.003372 0.000000 0.000000 0.000000
# 3 -0.007328 -0.003372 0.012367 0.000000 0.000000 0.000000
# 4 0.000000 0.000000 0.000000 0.027588 0.000000 0.000000
# 5 0.000000 0.000000 0.000000 0.000000 0.048400 0.000000
# 6 0.000000 0.000000 0.000000 0.000000 0.000000 0.022721
#
#
# Mechanical properties :
#
#
# Convention : Reuss Voigt Hill
#
# Bulk Modulus (GPa) = 30.45588 52.78157 41.61872
# Shear Modulus (GPa) = 22.84021 30.56499 26.70260
#
# Velocity S-wave (km/s) = 3.51421 4.06528 3.79975
# Velocity P-wave (km/s) = 5.73879 7.11156 6.46174
#
# Compressibility (1/GPa) = 0.03283439
#
# Stress axis : x y z
#
# Youngs Moduli (GPa) = 21.28816 85.43326 80.86231
#
# Poissons Ratio (x) = 0.71817 0.59254
# Poissons Ratio (y) = 0.17895 0.27267
# Poissons Ratio (z) = 0.15599 0.28808
#
# Static dielectric constant tensor:
#      x y z
#    x 3.035690 0.000000 0.000000 
#    y 0.000000 3.149480 0.000000 
#    z 0.000000 0.000000 3.692070 
# 
# 
# High freq. dielectric constant tensor:
#      x y z
#    x 1.668220 0.000000 0.000000 
#    y 0.000000 1.717430 0.000000 
#    z 0.000000 0.000000 1.737970 
# 
# From -- ./inp_files/2684.got.cif
#   From: 2010.03.12/outbox.cif.g09.slc.cpg/sg57_2_cif.got.tgz:2684.got - 2010.04.16 15:48:40.
