data_PCOD8230307
_publ_section_title
;
Structure prediction by ZEFSAII (Michael W. Deem and Ramdas Pophale) SiO2 
 PCOD8230307
Probable space group: P B C M
;
_chemical_formula_sum "Si O2"
_cell_formula_units_Z 40
_cell_length_a 9.068429
_cell_length_b 14.882672
_cell_length_c 16.743995
_cell_angle_alpha 90.000000
_cell_angle_beta 90.000000
_cell_angle_gamma 90.000000
_cell_volume 2259.810661
_symmetry_space_group_name_H-M "P B C M"
_symmetry_group_IT_number 57
_symmetry_cell_setting 'orthorhombic'
loop_
_space_group_symop_operation_xyz
x,y,z
-x,-y,1/2+z
x,1/2-y,-z
-x,1/2+y,1/2-z
-x,-y,-z
x,y,1/2-z
-x,1/2+y,z
x,1/2-y,1/2+z
loop_
_atom_site_type_symbol
_atom_site_label
_atom_site_fract_x
_atom_site_fract_y
_atom_site_fract_z
Si Si1 0.947415 0.710422 0.660716
Si Si2 0.086927 0.387150 0.570478
Si Si3 0.170137 0.834237 0.045802
Si Si4 0.857873 0.991799 0.342078
Si Si5 0.673257 0.495316 0.994053
O O1 0.950302 0.745649 0.750000
O O2 0.874385 0.791213 0.610131
O O3 0.863266 0.616136 0.652418
O O4 0.117729 0.696775 0.633429
O O5 0.241733 0.421602 0.534807
O O6 0.977014 0.373224 0.496684
O O7 0.010771 0.459354 0.630920
O O8 0.239202 0.750000 0.000000
O O9 0.293069 0.909535 0.049520
O O10 0.823568 0.020090 0.250000
O O11 0.726379 0.021456 0.402304
O O12 0.500000 0.500000 0.000000
#
# Coordination Sequence:
#
# PCOD8230307 Si02
#       5
#     8   8   8   8   8
#     4  10  18  30  56  85 103 133 184 241 281 307
#     4  10  18  34  56  80 104 139 188 230 275 325
#     4   9  17  34  55  78 104 138 189 233 264 323
#     4  10  19  35  56  79 109 141 185 240 277 318
#     4  11  21  36  53  82 115 153 186 216 283 357
#
# _framework density 17.700597999999999
#
# number of rings (size 3 to 8) (size 9 to 14) (size 15 to 20)
#    0.000    2.000    4.000    1.800    0.000    0.000 
#    3.600    3.000    0.000    0.000    0.000    0.000 
#    0.000    0.000    0.000    0.000    0.000    0.000 
#
# Total GULP energy -495636.699174 kJ/mol
# GULP energy per Si atom -12390.917479 kJ/mol
# Density = 1.766031 g / cm^3
# Si number density = 17.700598 Si / 1000 Ang^3
#
#
#
# Elastic Constant Matrix: (Units=GPa)
#
#
# Indices 1 2 3 4 5 6 
#
# 1 97.2968 31.4845 27.4532 0.0000 0.0000 0.0000
# 2 31.4845 93.3655 8.7594 0.0000 0.0000 0.0000
# 3 27.4532 8.7594 82.1934 0.0000 0.0000 0.0000
# 4 0.0000 0.0000 0.0000 21.3539 0.0000 0.0000
# 5 0.0000 0.0000 0.0000 0.0000 14.7983 0.0000
# 6 0.0000 0.0000 0.0000 0.0000 0.0000 15.2143
#
#
#
# Elastic Compliance Matrix: (Units=1/GPa)
#
#
# Indices 1 2 3 4 5 6 
#
# 1 0.012610 -0.003896 -0.003797 0.000000 0.000000 0.000000
# 2 -0.003896 0.012023 0.000020 0.000000 0.000000 0.000000
# 3 -0.003797 0.000020 0.013432 0.000000 0.000000 0.000000
# 4 0.000000 0.000000 0.000000 0.046830 0.000000 0.000000
# 5 0.000000 0.000000 0.000000 0.000000 0.067575 0.000000
# 6 0.000000 0.000000 0.000000 0.000000 0.000000 0.065728
#
#
# Mechanical properties :
#
#
# Convention : Reuss Voigt Hill
#
# Bulk Modulus (GPa) = 44.01488 45.36110 44.68799
# Shear Modulus (GPa) = 20.73692 23.95054 22.34373
#
# Velocity S-wave (km/s) = 3.42649 3.68243 3.55676
# Velocity P-wave (km/s) = 6.36983 6.61535 6.49375
#
# Compressibility (1/GPa) = 0.02271959
#
# Stress axis : x y z
#
# Youngs Moduli (GPa) = 79.30345 83.17715 74.44708
#
# Poissons Ratio (x) = 0.32406 0.28264
# Poissons Ratio (y) = 0.30897 -0.00149
# Poissons Ratio (z) = 0.30108 -0.00167
#
# Static dielectric constant tensor:
#      x y z
#    x 2.764090 0.000000 0.000000 
#    y 0.000000 3.558350 0.000000 
#    z 0.000000 0.000000 3.561510 
# 
# 
# High freq. dielectric constant tensor:
#      x y z
#    x 1.622720 0.000000 0.000000 
#    y 0.000000 1.708390 0.000000 
#    z 0.000000 0.000000 1.689320 
# 
# From -- ./inp_files/20702.got.cif
#   From: 2010.03.12/outbox.cif.g09.slc.cpg/sg57_11_cif.got.tgz:20702.got - 2010.04.16 15:48:40.
