data_PCOD8230425
_publ_section_title
;
Structure prediction by ZEFSAII (Michael W. Deem and Ramdas Pophale) SiO2 
 PCOD8230425
Probable space group: P B C M
;
_chemical_formula_sum "Si O2"
_cell_formula_units_Z 48
_cell_length_a 18.347963
_cell_length_b 15.688231
_cell_length_c 8.690336
_cell_angle_alpha 90.000000
_cell_angle_beta 90.000000
_cell_angle_gamma 90.000000
_cell_volume 2501.487859
_symmetry_space_group_name_H-M "P B C M"
_symmetry_group_IT_number 57
_symmetry_cell_setting 'orthorhombic'
loop_
_space_group_symop_operation_xyz
x,y,z
-x,-y,1/2+z
x,1/2-y,-z
-x,1/2+y,1/2-z
-x,-y,-z
x,y,1/2-z
-x,1/2+y,z
x,1/2-y,1/2+z
loop_
_atom_site_type_symbol
_atom_site_label
_atom_site_fract_x
_atom_site_fract_y
_atom_site_fract_z
Si Si1 0.333879 0.500036 0.569905
Si Si2 0.407598 0.163945 0.932428
Si Si3 0.910824 0.662031 0.431458
Si Si4 0.076410 0.837847 0.569171
Si Si5 0.165070 0.990987 0.070622
Si Si6 0.461377 0.583003 0.433315
O O1 0.350125 0.489411 0.750000
O O2 0.357127 0.413798 0.484703
O O3 0.250075 0.517981 0.535437
O O4 0.379187 0.580800 0.501467
O O5 0.411711 0.166209 0.750000
O O6 0.371742 0.250000 0.000000
O O7 0.489860 0.160425 0.003185
O O8 0.879023 0.750000 0.500000
O O9 0.906304 0.669624 0.250000
O O10 0.862885 0.582542 0.490874
O O11 0.993660 0.647558 0.488790
O O12 0.107905 0.750000 0.500000
O O13 0.079504 0.829726 0.750000
O O14 0.124785 0.916608 0.518325
O O15 0.147303 0.981591 0.250000
O O16 0.500000 0.500000 0.500000
O O17 0.459225 0.583257 0.250000
#
# Coordination Sequence:
#
# PCOD8230425 Si02
#       6
#     8   8   8   8   8   8
#     4  10  20  35  53  76 107 142 175 214 263 317
#     4  11  21  35  55  79 106 137 174 217 262 314
#     4   9  19  35  54  80 110 144 183 228 275 324
#     4  10  20  35  57  80 106 140 184 232 279 328
#     4  10  21  36  55  80 113 147 183 225 274 328
#     4  10  18  32  53  75  99 130 168 208 248 299
#
# _framework density 19.188580999999999
#
# number of rings (size 3 to 8) (size 9 to 14) (size 15 to 20)
#    0.000    2.000    0.000    6.500    0.000    3.333 
#    0.000    2.500    0.000    4.000    0.000    0.000 
#    0.000    0.000    0.000    0.000    0.000    0.000 
#
# Total GULP energy -595155.031160 kJ/mol
# GULP energy per Si atom -12399.063149 kJ/mol
# Density = 1.914491 g / cm^3
# Si number density = 19.188581 Si / 1000 Ang^3
#
#
#
# Elastic Constant Matrix: (Units=GPa)
#
#
# Indices 1 2 3 4 5 6 
#
# 1 73.4364 18.6601 35.9557 0.0000 0.0000 0.0000
# 2 18.6601 70.8594 26.5004 0.0000 0.0000 0.0000
# 3 35.9557 26.5004 109.8098 0.0000 0.0000 0.0000
# 4 0.0000 0.0000 0.0000 34.8103 0.0000 0.0000
# 5 0.0000 0.0000 0.0000 0.0000 25.9647 0.0000
# 6 0.0000 0.0000 0.0000 0.0000 0.0000 11.2438
#
#
#
# Elastic Compliance Matrix: (Units=1/GPa)
#
#
# Indices 1 2 3 4 5 6 
#
# 1 0.016634 -0.002576 -0.004825 0.000000 0.000000 0.000000
# 2 -0.002576 0.015911 -0.002996 0.000000 0.000000 0.000000
# 3 -0.004825 -0.002996 0.011410 0.000000 0.000000 0.000000
# 4 0.000000 0.000000 0.000000 0.028727 0.000000 0.000000
# 5 0.000000 0.000000 0.000000 0.000000 0.038514 0.000000
# 6 0.000000 0.000000 0.000000 0.000000 0.000000 0.088938
#
#
# Mechanical properties :
#
#
# Convention : Reuss Voigt Hill
#
# Bulk Modulus (GPa) = 43.17695 46.25977 44.71836
# Shear Modulus (GPa) = 21.86756 25.93638 23.90197
#
# Velocity S-wave (km/s) = 3.37948 3.68048 3.53318
# Velocity P-wave (km/s) = 6.14639 6.49781 6.32454
#
# Compressibility (1/GPa) = 0.02316051
#
# Stress axis : x y z
#
# Youngs Moduli (GPa) = 60.11722 62.84786 87.64512
#
# Poissons Ratio (x) = 0.16189 0.42288
# Poissons Ratio (y) = 0.15486 0.26262
# Poissons Ratio (z) = 0.29006 0.18832
#
# Static dielectric constant tensor:
#      x y z
#    x 3.759650 0.000000 0.000000 
#    y 0.000000 3.764690 0.000000 
#    z 0.000000 0.000000 3.529210 
# 
# 
# High freq. dielectric constant tensor:
#      x y z
#    x 1.739120 0.000000 0.000000 
#    y 0.000000 1.741560 0.000000 
#    z 0.000000 0.000000 1.754950 
# 
# From -- ./inp_files/6497.got.cif
#   From: 2010.03.12/outbox.cif.g09.slc.cpg/sg57_4_cif.got.tgz:6497.got - 2010.04.16 15:48:40.
