data_PCOD8231913
_publ_section_title
;
Structure prediction by ZEFSAII (Michael W. Deem and Ramdas Pophale) SiO2 
 PCOD8231913
Probable space group: P B C M
;
_chemical_formula_sum "Si O2"
_cell_formula_units_Z 64
_cell_length_a 23.440941
_cell_length_b 15.428281
_cell_length_c 8.852539
_cell_angle_alpha 90.000000
_cell_angle_beta 90.000000
_cell_angle_gamma 90.000000
_cell_volume 3201.551046
_symmetry_space_group_name_H-M "P B C M"
_symmetry_group_IT_number 57
_symmetry_cell_setting 'orthorhombic'
loop_
_space_group_symop_operation_xyz
x,y,z
-x,-y,1/2+z
x,1/2-y,-z
-x,1/2+y,1/2-z
-x,-y,-z
x,y,1/2-z
-x,1/2+y,z
x,1/2-y,1/2+z
loop_
_atom_site_type_symbol
_atom_site_label
_atom_site_fract_x
_atom_site_fract_y
_atom_site_fract_z
Si Si1 0.363708 0.985120 0.570664
Si Si2 0.580585 0.836391 0.077073
Si Si3 0.943940 0.106649 0.923499
Si Si4 0.241932 0.513153 0.929419
Si Si5 0.532168 0.078828 0.925173
Si Si6 0.181297 0.338983 0.927920
Si Si7 0.940892 0.597011 0.424078
Si Si8 0.833019 0.337894 0.928671
O O1 0.359126 0.979088 0.750000
O O2 0.387273 0.078432 0.513306
O O3 0.303556 0.966356 0.495687
O O4 0.407433 0.910216 0.511583
O O5 0.597040 0.828808 0.250000
O O6 0.511613 0.840887 0.054773
O O7 0.604515 0.750000 0.000000
O O8 0.934771 0.134229 0.750000
O O9 0.933546 0.005125 0.946689
O O10 0.899736 0.157471 0.028933
O O11 0.007524 0.133117 0.974682
O O12 0.241729 0.523372 0.750000
O O13 0.222806 0.416785 0.979257
O O14 0.197926 0.580503 0.998471
O O15 0.543945 0.059753 0.750000
O O16 0.500000 0.000000 0.000000
O O17 0.182624 0.329405 0.750000
O O18 0.116857 0.358015 0.982801
O O19 0.203916 0.250000 0.000000
O O20 0.953580 0.618753 0.250000
O O21 0.824340 0.337527 0.750000
O O22 0.807031 0.250000 0.000000
#
# Coordination Sequence:
#
# PCOD8231913 Si02
#       8
#     8   8   8   8   8   8   8   8
#     4  10  21  37  57  84 113 150 197 240 284 347
#     4   9  19  33  53  83 120 152 189 233 281 337
#     4  10  19  35  59  87 118 151 192 242 297 360
#     4  11  23  43  64  86 118 158 201 253 304 352
#     4   9  17  32  53  80 110 145 184 227 275 330
#     4  10  22  39  59  84 118 157 199 245 296 357
#     4   9  18  35  56  83 119 156 194 239 295 358
#     4  12  25  42  65  90 116 151 195 247 305 366
#
# _framework density 19.990311999999999
#
# number of rings (size 3 to 8) (size 9 to 14) (size 15 to 20)
#    0.000    2.000    1.250    3.375    0.000    6.000 
#    0.000    4.375    0.000    1.500    0.000    0.000 
#    0.000    0.000    0.000    0.000    0.000    0.000 
#
# Total GULP energy -793550.830786 kJ/mol
# GULP energy per Si atom -12399.231731 kJ/mol
# Density = 1.994481 g / cm^3
# Si number density = 19.990312 Si / 1000 Ang^3
#
#
#
# Elastic Constant Matrix: (Units=GPa)
#
#
# Indices 1 2 3 4 5 6 
#
# 1 89.6101 4.5205 29.4223 0.0000 0.0000 0.0000
# 2 4.5205 46.2642 25.0796 0.0000 0.0000 0.0000
# 3 29.4223 25.0796 89.8765 0.0000 0.0000 0.0000
# 4 0.0000 0.0000 0.0000 31.1056 0.0000 0.0000
# 5 0.0000 0.0000 0.0000 0.0000 32.0077 0.0000
# 6 0.0000 0.0000 0.0000 0.0000 0.0000 12.6153
#
#
#
# Elastic Compliance Matrix: (Units=1/GPa)
#
#
# Indices 1 2 3 4 5 6 
#
# 1 0.012558 0.001180 -0.004440 0.000000 0.000000 0.000000
# 2 0.001180 0.025578 -0.007524 0.000000 0.000000 0.000000
# 3 -0.004440 -0.007524 0.014679 0.000000 0.000000 0.000000
# 4 0.000000 0.000000 0.000000 0.032149 0.000000 0.000000
# 5 0.000000 0.000000 0.000000 0.000000 0.031242 0.000000
# 6 0.000000 0.000000 0.000000 0.000000 0.000000 0.079269
#
#
# Mechanical properties :
#
#
# Convention : Reuss Voigt Hill
#
# Bulk Modulus (GPa) = 32.00260 38.19953 35.10107
# Shear Modulus (GPa) = 21.98196 26.26094 24.12145
#
# Velocity S-wave (km/s) = 3.31967 3.62841 3.47747
# Velocity P-wave (km/s) = 5.54413 6.05841 5.80697
#
# Compressibility (1/GPa) = 0.03124746
#
# Stress axis : x y z
#
# Youngs Moduli (GPa) = 79.63158 39.09568 68.12253
#
# Poissons Ratio (x) = -0.04613 0.30248
# Poissons Ratio (y) = -0.09397 0.51254
# Poissons Ratio (z) = 0.35358 0.29415
#
# Static dielectric constant tensor:
#      x y z
#    x 3.807950 0.000000 0.000000 
#    y 0.000000 3.647750 0.000000 
#    z 0.000000 0.000000 3.660260 
# 
# 
# High freq. dielectric constant tensor:
#      x y z
#    x 1.779530 0.000000 0.000000 
#    y 0.000000 1.765730 0.000000 
#    z 0.000000 0.000000 1.782750 
# 
# From -- ./inp_files/9376.got.cif
#   From: 2010.03.12/outbox.cif.g09.slc.cpg/sg57_5_cif.got.tgz:9376.got - 2010.04.16 15:48:40.
