data_PCOD8231756
_publ_section_title
;
Structure prediction by ZEFSAII (Michael W. Deem and Ramdas Pophale) SiO2 
 PCOD8231756
Probable space group: P B C M
;
_chemical_formula_sum "Si O2"
_cell_formula_units_Z 48
_cell_length_a 14.723908
_cell_length_b 18.566416
_cell_length_c 8.731973
_cell_angle_alpha 90.000000
_cell_angle_beta 90.000000
_cell_angle_gamma 90.000000
_cell_volume 2387.061215
_symmetry_space_group_name_H-M "P B C M"
_symmetry_group_IT_number 57
_symmetry_cell_setting 'orthorhombic'
loop_
_space_group_symop_operation_xyz
x,y,z
-x,-y,1/2+z
x,1/2-y,-z
-x,1/2+y,1/2-z
-x,-y,-z
x,y,1/2-z
-x,1/2+y,z
x,1/2-y,1/2+z
loop_
_atom_site_type_symbol
_atom_site_label
_atom_site_fract_x
_atom_site_fract_y
_atom_site_fract_z
Si Si1 0.881155 0.943904 0.070588
Si Si2 0.783613 0.177419 0.927764
Si Si3 0.466243 0.172447 0.068188
Si Si4 0.056174 0.601434 0.070720
Si Si5 0.674589 0.926728 0.431755
Si Si6 0.379345 0.924947 0.069978
O O1 0.895664 0.934690 0.250000
O O2 0.779894 0.923156 0.019740
O O3 0.901525 0.025292 0.018228
O O4 0.952308 0.891377 0.985975
O O5 0.792545 0.190200 0.750000
O O6 0.716828 0.111858 0.967583
O O7 0.742703 0.250000 0.000000
O O8 0.883383 0.163183 0.994707
O O9 0.457718 0.177663 0.250000
O O10 0.491221 0.250000 0.000000
O O11 0.371346 0.145908 0.994761
O O12 0.543565 0.116165 0.022787
O O13 0.059808 0.612306 0.250000
O O14 0.663506 0.933744 0.250000
O O15 0.624485 0.993610 0.511530
O O16 0.402415 0.923048 0.250000
#
# Coordination Sequence:
#
# PCOD8231756 Si02
#       6
#     8   8   8   8   8   8
#     4   9  19  35  58  87 118 154 195 243 293 347
#     4  11  23  37  57  85 122 161 202 250 304 364
#     4  12  26  44  64  88 121 160 202 250 306 366
#     4  10  19  34  57  85 118 155 196 243 295 351
#     4  11  22  40  65  93 124 159 202 252 300 357
#     4  11  23  40  63  92 122 159 203 251 303 360
#
# _framework density 20.108407
#
# number of rings (size 3 to 8) (size 9 to 14) (size 15 to 20)
#    0.000    1.333    1.667    4.500    0.000    5.333 
#    0.000    0.833    0.000    4.000    0.000    0.000 
#    0.000    0.000    0.000    0.000    0.000    0.000 
#
# Total GULP energy -595471.419462 kJ/mol
# GULP energy per Si atom -12405.654572 kJ/mol
# Density = 2.006264 g / cm^3
# Si number density = 20.108407 Si / 1000 Ang^3
#
#
#
# Elastic Constant Matrix: (Units=GPa)
#
#
# Indices 1 2 3 4 5 6 
#
# 1 114.6034 18.7628 42.7060 0.0000 0.0000 0.0000
# 2 18.7628 52.1670 20.5058 0.0000 0.0000 0.0000
# 3 42.7060 20.5058 86.7049 0.0000 0.0000 0.0000
# 4 0.0000 0.0000 0.0000 36.0597 0.0000 0.0000
# 5 0.0000 0.0000 0.0000 0.0000 33.4215 0.0000
# 6 0.0000 0.0000 0.0000 0.0000 0.0000 11.7973
#
#
#
# Elastic Compliance Matrix: (Units=1/GPa)
#
#
# Indices 1 2 3 4 5 6 
#
# 1 0.010872 -0.001990 -0.004884 0.000000 0.000000 0.000000
# 2 -0.001990 0.021498 -0.004104 0.000000 0.000000 0.000000
# 3 -0.004884 -0.004104 0.014910 0.000000 0.000000 0.000000
# 4 0.000000 0.000000 0.000000 0.027732 0.000000 0.000000
# 5 0.000000 0.000000 0.000000 0.000000 0.029921 0.000000
# 6 0.000000 0.000000 0.000000 0.000000 0.000000 0.084765
#
#
# Mechanical properties :
#
#
# Convention : Reuss Voigt Hill
#
# Bulk Modulus (GPa) = 39.49037 46.38051 42.93544
# Shear Modulus (GPa) = 22.71748 27.68908 25.20328
#
# Velocity S-wave (km/s) = 3.36482 3.71481 3.54414
# Velocity P-wave (km/s) = 5.89724 6.44322 6.17626
#
# Compressibility (1/GPa) = 0.02532263
#
# Stress axis : x y z
#
# Youngs Moduli (GPa) = 91.98282 46.51536 67.07100
#
# Poissons Ratio (x) = 0.09258 0.32758
# Poissons Ratio (y) = 0.18308 0.27526
# Poissons Ratio (z) = 0.44925 0.19090
#
# Static dielectric constant tensor:
#      x y z
#    x 3.871210 0.000000 0.000000 
#    y 0.000000 3.657940 0.000000 
#    z 0.000000 0.000000 3.639340 
# 
# 
# High freq. dielectric constant tensor:
#      x y z
#    x 1.795880 0.000000 0.000000 
#    y 0.000000 1.769690 0.000000 
#    z 0.000000 0.000000 1.795150 
# 
# From -- ./inp_files/4704.got.cif
#   From: 2010.03.12/outbox.cif.g09.slc.cpg/sg57_3_cif.got.tgz:4704.got - 2010.04.16 15:48:40.
