data_PCOD8231029
_publ_section_title
;
Structure prediction by ZEFSAII (Michael W. Deem and Ramdas Pophale) SiO2 
 PCOD8231029
Probable space group: P B C M
;
_chemical_formula_sum "Si O2"
_cell_formula_units_Z 56
_cell_length_a 17.061735
_cell_length_b 19.894655
_cell_length_c 9.066852
_cell_angle_alpha 90.000000
_cell_angle_beta 90.000000
_cell_angle_gamma 90.000000
_cell_volume 3077.628048
_symmetry_space_group_name_H-M "P B C M"
_symmetry_group_IT_number 57
_symmetry_cell_setting 'orthorhombic'
loop_
_space_group_symop_operation_xyz
x,y,z
-x,-y,1/2+z
x,1/2-y,-z
-x,1/2+y,1/2-z
-x,-y,-z
x,y,1/2-z
-x,1/2+y,z
x,1/2-y,1/2+z
loop_
_atom_site_type_symbol
_atom_site_label
_atom_site_fract_x
_atom_site_fract_y
_atom_site_fract_z
Si Si1 0.393823 0.461563 0.419678
Si Si2 0.673578 0.182148 0.079069
Si Si3 0.779558 0.560308 0.576718
Si Si4 0.881599 0.682105 0.922658
Si Si5 0.062818 0.681742 0.922353
Si Si6 0.557182 0.094122 0.580047
Si Si7 0.180289 0.587320 0.078124
O O1 0.391789 0.487670 0.250000
O O2 0.311625 0.426931 0.462686
O O3 0.463004 0.407223 0.441795
O O4 0.406338 0.524622 0.524723
O O5 0.660834 0.197175 0.250000
O O6 0.739061 0.126293 0.049857
O O7 0.700966 0.250000 0.000000
O O8 0.591552 0.156433 0.011398
O O9 0.792370 0.559554 0.750000
O O10 0.831487 0.620476 0.509086
O O11 0.808271 0.488137 0.516584
O O12 0.866648 0.690790 0.750000
O O13 0.972215 0.667684 0.957695
O O14 0.852777 0.750000 0.000000
O O15 0.079292 0.689668 0.750000
O O16 0.091788 0.750000 0.000000
O O17 0.110145 0.619015 0.985329
O O18 0.580176 0.103351 0.750000
O O19 0.157629 0.589157 0.250000
#
# Coordination Sequence:
#
# PCOD8231029 Si02
#       7
#     8   8   8   8   8   8   8
#     4   9  17  33  55  77 103 137 175 213 258 313
#     4  11  22  36  53  75 107 144 182 220 266 318
#     4   9  17  34  57  79 105 139 175 213 263 317
#     4   9  19  36  57  77 102 137 175 215 262 317
#     4  10  20  34  52  76 105 139 177 216 260 311
#     4  10  19  31  52  79 105 136 176 217 260 309
#     4  10  20  34  54  78 104 138 177 216 262 318
#
# _framework density 18.195831999999999
#
# number of rings (size 3 to 8) (size 9 to 14) (size 15 to 20)
#    0.000    2.286    1.429    1.714    0.000    4.000 
#    0.000    2.143    0.000    1.714    0.000    0.000 
#    0.000    0.000    0.000    0.000    0.000    0.000 
#
# Total GULP energy -694488.284499 kJ/mol
# GULP energy per Si atom -12401.576509 kJ/mol
# Density = 1.815442 g / cm^3
# Si number density = 18.195832 Si / 1000 Ang^3
#
#
#
# Elastic Constant Matrix: (Units=GPa)
#
#
# Indices 1 2 3 4 5 6 
#
# 1 109.1745 71.4941 45.6722 0.0000 0.0000 0.0000
# 2 71.4941 133.9861 50.0426 0.0000 0.0000 0.0000
# 3 45.6722 50.0426 75.3764 0.0000 0.0000 0.0000
# 4 0.0000 0.0000 0.0000 29.8909 0.0000 0.0000
# 5 0.0000 0.0000 0.0000 0.0000 20.4616 0.0000
# 6 0.0000 0.0000 0.0000 0.0000 0.0000 25.4556
#
#
#
# Elastic Compliance Matrix: (Units=1/GPa)
#
#
# Indices 1 2 3 4 5 6 
#
# 1 0.015461 -0.006318 -0.005174 0.000000 0.000000 0.000000
# 2 -0.006318 0.012506 -0.004475 0.000000 0.000000 0.000000
# 3 -0.005174 -0.004475 0.019373 0.000000 0.000000 0.000000
# 4 0.000000 0.000000 0.000000 0.033455 0.000000 0.000000
# 5 0.000000 0.000000 0.000000 0.000000 0.048872 0.000000
# 6 0.000000 0.000000 0.000000 0.000000 0.000000 0.039284
#
#
# Mechanical properties :
#
#
# Convention : Reuss Voigt Hill
#
# Bulk Modulus (GPa) = 64.90552 72.55053 68.72803
# Shear Modulus (GPa) = 24.26960 25.25015 24.75987
#
# Velocity S-wave (km/s) = 3.65608 3.72921 3.69283
# Velocity P-wave (km/s) = 7.31919 7.64861 7.48572
#
# Compressibility (1/GPa) = 0.01540701
#
# Stress axis : x y z
#
# Youngs Moduli (GPa) = 64.67749 79.96344 51.61944
#
# Poissons Ratio (x) = 0.50518 0.26708
# Poissons Ratio (y) = 0.40861 0.23098
# Poissons Ratio (z) = 0.33465 0.35781
#
# Static dielectric constant tensor:
#      x y z
#    x 3.494460 0.000000 0.000000 
#    y 0.000000 3.397860 0.000000 
#    z 0.000000 0.000000 3.277360 
# 
# 
# High freq. dielectric constant tensor:
#      x y z
#    x 1.708960 0.000000 0.000000 
#    y 0.000000 1.694950 0.000000 
#    z 0.000000 0.000000 1.695540 
# 
# From -- ./inp_files/5229.got.cif
#   From: 2010.03.12/outbox.cif.g09.slc.cpg/sg57_3_cif.got.tgz:5229.got - 2010.04.16 15:48:40.
