data_PCOD8231441
_publ_section_title
;
Structure prediction by ZEFSAII (Michael W. Deem and Ramdas Pophale) SiO2 
 PCOD8231441
Probable space group: P B C M
;
_chemical_formula_sum "Si O2"
_cell_formula_units_Z 48
_cell_length_a 9.136189
_cell_length_b 8.896705
_cell_length_c 32.004208
_cell_angle_alpha 90.000000
_cell_angle_beta 90.000000
_cell_angle_gamma 90.000000
_cell_volume 2601.365342
_symmetry_space_group_name_H-M "P B C M"
_symmetry_group_IT_number 57
_symmetry_cell_setting 'orthorhombic'
loop_
_space_group_symop_operation_xyz
x,y,z
-x,-y,1/2+z
x,1/2-y,-z
-x,1/2+y,1/2-z
-x,-y,-z
x,y,1/2-z
-x,1/2+y,z
x,1/2-y,1/2+z
loop_
_atom_site_type_symbol
_atom_site_label
_atom_site_fract_x
_atom_site_fract_y
_atom_site_fract_z
Si Si1 0.664410 0.255745 0.875355
Si Si2 0.643416 0.893205 0.363279
Si Si3 0.093025 0.395735 0.081497
Si Si4 0.164667 0.250691 0.798468
Si Si5 0.913623 0.067396 0.837497
Si Si6 0.149874 0.700308 0.045710
O O1 0.514601 0.165481 0.875447
O O2 0.642254 0.426597 0.861059
O O3 0.776633 0.178278 0.843442
O O4 0.726411 0.244624 0.922265
O O5 0.757619 0.832334 0.398207
O O6 0.692478 0.827819 0.318522
O O7 0.132527 0.521409 0.047384
O O8 0.995912 0.467287 0.118882
O O9 0.009167 0.265627 0.057289
O O10 0.197014 0.271396 0.750000
O O11 0.141441 0.411650 0.819332
O O12 0.022801 0.146832 0.805068
O O13 0.200943 0.750000 0.000000
#
# Coordination Sequence:
#
# PCOD8231441 Si02
#       6
#     8   8   8   8   8   8
#     4  10  21  37  57  76 105 146 181 214 262 324
#     4  10  20  37  55  76 105 143 182 213 261 325
#     4   9  18  33  54  76 104 140 174 209 258 318
#     4  11  21  35  56  84 109 135 175 225 265 305
#     4  10  19  35  57  79 107 143 177 211 260 319
#     4  10  19  33  53  81 107 133 174 224 263 303
#
# _framework density 18.451848999999999
#
# number of rings (size 3 to 8) (size 9 to 14) (size 15 to 20)
#    0.000    2.000    0.000    7.000    0.000    1.333 
#    0.000    9.167    0.000    0.000    0.000    0.000 
#    0.000    0.000    0.000    0.000    0.000    0.000 
#
# Total GULP energy -595316.528016 kJ/mol
# GULP energy per Si atom -12402.427667 kJ/mol
# Density = 1.840985 g / cm^3
# Si number density = 18.451849 Si / 1000 Ang^3
#
#
#
# Elastic Constant Matrix: (Units=GPa)
#
#
# Indices 1 2 3 4 5 6 
#
# 1 108.1895 21.7463 8.7378 0.0000 0.0000 0.0000
# 2 21.7463 72.0629 8.7373 0.0000 0.0000 0.0000
# 3 8.7378 8.7373 63.6226 0.0000 0.0000 0.0000
# 4 0.0000 0.0000 0.0000 17.6917 0.0000 0.0000
# 5 0.0000 0.0000 0.0000 0.0000 14.5092 0.0000
# 6 0.0000 0.0000 0.0000 0.0000 0.0000 32.5021
#
#
#
# Elastic Compliance Matrix: (Units=1/GPa)
#
#
# Indices 1 2 3 4 5 6 
#
# 1 0.009898 -0.002870 -0.000965 0.000000 0.000000 0.000000
# 2 -0.002870 0.014944 -0.001658 0.000000 0.000000 0.000000
# 3 -0.000965 -0.001658 0.016078 0.000000 0.000000 0.000000
# 4 0.000000 0.000000 0.000000 0.056524 0.000000 0.000000
# 5 0.000000 0.000000 0.000000 0.000000 0.068922 0.000000
# 6 0.000000 0.000000 0.000000 0.000000 0.000000 0.030767
#
#
# Mechanical properties :
#
#
# Convention : Reuss Voigt Hill
#
# Bulk Modulus (GPa) = 33.40763 35.81310 34.61037
# Shear Modulus (GPa) = 22.92564 26.58417 24.75490
#
# Velocity S-wave (km/s) = 3.52868 3.79982 3.66675
# Velocity P-wave (km/s) = 5.89463 6.22114 6.06008
#
# Compressibility (1/GPa) = 0.02993328
#
# Stress axis : x y z
#
# Youngs Moduli (GPa) = 101.03217 66.91724 62.19696
#
# Poissons Ratio (x) = 0.19204 0.06004
# Poissons Ratio (y) = 0.28994 0.10313
# Poissons Ratio (z) = 0.09752 0.11096
#
# Static dielectric constant tensor:
#      x y z
#    x 3.459190 0.000000 0.000000 
#    y 0.000000 3.499030 0.000000 
#    z 0.000000 0.000000 3.332530 
# 
# 
# High freq. dielectric constant tensor:
#      x y z
#    x 1.712700 0.000000 0.000000 
#    y 0.000000 1.728060 0.000000 
#    z 0.000000 0.000000 1.700770 
# 
# From -- ./inp_files/29446.got.cif
#   From: 2010.03.12/outbox.cif.g09.slc.cpg/sg57_15_cif.got.tgz:29446.got - 2010.04.16 15:48:40.
