data_PCOD8231190
_publ_section_title
;
Structure prediction by ZEFSAII (Michael W. Deem and Ramdas Pophale) SiO2 
 PCOD8231190
Probable space group: P B C M
;
_chemical_formula_sum "Si O2"
_cell_formula_units_Z 64
_cell_length_a 20.113246
_cell_length_b 19.463879
_cell_length_c 8.832846
_cell_angle_alpha 90.000000
_cell_angle_beta 90.000000
_cell_angle_gamma 90.000000
_cell_volume 3457.898331
_symmetry_space_group_name_H-M "P B C M"
_symmetry_group_IT_number 57
_symmetry_cell_setting 'orthorhombic'
loop_
_space_group_symop_operation_xyz
x,y,z
-x,-y,1/2+z
x,1/2-y,-z
-x,1/2+y,1/2-z
-x,-y,-z
x,y,1/2-z
-x,1/2+y,z
x,1/2-y,1/2+z
loop_
_atom_site_type_symbol
_atom_site_label
_atom_site_fract_x
_atom_site_fract_y
_atom_site_fract_z
Si Si1 0.771221 0.935364 0.574234
Si Si2 0.622390 0.174402 0.071454
Si Si3 0.954988 0.402995 0.076087
Si Si4 0.261238 0.909409 0.074189
Si Si5 0.521852 0.678056 0.075333
Si Si6 0.906092 0.539295 0.574896
Si Si7 0.334122 0.175387 0.429144
Si Si8 0.850166 0.321189 0.927864
O O1 0.788351 0.923961 0.750000
O O2 0.838204 0.925474 0.477893
O O3 0.720182 0.878420 0.511046
O O4 0.737318 0.009090 0.548583
O O5 0.637559 0.180265 0.250000
O O6 0.548594 0.140392 0.041382
O O7 0.630820 0.250000 0.000000
O O8 0.671912 0.121578 0.993843
O O9 0.936439 0.390107 0.250000
O O10 0.034239 0.406085 0.051113
O O11 0.919952 0.473450 0.027420
O O12 0.925296 0.340169 0.978488
O O13 0.255532 0.889855 0.250000
O O14 0.197745 0.881019 0.985656
O O15 0.528225 0.693273 0.250000
O O16 0.592341 0.644898 0.022598
O O17 0.513345 0.750000 0.000000
O O18 0.901954 0.516366 0.750000
O O19 0.321241 0.250000 0.500000
O O20 0.328245 0.182633 0.250000
O O21 0.845778 0.314358 0.750000
O O22 0.826701 0.250000 0.000000
#
# Coordination Sequence:
#
# PCOD8231190 Si02
#       8
#     8   8   8   8   8   8   8   8
#     4  10  21  36  56  79 110 146 181 222 272 326
#     4  10  19  32  51  76 105 141 181 228 272 320
#     4  10  20  36  56  81 109 139 179 223 268 319
#     4  11  22  36  52  75 108 147 185 226 268 323
#     4   8  15  29  51  75 102 134 176 221 269 323
#     4  10  20  34  57  83 108 139 178 222 266 315
#     4   9  18  35  57  82 106 137 176 222 277 331
#     4  12  24  38  57  81 111 148 186 230 276 324
#
# _framework density 18.508351999999999
#
# number of rings (size 3 to 8) (size 9 to 14) (size 15 to 20)
#    0.000    2.000    1.250    3.000    0.000    3.000 
#    0.000    1.250    0.000    1.500    0.000    0.000 
#    0.000    0.000    0.000    0.000    0.000    0.000 
#
# Total GULP energy -793260.294772 kJ/mol
# GULP energy per Si atom -12394.692106 kJ/mol
# Density = 1.846623 g / cm^3
# Si number density = 18.508352 Si / 1000 Ang^3
#
#
#
# Elastic Constant Matrix: (Units=GPa)
#
#
# Indices 1 2 3 4 5 6 
#
# 1 147.3363 52.6418 53.0474 0.0000 0.0000 0.0000
# 2 52.6418 75.1127 36.2634 0.0000 0.0000 0.0000
# 3 53.0474 36.2634 94.3136 0.0000 0.0000 0.0000
# 4 0.0000 0.0000 0.0000 24.5446 0.0000 0.0000
# 5 0.0000 0.0000 0.0000 0.0000 31.9976 0.0000
# 6 0.0000 0.0000 0.0000 0.0000 0.0000 29.1920
#
#
#
# Elastic Compliance Matrix: (Units=1/GPa)
#
#
# Indices 1 2 3 4 5 6 
#
# 1 0.009950 -0.005245 -0.003580 0.000000 0.000000 0.000000
# 2 -0.005245 0.019113 -0.004399 0.000000 0.000000 0.000000
# 3 -0.003580 -0.004399 0.014308 0.000000 0.000000 0.000000
# 4 0.000000 0.000000 0.000000 0.040742 0.000000 0.000000
# 5 0.000000 0.000000 0.000000 0.000000 0.031252 0.000000
# 6 0.000000 0.000000 0.000000 0.000000 0.000000 0.034256
#
#
# Mechanical properties :
#
#
# Convention : Reuss Voigt Hill
#
# Bulk Modulus (GPa) = 59.08945 66.74085 62.91515
# Shear Modulus (GPa) = 27.51642 28.80083 28.15863
#
# Velocity S-wave (km/s) = 3.85996 3.94902 3.90475
# Velocity P-wave (km/s) = 7.20145 7.54527 7.37537
#
# Compressibility (1/GPa) = 0.01692350
#
# Stress axis : x y z
#
# Youngs Moduli (GPa) = 100.50149 52.32050 69.89243
#
# Poissons Ratio (x) = 0.27443 0.25020
# Poissons Ratio (y) = 0.52714 0.30744
# Poissons Ratio (z) = 0.35977 0.23014
#
# Static dielectric constant tensor:
#      x y z
#    x 3.941320 0.000000 0.000000 
#    y 0.000000 3.269110 0.000000 
#    z 0.000000 0.000000 3.427700 
# 
# 
# High freq. dielectric constant tensor:
#      x y z
#    x 1.737060 0.000000 0.000000 
#    y 0.000000 1.683170 0.000000 
#    z 0.000000 0.000000 1.726820 
# 
# From -- ./inp_files/8571.got.cif
#   From: 2010.03.12/outbox.cif.g09.slc.cpg/sg57_5_cif.got.tgz:8571.got - 2010.04.16 15:48:40.
