data_PCOD8231754
_publ_section_title
;
Structure prediction by ZEFSAII (Michael W. Deem and Ramdas Pophale) SiO2 
 PCOD8231754
Probable space group: P B C M
;
_chemical_formula_sum "Si O2"
_cell_formula_units_Z 48
_cell_length_a 13.699476
_cell_length_b 10.066214
_cell_length_c 16.984968
_cell_angle_alpha 90.000000
_cell_angle_beta 90.000000
_cell_angle_gamma 90.000000
_cell_volume 2342.258630
_symmetry_space_group_name_H-M "P B C M"
_symmetry_group_IT_number 57
_symmetry_cell_setting 'orthorhombic'
loop_
_space_group_symop_operation_xyz
x,y,z
-x,-y,1/2+z
x,1/2-y,-z
-x,1/2+y,1/2-z
-x,-y,-z
x,y,1/2-z
-x,1/2+y,z
x,1/2-y,1/2+z
loop_
_atom_site_type_symbol
_atom_site_label
_atom_site_fract_x
_atom_site_fract_y
_atom_site_fract_z
Si Si1 0.360452 0.859196 0.156335
Si Si2 0.577618 0.635626 0.658295
Si Si3 0.276880 0.363735 0.841538
Si Si4 0.276030 0.916118 0.843931
Si Si5 0.077646 0.275405 0.908982
Si Si6 0.062122 0.506255 0.342292
O O1 0.367983 0.852934 0.250000
O O2 0.469770 0.865050 0.120049
O O3 0.304484 0.729531 0.124364
O O4 0.298823 0.987104 0.129749
O O5 0.567333 0.604365 0.750000
O O6 0.625191 0.779349 0.644045
O O7 0.645836 0.520901 0.620917
O O8 0.245748 0.358725 0.750000
O O9 0.191024 0.301887 0.892630
O O10 0.275856 0.922825 0.750000
O O11 0.168868 0.954085 0.875141
O O12 0.017543 0.404685 0.885068
O O13 0.040693 0.147768 0.860386
O O14 0.061321 0.250000 0.000000
O O15 0.053048 0.531108 0.250000
#
# Coordination Sequence:
#
# PCOD8231754 Si02
#       6
#     8   8   8   8   8   8
#     4   9  17  27  49  87 120 148 190 247 301 347
#     4   9  15  28  50  81 119 152 190 246 303 346
#     4  10  19  34  57  85 117 155 199 245 297 360
#     4   9  17  30  50  81 116 148 187 241 295 344
#     4  12  26  43  62  89 123 159 199 252 313 369
#     4  11  23  42  66  90 117 156 204 253 301 363
#
# _framework density 20.493039
#
# number of rings (size 3 to 8) (size 9 to 14) (size 15 to 20)
#    0.000    2.000    1.667    3.000    2.333    4.000 
#    0.000    0.000    0.000    1.000    0.000    0.000 
#    0.000    0.000    0.000    0.000    0.000    0.000 
#
# Total GULP energy -595286.609202 kJ/mol
# GULP energy per Si atom -12401.804358 kJ/mol
# Density = 2.044640 g / cm^3
# Si number density = 20.493039 Si / 1000 Ang^3
#
#
#
# Elastic Constant Matrix: (Units=GPa)
#
#
# Indices 1 2 3 4 5 6 
#
# 1 79.0404 19.6067 11.5730 0.0000 0.0000 0.0000
# 2 19.6067 126.9503 0.0470 0.0000 0.0000 0.0000
# 3 11.5730 0.0470 27.6224 0.0000 0.0000 0.0000
# 4 0.0000 0.0000 0.0000 14.4158 0.0000 0.0000
# 5 0.0000 0.0000 0.0000 0.0000 26.9802 0.0000
# 6 0.0000 0.0000 0.0000 0.0000 0.0000 34.8729
#
#
#
# Elastic Compliance Matrix: (Units=1/GPa)
#
#
# Indices 1 2 3 4 5 6 
#
# 1 0.014051 -0.002168 -0.005883 0.000000 0.000000 0.000000
# 2 -0.002168 0.008212 0.000894 0.000000 0.000000 0.000000
# 3 -0.005883 0.000894 0.038666 0.000000 0.000000 0.000000
# 4 0.000000 0.000000 0.000000 0.069368 0.000000 0.000000
# 5 0.000000 0.000000 0.000000 0.000000 0.037064 0.000000
# 6 0.000000 0.000000 0.000000 0.000000 0.000000 0.028676
#
#
# Mechanical properties :
#
#
# Convention : Reuss Voigt Hill
#
# Bulk Modulus (GPa) = 21.45243 32.89627 27.17435
# Shear Modulus (GPa) = 22.13481 28.74621 25.44051
#
# Velocity S-wave (km/s) = 3.29007 3.74937 3.52720
# Velocity P-wave (km/s) = 4.99236 5.90177 5.46601
#
# Compressibility (1/GPa) = 0.04661477
#
# Stress axis : x y z
#
# Youngs Moduli (GPa) = 71.16963 121.77919 25.86257
#
# Poissons Ratio (x) = 0.26401 0.15216
# Poissons Ratio (y) = 0.15429 -0.02313
# Poissons Ratio (z) = 0.41871 -0.10891
#
# Static dielectric constant tensor:
#      x y z
#    x 3.845930 0.000000 0.000000 
#    y 0.000000 3.959790 0.000000 
#    z 0.000000 0.000000 3.113840 
# 
# 
# High freq. dielectric constant tensor:
#      x y z
#    x 1.811220 0.000000 0.000000 
#    y 0.000000 1.820700 0.000000 
#    z 0.000000 0.000000 1.737150 
# 
# From -- ./inp_files/22434.got.cif
#   From: 2010.03.12/outbox.cif.g09.slc.cpg/sg57_12_cif.got.tgz:22434.got - 2010.04.16 15:48:40.
