data_PCOD8231512
_publ_section_title
;
Structure prediction by ZEFSAII (Michael W. Deem and Ramdas Pophale) SiO2 
 PCOD8231512
Probable space group: P B C M
;
_chemical_formula_sum "Si O2"
_cell_formula_units_Z 64
_cell_length_a 12.135110
_cell_length_b 28.592312
_cell_length_c 9.143875
_cell_angle_alpha 90.000000
_cell_angle_beta 90.000000
_cell_angle_gamma 90.000000
_cell_volume 3172.658093
_symmetry_space_group_name_H-M "P B C M"
_symmetry_group_IT_number 57
_symmetry_cell_setting 'orthorhombic'
loop_
_space_group_symop_operation_xyz
x,y,z
-x,-y,1/2+z
x,1/2-y,-z
-x,1/2+y,1/2-z
-x,-y,-z
x,y,1/2-z
-x,1/2+y,z
x,1/2-y,1/2+z
loop_
_atom_site_type_symbol
_atom_site_label
_atom_site_fract_x
_atom_site_fract_y
_atom_site_fract_z
Si Si1 0.681358 0.363369 0.582554
Si Si2 0.011698 0.927513 0.919664
Si Si3 0.235235 0.445239 0.922494
Si Si4 0.038296 0.338704 0.412062
Si Si5 0.178406 0.705838 0.586339
Si Si6 0.242411 0.964212 0.579471
Si Si7 0.477610 0.298079 0.922521
Si Si8 0.283200 0.150692 0.921889
O O1 0.715210 0.354228 0.750000
O O2 0.775168 0.341670 0.481216
O O3 0.679172 0.419125 0.551549
O O4 0.564734 0.339461 0.546978
O O5 0.030588 0.922862 0.750000
O O6 0.117973 0.954906 0.981219
O O7 0.894945 0.951129 0.958721
O O8 0.011482 0.875223 0.976502
O O9 0.258500 0.439991 0.750000
O O10 0.291181 0.492299 0.986457
O O11 0.285986 0.400624 0.005113
O O12 0.035819 0.361397 0.250000
O O13 0.163934 0.325196 0.448699
O O14 0.955504 0.294507 0.418592
O O15 0.225502 0.750000 0.500000
O O16 0.223149 0.710544 0.750000
O O17 0.241977 0.978062 0.750000
O O18 0.460716 0.289361 0.750000
O O19 0.516568 0.250000 0.000000
O O20 0.364934 0.314609 0.996168
O O21 0.312400 0.146607 0.750000
#
# Coordination Sequence:
#
# PCOD8231512 Si02
#       8
#     8   8   8   8   8   8   8   8
#     4  10  22  40  61  85 116 151 193 242 291 344
#     4   9  17  30  51  78 114 156 195 232 278 334
#     4  10  20  33  53  86 121 157 198 240 286 342
#     4   9  19  34  53  81 114 148 186 231 285 342
#     4  11  22  35  54  81 114 149 186 231 287 351
#     4  10  19  33  54  82 117 158 197 235 286 345
#     4  11  24  43  66  90 113 145 192 245 295 349
#     4  10  21  40  63  86 117 153 194 244 295 345
#
# _framework density 20.172357999999999
#
# number of rings (size 3 to 8) (size 9 to 14) (size 15 to 20)
#    0.000    2.000    1.250    2.250    0.000    5.000 
#    0.000    1.875    0.000    0.000    0.000    0.000 
#    0.000    0.000    0.000    0.000    0.000    0.000 
#
# Total GULP energy -793360.228209 kJ/mol
# GULP energy per Si atom -12396.253566 kJ/mol
# Density = 2.012645 g / cm^3
# Si number density = 20.172358 Si / 1000 Ang^3
#
#
#
# Elastic Constant Matrix: (Units=GPa)
#
#
# Indices 1 2 3 4 5 6 
#
# 1 60.0367 16.6271 29.3644 0.0000 0.0000 0.0000
# 2 16.6271 69.7540 37.2336 0.0000 0.0000 0.0000
# 3 29.3644 37.2336 76.4702 0.0000 0.0000 0.0000
# 4 0.0000 0.0000 0.0000 35.2875 0.0000 0.0000
# 5 0.0000 0.0000 0.0000 0.0000 24.1525 0.0000
# 6 0.0000 0.0000 0.0000 0.0000 0.0000 21.5926
#
#
#
# Elastic Compliance Matrix: (Units=1/GPa)
#
#
# Indices 1 2 3 4 5 6 
#
# 1 0.020553 -0.000927 -0.007441 0.000000 0.000000 0.000000
# 2 -0.000927 0.019412 -0.009096 0.000000 0.000000 0.000000
# 3 -0.007441 -0.009096 0.020363 0.000000 0.000000 0.000000
# 4 0.000000 0.000000 0.000000 0.028339 0.000000 0.000000
# 5 0.000000 0.000000 0.000000 0.000000 0.041404 0.000000
# 6 0.000000 0.000000 0.000000 0.000000 0.000000 0.046312
#
#
# Mechanical properties :
#
#
# Convention : Reuss Voigt Hill
#
# Bulk Modulus (GPa) = 39.36968 41.41235 40.39101
# Shear Modulus (GPa) = 22.75036 24.40890 23.57963
#
# Velocity S-wave (km/s) = 3.36192 3.48230 3.42264
# Velocity P-wave (km/s) = 5.88464 6.06155 5.97375
#
# Compressibility (1/GPa) = 0.02540026
#
# Stress axis : x y z
#
# Youngs Moduli (GPa) = 48.65572 51.51352 49.10882
#
# Poissons Ratio (x) = 0.04777 0.36540
# Poissons Ratio (y) = 0.04512 0.44669
# Poissons Ratio (z) = 0.36203 0.46856
#
# Static dielectric constant tensor:
#      x y z
#    x 3.605860 0.000000 0.000000 
#    y 0.000000 3.515330 0.000000 
#    z 0.000000 0.000000 3.723300 
# 
# 
# High freq. dielectric constant tensor:
#      x y z
#    x 1.772640 0.000000 0.000000 
#    y 0.000000 1.781080 0.000000 
#    z 0.000000 0.000000 1.792910 
# 
# From -- ./inp_files/3857.got.cif
#   From: 2010.03.12/outbox.cif.g09.slc.cpg/sg57_2_cif.got.tgz:3857.got - 2010.04.16 15:48:40.
