data_PCOD8231976
_publ_section_title
;
Structure prediction by ZEFSAII (Michael W. Deem and Ramdas Pophale) SiO2 
 PCOD8231976
Probable space group: P B C M
;
_chemical_formula_sum "Si O2"
_cell_formula_units_Z 48
_cell_length_a 14.187215
_cell_length_b 17.331644
_cell_length_c 10.056942
_cell_angle_alpha 90.000000
_cell_angle_beta 90.000000
_cell_angle_gamma 90.000000
_cell_volume 2472.878938
_symmetry_space_group_name_H-M "P B C M"
_symmetry_group_IT_number 57
_symmetry_cell_setting 'orthorhombic'
loop_
_space_group_symop_operation_xyz
x,y,z
-x,-y,1/2+z
x,1/2-y,-z
-x,1/2+y,1/2-z
-x,-y,-z
x,y,1/2-z
-x,1/2+y,z
x,1/2-y,1/2+z
loop_
_atom_site_type_symbol
_atom_site_label
_atom_site_fract_x
_atom_site_fract_y
_atom_site_fract_z
Si Si1 0.004286 0.927535 0.904643
Si Si2 0.484311 0.348463 0.750000
Si Si3 0.711002 0.318817 0.250000
Si Si4 0.305852 0.635688 0.250000
Si Si5 0.625682 0.658571 0.996222
Si Si6 0.503338 0.834259 0.250000
Si Si7 0.202347 0.422377 0.598879
Si Si8 0.803127 0.097803 0.508722
O O1 0.021804 0.951278 0.750000
O O2 0.902683 0.885387 0.917503
O O3 0.091957 0.876628 0.958942
O O4 0.000000 0.000000 0.000000
O O5 0.585286 0.388572 0.750000
O O6 0.427556 0.375880 0.622389
O O7 0.495351 0.257121 0.750000
O O8 0.705837 0.227311 0.250000
O O9 0.606870 0.358825 0.250000
O O10 0.767395 0.342103 0.381855
O O11 0.263566 0.598008 0.381320
O O12 0.560190 0.632300 0.874849
O O13 0.640004 0.750000 0.000000
O O14 0.728894 0.619587 0.993748
O O15 0.237528 0.408419 0.750000
O O16 0.197749 0.513231 0.571961
#
# Coordination Sequence:
#
# PCOD8231976 Si02
#       8
#     8   4   4   4   8   4   8   8
#     4   9  19  36  60  84 112 151 189 225 279 352
#     4   9  18  35  58  77 110 158 193 223 290 355
#     4  11  22  39  59  83 120 160 192 231 297 343
#     4  11  22  37  59  87 114 152 198 249 277 337
#     4  10  19  36  59  83 111 150 193 237 283 343
#     4   9  20  35  54  83 114 150 199 231 270 355
#     4  10  20  38  62  84 115 154 187 234 296 346
#     4  11  21  38  59  87 117 151 198 236 286 346
#
# _framework density 19.410574
#
# number of rings (size 3 to 8) (size 9 to 14) (size 15 to 20)
#    0.000    2.000    2.500    1.500    1.167    3.333 
#    1.500    6.667    0.000    0.000    0.000    0.000 
#    0.000    0.000    0.000    0.000    0.000    0.000 
#
# Total GULP energy -594947.803536 kJ/mol
# GULP energy per Si atom -12394.745907 kJ/mol
# Density = 1.936640 g / cm^3
# Si number density = 19.410574 Si / 1000 Ang^3
#
#
#
# Elastic Constant Matrix: (Units=GPa)
#
#
# Indices 1 2 3 4 5 6 
#
# 1 168.8035 22.7776 65.0398 0.0000 0.0000 0.0000
# 2 22.7776 24.0528 4.6424 0.0000 0.0000 0.0000
# 3 65.0398 4.6424 135.4001 0.0000 0.0000 0.0000
# 4 0.0000 0.0000 0.0000 14.9080 0.0000 0.0000
# 5 0.0000 0.0000 0.0000 0.0000 28.2232 0.0000
# 6 0.0000 0.0000 0.0000 0.0000 0.0000 27.6000
#
#
#
# Elastic Compliance Matrix: (Units=1/GPa)
#
#
# Indices 1 2 3 4 5 6 
#
# 1 0.008341 -0.007173 -0.003761 0.000000 0.000000 0.000000
# 2 -0.007173 0.048020 0.001799 0.000000 0.000000 0.000000
# 3 -0.003761 0.001799 0.009130 0.000000 0.000000 0.000000
# 4 0.000000 0.000000 0.000000 0.067078 0.000000 0.000000
# 5 0.000000 0.000000 0.000000 0.000000 0.035432 0.000000
# 6 0.000000 0.000000 0.000000 0.000000 0.000000 0.036232
#
#
# Mechanical properties :
#
#
# Convention : Reuss Voigt Hill
#
# Bulk Modulus (GPa) = 21.17622 57.01955 39.09788
# Shear Modulus (GPa) = 20.98694 29.86601 25.42647
#
# Velocity S-wave (km/s) = 3.29175 3.92681 3.62322
# Velocity P-wave (km/s) = 5.03793 7.07100 6.13921
#
# Compressibility (1/GPa) = 0.04722279
#
# Stress axis : x y z
#
# Youngs Moduli (GPa) = 119.89125 20.82444 109.52576
#
# Poissons Ratio (x) = 0.14937 0.41189
# Poissons Ratio (y) = 0.85996 -0.19704
# Poissons Ratio (z) = 0.45087 -0.03746
#
# Static dielectric constant tensor:
#      x y z
#    x 4.165190 0.000000 0.000000 
#    y 0.000000 3.031590 0.000000 
#    z 0.000000 0.000000 4.764290 
# 
# 
# High freq. dielectric constant tensor:
#      x y z
#    x 1.779870 0.000000 0.000000 
#    y 0.000000 1.707120 0.000000 
#    z 0.000000 0.000000 1.771220 
# 
# From -- ./inp_files/4968.got.cif
#   From: 2010.03.12/outbox.cif.g09.slc.cpg/sg57_3_cif.got.tgz:4968.got - 2010.04.16 15:48:40.
