data_PCOD8231315
_publ_section_title
;
Structure prediction by ZEFSAII (Michael W. Deem and Ramdas Pophale) SiO2 
 PCOD8231315
Probable space group: P B C M
;
_chemical_formula_sum "Si O2"
_cell_formula_units_Z 48
_cell_length_a 9.653195
_cell_length_b 18.379216
_cell_length_c 14.061623
_cell_angle_alpha 90.000000
_cell_angle_beta 90.000000
_cell_angle_gamma 90.000000
_cell_volume 2494.787223
_symmetry_space_group_name_H-M "P B C M"
_symmetry_group_IT_number 57
_symmetry_cell_setting 'orthorhombic'
loop_
_space_group_symop_operation_xyz
x,y,z
-x,-y,1/2+z
x,1/2-y,-z
-x,1/2+y,1/2-z
-x,-y,-z
x,y,1/2-z
-x,1/2+y,z
x,1/2-y,1/2+z
loop_
_atom_site_type_symbol
_atom_site_label
_atom_site_fract_x
_atom_site_fract_y
_atom_site_fract_z
Si Si1 0.846244 0.081174 0.359525
Si Si2 0.934091 0.667770 0.030582
Si Si3 0.567771 0.075209 0.030281
Si Si4 0.960656 0.924082 0.355108
Si Si5 0.313152 0.106981 0.359697
Si Si6 0.722284 0.436610 0.354166
O O1 0.842969 0.106373 0.250000
O O2 0.690735 0.065024 0.393764
O O3 0.920760 0.142352 0.423130
O O4 0.936425 0.008900 0.373404
O O5 0.811557 0.658484 0.106825
O O6 0.953680 0.750000 0.000000
O O7 0.887901 0.622602 0.936959
O O8 0.450676 0.125842 0.078278
O O9 0.630838 0.107235 0.931849
O O10 0.500000 0.000000 0.000000
O O11 0.903224 0.902617 0.250000
O O12 0.123034 0.906804 0.360417
O O13 0.343966 0.124533 0.250000
O O14 0.273102 0.022831 0.374360
O O15 0.658229 0.421256 0.250000
#
# Coordination Sequence:
#
# PCOD8231315 Si02
#       6
#     8   8   8   8   8   8
#     4  11  21  37  63  90 118 154 204 252 299 361
#     4  12  24  38  58  86 117 162 199 252 300 358
#     4  10  19  32  57  91 121 150 192 250 295 358
#     4  10  19  34  59  88 115 147 194 250 301 348
#     4  10  20  36  56  82 117 156 192 235 298 357
#     4   9  16  30  56  87 118 149 184 238 297 345
#
# _framework density 19.240117999999999
#
# number of rings (size 3 to 8) (size 9 to 14) (size 15 to 20)
#    0.000    1.667    3.333    3.500    0.000    2.000 
#    0.000    1.667    0.000    0.000    0.000    0.000 
#    0.000    0.000    0.000    0.000    0.000    0.000 
#
# Total GULP energy -595048.425196 kJ/mol
# GULP energy per Si atom -12396.842192 kJ/mol
# Density = 1.919633 g / cm^3
# Si number density = 19.240118 Si / 1000 Ang^3
#
#
#
# Elastic Constant Matrix: (Units=GPa)
#
#
# Indices 1 2 3 4 5 6 
#
# 1 99.2829 20.1400 41.3380 0.0000 0.0000 0.0000
# 2 20.1400 57.5541 45.5367 0.0000 0.0000 0.0000
# 3 41.3380 45.5367 139.1850 0.0000 0.0000 0.0000
# 4 0.0000 0.0000 0.0000 18.7237 0.0000 0.0000
# 5 0.0000 0.0000 0.0000 0.0000 35.7843 0.0000
# 6 0.0000 0.0000 0.0000 0.0000 0.0000 10.7174
#
#
#
# Elastic Compliance Matrix: (Units=1/GPa)
#
#
# Indices 1 2 3 4 5 6 
#
# 1 0.011631 -0.001804 -0.002864 0.000000 0.000000 0.000000
# 2 -0.001804 0.023723 -0.007226 0.000000 0.000000 0.000000
# 3 -0.002864 -0.007226 0.010399 0.000000 0.000000 0.000000
# 4 0.000000 0.000000 0.000000 0.053408 0.000000 0.000000
# 5 0.000000 0.000000 0.000000 0.000000 0.027945 0.000000
# 6 0.000000 0.000000 0.000000 0.000000 0.000000 0.093306
#
#
# Mechanical properties :
#
#
# Convention : Reuss Voigt Hill
#
# Bulk Modulus (GPa) = 45.52532 56.67241 51.09886
# Shear Modulus (GPa) = 19.87899 25.64557 22.76228
#
# Velocity S-wave (km/s) = 3.21784 3.65488 3.44330
# Velocity P-wave (km/s) = 6.12528 6.87969 6.51342
#
# Compressibility (1/GPa) = 0.02196580
#
# Stress axis : x y z
#
# Youngs Moduli (GPa) = 85.97949 42.15296 96.15993
#
# Poissons Ratio (x) = 0.07604 0.27542
# Poissons Ratio (y) = 0.15509 0.69482
# Poissons Ratio (z) = 0.24626 0.30458
#
# Static dielectric constant tensor:
#      x y z
#    x 3.688700 0.000000 0.000000 
#    y 0.000000 2.908060 0.000000 
#    z 0.000000 0.000000 4.130670 
# 
# 
# High freq. dielectric constant tensor:
#      x y z
#    x 1.749990 0.000000 0.000000 
#    y 0.000000 1.679740 0.000000 
#    z 0.000000 0.000000 1.779300 
# 
# From -- ./inp_files/16394.got.cif
#   From: 2010.03.12/outbox.cif.g09.slc.cpg/sg57_9_cif.got.tgz:16394.got - 2010.04.16 15:48:40.
