data_PCOD8231766
_publ_section_title
;
Structure prediction by ZEFSAII (Michael W. Deem and Ramdas Pophale) SiO2 
 PCOD8231766
Probable space group: P B C M
;
_chemical_formula_sum "Si O2"
_cell_formula_units_Z 40
_cell_length_a 11.129295
_cell_length_b 9.025980
_cell_length_c 20.842490
_cell_angle_alpha 90.000000
_cell_angle_beta 90.000000
_cell_angle_gamma 90.000000
_cell_volume 2093.686356
_symmetry_space_group_name_H-M "P B C M"
_symmetry_group_IT_number 57
_symmetry_cell_setting 'orthorhombic'
loop_
_space_group_symop_operation_xyz
x,y,z
-x,-y,1/2+z
x,1/2-y,-z
-x,1/2+y,1/2-z
-x,-y,-z
x,y,1/2-z
-x,1/2+y,z
x,1/2-y,1/2+z
loop_
_atom_site_type_symbol
_atom_site_label
_atom_site_fract_x
_atom_site_fract_y
_atom_site_fract_z
Si Si1 0.599602 0.894564 0.675735
Si Si2 0.834751 0.229796 0.068983
Si Si3 0.150342 0.212457 0.324998
Si Si4 0.012995 0.027063 0.612510
Si Si5 0.636299 0.236836 0.825201
O O1 0.598089 0.853101 0.750000
O O2 0.718127 0.820569 0.643774
O O3 0.475637 0.830991 0.647410
O O4 0.601687 0.068120 0.663875
O O5 0.749227 0.222104 0.130741
O O6 0.923712 0.369538 0.072853
O O7 0.909967 0.077317 0.065564
O O8 0.767443 0.250000 0.000000
O O9 0.166132 0.218731 0.250000
O O10 0.104340 0.370612 0.348037
O O11 0.060453 0.078081 0.339522
O O12 0.667830 0.268925 0.750000
#
# Coordination Sequence:
#
# PCOD8231766 Si02
#       5
#     8   8   8   8   8
#     4   9  19  35  57  83 117 152 187 235 291 344
#     4  11  23  41  61  84 118 156 198 242 293 350
#     4  10  19  34  57  90 120 147 189 244 292 345
#     4  10  22  36  58  83 117 157 194 235 296 353
#     4  10  21  38  61  85 114 152 196 241 289 344
#
# _framework density 19.105058
#
# number of rings (size 3 to 8) (size 9 to 14) (size 15 to 20)
#    0.000    2.000    2.000    1.200    2.800    4.000 
#    0.000    1.000    0.000    0.000    0.000    0.000 
#    0.000    0.000    0.000    0.000    0.000    0.000 
#
# Total GULP energy -495820.045860 kJ/mol
# GULP energy per Si atom -12395.501147 kJ/mol
# Density = 1.906157 g / cm^3
# Si number density = 19.105058 Si / 1000 Ang^3
#
#
#
# Elastic Constant Matrix: (Units=GPa)
#
#
# Indices 1 2 3 4 5 6 
#
# 1 116.6085 48.6642 40.2822 0.0000 0.0000 0.0000
# 2 48.6642 108.2414 28.0558 0.0000 0.0000 0.0000
# 3 40.2822 28.0558 77.0602 0.0000 0.0000 0.0000
# 4 0.0000 0.0000 0.0000 5.8079 0.0000 0.0000
# 5 0.0000 0.0000 0.0000 0.0000 14.4042 0.0000
# 6 0.0000 0.0000 0.0000 0.0000 0.0000 18.9972
#
#
#
# Elastic Compliance Matrix: (Units=1/GPa)
#
#
# Indices 1 2 3 4 5 6 
#
# 1 0.011939 -0.004141 -0.004733 0.000000 0.000000 0.000000
# 2 -0.004141 0.011637 -0.002072 0.000000 0.000000 0.000000
# 3 -0.004733 -0.002072 0.016206 0.000000 0.000000 0.000000
# 4 0.000000 0.000000 0.000000 0.172179 0.000000 0.000000
# 5 0.000000 0.000000 0.000000 0.000000 0.069424 0.000000
# 6 0.000000 0.000000 0.000000 0.000000 0.000000 0.052639
#
#
# Mechanical properties :
#
#
# Convention : Reuss Voigt Hill
#
# Bulk Modulus (GPa) = 55.90026 59.54607 57.72316
# Shear Modulus (GPa) = 13.81673 20.16905 16.99289
#
# Velocity S-wave (km/s) = 2.69215 3.25267 2.98559
# Velocity P-wave (km/s) = 6.24392 6.73363 6.49339
#
# Compressibility (1/GPa) = 0.01788901
#
# Stress axis : x y z
#
# Youngs Moduli (GPa) = 83.75994 85.92983 61.70679
#
# Poissons Ratio (x) = 0.35581 0.29208
# Poissons Ratio (y) = 0.34683 0.12788
# Poissons Ratio (z) = 0.39646 0.17808
#
# Static dielectric constant tensor:
#      x y z
#    x 3.889920 0.000000 0.000000 
#    y 0.000000 1.455600 0.000000 
#    z 0.000000 0.000000 3.143040 
# 
# 
# High freq. dielectric constant tensor:
#      x y z
#    x 1.748280 0.000000 0.000000 
#    y 0.000000 1.759190 0.000000 
#    z 0.000000 0.000000 1.708790 
# 
# From -- ./inp_files/21571.got.cif
#   From: 2010.03.12/outbox.cif.g09.slc.cpg/sg57_11_cif.got.tgz:21571.got - 2010.04.16 15:48:40.
