data_PCOD8231461
_publ_section_title
;
Structure prediction by ZEFSAII (Michael W. Deem and Ramdas Pophale) SiO2 
 PCOD8231461
Probable space group: P B C M
;
_chemical_formula_sum "Si O2"
_cell_formula_units_Z 40
_cell_length_a 11.392733
_cell_length_b 21.504600
_cell_length_c 8.875978
_cell_angle_alpha 90.000000
_cell_angle_beta 90.000000
_cell_angle_gamma 90.000000
_cell_volume 2174.580580
_symmetry_space_group_name_H-M "P B C M"
_symmetry_group_IT_number 57
_symmetry_cell_setting 'orthorhombic'
loop_
_space_group_symop_operation_xyz
x,y,z
-x,-y,1/2+z
x,1/2-y,-z
-x,1/2+y,1/2-z
-x,-y,-z
x,y,1/2-z
-x,1/2+y,z
x,1/2-y,1/2+z
loop_
_atom_site_type_symbol
_atom_site_label
_atom_site_fract_x
_atom_site_fract_y
_atom_site_fract_z
Si Si1 0.068191 0.586491 0.581904
Si Si2 0.466593 0.815713 0.570459
Si Si3 0.565205 0.559289 0.927151
Si Si4 0.799973 0.189252 0.076777
Si Si5 0.169649 0.472866 0.080529
O O1 0.106631 0.606307 0.750000
O O2 0.110449 0.635052 0.459600
O O3 0.133625 0.522458 0.544524
O O4 0.927226 0.581746 0.571674
O O5 0.512141 0.750000 0.500000
O O6 0.484759 0.813879 0.750000
O O7 0.532088 0.875269 0.502497
O O8 0.331568 0.825990 0.521739
O O9 0.535571 0.560729 0.750000
O O10 0.703413 0.553729 0.958062
O O11 0.500000 0.500000 0.000000
O O12 0.798113 0.203054 0.250000
O O13 0.851486 0.250000 0.000000
O O14 0.169108 0.501968 0.250000
#
# Coordination Sequence:
#
# PCOD8231461 Si02
#       5
#     8   8   8   8   8
#     4  10  19  33  54  77 102 133 170 211 256 305
#     4  10  21  37  56  79 108 141 177 218 266 317
#     4  11  22  36  55  80 110 142 179 221 264 313
#     4  10  20  34  53  77 104 133 168 211 256 304
#     4   9  20  36  52  74 105 138 170 209 257 306
#
# _framework density 18.394352000000001
#
# number of rings (size 3 to 8) (size 9 to 14) (size 15 to 20)
#    0.000    2.000    0.000    3.600    0.000    9.600 
#    0.000    1.000    0.000    0.000    0.000    0.000 
#    0.000    0.000    0.000    0.000    0.000    0.000 
#
# Total GULP energy -495911.176196 kJ/mol
# GULP energy per Si atom -12397.779405 kJ/mol
# Density = 1.835249 g / cm^3
# Si number density = 18.394352 Si / 1000 Ang^3
#
#
#
# Elastic Constant Matrix: (Units=GPa)
#
#
# Indices 1 2 3 4 5 6 
#
# 1 107.5331 60.1635 44.1390 0.0000 0.0000 0.0000
# 2 60.1635 121.3937 43.5158 0.0000 0.0000 0.0000
# 3 44.1390 43.5158 74.6804 0.0000 0.0000 0.0000
# 4 0.0000 0.0000 0.0000 40.0606 0.0000 0.0000
# 5 0.0000 0.0000 0.0000 0.0000 20.6152 0.0000
# 6 0.0000 0.0000 0.0000 0.0000 0.0000 9.1169
#
#
#
# Elastic Compliance Matrix: (Units=1/GPa)
#
#
# Indices 1 2 3 4 5 6 
#
# 1 0.014473 -0.005191 -0.005530 0.000000 0.000000 0.000000
# 2 -0.005191 0.012274 -0.004084 0.000000 0.000000 0.000000
# 3 -0.005530 -0.004084 0.019038 0.000000 0.000000 0.000000
# 4 0.000000 0.000000 0.000000 0.024962 0.000000 0.000000
# 5 0.000000 0.000000 0.000000 0.000000 0.048508 0.000000
# 6 0.000000 0.000000 0.000000 0.000000 0.000000 0.109687
#
#
# Mechanical properties :
#
#
# Convention : Reuss Voigt Hill
#
# Bulk Modulus (GPa) = 61.81697 66.58267 64.19982
# Shear Modulus (GPa) = 18.94335 24.34447 21.64391
#
# Velocity S-wave (km/s) = 3.21260 3.64191 3.43397
# Velocity P-wave (km/s) = 6.88771 7.34579 7.12043
#
# Compressibility (1/GPa) = 0.01617679
#
# Stress axis : x y z
#
# Youngs Moduli (GPa) = 69.09185 81.47062 52.52532
#
# Poissons Ratio (x) = 0.42291 0.29045
# Poissons Ratio (y) = 0.35865 0.21452
# Poissons Ratio (z) = 0.38205 0.33274
#
# Static dielectric constant tensor:
#      x y z
#    x 3.446910 0.000000 0.000000 
#    y 0.000000 6.091150 0.000000 
#    z 0.000000 0.000000 3.513200 
# 
# 
# High freq. dielectric constant tensor:
#      x y z
#    x 1.707310 0.000000 0.000000 
#    y 0.000000 1.708160 0.000000 
#    z 0.000000 0.000000 1.730010 
# 
# From -- ./inp_files/2675.got.cif
#   From: 2010.03.12/outbox.cif.g09.slc.cpg/sg57_2_cif.got.tgz:2675.got - 2010.04.16 15:48:40.
