data_PCOD8231729
_publ_section_title
;
Structure prediction by ZEFSAII (Michael W. Deem and Ramdas Pophale) SiO2 
 PCOD8231729
Probable space group: P B C M
;
_chemical_formula_sum "Si O2"
_cell_formula_units_Z 60
_cell_length_a 13.795321
_cell_length_b 9.891221
_cell_length_c 24.261359
_cell_angle_alpha 90.000000
_cell_angle_beta 90.000000
_cell_angle_gamma 90.000000
_cell_volume 3310.524758
_symmetry_space_group_name_H-M "P B C M"
_symmetry_group_IT_number 57
_symmetry_cell_setting 'orthorhombic'
loop_
_space_group_symop_operation_xyz
x,y,z
-x,-y,1/2+z
x,1/2-y,-z
-x,1/2+y,1/2-z
-x,-y,-z
x,y,1/2-z
-x,1/2+y,z
x,1/2-y,1/2+z
loop_
_atom_site_type_symbol
_atom_site_label
_atom_site_fract_x
_atom_site_fract_y
_atom_site_fract_z
Si Si1 0.274076 0.750000 0.000000
Si Si2 0.370133 0.446117 0.113619
Si Si3 0.401624 0.513474 0.876911
Si Si4 0.612089 0.981557 0.503818
Si Si5 0.916726 0.306056 0.184466
Si Si6 0.732888 0.231255 0.381363
Si Si7 0.295235 0.203635 0.314586
Si Si8 0.084822 0.389061 0.684602
O O1 0.344649 0.873705 0.992533
O O2 0.215571 0.744416 0.941994
O O3 0.483456 0.468113 0.125773
O O4 0.354720 0.392767 0.049589
O O5 0.312727 0.583868 0.125393
O O6 0.327536 0.337770 0.154842
O O7 0.352701 0.660316 0.872502
O O8 0.368267 0.419777 0.826557
O O9 0.365293 0.435202 0.933430
O O10 0.500000 0.000000 0.500000
O O11 0.914150 0.303163 0.250000
O O12 0.814671 0.248625 0.164262
O O13 0.933646 0.458776 0.162566
O O14 0.002486 0.211049 0.161092
O O15 0.295863 0.233855 0.250000
O O16 0.188733 0.162815 0.336194
O O17 0.082170 0.389468 0.750000
#
# Coordination Sequence:
#
# PCOD8231729 Si02
#       8
#     4   8   8   8   8   8   8   8
#     4   8  16  30  48  76 108 138 168 218 276 312
#     4  10  21  34  53  83 112 145 184 219 263 316
#     4  10  19  36  57  77 109 149 186 222 263 310
#     4   8  16  30  52  77 101 135 186 234 258 292
#     4  10  20  36  60  81  99 131 180 231 274 318
#     4  10  19  34  57  80 107 144 181 219 269 328
#     4  11  23  37  51  77 118 146 173 224 272 318
#     4   9  20  37  56  80 103 131 177 230 274 311
#
# _framework density 18.124015
#
# number of rings (size 3 to 8) (size 9 to 14) (size 15 to 20)
#    0.000    2.400    1.333    0.800    1.867    4.800 
#    0.000    1.333    0.000    2.400    0.000    0.000 
#    0.000    0.000    0.000    0.000    0.000    0.000 
#
# Total GULP energy -743327.583900 kJ/mol
# GULP energy per Si atom -12388.793065 kJ/mol
# Density = 1.808276 g / cm^3
# Si number density = 18.124015 Si / 1000 Ang^3
#
#
#
# Elastic Constant Matrix: (Units=GPa)
#
#
# Indices 1 2 3 4 5 6 
#
# 1 104.2590 48.9984 26.9392 0.0000 0.0000 0.0000
# 2 48.9984 103.4527 33.2619 0.0000 0.0000 0.0000
# 3 26.9392 33.2619 58.4154 0.0000 0.0000 0.0000
# 4 0.0000 0.0000 0.0000 23.8641 0.0000 0.0000
# 5 0.0000 0.0000 0.0000 0.0000 16.7238 0.0000
# 6 0.0000 0.0000 0.0000 0.0000 0.0000 36.0062
#
#
#
# Elastic Compliance Matrix: (Units=1/GPa)
#
#
# Indices 1 2 3 4 5 6 
#
# 1 0.012750 -0.005078 -0.002989 0.000000 0.000000 0.000000
# 2 -0.005078 0.013855 -0.005547 0.000000 0.000000 0.000000
# 3 -0.002989 -0.005547 0.021656 0.000000 0.000000 0.000000
# 4 0.000000 0.000000 0.000000 0.041904 0.000000 0.000000
# 5 0.000000 0.000000 0.000000 0.000000 0.059795 0.000000
# 6 0.000000 0.000000 0.000000 0.000000 0.000000 0.027773
#
#
# Mechanical properties :
#
#
# Convention : Reuss Voigt Hill
#
# Bulk Modulus (GPa) = 47.54393 53.83623 50.69008
# Shear Modulus (GPa) = 23.58813 25.78066 24.68439
#
# Velocity S-wave (km/s) = 3.61152 3.77564 3.69449
# Velocity P-wave (km/s) = 6.60911 6.98399 6.79913
#
# Compressibility (1/GPa) = 0.02103318
#
# Stress axis : x y z
#
# Youngs Moduli (GPa) = 78.43003 72.17662 46.17747
#
# Poissons Ratio (x) = 0.36652 0.13800
# Poissons Ratio (y) = 0.39827 0.25616
# Poissons Ratio (z) = 0.23439 0.40038
#
# Static dielectric constant tensor:
#      x y z
#    x 3.257120 0.000000 0.000000 
#    y 0.000000 3.430440 0.000000 
#    z 0.000000 0.000000 3.678230 
# 
# 
# High freq. dielectric constant tensor:
#      x y z
#    x 1.684200 0.000000 0.000000 
#    y 0.000000 1.708190 0.000000 
#    z 0.000000 0.000000 1.698200 
# 
# From -- ./inp_files/27437.got.cif
#   From: 2010.03.12/outbox.cif.g09.slc.cpg/sg57_14_cif.got.tgz:27437.got - 2010.04.16 15:48:40.
