data_PCOD8231404
_publ_section_title
;
Structure prediction by ZEFSAII (Michael W. Deem and Ramdas Pophale) SiO2 
 PCOD8231404
Probable space group: P B C M
;
_chemical_formula_sum "Si O2"
_cell_formula_units_Z 48
_cell_length_a 9.191758
_cell_length_b 16.726353
_cell_length_c 17.313770
_cell_angle_alpha 90.000000
_cell_angle_beta 90.000000
_cell_angle_gamma 90.000000
_cell_volume 2661.898453
_symmetry_space_group_name_H-M "P B C M"
_symmetry_group_IT_number 57
_symmetry_cell_setting 'orthorhombic'
loop_
_space_group_symop_operation_xyz
x,y,z
-x,-y,1/2+z
x,1/2-y,-z
-x,1/2+y,1/2-z
-x,-y,-z
x,y,1/2-z
-x,1/2+y,z
x,1/2-y,1/2+z
loop_
_atom_site_type_symbol
_atom_site_label
_atom_site_fract_x
_atom_site_fract_y
_atom_site_fract_z
Si Si1 0.346985 0.054138 0.840929
Si Si2 0.655800 0.387062 0.906261
Si Si3 0.443081 0.281354 0.837619
Si Si4 0.402851 0.641540 0.584234
Si Si5 0.852367 0.242201 0.590386
Si Si6 0.844974 0.706256 0.662845
O O1 0.348574 0.040651 0.750000
O O2 0.512634 0.073000 0.868415
O O3 0.236451 0.125235 0.864472
O O4 0.290054 0.975395 0.884457
O O5 0.509715 0.368399 0.855778
O O6 0.782277 0.325162 0.878405
O O7 0.610625 0.383800 0.995511
O O8 0.483044 0.252557 0.750000
O O9 0.508144 0.223762 0.903872
O O10 0.268118 0.280131 0.844989
O O11 0.241262 0.663800 0.616931
O O12 0.839982 0.250000 0.500000
O O13 0.018252 0.228900 0.611769
O O14 0.900440 0.695971 0.750000
#
# Coordination Sequence:
#
# PCOD8231404 Si02
#       6
#     8   8   8   8   8   8
#     4  10  20  34  51  74 101 133 169 207 251 301
#     4  10  19  33  53  77 101 128 167 215 255 290
#     4   9  17  31  51  75  99 130 170 210 249 298
#     4   9  18  33  51  73 100 131 166 201 246 305
#     4   9  19  34  52  75 100 130 169 205 246 300
#     4   9  19  33  49  70 100 134 166 198 247 306
#
# _framework density 18.032242
#
# number of rings (size 3 to 8) (size 9 to 14) (size 15 to 20)
#    0.000    2.667    0.000    4.000    0.000    6.667 
#    0.000    5.000    0.000    2.000    0.000    0.000 
#    0.000    0.000    0.000    0.000    0.000    0.000 
#
# Total GULP energy -594659.117965 kJ/mol
# GULP energy per Si atom -12388.731624 kJ/mol
# Density = 1.799120 g / cm^3
# Si number density = 18.032242 Si / 1000 Ang^3
#
#
#
# Elastic Constant Matrix: (Units=GPa)
#
#
# Indices 1 2 3 4 5 6 
#
# 1 108.1213 36.3206 22.3122 0.0000 0.0000 0.0000
# 2 36.3206 71.8807 8.2496 0.0000 0.0000 0.0000
# 3 22.3122 8.2496 36.4777 0.0000 0.0000 0.0000
# 4 0.0000 0.0000 0.0000 11.0467 0.0000 0.0000
# 5 0.0000 0.0000 0.0000 0.0000 29.7689 0.0000
# 6 0.0000 0.0000 0.0000 0.0000 0.0000 20.0044
#
#
#
# Elastic Compliance Matrix: (Units=1/GPa)
#
#
# Indices 1 2 3 4 5 6 
#
# 1 0.012422 -0.005549 -0.006343 0.000000 0.000000 0.000000
# 2 -0.005549 0.016761 -0.000397 0.000000 0.000000 0.000000
# 3 -0.006343 -0.000397 0.031384 0.000000 0.000000 0.000000
# 4 0.000000 0.000000 0.000000 0.090525 0.000000 0.000000
# 5 0.000000 0.000000 0.000000 0.000000 0.033592 0.000000
# 6 0.000000 0.000000 0.000000 0.000000 0.000000 0.049989
#
#
# Mechanical properties :
#
#
# Convention : Reuss Voigt Hill
#
# Bulk Modulus (GPa) = 27.78580 38.91605 33.35093
# Shear Modulus (GPa) = 18.43347 22.13717 20.28532
#
# Velocity S-wave (km/s) = 3.20073 3.50758 3.35766
# Velocity P-wave (km/s) = 5.39463 6.16704 5.79372
#
# Compressibility (1/GPa) = 0.03598961
#
# Stress axis : x y z
#
# Youngs Moduli (GPa) = 80.50386 59.66191 31.86374
#
# Poissons Ratio (x) = 0.33104 0.20212
# Poissons Ratio (y) = 0.44668 0.01264
# Poissons Ratio (z) = 0.51065 0.02367
#
# Static dielectric constant tensor:
#      x y z
#    x 3.355800 0.000000 0.000000 
#    y 0.000000 3.337720 0.000000 
#    z 0.000000 0.000000 3.275020 
# 
# 
# High freq. dielectric constant tensor:
#      x y z
#    x 1.688060 0.000000 0.000000 
#    y 0.000000 1.679560 0.000000 
#    z 0.000000 0.000000 1.700080 
# 
# From -- ./inp_files/16381.got.cif
#   From: 2010.03.12/outbox.cif.g09.slc.cpg/sg57_9_cif.got.tgz:16381.got - 2010.04.16 15:48:40.
