data_PCOD8231551
_publ_section_title
;
Structure prediction by ZEFSAII (Michael W. Deem and Ramdas Pophale) SiO2 
 PCOD8231551
Probable space group: P B C M
;
_chemical_formula_sum "Si O2"
_cell_formula_units_Z 64
_cell_length_a 23.695017
_cell_length_b 8.955791
_cell_length_c 15.161528
_cell_angle_alpha 90.000000
_cell_angle_beta 90.000000
_cell_angle_gamma 90.000000
_cell_volume 3217.391772
_symmetry_space_group_name_H-M "P B C M"
_symmetry_group_IT_number 57
_symmetry_cell_setting 'orthorhombic'
loop_
_space_group_symop_operation_xyz
x,y,z
-x,-y,1/2+z
x,1/2-y,-z
-x,1/2+y,1/2-z
-x,-y,-z
x,y,1/2-z
-x,1/2+y,z
x,1/2-y,1/2+z
loop_
_atom_site_type_symbol
_atom_site_label
_atom_site_fract_x
_atom_site_fract_y
_atom_site_fract_z
Si Si1 0.443173 0.118512 0.152100
Si Si2 0.938047 0.674540 0.093192
Si Si3 0.963585 0.512007 0.849029
Si Si4 0.468841 0.067371 0.584593
Si Si5 0.359814 0.422554 0.996346
Si Si6 0.758037 0.075574 0.493782
Si Si7 0.165100 0.526971 0.649405
Si Si8 0.846998 0.127125 0.351852
O O1 0.422675 0.166044 0.250000
O O2 0.469183 0.253822 0.094657
O O3 0.495896 0.003711 0.165175
O O4 0.390065 0.046772 0.098819
O O5 0.883379 0.594272 0.133157
O O6 0.987077 0.549481 0.087380
O O7 0.960607 0.808564 0.154269
O O8 0.923847 0.750000 0.000000
O O9 0.975959 0.455197 0.750000
O O10 0.904495 0.448476 0.884692
O O11 0.402547 0.026491 0.574946
O O12 0.500000 0.000000 0.500000
O O13 0.343523 0.250000 0.000000
O O14 0.303994 0.512736 0.016513
O O15 0.750797 0.250000 0.500000
O O16 0.784073 0.998527 0.581269
O O17 0.797615 0.048337 0.408528
O O18 0.186842 0.509868 0.750000
O O19 0.144358 0.696277 0.631872
O O20 0.833812 0.091488 0.250000
#
# Coordination Sequence:
#
# PCOD8231551 Si02
#       8
#     8   8   8   8   8   8   8   8
#     4  10  19  33  55  84 115 146 189 239 284 336
#     4  12  24  37  56  85 115 145 184 232 286 348
#     4  11  22  37  57  81 111 145 182 226 283 348
#     4   9  18  34  54  78 111 151 187 227 284 344
#     4   9  20  36  53  75 110 151 184 222 280 338
#     4  10  21  37  58  82 109 146 193 239 282 335
#     4  10  21  39  60  81 111 150 190 236 291 345
#     4   9  20  39  60  82 111 148 190 239 291 342
#
# _framework density 19.891888000000002
#
# number of rings (size 3 to 8) (size 9 to 14) (size 15 to 20)
#    0.000    2.000    0.000    4.500    0.000    6.500 
#    0.000    3.125    0.000    1.500    0.000    0.000 
#    0.000    0.000    0.000    0.000    0.000    0.000 
#
# Total GULP energy -793062.109444 kJ/mol
# GULP energy per Si atom -12391.595460 kJ/mol
# Density = 1.984661 g / cm^3
# Si number density = 19.891888 Si / 1000 Ang^3
#
#
#
# Elastic Constant Matrix: (Units=GPa)
#
#
# Indices 1 2 3 4 5 6 
#
# 1 120.4845 39.8543 23.8169 0.0000 0.0000 0.0000
# 2 39.8543 60.3137 12.2236 0.0000 0.0000 0.0000
# 3 23.8169 12.2236 78.8959 0.0000 0.0000 0.0000
# 4 0.0000 0.0000 0.0000 22.5014 0.0000 0.0000
# 5 0.0000 0.0000 0.0000 0.0000 22.7974 0.0000
# 6 0.0000 0.0000 0.0000 0.0000 0.0000 40.7471
#
#
#
# Elastic Compliance Matrix: (Units=1/GPa)
#
#
# Indices 1 2 3 4 5 6 
#
# 1 0.011000 -0.006810 -0.002266 0.000000 0.000000 0.000000
# 2 -0.006810 0.021333 -0.001250 0.000000 0.000000 0.000000
# 3 -0.002266 -0.001250 0.013552 0.000000 0.000000 0.000000
# 4 0.000000 0.000000 0.000000 0.044442 0.000000 0.000000
# 5 0.000000 0.000000 0.000000 0.000000 0.043865 0.000000
# 6 0.000000 0.000000 0.000000 0.000000 0.000000 0.024542
#
#
# Mechanical properties :
#
#
# Convention : Reuss Voigt Hill
#
# Bulk Modulus (GPa) = 39.62592 45.72041 42.67317
# Shear Modulus (GPa) = 26.62478 29.46246 28.04362
#
# Velocity S-wave (km/s) = 3.66249 3.85272 3.75881
# Velocity P-wave (km/s) = 6.15215 6.54413 6.35116
#
# Compressibility (1/GPa) = 0.02523600
#
# Stress axis : x y z
#
# Youngs Moduli (GPa) = 90.90753 46.87602 73.78720
#
# Poissons Ratio (x) = 0.31921 0.16718
# Poissons Ratio (y) = 0.61904 0.09220
# Poissons Ratio (z) = 0.20597 0.05857
#
# Static dielectric constant tensor:
#      x y z
#    x 3.623530 0.000000 0.000000 
#    y 0.000000 3.753310 0.000000 
#    z 0.000000 0.000000 3.775700 
# 
# 
# High freq. dielectric constant tensor:
#      x y z
#    x 1.764220 0.000000 0.000000 
#    y 0.000000 1.775560 0.000000 
#    z 0.000000 0.000000 1.779000 
# 
# From -- ./inp_files/19513.got.cif
#   From: 2010.03.12/outbox.cif.g09.slc.cpg/sg57_10_cif.got.tgz:19513.got - 2010.04.16 15:48:40.
