data_PCOD8231716
_publ_section_title
;
Structure prediction by ZEFSAII (Michael W. Deem and Ramdas Pophale) SiO2 
 PCOD8231716
Probable space group: P B C M
;
_chemical_formula_sum "Si O2"
_cell_formula_units_Z 56
_cell_length_a 21.373159
_cell_length_b 14.235842
_cell_length_c 8.858267
_cell_angle_alpha 90.000000
_cell_angle_beta 90.000000
_cell_angle_gamma 90.000000
_cell_volume 2695.259852
_symmetry_space_group_name_H-M "P B C M"
_symmetry_group_IT_number 57
_symmetry_cell_setting 'orthorhombic'
loop_
_space_group_symop_operation_xyz
x,y,z
-x,-y,1/2+z
x,1/2-y,-z
-x,1/2+y,1/2-z
-x,-y,-z
x,y,1/2-z
-x,1/2+y,z
x,1/2-y,1/2+z
loop_
_atom_site_type_symbol
_atom_site_label
_atom_site_fract_x
_atom_site_fract_y
_atom_site_fract_z
Si Si1 0.587698 0.544009 0.926488
Si Si2 0.836271 0.849486 0.928615
Si Si3 0.066636 0.477985 0.429836
Si Si4 0.873511 0.336504 0.913153
Si Si5 0.525626 0.149768 0.427169
Si Si6 0.272354 0.839778 0.581607
Si Si7 0.714550 0.966378 0.573203
O O1 0.580637 0.562807 0.750000
O O2 0.576488 0.432626 0.963640
O O3 0.540049 0.612691 0.010298
O O4 0.655952 0.576286 0.982597
O O5 0.843548 0.841920 0.750000
O O6 0.778187 0.915280 0.976207
O O7 0.820921 0.750000 0.000000
O O8 0.901503 0.886217 0.998557
O O9 0.062612 0.465314 0.250000
O O10 0.110938 0.563386 0.486339
O O11 0.000000 0.500000 0.500000
O O12 0.905991 0.335803 0.750000
O O13 0.800397 0.319786 0.897931
O O14 0.905250 0.250000 0.000000
O O15 0.545043 0.250000 0.500000
O O16 0.519092 0.165947 0.250000
O O17 0.304170 0.750000 0.500000
O O18 0.301964 0.856441 0.750000
O O19 0.281252 0.925469 0.470278
O O20 0.702091 0.956087 0.750000
#
# Coordination Sequence:
#
# PCOD8231716 Si02
#       7
#     8   8   8   8   8   8   8
#     4  10  22  39  61  90 124 164 208 256 307 363
#     4  11  25  44  66  91 121 162 208 256 311 367
#     4  11  23  41  63  90 122 159 202 252 305 363
#     4   9  19  34  56  83 112 146 186 233 289 349
#     4  10  21  39  63  90 122 162 207 256 309 363
#     4  10  19  34  56  84 116 152 193 239 297 361
#     4  11  23  39  61  90 125 163 206 255 307 368
#
# _framework density 20.777218000000001
#
# number of rings (size 3 to 8) (size 9 to 14) (size 15 to 20)
#    0.000    1.714    1.429    2.571    0.000    6.857 
#    0.000    4.286    0.000    0.000    0.000    0.000 
#    0.000    0.000    0.000    0.000    0.000    0.000 
#
# Total GULP energy -694276.841186 kJ/mol
# GULP energy per Si atom -12397.800735 kJ/mol
# Density = 2.072993 g / cm^3
# Si number density = 20.777218 Si / 1000 Ang^3
#
#
#
# Elastic Constant Matrix: (Units=GPa)
#
#
# Indices 1 2 3 4 5 6 
#
# 1 94.2010 21.5883 42.2180 0.0000 0.0000 0.0000
# 2 21.5883 89.2548 33.5855 0.0000 0.0000 0.0000
# 3 42.2180 33.5855 97.7119 0.0000 0.0000 0.0000
# 4 0.0000 0.0000 0.0000 39.6692 0.0000 0.0000
# 5 0.0000 0.0000 0.0000 0.0000 31.3107 0.0000
# 6 0.0000 0.0000 0.0000 0.0000 0.0000 7.3435
#
#
#
# Elastic Compliance Matrix: (Units=1/GPa)
#
#
# Indices 1 2 3 4 5 6 
#
# 1 0.013277 -0.001209 -0.005321 0.000000 0.000000 0.000000
# 2 -0.001209 0.012978 -0.003938 0.000000 0.000000 0.000000
# 3 -0.005321 -0.003938 0.013887 0.000000 0.000000 0.000000
# 4 0.000000 0.000000 0.000000 0.025208 0.000000 0.000000
# 5 0.000000 0.000000 0.000000 0.000000 0.031938 0.000000
# 6 0.000000 0.000000 0.000000 0.000000 0.000000 0.136175
#
#
# Mechanical properties :
#
#
# Convention : Reuss Voigt Hill
#
# Bulk Modulus (GPa) = 52.06910 52.88347 52.47629
# Shear Modulus (GPa) = 19.17149 27.91641 23.54395
#
# Velocity S-wave (km/s) = 3.04092 3.66950 3.36990
# Velocity P-wave (km/s) = 6.11921 6.59254 6.36028
#
# Compressibility (1/GPa) = 0.01920525
#
# Stress axis : x y z
#
# Youngs Moduli (GPa) = 75.31551 77.05149 72.01001
#
# Poissons Ratio (x) = 0.09317 0.38317
# Poissons Ratio (y) = 0.09107 0.28361
# Poissons Ratio (z) = 0.40076 0.30346
#
# Static dielectric constant tensor:
#      x y z
#    x 3.694960 0.000000 0.000000 
#    y 0.000000 3.871340 0.000000 
#    z 0.000000 0.000000 4.013840 
# 
# 
# High freq. dielectric constant tensor:
#      x y z
#    x 1.806690 0.000000 0.000000 
#    y 0.000000 1.814810 0.000000 
#    z 0.000000 0.000000 1.823920 
# 
# From -- ./inp_files/8190.got.cif
#   From: 2010.03.12/outbox.cif.g09.slc.cpg/sg57_5_cif.got.tgz:8190.got - 2010.04.16 15:48:40.
