data_PCOD8231017
_publ_section_title
;
Structure prediction by ZEFSAII (Michael W. Deem and Ramdas Pophale) SiO2 
 PCOD8231017
Probable space group: P B C M
;
_chemical_formula_sum "Si O2"
_cell_formula_units_Z 64
_cell_length_a 22.840146
_cell_length_b 16.066771
_cell_length_c 9.121523
_cell_angle_alpha 90.000000
_cell_angle_beta 90.000000
_cell_angle_gamma 90.000000
_cell_volume 3347.301537
_symmetry_space_group_name_H-M "P B C M"
_symmetry_group_IT_number 57
_symmetry_cell_setting 'orthorhombic'
loop_
_space_group_symop_operation_xyz
x,y,z
-x,-y,1/2+z
x,1/2-y,-z
-x,1/2+y,1/2-z
-x,-y,-z
x,y,1/2-z
-x,1/2+y,z
x,1/2-y,1/2+z
loop_
_atom_site_type_symbol
_atom_site_label
_atom_site_fract_x
_atom_site_fract_y
_atom_site_fract_z
Si Si1 0.422464 0.835391 0.422462
Si Si2 0.911954 0.404092 0.580104
Si Si3 0.440429 0.166557 0.580638
Si Si4 0.626710 0.999693 0.423743
Si Si5 0.191081 0.828125 0.080478
Si Si6 0.133748 0.056559 0.417448
Si Si7 0.968751 0.830840 0.915348
Si Si8 0.256311 0.999828 0.083776
O O1 0.400105 0.750000 0.500000
O O2 0.406784 0.831332 0.250000
O O3 0.491205 0.845000 0.449667
O O4 0.392866 0.916555 0.493272
O O5 0.898089 0.389287 0.750000
O O6 0.873614 0.338953 0.487095
O O7 0.893061 0.495653 0.535982
O O8 0.981168 0.397885 0.543970
O O9 0.416880 0.250000 0.500000
O O10 0.426100 0.180330 0.750000
O O11 0.410179 0.081292 0.524364
O O12 0.620781 0.013792 0.250000
O O13 0.693386 0.980105 0.467604
O O14 0.184475 0.807844 0.250000
O O15 0.231101 0.908312 0.052746
O O16 0.221909 0.750000 0.000000
O O17 0.123141 0.023513 0.250000
O O18 0.203634 0.066663 0.440940
O O19 0.098022 0.140846 0.445681
O O20 0.975679 0.804468 0.750000
O O21 0.984695 0.750000 0.000000
O O22 0.280686 0.005986 0.250000
#
# Coordination Sequence:
#
# PCOD8231017 Si02
#       8
#     8   8   8   8   8   8   8   8
#     4  10  20  36  58  85 118 152 184 218 264 321
#     4  10  19  31  51  78 103 129 164 204 254 314
#     4   9  20  37  58  85 114 146 184 226 271 320
#     4  11  22  36  56  84 115 145 183 229 272 318
#     4  10  20  34  52  74 103 137 173 214 261 313
#     4   9  19  37  55  71  97 132 170 211 255 303
#     4  10  21  34  50  75 103 130 162 205 256 310
#     4   9  20  37  54  72  99 139 181 219 261 309
#
# _framework density 19.119879999999998
#
# number of rings (size 3 to 8) (size 9 to 14) (size 15 to 20)
#    0.000    2.250    0.000    3.375    0.000    7.000 
#    0.000    1.875    0.000    3.000    0.000    0.000 
#    0.000    0.000    0.000    0.000    0.000    0.000 
#
# Total GULP energy -793291.645073 kJ/mol
# GULP energy per Si atom -12395.181954 kJ/mol
# Density = 1.907636 g / cm^3
# Si number density = 19.119880 Si / 1000 Ang^3
#
#
#
# Elastic Constant Matrix: (Units=GPa)
#
#
# Indices 1 2 3 4 5 6 
#
# 1 84.9965 34.8562 41.3184 0.0000 0.0000 0.0000
# 2 34.8562 82.6845 41.9566 0.0000 0.0000 0.0000
# 3 41.3184 41.9566 81.2877 0.0000 0.0000 0.0000
# 4 0.0000 0.0000 0.0000 30.5667 0.0000 0.0000
# 5 0.0000 0.0000 0.0000 0.0000 30.2008 0.0000
# 6 0.0000 0.0000 0.0000 0.0000 0.0000 13.0322
#
#
#
# Elastic Compliance Matrix: (Units=1/GPa)
#
#
# Indices 1 2 3 4 5 6 
#
# 1 0.016395 -0.003635 -0.006457 0.000000 0.000000 0.000000
# 2 -0.003635 0.017192 -0.007026 0.000000 0.000000 0.000000
# 3 -0.006457 -0.007026 0.019211 0.000000 0.000000 0.000000
# 4 0.000000 0.000000 0.000000 0.032715 0.000000 0.000000
# 5 0.000000 0.000000 0.000000 0.000000 0.033112 0.000000
# 6 0.000000 0.000000 0.000000 0.000000 0.000000 0.076733
#
#
# Mechanical properties :
#
#
# Convention : Reuss Voigt Hill
#
# Bulk Modulus (GPa) = 53.87622 53.91455 53.89539
# Shear Modulus (GPa) = 21.20620 23.48243 22.34432
#
# Velocity S-wave (km/s) = 3.33396 3.50833 3.42225
# Velocity P-wave (km/s) = 6.56198 6.68360 6.62307
#
# Compressibility (1/GPa) = 0.01856107
#
# Stress axis : x y z
#
# Youngs Moduli (GPa) = 60.99500 58.16807 52.05424
#
# Poissons Ratio (x) = 0.21142 0.33614
# Poissons Ratio (y) = 0.22169 0.36573
# Poissons Ratio (z) = 0.39387 0.40869
#
# Static dielectric constant tensor:
#      x y z
#    x 3.561270 0.000000 0.000000 
#    y 0.000000 3.388360 0.000000 
#    z 0.000000 0.000000 3.527640 
# 
# 
# High freq. dielectric constant tensor:
#      x y z
#    x 1.738870 0.000000 0.000000 
#    y 0.000000 1.732520 0.000000 
#    z 0.000000 0.000000 1.748850 
# 
# From -- ./inp_files/9410.got.cif
#   From: 2010.03.12/outbox.cif.g09.slc.cpg/sg57_5_cif.got.tgz:9410.got - 2010.04.16 15:48:40.
