data_PCOD8231086
_publ_section_title
;
Structure prediction by ZEFSAII (Michael W. Deem and Ramdas Pophale) SiO2 
 PCOD8231086
Probable space group: P B C M
;
_chemical_formula_sum "Si O2"
_cell_formula_units_Z 48
_cell_length_a 31.712588
_cell_length_b 9.142094
_cell_length_c 8.521278
_cell_angle_alpha 90.000000
_cell_angle_beta 90.000000
_cell_angle_gamma 90.000000
_cell_volume 2470.484320
_symmetry_space_group_name_H-M "P B C M"
_symmetry_group_IT_number 57
_symmetry_cell_setting 'orthorhombic'
loop_
_space_group_symop_operation_xyz
x,y,z
-x,-y,1/2+z
x,1/2-y,-z
-x,1/2+y,1/2-z
-x,-y,-z
x,y,1/2-z
-x,1/2+y,z
x,1/2-y,1/2+z
loop_
_atom_site_type_symbol
_atom_site_label
_atom_site_fract_x
_atom_site_fract_y
_atom_site_fract_z
Si Si1 0.195065 0.085380 0.064933
Si Si2 0.882400 0.087376 0.064572
Si Si3 0.538496 0.588821 0.565665
Si Si4 0.039368 0.087716 0.435358
Si Si5 0.281130 0.412695 0.435957
Si Si6 0.628977 0.910408 0.433733
O O1 0.187186 0.085342 0.250000
O O2 0.190781 0.250000 0.000000
O O3 0.241079 0.015800 0.023785
O O4 0.162404 0.979816 0.980166
O O5 0.888390 0.089142 0.250000
O O6 0.886428 0.250000 0.000000
O O7 0.917752 0.987560 0.987504
O O8 0.535597 0.750000 0.500000
O O9 0.500000 0.500000 0.500000
O O10 0.533888 0.595112 0.750000
O O11 0.584192 0.514668 0.516659
O O12 0.037965 0.250000 0.500000
O O13 0.036932 0.092353 0.250000
O O14 0.000000 0.000000 0.500000
O O15 0.284712 0.250000 0.500000
O O16 0.272515 0.413114 0.250000
O O17 0.326491 0.490997 0.480235
O O18 0.628671 0.750000 0.500000
O O19 0.629613 0.891124 0.250000
#
# Coordination Sequence:
#
# PCOD8231086 Si02
#       6
#     8   8   8   8   8   8
#     4  11  21  35  55  83 114 147 183 226 274 326
#     4  12  25  43  63  87 117 154 194 236 281 332
#     4  10  19  32  49  72 100 134 172 216 265 320
#     4  12  25  44  67  95 126 160 197 239 285 334
#     4   9  15  26  45  72 102 134 170 217 268 320
#     4   8  15  26  43  67  97 129 167 212 263 316
#
# _framework density 19.429390000000001
#
# number of rings (size 3 to 8) (size 9 to 14) (size 15 to 20)
#    0.000    1.667    0.000    7.500    0.000    1.333 
#    0.000    0.000    0.000    1.000    0.000    4.667 
#    0.000    0.000    0.000    0.000    0.000    0.000 
#
# Total GULP energy -594627.203644 kJ/mol
# GULP energy per Si atom -12388.066743 kJ/mol
# Density = 1.938517 g / cm^3
# Si number density = 19.429390 Si / 1000 Ang^3
#
#
#
# Elastic Constant Matrix: (Units=GPa)
#
#
# Indices 1 2 3 4 5 6 
#
# 1 193.8259 65.0948 48.0879 0.0000 0.0000 0.0000
# 2 65.0948 90.7298 39.8457 0.0000 0.0000 0.0000
# 3 48.0879 39.8457 114.5477 0.0000 0.0000 0.0000
# 4 0.0000 0.0000 0.0000 28.3618 0.0000 0.0000
# 5 0.0000 0.0000 0.0000 0.0000 33.4801 0.0000
# 6 0.0000 0.0000 0.0000 0.0000 0.0000 15.3007
#
#
#
# Elastic Compliance Matrix: (Units=1/GPa)
#
#
# Indices 1 2 3 4 5 6 
#
# 1 0.006983 -0.004394 -0.001403 0.000000 0.000000 0.000000
# 2 -0.004394 0.015774 -0.003642 0.000000 0.000000 0.000000
# 3 -0.001403 -0.003642 0.010586 0.000000 0.000000 0.000000
# 4 0.000000 0.000000 0.000000 0.035259 0.000000 0.000000
# 5 0.000000 0.000000 0.000000 0.000000 0.029869 0.000000
# 6 0.000000 0.000000 0.000000 0.000000 0.000000 0.065357
#
#
# Mechanical properties :
#
#
# Convention : Reuss Voigt Hill
#
# Bulk Modulus (GPa) = 69.13640 78.35112 73.74376
# Shear Modulus (GPa) = 26.66288 31.83350 29.24819
#
# Velocity S-wave (km/s) = 3.70847 4.05213 3.88410
# Velocity P-wave (km/s) = 7.34831 7.89346 7.62576
#
# Compressibility (1/GPa) = 0.01446416
#
# Stress axis : x y z
#
# Youngs Moduli (GPa) = 143.20491 63.39661 94.46402
#
# Poissons Ratio (x) = 0.27855 0.13254
# Poissons Ratio (y) = 0.62921 0.34407
# Poissons Ratio (z) = 0.20093 0.23091
#
# Static dielectric constant tensor:
#      x y z
#    x 4.880280 0.000000 0.000000 
#    y 0.000000 3.180720 0.000000 
#    z 0.000000 0.000000 3.791950 
# 
# 
# High freq. dielectric constant tensor:
#      x y z
#    x 1.798490 0.000000 0.000000 
#    y 0.000000 1.704450 0.000000 
#    z 0.000000 0.000000 1.774710 
# 
# From -- ./inp_files/9923.got.cif
#   From: 2010.03.12/outbox.cif.g09.slc.cpg/sg57_5_cif.got.tgz:9923.got - 2010.04.16 15:48:40.
