data_PCOD8231594
_publ_section_title
;
Structure prediction by ZEFSAII (Michael W. Deem and Ramdas Pophale) SiO2 
 PCOD8231594
Probable space group: P B C M
;
_chemical_formula_sum "Si O2"
_cell_formula_units_Z 64
_cell_length_a 15.290859
_cell_length_b 23.522842
_cell_length_c 9.109557
_cell_angle_alpha 90.000000
_cell_angle_beta 90.000000
_cell_angle_gamma 90.000000
_cell_volume 3276.566093
_symmetry_space_group_name_H-M "P B C M"
_symmetry_group_IT_number 57
_symmetry_cell_setting 'orthorhombic'
loop_
_space_group_symop_operation_xyz
x,y,z
-x,-y,1/2+z
x,1/2-y,-z
-x,1/2+y,1/2-z
-x,-y,-z
x,y,1/2-z
-x,1/2+y,z
x,1/2-y,1/2+z
loop_
_atom_site_type_symbol
_atom_site_label
_atom_site_fract_x
_atom_site_fract_y
_atom_site_fract_z
Si Si1 0.601741 0.875754 0.419618
Si Si2 0.850700 0.008510 0.419743
Si Si3 0.107109 0.380771 0.418000
Si Si4 0.250655 0.309569 0.924420
Si Si5 0.405891 0.890745 0.419016
Si Si6 0.911997 0.115990 0.580547
Si Si7 0.347298 0.998420 0.577103
Si Si8 0.249839 0.810042 0.076317
O O1 0.630709 0.868173 0.250000
O O2 0.656499 0.833055 0.520249
O O3 0.499772 0.860808 0.441429
O O4 0.618575 0.940034 0.472335
O O5 0.851869 0.024168 0.250000
O O6 0.893970 0.947753 0.450050
O O7 0.906558 0.055727 0.501553
O O8 0.751673 0.008496 0.479288
O O9 0.137760 0.369217 0.250000
O O10 0.172530 0.351404 0.530542
O O11 0.008660 0.357818 0.444570
O O12 0.252941 0.302682 0.750000
O O13 0.230871 0.250000 0.000000
O O14 0.389309 0.905528 0.250000
O O15 0.406402 0.950136 0.504396
O O16 0.330888 0.848607 0.477644
O O17 0.894307 0.103549 0.750000
O O18 0.839991 0.160500 0.521774
O O19 0.354987 0.991682 0.750000
O O20 0.251288 0.800912 0.250000
O O21 0.258806 0.750000 0.000000
#
# Coordination Sequence:
#
# PCOD8231594 Si02
#       8
#     8   8   8   8   8   8   8   8
#     4  10  21  40  62  87 121 156 192 240 296 349
#     4  10  19  33  57  87 121 158 191 234 292 349
#     4  10  21  40  62  87 121 156 192 240 296 349
#     4  12  26  43  64  87 115 154 198 248 297 350
#     4  10  21  37  60  87 119 155 193 241 291 349
#     4  10  21  37  60  87 119 155 193 241 291 349
#     4  10  19  33  57  87 121 158 191 234 292 349
#     4  10  22  39  56  81 111 148 196 240 287 336
#
# _framework density 19.532644000000001
#
# number of rings (size 3 to 8) (size 9 to 14) (size 15 to 20)
#    0.000    1.750    2.500    1.875    0.000    4.000 
#    0.000    2.500    0.000    0.000    0.000    0.000 
#    0.000    0.000    0.000    0.000    0.000    0.000 
#
# Total GULP energy -793836.869437 kJ/mol
# GULP energy per Si atom -12403.701085 kJ/mol
# Density = 1.948819 g / cm^3
# Si number density = 19.532644 Si / 1000 Ang^3
#
#
#
# Elastic Constant Matrix: (Units=GPa)
#
#
# Indices 1 2 3 4 5 6 
#
# 1 104.2670 19.5466 28.3109 0.0000 0.0000 0.0000
# 2 19.5466 69.8982 30.6726 0.0000 0.0000 0.0000
# 3 28.3109 30.6726 64.8750 0.0000 0.0000 0.0000
# 4 0.0000 0.0000 0.0000 35.9676 0.0000 0.0000
# 5 0.0000 0.0000 0.0000 0.0000 20.9005 0.0000
# 6 0.0000 0.0000 0.0000 0.0000 0.0000 14.6030
#
#
#
# Elastic Compliance Matrix: (Units=1/GPa)
#
#
# Indices 1 2 3 4 5 6 
#
# 1 0.010962 -0.001219 -0.004207 0.000000 0.000000 0.000000
# 2 -0.001219 0.018187 -0.008067 0.000000 0.000000 0.000000
# 3 -0.004207 -0.008067 0.021064 0.000000 0.000000 0.000000
# 4 0.000000 0.000000 0.000000 0.027803 0.000000 0.000000
# 5 0.000000 0.000000 0.000000 0.000000 0.047846 0.000000
# 6 0.000000 0.000000 0.000000 0.000000 0.000000 0.068479
#
#
# Mechanical properties :
#
#
# Convention : Reuss Voigt Hill
#
# Bulk Modulus (GPa) = 43.05368 44.01116 43.53242
# Shear Modulus (GPa) = 21.82743 24.99489 23.41116
#
# Velocity S-wave (km/s) = 3.34651 3.58110 3.46579
# Velocity P-wave (km/s) = 6.08456 6.29921 6.19282
#
# Compressibility (1/GPa) = 0.02322682
#
# Stress axis : x y z
#
# Youngs Moduli (GPa) = 91.22703 54.98327 47.47391
#
# Poissons Ratio (x) = 0.06703 0.19973
# Poissons Ratio (y) = 0.11122 0.38297
# Poissons Ratio (z) = 0.38381 0.44354
#
# Static dielectric constant tensor:
#      x y z
#    x 3.764030 0.000000 0.000000 
#    y 0.000000 3.448690 0.000000 
#    z 0.000000 0.000000 3.408780 
# 
# 
# High freq. dielectric constant tensor:
#      x y z
#    x 1.777370 0.000000 0.000000 
#    y 0.000000 1.753850 0.000000 
#    z 0.000000 0.000000 1.747530 
# 
# From -- ./inp_files/5720.got.cif
#   From: 2010.03.12/outbox.cif.g09.slc.cpg/sg57_3_cif.got.tgz:5720.got - 2010.04.16 15:48:40.
