data_PCOD8231234
_publ_section_title
;
Structure prediction by ZEFSAII (Michael W. Deem and Ramdas Pophale) SiO2 
 PCOD8231234
Probable space group: P B C M
;
_chemical_formula_sum "Si O2"
_cell_formula_units_Z 64
_cell_length_a 21.801875
_cell_length_b 17.889713
_cell_length_c 8.681430
_cell_angle_alpha 90.000000
_cell_angle_beta 90.000000
_cell_angle_gamma 90.000000
_cell_volume 3386.011950
_symmetry_space_group_name_H-M "P B C M"
_symmetry_group_IT_number 57
_symmetry_cell_setting 'orthorhombic'
loop_
_space_group_symop_operation_xyz
x,y,z
-x,-y,1/2+z
x,1/2-y,-z
-x,1/2+y,1/2-z
-x,-y,-z
x,y,1/2-z
-x,1/2+y,z
x,1/2-y,1/2+z
loop_
_atom_site_type_symbol
_atom_site_label
_atom_site_fract_x
_atom_site_fract_y
_atom_site_fract_z
Si Si1 0.183383 0.952095 0.925615
Si Si2 0.605569 0.079829 0.067012
Si Si3 0.504621 0.669427 0.567797
Si Si4 0.936420 0.972590 0.433845
Si Si5 0.240458 0.110506 0.926536
Si Si6 0.122162 0.328706 0.931147
Si Si7 0.725458 0.331713 0.566692
Si Si8 0.374640 0.087746 0.932679
O O1 0.171099 0.931728 0.750000
O O2 0.217883 0.881180 0.001532
O O3 0.117010 0.971877 0.998994
O O4 0.228470 0.022384 0.939649
O O5 0.597841 0.081609 0.250000
O O6 0.661877 0.131553 0.012272
O O7 0.615818 0.996031 0.003406
O O8 0.544326 0.109715 0.989118
O O9 0.489356 0.750000 0.500000
O O10 0.502232 0.674474 0.750000
O O11 0.571241 0.641803 0.509087
O O12 0.937376 0.971640 0.250000
O O13 0.921972 0.889624 0.491559
O O14 0.000000 0.000000 0.500000
O O15 0.231730 0.137210 0.750000
O O16 0.309770 0.122900 0.988122
O O17 0.193732 0.157063 0.031262
O O18 0.112032 0.329725 0.750000
O O19 0.101148 0.250000 0.000000
O O20 0.731909 0.250000 0.500000
O O21 0.727861 0.329623 0.750000
O O22 0.373170 0.082076 0.750000
#
# Coordination Sequence:
#
# PCOD8231234 Si02
#       8
#     8   8   8   8   8   8   8   8
#     4   8  15  31  55  77 103 141 180 214 259 326
#     4  10  19  35  58  78 101 136 181 226 275 332
#     4  11  23  37  51  72 104 140 181 227 280 334
#     4  10  20  37  62  88 115 152 195 235 279 330
#     4   9  16  33  58  81 105 139 181 224 277 336
#     4  11  22  37  57  86 120 153 191 235 283 333
#     4  10  19  32  52  78 105 137 177 219 269 324
#     4   9  18  34  58  81 102 138 182 226 276 339
#
# _framework density 18.901292000000002
#
# number of rings (size 3 to 8) (size 9 to 14) (size 15 to 20)
#    0.000    2.250    1.250    3.375    0.000    2.000 
#    0.000    7.500    0.000    1.500    0.000    0.000 
#    0.000    0.000    0.000    0.000    0.000    0.000 
#
# Total GULP energy -793473.966274 kJ/mol
# GULP energy per Si atom -12398.030723 kJ/mol
# Density = 1.885827 g / cm^3
# Si number density = 18.901292 Si / 1000 Ang^3
#
#
#
# Elastic Constant Matrix: (Units=GPa)
#
#
# Indices 1 2 3 4 5 6 
#
# 1 141.1236 39.2493 31.6820 0.0000 0.0000 0.0000
# 2 39.2493 84.0404 24.3407 0.0000 0.0000 0.0000
# 3 31.6820 24.3407 57.9686 0.0000 0.0000 0.0000
# 4 0.0000 0.0000 0.0000 24.9280 0.0000 0.0000
# 5 0.0000 0.0000 0.0000 0.0000 26.8679 0.0000
# 6 0.0000 0.0000 0.0000 0.0000 0.0000 19.3130
#
#
#
# Elastic Compliance Matrix: (Units=1/GPa)
#
#
# Indices 1 2 3 4 5 6 
#
# 1 0.008719 -0.003065 -0.003479 0.000000 0.000000 0.000000
# 2 -0.003065 0.014624 -0.004465 0.000000 0.000000 0.000000
# 3 -0.003479 -0.004465 0.021027 0.000000 0.000000 0.000000
# 4 0.000000 0.000000 0.000000 0.040116 0.000000 0.000000
# 5 0.000000 0.000000 0.000000 0.000000 0.037219 0.000000
# 6 0.000000 0.000000 0.000000 0.000000 0.000000 0.051779
#
#
# Mechanical properties :
#
#
# Convention : Reuss Voigt Hill
#
# Bulk Modulus (GPa) = 44.73776 52.63074 48.68425
# Shear Modulus (GPa) = 24.63645 26.74581 25.69113
#
# Velocity S-wave (km/s) = 3.61422 3.76576 3.69077
# Velocity P-wave (km/s) = 6.41384 6.84204 6.63139
#
# Compressibility (1/GPa) = 0.02235248
#
# Stress axis : x y z
#
# Youngs Moduli (GPa) = 114.68857 68.38234 47.55807
#
# Poissons Ratio (x) = 0.20957 0.16543
# Poissons Ratio (y) = 0.35148 0.21237
# Poissons Ratio (z) = 0.39895 0.30536
#
# Static dielectric constant tensor:
#      x y z
#    x 3.909560 0.000000 0.000000 
#    y 0.000000 4.158290 0.000000 
#    z 0.000000 0.000000 3.196980 
# 
# 
# High freq. dielectric constant tensor:
#      x y z
#    x 1.740310 0.000000 0.000000 
#    y 0.000000 1.734940 0.000000 
#    z 0.000000 0.000000 1.708040 
# 
# From -- ./inp_files/8509.got.cif
#   From: 2010.03.12/outbox.cif.g09.slc.cpg/sg57_5_cif.got.tgz:8509.got - 2010.04.16 15:48:40.
