data_PCOD8231003
_publ_section_title
;
Structure prediction by ZEFSAII (Michael W. Deem and Ramdas Pophale) SiO2 
 PCOD8231003
Probable space group: P B C M
;
_chemical_formula_sum "Si O2"
_cell_formula_units_Z 64
_cell_length_a 24.378044
_cell_length_b 14.359055
_cell_length_c 9.391240
_cell_angle_alpha 90.000000
_cell_angle_beta 90.000000
_cell_angle_gamma 90.000000
_cell_volume 3287.362941
_symmetry_space_group_name_H-M "P B C M"
_symmetry_group_IT_number 57
_symmetry_cell_setting 'orthorhombic'
loop_
_space_group_symop_operation_xyz
x,y,z
-x,-y,1/2+z
x,1/2-y,-z
-x,1/2+y,1/2-z
-x,-y,-z
x,y,1/2-z
-x,1/2+y,z
x,1/2-y,1/2+z
loop_
_atom_site_type_symbol
_atom_site_label
_atom_site_fract_x
_atom_site_fract_y
_atom_site_fract_z
Si Si1 0.482690 0.088247 0.089034
Si Si2 0.671224 0.036069 0.913577
Si Si3 0.905901 0.663005 0.411640
Si Si4 0.884875 0.458381 0.084019
Si Si5 0.401632 0.662582 0.411613
Si Si6 0.966471 0.158991 0.083043
Si Si7 0.223408 0.846028 0.083745
Si Si8 0.366998 0.337803 0.913499
O O1 0.471020 0.054326 0.250000
O O2 0.532444 0.161801 0.084818
O O3 0.427677 0.135527 0.027939
O O4 0.500000 0.000000 0.000000
O O5 0.656527 0.059682 0.750000
O O6 0.727762 0.084297 0.959742
O O7 0.674687 0.924483 0.934286
O O8 0.622110 0.070485 0.014314
O O9 0.882272 0.750000 0.500000
O O10 0.897948 0.693209 0.250000
O O11 0.873179 0.567831 0.446057
O O12 0.969525 0.643887 0.445791
O O13 0.900802 0.444829 0.250000
O O14 0.832050 0.398714 0.040781
O O15 0.935123 0.428543 0.984074
O O16 0.378782 0.750000 0.500000
O O17 0.379844 0.669608 0.250000
O O18 0.952751 0.168682 0.250000
O O19 0.944913 0.250000 0.000000
O O20 0.224625 0.822468 0.250000
O O21 0.228937 0.750000 0.000000
O O22 0.370703 0.307462 0.750000
O O23 0.343733 0.250000 0.000000
#
# Coordination Sequence:
#
# PCOD8231003 Si02
#       8
#     8   8   8   8   8   8   8   8
#     4  10  20  34  53  79 109 143 177 214 260 314
#     4  10  21  39  59  78 105 140 179 223 269 316
#     4   9  19  34  52  76 109 146 182 221 265 318
#     4  10  20  35  54  78 108 142 181 225 273 321
#     4  11  22  34  53  81 109 140 176 215 263 317
#     4  10  19  31  50  78 110 145 182 220 267 322
#     4  10  22  39  59  81 106 138 175 220 272 324
#     4  10  21  37  57  80 108 142 178 217 264 315
#
# _framework density 19.468492999999999
#
# number of rings (size 3 to 8) (size 9 to 14) (size 15 to 20)
#    0.000    2.000    1.250    2.250    0.000    5.500 
#    0.000    0.625    0.000    0.000    0.000    0.000 
#    0.000    0.000    0.000    0.000    0.000    0.000 
#
# Total GULP energy -793694.660907 kJ/mol
# GULP energy per Si atom -12401.479077 kJ/mol
# Density = 1.942418 g / cm^3
# Si number density = 19.468493 Si / 1000 Ang^3
#
#
#
# Elastic Constant Matrix: (Units=GPa)
#
#
# Indices 1 2 3 4 5 6 
#
# 1 57.8365 39.6636 28.4815 0.0000 0.0000 0.0000
# 2 39.6636 138.5110 62.8859 0.0000 0.0000 0.0000
# 3 28.4815 62.8859 85.9234 0.0000 0.0000 0.0000
# 4 0.0000 0.0000 0.0000 39.9137 0.0000 0.0000
# 5 0.0000 0.0000 0.0000 0.0000 18.7766 0.0000
# 6 0.0000 0.0000 0.0000 0.0000 0.0000 31.4415
#
#
#
# Elastic Compliance Matrix: (Units=1/GPa)
#
#
# Indices 1 2 3 4 5 6 
#
# 1 0.022438 -0.004566 -0.004096 0.000000 0.000000 0.000000
# 2 -0.004566 0.011741 -0.007080 0.000000 0.000000 0.000000
# 3 -0.004096 -0.007080 0.018178 0.000000 0.000000 0.000000
# 4 0.000000 0.000000 0.000000 0.025054 0.000000 0.000000
# 5 0.000000 0.000000 0.000000 0.000000 0.053258 0.000000
# 6 0.000000 0.000000 0.000000 0.000000 0.000000 0.031805
#
#
# Mechanical properties :
#
#
# Convention : Reuss Voigt Hill
#
# Bulk Modulus (GPa) = 47.90673 60.48142 54.19408
# Shear Modulus (GPa) = 24.88601 28.10903 26.49752
#
# Velocity S-wave (km/s) = 3.57917 3.80389 3.69324
# Velocity P-wave (km/s) = 6.46075 7.10116 6.78851
#
# Compressibility (1/GPa) = 0.02087389
#
# Stress axis : x y z
#
# Youngs Moduli (GPa) = 44.56652 85.16836 55.01212
#
# Poissons Ratio (x) = 0.38885 0.22534
# Poissons Ratio (y) = 0.20347 0.38948
# Poissons Ratio (z) = 0.18256 0.60299
#
# Static dielectric constant tensor:
#      x y z
#    x 3.440930 0.000000 0.000000 
#    y 0.000000 3.556580 0.000000 
#    z 0.000000 0.000000 3.576860 
# 
# 
# High freq. dielectric constant tensor:
#      x y z
#    x 1.736930 0.000000 0.000000 
#    y 0.000000 1.762920 0.000000 
#    z 0.000000 0.000000 1.755560 
# 
# From -- ./inp_files/9340.got.cif
#   From: 2010.03.12/outbox.cif.g09.slc.cpg/sg57_5_cif.got.tgz:9340.got - 2010.04.16 15:48:40.
