data_PCOD8231695
_publ_section_title
;
Structure prediction by ZEFSAII (Michael W. Deem and Ramdas Pophale) SiO2 
 PCOD8231695
Probable space group: P B C M
;
_chemical_formula_sum "Si O2"
_cell_formula_units_Z 40
_cell_length_a 10.291628
_cell_length_b 13.725520
_cell_length_c 14.379797
_cell_angle_alpha 90.000000
_cell_angle_beta 90.000000
_cell_angle_gamma 90.000000
_cell_volume 2031.260587
_symmetry_space_group_name_H-M "P B C M"
_symmetry_group_IT_number 57
_symmetry_cell_setting 'orthorhombic'
loop_
_space_group_symop_operation_xyz
x,y,z
-x,-y,1/2+z
x,1/2-y,-z
-x,1/2+y,1/2-z
-x,-y,-z
x,y,1/2-z
-x,1/2+y,z
x,1/2-y,1/2+z
loop_
_atom_site_type_symbol
_atom_site_label
_atom_site_fract_x
_atom_site_fract_y
_atom_site_fract_z
Si Si1 0.528681 0.346553 0.952539
Si Si2 0.316427 0.486980 0.534033
Si Si3 0.787219 0.302122 0.856581
Si Si4 0.886774 0.400767 0.141790
Si Si5 0.835430 0.515483 0.857808
O O1 0.401600 0.403637 0.914173
O O2 0.633827 0.317261 0.874716
O O3 0.474866 0.250000 0.000000
O O4 0.596872 0.415486 0.029132
O O5 0.189134 0.510440 0.593606
O O6 0.276390 0.449837 0.429623
O O7 0.808836 0.281112 0.750000
O O8 0.845590 0.203944 0.904943
O O9 0.864130 0.401258 0.884138
O O10 0.852098 0.405504 0.250000
O O11 0.038876 0.418551 0.125352
O O12 0.787346 0.523273 0.750000
#
# Coordination Sequence:
#
# PCOD8231695 Si02
#       5
#     8   8   8   8   8
#     4  10  19  35  53  74 106 138 178 223 260 322
#     4  10  20  34  55  79 105 141 181 220 272 312
#     4   9  18  34  56  76 103 145 179 216 272 320
#     4  10  19  34  56  81 108 141 182 221 266 329
#     4   9  19  35  54  79 109 140 178 222 270 323
#
# _framework density 19.692204
#
# number of rings (size 3 to 8) (size 9 to 14) (size 15 to 20)
#    0.000    2.400    2.000    0.600    0.000    0.800 
#    3.600    4.000    0.000    0.000    0.000    0.000 
#    0.000    0.000    0.000    0.000    0.000    0.000 
#
# Total GULP energy -495649.013895 kJ/mol
# GULP energy per Si atom -12391.225347 kJ/mol
# Density = 1.964738 g / cm^3
# Si number density = 19.692204 Si / 1000 Ang^3
#
#
#
# Elastic Constant Matrix: (Units=GPa)
#
#
# Indices 1 2 3 4 5 6 
#
# 1 87.7773 53.1040 26.6140 0.0000 0.0000 0.0000
# 2 53.1040 89.8068 19.9782 0.0000 0.0000 0.0000
# 3 26.6140 19.9782 28.7937 0.0000 0.0000 0.0000
# 4 0.0000 0.0000 0.0000 20.3091 0.0000 0.0000
# 5 0.0000 0.0000 0.0000 0.0000 29.1570 0.0000
# 6 0.0000 0.0000 0.0000 0.0000 0.0000 25.0136
#
#
#
# Elastic Compliance Matrix: (Units=1/GPa)
#
#
# Indices 1 2 3 4 5 6 
#
# 1 0.021106 -0.009626 -0.012829 0.000000 0.000000 0.000000
# 2 -0.009626 0.017558 -0.003285 0.000000 0.000000 0.000000
# 3 -0.012829 -0.003285 0.048867 0.000000 0.000000 0.000000
# 4 0.000000 0.000000 0.000000 0.049239 0.000000 0.000000
# 5 0.000000 0.000000 0.000000 0.000000 0.034297 0.000000
# 6 0.000000 0.000000 0.000000 0.000000 0.000000 0.039978
#
#
# Mechanical properties :
#
#
# Convention : Reuss Voigt Hill
#
# Bulk Modulus (GPa) = 27.73899 45.08558 36.41229
# Shear Modulus (GPa) = 18.21211 22.00805 20.11008
#
# Velocity S-wave (km/s) = 3.04441 3.34668 3.19912
# Velocity P-wave (km/s) = 5.14537 6.15456 5.67245
#
# Compressibility (1/GPa) = 0.03605034
#
# Stress axis : x y z
#
# Youngs Moduli (GPa) = 47.37967 56.95428 20.46375
#
# Poissons Ratio (x) = 0.54826 0.26253
# Poissons Ratio (y) = 0.45610 0.06722
# Poissons Ratio (z) = 0.60784 0.18708
#
# Static dielectric constant tensor:
#      x y z
#    x 3.466190 0.000000 0.000000 
#    y 0.000000 3.827860 0.000000 
#    z 0.000000 0.000000 3.487260 
# 
# 
# High freq. dielectric constant tensor:
#      x y z
#    x 1.751350 0.000000 0.000000 
#    y 0.000000 1.768590 0.000000 
#    z 0.000000 0.000000 1.751160 
# 
# From -- ./inp_files/15920.got.cif
#   From: 2010.03.12/outbox.cif.g09.slc.cpg/sg57_8_cif.got.tgz:15920.got - 2010.04.16 15:48:40.
