data_PCOD8231674
_publ_section_title
;
Structure prediction by ZEFSAII (Michael W. Deem and Ramdas Pophale) SiO2 
 PCOD8231674
Probable space group: P B C M
;
_chemical_formula_sum "Si O2"
_cell_formula_units_Z 64
_cell_length_a 15.508311
_cell_length_b 8.762111
_cell_length_c 25.603182
_cell_angle_alpha 90.000000
_cell_angle_beta 90.000000
_cell_angle_gamma 90.000000
_cell_volume 3479.102273
_symmetry_space_group_name_H-M "P B C M"
_symmetry_group_IT_number 57
_symmetry_cell_setting 'orthorhombic'
loop_
_space_group_symop_operation_xyz
x,y,z
-x,-y,1/2+z
x,1/2-y,-z
-x,1/2+y,1/2-z
-x,-y,-z
x,y,1/2-z
-x,1/2+y,z
x,1/2-y,1/2+z
loop_
_atom_site_type_symbol
_atom_site_label
_atom_site_fract_x
_atom_site_fract_y
_atom_site_fract_z
Si Si1 0.574247 0.796192 0.811642
Si Si2 0.231655 0.712421 0.156541
Si Si3 0.745870 0.550547 0.190160
Si Si4 0.874822 0.275000 0.561095
Si Si5 0.400772 0.551188 0.311989
Si Si6 0.072548 0.986199 0.690406
Si Si7 0.913795 0.689310 0.143773
Si Si8 0.988991 0.996488 0.561067
O O1 0.569462 0.812850 0.750000
O O2 0.653256 0.898184 0.833102
O O3 0.587418 0.622983 0.828958
O O4 0.483504 0.857436 0.833685
O O5 0.210398 0.748745 0.095539
O O6 0.317229 0.612284 0.158285
O O7 0.153295 0.625623 0.184093
O O8 0.245996 0.869403 0.186668
O O9 0.752978 0.601980 0.250000
O O10 0.818348 0.641211 0.159411
O O11 0.852201 0.250000 0.500000
O O12 0.913730 0.441735 0.577778
O O13 0.951225 0.158453 0.579743
O O14 0.387509 0.569784 0.250000
O O15 0.071061 0.046040 0.750000
O O16 0.076338 0.129317 0.650740
O O17 0.983905 0.898837 0.678933
O O18 0.924880 0.636007 0.083145
O O19 0.000000 0.000000 0.500000
#
# Coordination Sequence:
#
# PCOD8231674 Si02
#       8
#     8   8   8   8   8   8   8   8
#     4   9  19  35  55  81 113 148 188 228 269 322
#     4  12  22  35  54  79 111 146 188 231 277 339
#     4  11  21  34  52  77 110 148 186 226 271 326
#     4  10  21  38  58  80 106 139 189 243 296 329
#     4  10  19  34  55  81 112 146 182 224 271 325
#     4  12  24  35  49  74 111 154 190 220 264 334
#     4  12  22  37  52  75 109 149 189 228 279 327
#     4  10  20  38  58  77 103 138 186 241 285 328
#
# _framework density 18.395548999999999
#
# number of rings (size 3 to 8) (size 9 to 14) (size 15 to 20)
#    0.000    1.250    2.500    5.250    0.000    3.000 
#    0.000    0.000    0.000    0.000    0.000    3.500 
#    0.000    0.000    0.000    0.000    0.000    0.000 
#
# Total GULP energy -793230.658800 kJ/mol
# GULP energy per Si atom -12394.229044 kJ/mol
# Density = 1.835368 g / cm^3
# Si number density = 18.395549 Si / 1000 Ang^3
#
#
#
# Elastic Constant Matrix: (Units=GPa)
#
#
# Indices 1 2 3 4 5 6 
#
# 1 128.8398 44.1758 38.1638 0.0000 0.0000 0.0000
# 2 44.1758 110.7844 30.6731 0.0000 0.0000 0.0000
# 3 38.1638 30.6731 75.4746 0.0000 0.0000 0.0000
# 4 0.0000 0.0000 0.0000 21.6947 0.0000 0.0000
# 5 0.0000 0.0000 0.0000 0.0000 19.2480 0.0000
# 6 0.0000 0.0000 0.0000 0.0000 0.0000 38.1109
#
#
#
# Elastic Compliance Matrix: (Units=1/GPa)
#
#
# Indices 1 2 3 4 5 6 
#
# 1 0.009883 -0.002881 -0.003826 0.000000 0.000000 0.000000
# 2 -0.002881 0.011011 -0.003018 0.000000 0.000000 0.000000
# 3 -0.003826 -0.003018 0.016411 0.000000 0.000000 0.000000
# 4 0.000000 0.000000 0.000000 0.046094 0.000000 0.000000
# 5 0.000000 0.000000 0.000000 0.000000 0.051954 0.000000
# 6 0.000000 0.000000 0.000000 0.000000 0.000000 0.026239
#
#
# Mechanical properties :
#
#
# Convention : Reuss Voigt Hill
#
# Bulk Modulus (GPa) = 56.01161 60.12491 58.06826
# Shear Modulus (GPa) = 26.73877 29.28312 28.01094
#
# Velocity S-wave (km/s) = 3.81668 3.99414 3.90641
# Velocity P-wave (km/s) = 7.06663 7.35026 7.20984
#
# Compressibility (1/GPa) = 0.01785344
#
# Stress axis : x y z
#
# Youngs Moduli (GPa) = 101.18434 90.81729 60.93565
#
# Poissons Ratio (x) = 0.26169 0.23316
# Poissons Ratio (y) = 0.29156 0.18390
# Poissons Ratio (z) = 0.38716 0.27408
#
# Static dielectric constant tensor:
#      x y z
#    x 3.491180 0.000000 0.000000 
#    y 0.000000 4.273350 0.000000 
#    z 0.000000 0.000000 3.455620 
# 
# 
# High freq. dielectric constant tensor:
#      x y z
#    x 1.706520 0.000000 0.000000 
#    y 0.000000 1.733940 0.000000 
#    z 0.000000 0.000000 1.686200 
# 
# From -- ./inp_files/27470.got.cif
#   From: 2010.03.12/outbox.cif.g09.slc.cpg/sg57_14_cif.got.tgz:27470.got - 2010.04.16 15:48:40.
