data_PCOD8231278
_publ_section_title
;
Structure prediction by ZEFSAII (Michael W. Deem and Ramdas Pophale) SiO2 
 PCOD8231278
Probable space group: P B C M
;
_chemical_formula_sum "Si O2"
_cell_formula_units_Z 48
_cell_length_a 14.747360
_cell_length_b 18.875206
_cell_length_c 8.955806
_cell_angle_alpha 90.000000
_cell_angle_beta 90.000000
_cell_angle_gamma 90.000000
_cell_volume 2492.933304
_symmetry_space_group_name_H-M "P B C M"
_symmetry_group_IT_number 57
_symmetry_cell_setting 'orthorhombic'
loop_
_space_group_symop_operation_xyz
x,y,z
-x,-y,1/2+z
x,1/2-y,-z
-x,1/2+y,1/2-z
-x,-y,-z
x,y,1/2-z
-x,1/2+y,z
x,1/2-y,1/2+z
loop_
_atom_site_type_symbol
_atom_site_label
_atom_site_fract_x
_atom_site_fract_y
_atom_site_fract_z
Si Si1 0.711378 0.178404 0.074708
Si Si2 0.129111 0.577837 0.426505
Si Si3 0.376341 0.457442 0.420569
Si Si4 0.035971 0.173903 0.427641
Si Si5 0.566851 0.097054 0.920615
Si Si6 0.174307 0.077596 0.924718
O O1 0.711225 0.189263 0.250000
O O2 0.779300 0.116703 0.021095
O O3 0.746296 0.250000 0.000000
O O4 0.610277 0.159367 0.019303
O O5 0.126541 0.576867 0.250000
O O6 0.132467 0.496949 0.484649
O O7 0.041843 0.620165 0.486955
O O8 0.375265 0.486910 0.250000
O O9 0.391664 0.522034 0.531573
O O10 0.458036 0.401397 0.442505
O O11 0.281756 0.419298 0.456762
O O12 0.018704 0.250000 0.500000
O O13 0.035417 0.182065 0.250000
O O14 0.131245 0.141877 0.482444
O O15 0.593603 0.110481 0.750000
O O16 0.153579 0.088132 0.750000
#
# Coordination Sequence:
#
# PCOD8231278 Si02
#       6
#     8   8   8   8   8   8
#     4  11  21  36  55  80 115 154 189 232 285 339
#     4   9  19  36  59  83 112 146 185 228 283 339
#     4   9  18  34  57  81 111 146 181 224 277 327
#     4  11  23  39  57  82 112 148 188 232 280 336
#     4  10  19  32  53  83 112 144 185 226 272 331
#     4  10  19  37  61  85 112 147 184 230 282 333
#
# _framework density 19.254427
#
# number of rings (size 3 to 8) (size 9 to 14) (size 15 to 20)
#    0.000    2.000    1.667    2.500    0.000    1.333 
#    0.000    4.167    0.000    0.000    0.000    0.000 
#    0.000    0.000    0.000    0.000    0.000    0.000 
#
# Total GULP energy -595237.355421 kJ/mol
# GULP energy per Si atom -12400.778238 kJ/mol
# Density = 1.921060 g / cm^3
# Si number density = 19.254427 Si / 1000 Ang^3
#
#
#
# Elastic Constant Matrix: (Units=GPa)
#
#
# Indices 1 2 3 4 5 6 
#
# 1 115.6374 29.2430 33.4131 0.0000 0.0000 0.0000
# 2 29.2430 66.2811 22.9922 0.0000 0.0000 0.0000
# 3 33.4131 22.9922 69.7188 0.0000 0.0000 0.0000
# 4 0.0000 0.0000 0.0000 33.1907 0.0000 0.0000
# 5 0.0000 0.0000 0.0000 0.0000 24.6549 0.0000
# 6 0.0000 0.0000 0.0000 0.0000 0.0000 18.9619
#
#
#
# Elastic Compliance Matrix: (Units=1/GPa)
#
#
# Indices 1 2 3 4 5 6 
#
# 1 0.010642 -0.003304 -0.004011 0.000000 0.000000 0.000000
# 2 -0.003304 0.018062 -0.004373 0.000000 0.000000 0.000000
# 3 -0.004011 -0.004373 0.017708 0.000000 0.000000 0.000000
# 4 0.000000 0.000000 0.000000 0.030129 0.000000 0.000000
# 5 0.000000 0.000000 0.000000 0.000000 0.040560 0.000000
# 6 0.000000 0.000000 0.000000 0.000000 0.000000 0.052737
#
#
# Mechanical properties :
#
#
# Convention : Reuss Voigt Hill
#
# Bulk Modulus (GPa) = 43.41002 46.99267 45.20134
# Shear Modulus (GPa) = 24.88898 26.42744 25.65821
#
# Velocity S-wave (km/s) = 3.59923 3.70880 3.65442
# Velocity P-wave (km/s) = 6.31403 6.54212 6.42909
#
# Compressibility (1/GPa) = 0.02303616
#
# Stress axis : x y z
#
# Youngs Moduli (GPa) = 93.96607 55.36504 56.47271
#
# Poissons Ratio (x) = 0.18293 0.22650
# Poissons Ratio (y) = 0.31046 0.24696
# Poissons Ratio (z) = 0.37687 0.24212
#
# Static dielectric constant tensor:
#      x y z
#    x 3.747130 0.000000 0.000000 
#    y 0.000000 3.431550 0.000000 
#    z 0.000000 0.000000 3.377450 
# 
# 
# High freq. dielectric constant tensor:
#      x y z
#    x 1.759100 0.000000 0.000000 
#    y 0.000000 1.733270 0.000000 
#    z 0.000000 0.000000 1.738260 
# 
# From -- ./inp_files/4708.got.cif
#   From: 2010.03.12/outbox.cif.g09.slc.cpg/sg57_3_cif.got.tgz:4708.got - 2010.04.16 15:48:40.
