data_PCOD8231923
_publ_section_title
;
Structure prediction by ZEFSAII (Michael W. Deem and Ramdas Pophale) SiO2 
 PCOD8231923
Probable space group: P B C M
;
_chemical_formula_sum "Si O2"
_cell_formula_units_Z 40
_cell_length_a 10.185500
_cell_length_b 21.903549
_cell_length_c 8.638522
_cell_angle_alpha 90.000000
_cell_angle_beta 90.000000
_cell_angle_gamma 90.000000
_cell_volume 1927.242150
_symmetry_space_group_name_H-M "P B C M"
_symmetry_group_IT_number 57
_symmetry_cell_setting 'orthorhombic'
loop_
_space_group_symop_operation_xyz
x,y,z
-x,-y,1/2+z
x,1/2-y,-z
-x,1/2+y,1/2-z
-x,-y,-z
x,y,1/2-z
-x,1/2+y,z
x,1/2-y,1/2+z
loop_
_atom_site_type_symbol
_atom_site_label
_atom_site_fract_x
_atom_site_fract_y
_atom_site_fract_z
Si Si1 0.781164 0.852550 0.076689
Si Si2 0.956025 0.314271 0.568682
Si Si3 0.738039 0.395433 0.067753
Si Si4 0.330523 0.478241 0.073903
Si Si5 0.524666 0.874864 0.931534
O O1 0.800731 0.826331 0.250000
O O2 0.784587 0.926556 0.077340
O O3 0.636919 0.832916 0.011455
O O4 0.890817 0.824854 0.965514
O O5 0.908874 0.250000 0.500000
O O6 0.930074 0.315276 0.750000
O O7 0.875145 0.367933 0.487609
O O8 0.726796 0.391388 0.250000
O O9 0.732225 0.465188 0.014026
O O10 0.619016 0.356229 0.992459
O O11 0.371964 0.495703 0.250000
O O12 0.454474 0.446877 0.981895
O O13 0.533909 0.866690 0.750000
#
# Coordination Sequence:
#
# PCOD8231923 Si02
#       5
#     8   8   8   8   8
#     4   9  20  39  62  88 120 156 198 242 292 352
#     4  12  26  45  65  85 115 156 202 250 302 355
#     4  12  23  37  60  90 126 162 199 245 299 357
#     4   9  19  35  59  91 126 160 197 241 296 357
#     4  10  19  35  59  91 125 159 196 238 293 352
#
# _framework density 20.755047999999999
#
# number of rings (size 3 to 8) (size 9 to 14) (size 15 to 20)
#    1.200    0.400    0.000    6.600    0.000    0.800 
#    0.000    1.000    0.000    0.000    0.000    0.000 
#    0.000    0.000    0.000    0.000    0.000    0.000 
#
# Total GULP energy -495903.434125 kJ/mol
# GULP energy per Si atom -12397.585853 kJ/mol
# Density = 2.070781 g / cm^3
# Si number density = 20.755048 Si / 1000 Ang^3
#
#
#
# Elastic Constant Matrix: (Units=GPa)
#
#
# Indices 1 2 3 4 5 6 
#
# 1 65.4100 8.7034 20.4468 0.0000 0.0000 0.0000
# 2 8.7034 30.1299 20.1506 0.0000 0.0000 0.0000
# 3 20.4468 20.1506 159.8312 0.0000 0.0000 0.0000
# 4 0.0000 0.0000 0.0000 29.4830 0.0000 0.0000
# 5 0.0000 0.0000 0.0000 0.0000 39.8635 0.0000
# 6 0.0000 0.0000 0.0000 0.0000 0.0000 13.2513
#
#
#
# Elastic Compliance Matrix: (Units=1/GPa)
#
#
# Indices 1 2 3 4 5 6 
#
# 1 0.016278 -0.003614 -0.001627 0.000000 0.000000 0.000000
# 2 -0.003614 0.037048 -0.004208 0.000000 0.000000 0.000000
# 3 -0.001627 -0.004208 0.006995 0.000000 0.000000 0.000000
# 4 0.000000 0.000000 0.000000 0.033918 0.000000 0.000000
# 5 0.000000 0.000000 0.000000 0.000000 0.025086 0.000000
# 6 0.000000 0.000000 0.000000 0.000000 0.000000 0.075464
#
#
# Mechanical properties :
#
#
# Convention : Reuss Voigt Hill
#
# Bulk Modulus (GPa) = 24.14143 39.33030 31.73587
# Shear Modulus (GPa) = 21.97852 30.25757 26.11805
#
# Velocity S-wave (km/s) = 3.25768 3.82231 3.55123
# Velocity P-wave (km/s) = 5.08004 6.20250 5.66912
#
# Compressibility (1/GPa) = 0.04142257
#
# Stress axis : x y z
#
# Youngs Moduli (GPa) = 61.43428 26.99186 142.95345
#
# Poissons Ratio (x) = 0.09755 0.23254
# Poissons Ratio (y) = 0.22203 0.60162
# Poissons Ratio (z) = 0.09994 0.11360
#
# Static dielectric constant tensor:
#      x y z
#    x 3.690490 0.000000 0.000000 
#    y 0.000000 3.469620 0.000000 
#    z 0.000000 0.000000 3.752490 
# 
# 
# High freq. dielectric constant tensor:
#      x y z
#    x 1.808820 0.000000 0.000000 
#    y 0.000000 1.786270 0.000000 
#    z 0.000000 0.000000 1.830620 
# 
# From -- ./inp_files/1730.got.cif
#   From: 2010.03.12/outbox.cif.g09.slc.cpg/sg57_1_cif.got.tgz:1730.got - 2010.04.16 15:48:40.
