data_PCOD8231733
_publ_section_title
;
Structure prediction by ZEFSAII (Michael W. Deem and Ramdas Pophale) SiO2 
 PCOD8231733
Probable space group: P B C M
;
_chemical_formula_sum "Si O2"
_cell_formula_units_Z 48
_cell_length_a 14.682969
_cell_length_b 18.630194
_cell_length_c 9.225157
_cell_angle_alpha 90.000000
_cell_angle_beta 90.000000
_cell_angle_gamma 90.000000
_cell_volume 2523.509972
_symmetry_space_group_name_H-M "P B C M"
_symmetry_group_IT_number 57
_symmetry_cell_setting 'orthorhombic'
loop_
_space_group_symop_operation_xyz
x,y,z
-x,-y,1/2+z
x,1/2-y,-z
-x,1/2+y,1/2-z
-x,-y,-z
x,y,1/2-z
-x,1/2+y,z
x,1/2-y,1/2+z
loop_
_atom_site_type_symbol
_atom_site_label
_atom_site_fract_x
_atom_site_fract_y
_atom_site_fract_z
Si Si1 0.125706 0.073204 0.579722
Si Si2 0.036112 0.675719 0.583771
Si Si3 0.374753 0.943299 0.581428
Si Si4 0.282692 0.319932 0.416645
Si Si5 0.186995 0.937344 0.081793
Si Si6 0.457333 0.097956 0.916349
O O1 0.117806 0.054651 0.750000
O O2 0.219961 0.112875 0.542220
O O3 0.042618 0.122601 0.525953
O O4 0.125855 0.999780 0.489424
O O5 0.035539 0.750000 0.500000
O O6 0.015765 0.694049 0.750000
O O7 0.133141 0.637216 0.564293
O O8 0.360686 0.926226 0.750000
O O9 0.282110 0.926617 0.498789
O O10 0.454894 0.892763 0.518437
O O11 0.403123 0.024831 0.552853
O O12 0.249826 0.250000 0.500000
O O13 0.270089 0.301410 0.250000
O O14 0.387489 0.338237 0.453655
O O15 0.203665 0.955976 0.250000
O O16 0.489785 0.100458 0.750000
#
# Coordination Sequence:
#
# PCOD8231733 Si02
#       6
#     8   8   8   8   8   8
#     4  10  20  38  59  83 114 148 188 236 284 337
#     4  10  23  40  59  83 115 151 190 235 285 338
#     4  10  19  34  57  82 108 143 184 230 282 330
#     4  10  20  34  53  80 115 150 185 228 282 337
#     4  11  22  36  57  88 116 146 190 238 282 335
#     4   9  18  34  53  78 111 144 181 228 278 331
#
# _framework density 19.021124
#
# number of rings (size 3 to 8) (size 9 to 14) (size 15 to 20)
#    0.000    2.000    1.667    2.000    0.000    4.000 
#    0.000    0.833    0.000    0.000    0.000    0.000 
#    0.000    0.000    0.000    0.000    0.000    0.000 
#
# Total GULP energy -595310.610976 kJ/mol
# GULP energy per Si atom -12402.304395 kJ/mol
# Density = 1.897783 g / cm^3
# Si number density = 19.021124 Si / 1000 Ang^3
#
#
#
# Elastic Constant Matrix: (Units=GPa)
#
#
# Indices 1 2 3 4 5 6 
#
# 1 116.4365 28.2717 56.6802 0.0000 0.0000 0.0000
# 2 28.2717 61.8731 37.9389 0.0000 0.0000 0.0000
# 3 56.6802 37.9389 90.2046 0.0000 0.0000 0.0000
# 4 0.0000 0.0000 0.0000 32.2261 0.0000 0.0000
# 5 0.0000 0.0000 0.0000 0.0000 33.2118 0.0000
# 6 0.0000 0.0000 0.0000 0.0000 0.0000 4.0509
#
#
#
# Elastic Compliance Matrix: (Units=1/GPa)
#
#
# Indices 1 2 3 4 5 6 
#
# 1 0.012439 -0.001201 -0.007311 0.000000 0.000000 0.000000
# 2 -0.001201 0.021895 -0.008454 0.000000 0.000000 0.000000
# 3 -0.007311 -0.008454 0.019235 0.000000 0.000000 0.000000
# 4 0.000000 0.000000 0.000000 0.031031 0.000000 0.000000
# 5 0.000000 0.000000 0.000000 0.000000 0.030110 0.000000
# 6 0.000000 0.000000 0.000000 0.000000 0.000000 0.246861
#
#
# Mechanical properties :
#
#
# Convention : Reuss Voigt Hill
#
# Bulk Modulus (GPa) = 50.92362 57.14399 54.03380
# Shear Modulus (GPa) = 12.43632 23.60597 18.02115
#
# Velocity S-wave (km/s) = 2.55976 3.52666 3.08137
# Velocity P-wave (km/s) = 5.96379 6.83306 6.41317
#
# Compressibility (1/GPa) = 0.01963725
#
# Stress axis : x y z
#
# Youngs Moduli (GPa) = 80.39345 45.67340 51.98749
#
# Poissons Ratio (x) = 0.05485 0.38008
# Poissons Ratio (y) = 0.09654 0.43950
# Poissons Ratio (z) = 0.58775 0.38612
#
# Static dielectric constant tensor:
#      x y z
#    x 3.628820 0.000000 0.000000 
#    y 0.000000 3.233770 0.000000 
#    z 0.000000 0.000000 3.483520 
# 
# 
# High freq. dielectric constant tensor:
#      x y z
#    x 1.752100 0.000000 0.000000 
#    y 0.000000 1.719610 0.000000 
#    z 0.000000 0.000000 1.738600 
# 
# From -- ./inp_files/4670.got.cif
#   From: 2010.03.12/outbox.cif.g09.slc.cpg/sg57_3_cif.got.tgz:4670.got - 2010.04.16 15:48:40.
