data_PCOD8231055
_publ_section_title
;
Structure prediction by ZEFSAII (Michael W. Deem and Ramdas Pophale) SiO2 
 PCOD8231055
Probable space group: P B C M
;
_chemical_formula_sum "Si O2"
_cell_formula_units_Z 64
_cell_length_a 20.001407
_cell_length_b 23.109760
_cell_length_c 8.850335
_cell_angle_alpha 90.000000
_cell_angle_beta 90.000000
_cell_angle_gamma 90.000000
_cell_volume 4090.870128
_symmetry_space_group_name_H-M "P B C M"
_symmetry_group_IT_number 57
_symmetry_cell_setting 'orthorhombic'
loop_
_space_group_symop_operation_xyz
x,y,z
-x,-y,1/2+z
x,1/2-y,-z
-x,1/2+y,1/2-z
-x,-y,-z
x,y,1/2-z
-x,1/2+y,z
x,1/2-y,1/2+z
loop_
_atom_site_type_symbol
_atom_site_label
_atom_site_fract_x
_atom_site_fract_y
_atom_site_fract_z
Si Si1 0.711307 0.509766 0.573696
Si Si2 0.413952 0.450609 0.582346
Si Si3 0.462619 0.918225 0.082453
Si Si4 0.104519 0.604591 0.575070
Si Si5 0.319246 0.611540 0.570486
Si Si6 0.157696 0.024570 0.420999
Si Si7 0.983169 0.560482 0.073516
Si Si8 0.789712 0.187878 0.429316
O O1 0.705177 0.497099 0.750000
O O2 0.651311 0.552398 0.523675
O O3 0.709635 0.449643 0.483772
O O4 0.781902 0.540021 0.534342
O O5 0.394122 0.430214 0.750000
O O6 0.472750 0.408212 0.522604
O O7 0.441664 0.515152 0.583945
O O8 0.482948 0.898307 0.250000
O O9 0.397803 0.882199 0.026234
O O10 0.105110 0.622935 0.750000
O O11 0.132130 0.540345 0.550287
O O12 0.149536 0.647582 0.478960
O O13 0.028431 0.608774 0.510406
O O14 0.308745 0.614473 0.750000
O O15 0.280589 0.663423 0.490361
O O16 0.184027 0.030582 0.250000
O O17 0.096717 0.069914 0.449504
O O18 0.001439 0.558982 0.250000
O O19 0.000000 0.500000 0.000000
O O20 0.802280 0.250000 0.500000
O O21 0.786716 0.191997 0.250000
#
# Coordination Sequence:
#
# PCOD8231055 Si02
#       8
#     8   8   8   8   8   8   8   8
#     4  11  19  25  39  60  84 114 147 178 211 254
#     4   9  16  25  37  54  79 108 138 174 209 245
#     4   8  15  26  40  56  76 103 136 173 209 249
#     4  10  19  32  48  63  84 110 140 181 222 263
#     4  10  19  32  46  60  81 108 140 179 221 259
#     4   9  17  28  42  60  86 115 143 177 216 257
#     4   9  17  28  43  62  84 110 142 177 215 260
#     4  12  24  36  50  66  85 111 146 186 226 267
#
# _framework density 15.644593
#
# number of rings (size 3 to 8) (size 9 to 14) (size 15 to 20)
#    0.000    2.250    1.250    5.250    0.000    6.000 
#    0.000    0.000    0.000    0.000    0.000    0.000 
#    0.000    0.000    0.000    1.125    0.000   17.250 
#
# Total GULP energy -793289.144706 kJ/mol
# GULP energy per Si atom -12395.142886 kJ/mol
# Density = 1.560899 g / cm^3
# Si number density = 15.644593 Si / 1000 Ang^3
#
#
#
# Elastic Constant Matrix: (Units=GPa)
#
#
# Indices 1 2 3 4 5 6 
#
# 1 108.6761 26.1925 52.7769 0.0000 0.0000 0.0000
# 2 26.1925 28.6029 20.0970 0.0000 0.0000 0.0000
# 3 52.7769 20.0970 110.5329 0.0000 0.0000 0.0000
# 4 0.0000 0.0000 0.0000 16.1798 0.0000 0.0000
# 5 0.0000 0.0000 0.0000 0.0000 32.0584 0.0000
# 6 0.0000 0.0000 0.0000 0.0000 0.0000 8.9233
#
#
#
# Elastic Compliance Matrix: (Units=1/GPa)
#
#
# Indices 1 2 3 4 5 6 
#
# 1 0.013805 -0.009184 -0.004922 0.000000 0.000000 0.000000
# 2 -0.009184 0.046191 -0.004013 0.000000 0.000000 0.000000
# 3 -0.004922 -0.004013 0.012127 0.000000 0.000000 0.000000
# 4 0.000000 0.000000 0.000000 0.061805 0.000000 0.000000
# 5 0.000000 0.000000 0.000000 0.000000 0.031193 0.000000
# 6 0.000000 0.000000 0.000000 0.000000 0.000000 0.112066
#
#
# Mechanical properties :
#
#
# Convention : Reuss Voigt Hill
#
# Bulk Modulus (GPa) = 27.86662 49.54942 38.70802
# Shear Modulus (GPa) = 15.36629 21.34868 18.35749
#
# Velocity S-wave (km/s) = 3.13742 3.69806 3.42922
# Velocity P-wave (km/s) = 5.56557 7.06929 6.36201
#
# Compressibility (1/GPa) = 0.03588523
#
# Stress axis : x y z
#
# Youngs Moduli (GPa) = 72.43590 21.64922 82.46112
#
# Poissons Ratio (x) = 0.19882 0.40587
# Poissons Ratio (y) = 0.66522 0.33095
# Poissons Ratio (z) = 0.35653 0.08689
#
# Static dielectric constant tensor:
#      x y z
#    x 3.466260 0.000000 0.000000 
#    y 0.000000 2.485880 0.000000 
#    z 0.000000 0.000000 3.163170 
# 
# 
# High freq. dielectric constant tensor:
#      x y z
#    x 1.616770 0.000000 0.000000 
#    y 0.000000 1.515600 0.000000 
#    z 0.000000 0.000000 1.617580 
# 
# From -- ./inp_files/7356.got.cif
#   From: 2010.03.12/outbox.cif.g09.slc.cpg/sg57_4_cif.got.tgz:7356.got - 2010.04.16 15:48:40.
