data_PCOD8231261
_publ_section_title
;
Structure prediction by ZEFSAII (Michael W. Deem and Ramdas Pophale) SiO2 
 PCOD8231261
Probable space group: P B C M
;
_chemical_formula_sum "Si O2"
_cell_formula_units_Z 56
_cell_length_a 16.578505
_cell_length_b 21.113527
_cell_length_c 9.027093
_cell_angle_alpha 90.000000
_cell_angle_beta 90.000000
_cell_angle_gamma 90.000000
_cell_volume 3159.759799
_symmetry_space_group_name_H-M "P B C M"
_symmetry_group_IT_number 57
_symmetry_cell_setting 'orthorhombic'
loop_
_space_group_symop_operation_xyz
x,y,z
-x,-y,1/2+z
x,1/2-y,-z
-x,1/2+y,1/2-z
-x,-y,-z
x,y,1/2-z
-x,1/2+y,z
x,1/2-y,1/2+z
loop_
_atom_site_type_symbol
_atom_site_label
_atom_site_fract_x
_atom_site_fract_y
_atom_site_fract_z
Si Si1 0.540699 0.440415 0.422561
Si Si2 0.712700 0.482989 0.419078
Si Si3 0.149027 0.183692 0.578989
Si Si4 0.297006 0.127614 0.076915
Si Si5 0.982561 0.586873 0.581706
Si Si6 0.552024 0.685100 0.926497
Si Si7 0.122106 0.968341 0.576481
O O1 0.500000 0.500000 0.500000
O O2 0.523948 0.449954 0.250000
O O3 0.636403 0.438517 0.456720
O O4 0.505094 0.373171 0.476586
O O5 0.740530 0.476043 0.250000
O O6 0.682437 0.554315 0.450226
O O7 0.787581 0.461666 0.517417
O O8 0.148206 0.250000 0.500000
O O9 0.175733 0.190012 0.750000
O O10 0.209509 0.138013 0.492617
O O11 0.059434 0.154900 0.566522
O O12 0.298201 0.145784 0.250000
O O13 0.359085 0.172042 0.989705
O O14 0.006660 0.571554 0.750000
O O15 0.064350 0.587256 0.485835
O O16 0.918031 0.534486 0.525438
O O17 0.555191 0.692830 0.750000
O O18 0.518948 0.750000 0.000000
O O19 0.127795 0.961518 0.750000
#
# Coordination Sequence:
#
# PCOD8231261 Si02
#       7
#     8   8   8   8   8   8   8
#     4  10  21  37  57  82 109 143 183 228 277 328
#     4  10  20  34  54  80 111 141 175 221 275 325
#     4  11  22  36  52  75 109 145 182 218 261 317
#     4  11  21  34  54  79 110 146 182 220 268 326
#     4   9  19  34  51  73 104 138 172 213 260 309
#     4  11  23  38  57  79 110 147 186 229 274 329
#     4  10  19  32  53  79 104 133 173 216 260 313
#
# _framework density 17.722866
#
# number of rings (size 3 to 8) (size 9 to 14) (size 15 to 20)
#    0.000    1.714    2.857    2.143    0.000    3.429 
#    0.000    0.000    0.000    0.857    0.000    2.000 
#    0.000    0.000    0.000    0.000    0.000    0.000 
#
# Total GULP energy -694478.120281 kJ/mol
# GULP energy per Si atom -12401.395005 kJ/mol
# Density = 1.768253 g / cm^3
# Si number density = 17.722866 Si / 1000 Ang^3
#
#
#
# Elastic Constant Matrix: (Units=GPa)
#
#
# Indices 1 2 3 4 5 6 
#
# 1 100.4314 46.5369 50.7848 0.0000 0.0000 0.0000
# 2 46.5369 81.9933 46.4120 0.0000 0.0000 0.0000
# 3 50.7848 46.4120 91.3760 0.0000 0.0000 0.0000
# 4 0.0000 0.0000 0.0000 25.0752 0.0000 0.0000
# 5 0.0000 0.0000 0.0000 0.0000 30.2928 0.0000
# 6 0.0000 0.0000 0.0000 0.0000 0.0000 24.9513
#
#
#
# Elastic Compliance Matrix: (Units=1/GPa)
#
#
# Indices 1 2 3 4 5 6 
#
# 1 0.015422 -0.005476 -0.005790 0.000000 0.000000 0.000000
# 2 -0.005476 0.019062 -0.006639 0.000000 0.000000 0.000000
# 3 -0.005790 -0.006639 0.017534 0.000000 0.000000 0.000000
# 4 0.000000 0.000000 0.000000 0.039880 0.000000 0.000000
# 5 0.000000 0.000000 0.000000 0.000000 0.033011 0.000000
# 6 0.000000 0.000000 0.000000 0.000000 0.000000 0.040078
#
#
# Mechanical properties :
#
#
# Convention : Reuss Voigt Hill
#
# Bulk Modulus (GPa) = 61.69485 62.36312 62.02899
# Shear Modulus (GPa) = 24.24845 24.73497 24.49171
#
# Velocity S-wave (km/s) = 3.70293 3.73990 3.72146
# Velocity P-wave (km/s) = 7.29169 7.34258 7.31718
#
# Compressibility (1/GPa) = 0.01620881
#
# Stress axis : x y z
#
# Youngs Moduli (GPa) = 64.84173 52.46111 57.03304
#
# Poissons Ratio (x) = 0.28726 0.33022
# Poissons Ratio (y) = 0.35505 0.37862
# Poissons Ratio (z) = 0.37544 0.34827
#
# Static dielectric constant tensor:
#      x y z
#    x 3.401320 0.000000 0.000000 
#    y 0.000000 3.181410 0.000000 
#    z 0.000000 0.000000 3.361670 
# 
# 
# High freq. dielectric constant tensor:
#      x y z
#    x 1.682060 0.000000 0.000000 
#    y 0.000000 1.665530 0.000000 
#    z 0.000000 0.000000 1.695470 
# 
# From -- ./inp_files/5160.got.cif
#   From: 2010.03.12/outbox.cif.g09.slc.cpg/sg57_3_cif.got.tgz:5160.got - 2010.04.16 15:48:40.
