data_PCOD8231575
_publ_section_title
;
Structure prediction by ZEFSAII (Michael W. Deem and Ramdas Pophale) SiO2 
 PCOD8231575
Probable space group: P B C M
;
_chemical_formula_sum "Si O2"
_cell_formula_units_Z 56
_cell_length_a 12.893464
_cell_length_b 11.012934
_cell_length_c 21.416823
_cell_angle_alpha 90.000000
_cell_angle_beta 90.000000
_cell_angle_gamma 90.000000
_cell_volume 3041.078956
_symmetry_space_group_name_H-M "P B C M"
_symmetry_group_IT_number 57
_symmetry_cell_setting 'orthorhombic'
loop_
_space_group_symop_operation_xyz
x,y,z
-x,-y,1/2+z
x,1/2-y,-z
-x,1/2+y,1/2-z
-x,-y,-z
x,y,1/2-z
-x,1/2+y,z
x,1/2-y,1/2+z
loop_
_atom_site_type_symbol
_atom_site_label
_atom_site_fract_x
_atom_site_fract_y
_atom_site_fract_z
Si Si1 0.787614 0.450494 0.910615
Si Si2 0.450984 0.904460 0.318706
Si Si3 0.785100 0.623386 0.472971
Si Si4 0.378611 0.125334 0.121291
Si Si5 0.590286 0.215530 0.427081
Si Si6 0.684913 0.874540 0.179823
Si Si7 0.988059 0.373067 0.537308
O O1 0.695686 0.353881 0.911619
O O2 0.770951 0.541435 0.852981
O O3 0.901748 0.386633 0.907486
O O4 0.791829 0.523334 0.974354
O O5 0.427713 0.844522 0.250000
O O6 0.413671 0.825721 0.377464
O O7 0.572513 0.936703 0.323016
O O8 0.393010 0.033485 0.321223
O O9 0.740956 0.750000 0.500000
O O10 0.702893 0.566272 0.425844
O O11 0.894917 0.649569 0.437788
O O12 0.487658 0.136897 0.085025
O O13 0.326512 0.247445 0.145232
O O14 0.590211 0.250000 0.500000
O O15 0.723987 0.854248 0.250000
O O16 0.955303 0.250000 0.500000
O O17 0.000000 0.500000 0.500000
#
# Coordination Sequence:
#
# PCOD8231575 Si02
#       7
#     8   8   8   8   8   8   8
#     4  11  20  36  56  82 114 148 186 230 291 348
#     4  10  22  38  54  79 116 160 198 230 285 360
#     4  10  19  33  56  86 115 142 182 232 292 343
#     4  11  20  34  56  81 114 147 186 237 289 345
#     4  11  23  33  53  86 120 148 184 241 295 342
#     4  10  21  35  54  80 108 151 198 237 279 341
#     4   9  20  36  58  86 113 147 186 229 283 351
#
# _framework density 18.414515000000002
#
# number of rings (size 3 to 8) (size 9 to 14) (size 15 to 20)
#    0.000    1.714    2.857    2.143    2.000    3.429 
#    0.000    0.000    0.000    1.714    0.000    0.000 
#    0.000    0.000    0.000    0.000    0.000    0.000 
#
# Total GULP energy -693783.908058 kJ/mol
# GULP energy per Si atom -12388.998358 kJ/mol
# Density = 1.837260 g / cm^3
# Si number density = 18.414515 Si / 1000 Ang^3
#
#
#
# Elastic Constant Matrix: (Units=GPa)
#
#
# Indices 1 2 3 4 5 6 
#
# 1 89.3066 17.1190 30.2115 0.0000 0.0000 0.0000
# 2 17.1190 63.3520 22.1023 0.0000 0.0000 0.0000
# 3 30.2115 22.1023 101.9108 0.0000 0.0000 0.0000
# 4 0.0000 0.0000 0.0000 23.2092 0.0000 0.0000
# 5 0.0000 0.0000 0.0000 0.0000 -12.8668 0.0000
# 6 0.0000 0.0000 0.0000 0.0000 0.0000 26.1334
#
#
#
# Elastic Compliance Matrix: (Units=1/GPa)
#
#
# Indices 1 2 3 4 5 6 
#
# 1 0.012748 -0.002300 -0.003280 0.000000 0.000000 0.000000
# 2 -0.002300 0.017492 -0.003112 0.000000 0.000000 0.000000
# 3 -0.003280 -0.003112 0.011460 0.000000 0.000000 0.000000
# 4 0.000000 0.000000 0.000000 0.043086 0.000000 0.000000
# 5 0.000000 0.000000 0.000000 0.000000 -0.077719 0.000000
# 6 0.000000 0.000000 0.000000 0.000000 0.000000 0.038265
#
#
# Mechanical properties :
#
#
# Convention : Reuss Voigt Hill
#
# Bulk Modulus (GPa) = 41.12654 43.71501 42.42078
# Shear Modulus (GPa) = 70.59967 19.63759 45.11863
#
# Velocity S-wave (km/s) = 6.19858 3.26915 4.95529
# Velocity P-wave (km/s) = 8.57975 6.16772 7.47171
#
# Compressibility (1/GPa) = 0.02431520
#
# Stress axis : x y z
#
# Youngs Moduli (GPa) = 78.44365 57.16886 87.26157
#
# Poissons Ratio (x) = 0.13151 0.28624
# Poissons Ratio (y) = 0.18045 0.27153
# Poissons Ratio (z) = 0.25731 0.17789
#
# Static dielectric constant tensor:
#      x y z
#    x 3.768960 0.000000 0.000000 
#    y 0.000000 3.099900 0.000000 
#    z 0.000000 0.000000 12.106250 
# 
# 
# High freq. dielectric constant tensor:
#      x y z
#    x 1.712290 0.000000 0.000000 
#    y 0.000000 1.722020 0.000000 
#    z 0.000000 0.000000 1.691710 
# 
# From -- ./inp_files/25035.got.cif
#   From: 2010.03.12/outbox.cif.g09.slc.cpg/sg57_13_cif.got.tgz:25035.got - 2010.04.16 15:48:40.
