data_PCOD8231523
_publ_section_title
;
Structure prediction by ZEFSAII (Michael W. Deem and Ramdas Pophale) SiO2 
 PCOD8231523
Probable space group: P B C M
;
_chemical_formula_sum "Si O2"
_cell_formula_units_Z 56
_cell_length_a 21.844482
_cell_length_b 14.480701
_cell_length_c 8.444187
_cell_angle_alpha 90.000000
_cell_angle_beta 90.000000
_cell_angle_gamma 90.000000
_cell_volume 2671.094046
_symmetry_space_group_name_H-M "P B C M"
_symmetry_group_IT_number 57
_symmetry_cell_setting 'orthorhombic'
loop_
_space_group_symop_operation_xyz
x,y,z
-x,-y,1/2+z
x,1/2-y,-z
-x,1/2+y,1/2-z
-x,-y,-z
x,y,1/2-z
-x,1/2+y,z
x,1/2-y,1/2+z
loop_
_atom_site_type_symbol
_atom_site_label
_atom_site_fract_x
_atom_site_fract_y
_atom_site_fract_z
Si Si1 0.363809 0.471266 0.566094
Si Si2 0.533134 0.651615 0.936116
Si Si3 0.036663 0.152391 0.938429
Si Si4 0.898594 0.155321 0.934686
Si Si5 0.143939 0.460355 0.934497
Si Si6 0.601294 0.154733 0.064613
Si Si7 0.255229 0.351879 0.433875
O O1 0.361446 0.493694 0.750000
O O2 0.429217 0.428599 0.521610
O O3 0.354561 0.568346 0.473381
O O4 0.310558 0.400736 0.523153
O O5 0.544832 0.645782 0.750000
O O6 0.556835 0.750000 0.000000
O O7 0.462212 0.637344 0.974047
O O8 0.043334 0.144561 0.750000
O O9 0.967258 0.140121 0.001703
O O10 0.062667 0.250000 0.000000
O O11 0.076195 0.074067 0.023974
O O12 0.905365 0.166352 0.750000
O O13 0.854873 0.069384 0.977660
O O14 0.869067 0.250000 0.000000
O O15 0.158635 0.443794 0.750000
O O16 0.193398 0.409200 0.041536
O O17 0.588629 0.163766 0.250000
O O18 0.631185 0.250000 0.000000
O O19 0.245587 0.250000 0.500000
O O20 0.271274 0.346795 0.250000
#
# Coordination Sequence:
#
# PCOD8231523 Si02
#       7
#     8   8   8   8   8   8   8
#     4  12  24  41  62  87 118 156 197 243 293 348
#     4  11  21  36  58  89 124 160 198 242 293 350
#     4  10  19  33  54  84 117 153 190 234 286 343
#     4   9  20  36  57  84 117 151 190 235 286 340
#     4  11  22  38  58  84 115 152 193 239 288 342
#     4  11  22  39  61  90 123 158 197 242 292 346
#     4  12  26  45  65  88 115 150 192 239 289 345
#
# _framework density 20.965191999999998
#
# number of rings (size 3 to 8) (size 9 to 14) (size 15 to 20)
#    0.000    1.143    0.000    8.571    0.000    1.714 
#    0.000    0.714    0.000    1.714    0.000    0.000 
#    0.000    0.000    0.000    0.000    0.000    0.000 
#
# Total GULP energy -694666.772375 kJ/mol
# GULP energy per Si atom -12404.763792 kJ/mol
# Density = 2.091747 g / cm^3
# Si number density = 20.965192 Si / 1000 Ang^3
#
#
#
# Elastic Constant Matrix: (Units=GPa)
#
#
# Indices 1 2 3 4 5 6 
#
# 1 48.7796 32.9868 10.9164 0.0000 0.0000 0.0000
# 2 32.9868 147.4317 34.5206 0.0000 0.0000 0.0000
# 3 10.9164 34.5206 86.7835 0.0000 0.0000 0.0000
# 4 0.0000 0.0000 0.0000 37.0667 0.0000 0.0000
# 5 0.0000 0.0000 0.0000 0.0000 30.0806 0.0000
# 6 0.0000 0.0000 0.0000 0.0000 0.0000 21.4455
#
#
#
# Elastic Compliance Matrix: (Units=1/GPa)
#
#
# Indices 1 2 3 4 5 6 
#
# 1 0.024231 -0.005191 -0.000983 0.000000 0.000000 0.000000
# 2 -0.005191 0.008592 -0.002765 0.000000 0.000000 0.000000
# 3 -0.000983 -0.002765 0.012746 0.000000 0.000000 0.000000
# 4 0.000000 0.000000 0.000000 0.026978 0.000000 0.000000
# 5 0.000000 0.000000 0.000000 0.000000 0.033244 0.000000
# 6 0.000000 0.000000 0.000000 0.000000 0.000000 0.046630
#
#
# Mechanical properties :
#
#
# Convention : Reuss Voigt Hill
#
# Bulk Modulus (GPa) = 36.11268 48.87137 42.49202
# Shear Modulus (GPa) = 27.85061 31.35662 29.60362
#
# Velocity S-wave (km/s) = 3.64871 3.87156 3.76178
# Velocity P-wave (km/s) = 5.91719 6.58382 6.25939
#
# Compressibility (1/GPa) = 0.02769111
#
# Stress axis : x y z
#
# Youngs Moduli (GPa) = 41.26950 116.39221 78.45438
#
# Poissons Ratio (x) = 0.60423 0.07712
# Poissons Ratio (y) = 0.21424 0.21689
# Poissons Ratio (z) = 0.04057 0.32177
#
# Static dielectric constant tensor:
#      x y z
#    x 3.524830 0.000000 0.000000 
#    y 0.000000 4.710490 0.000000 
#    z 0.000000 0.000000 3.821660 
# 
# 
# High freq. dielectric constant tensor:
#      x y z
#    x 1.792590 0.000000 0.000000 
#    y 0.000000 1.840870 0.000000 
#    z 0.000000 0.000000 1.831920 
# 
# From -- ./inp_files/8098.got.cif
#   From: 2010.03.12/outbox.cif.g09.slc.cpg/sg57_5_cif.got.tgz:8098.got - 2010.04.16 15:48:40.
