data_PCOD8231235
_publ_section_title
;
Structure prediction by ZEFSAII (Michael W. Deem and Ramdas Pophale) SiO2 
 PCOD8231235
Probable space group: P B C M
;
_chemical_formula_sum "Si O2"
_cell_formula_units_Z 48
_cell_length_a 15.200069
_cell_length_b 9.151500
_cell_length_c 16.656326
_cell_angle_alpha 90.000000
_cell_angle_beta 90.000000
_cell_angle_gamma 90.000000
_cell_volume 2316.952102
_symmetry_space_group_name_H-M "P B C M"
_symmetry_group_IT_number 57
_symmetry_cell_setting 'orthorhombic'
loop_
_space_group_symop_operation_xyz
x,y,z
-x,-y,1/2+z
x,1/2-y,-z
-x,1/2+y,1/2-z
-x,-y,-z
x,y,1/2-z
-x,1/2+y,z
x,1/2-y,1/2+z
loop_
_atom_site_type_symbol
_atom_site_label
_atom_site_fract_x
_atom_site_fract_y
_atom_site_fract_z
Si Si1 0.602012 0.286685 0.907114
Si Si2 0.714521 0.792941 0.409410
Si Si3 0.547070 0.594670 0.657723
Si Si4 0.767878 0.096200 0.343256
Si Si5 0.954130 0.477443 0.656923
Si Si6 0.890831 0.787172 0.845607
O O1 0.547111 0.163731 0.860965
O O2 0.562080 0.448291 0.894093
O O3 0.701941 0.275977 0.871912
O O4 0.602160 0.250000 0.000000
O O5 0.694253 0.750000 0.500000
O O6 0.621792 0.782686 0.361992
O O7 0.791207 0.685420 0.376051
O O8 0.747955 0.957850 0.399456
O O9 0.551986 0.548617 0.750000
O O10 0.749624 0.055006 0.250000
O O11 0.871184 0.134981 0.354794
O O12 0.973554 0.499574 0.750000
O O13 0.929184 0.634204 0.619796
O O14 0.043448 0.410952 0.618999
O O15 0.889110 0.783837 0.750000
#
# Coordination Sequence:
#
# PCOD8231235 Si02
#       6
#     8   8   8   8   8   8
#     4  11  22  37  58  85 114 142 178 228 278 321
#     4  10  19  32  52  78 107 140 178 222 269 321
#     4  11  22  40  61  82 108 147 187 222 265 328
#     4   9  18  37  58  77 105 150 190 219 264 332
#     4   8  15  29  53  76 100 135 182 225 262 311
#     4   9  16  31  51  74 101 138 180 222 266 317
#
# _framework density 20.716874000000001
#
# number of rings (size 3 to 8) (size 9 to 14) (size 15 to 20)
#    0.000    2.333    0.000    6.000    0.000    1.333 
#    0.000    9.167    0.000    4.000    0.000    0.000 
#    0.000    0.000    0.000    0.000    0.000    0.000 
#
# Total GULP energy -594765.304281 kJ/mol
# GULP energy per Si atom -12390.943839 kJ/mol
# Density = 2.066972 g / cm^3
# Si number density = 20.716874 Si / 1000 Ang^3
#
#
#
# Elastic Constant Matrix: (Units=GPa)
#
#
# Indices 1 2 3 4 5 6 
#
# 1 28.7350 0.4696 22.6673 0.0000 0.0000 0.0000
# 2 0.4696 38.2685 28.6827 0.0000 0.0000 0.0000
# 3 22.6673 28.6827 98.4419 0.0000 0.0000 0.0000
# 4 0.0000 0.0000 0.0000 11.9581 0.0000 0.0000
# 5 0.0000 0.0000 0.0000 0.0000 5.8522 0.0000
# 6 0.0000 0.0000 0.0000 0.0000 0.0000 37.5983
#
#
#
# Elastic Compliance Matrix: (Units=1/GPa)
#
#
# Indices 1 2 3 4 5 6 
#
# 1 0.044929 0.009215 -0.013030 0.000000 0.000000 0.000000
# 2 0.009215 0.035322 -0.012414 0.000000 0.000000 0.000000
# 3 -0.013030 -0.012414 0.016776 0.000000 0.000000 0.000000
# 4 0.000000 0.000000 0.000000 0.083626 0.000000 0.000000
# 5 0.000000 0.000000 0.000000 0.000000 0.170877 0.000000
# 6 0.000000 0.000000 0.000000 0.000000 0.000000 0.026597
#
#
# Mechanical properties :
#
#
# Convention : Reuss Voigt Hill
#
# Bulk Modulus (GPa) = 15.48727 29.89829 22.69278
# Shear Modulus (GPa) = 11.57120 18.65675 15.11398
#
# Velocity S-wave (km/s) = 2.36591 3.00419 2.70395
# Velocity P-wave (km/s) = 3.86721 5.14749 4.55258
#
# Compressibility (1/GPa) = 0.06456915
#
# Stress axis : x y z
#
# Youngs Moduli (GPa) = 22.25732 28.31079 59.61047
#
# Poissons Ratio (x) = -0.26089 0.77675
# Poissons Ratio (y) = -0.20510 0.73998
# Poissons Ratio (z) = 0.29002 0.35144
#
# Static dielectric constant tensor:
#      x y z
#    x 4.443410 0.000000 0.000000 
#    y 0.000000 3.578470 0.000000 
#    z 0.000000 0.000000 3.449350 
# 
# 
# High freq. dielectric constant tensor:
#      x y z
#    x 1.834050 0.000000 0.000000 
#    y 0.000000 1.773360 0.000000 
#    z 0.000000 0.000000 1.788460 
# 
# From -- ./inp_files/18951.got.cif
#   From: 2010.03.12/outbox.cif.g09.slc.cpg/sg57_10_cif.got.tgz:18951.got - 2010.04.16 15:48:40.
