data_PCOD8231014
_publ_section_title
;
Structure prediction by ZEFSAII (Michael W. Deem and Ramdas Pophale) SiO2 
 PCOD8231014
Probable space group: P B C M
;
_chemical_formula_sum "Si O2"
_cell_formula_units_Z 48
_cell_length_a 20.059688
_cell_length_b 13.832575
_cell_length_c 8.963450
_cell_angle_alpha 90.000000
_cell_angle_beta 90.000000
_cell_angle_gamma 90.000000
_cell_volume 2487.152459
_symmetry_space_group_name_H-M "P B C M"
_symmetry_group_IT_number 57
_symmetry_cell_setting 'orthorhombic'
loop_
_space_group_symop_operation_xyz
x,y,z
-x,-y,1/2+z
x,1/2-y,-z
-x,1/2+y,1/2-z
-x,-y,-z
x,y,1/2-z
-x,1/2+y,z
x,1/2-y,1/2+z
loop_
_atom_site_type_symbol
_atom_site_label
_atom_site_fract_x
_atom_site_fract_y
_atom_site_fract_z
Si Si1 0.147206 0.050050 0.078336
Si Si2 0.284075 0.353238 0.927390
Si Si3 0.403194 0.046502 0.574949
Si Si4 0.033780 0.346701 0.425428
Si Si5 0.475015 0.849849 0.574748
Si Si6 0.116732 0.842757 0.420362
O O1 0.129169 0.070210 0.250000
O O2 0.209925 0.113525 0.027460
O O3 0.163363 0.936188 0.054433
O O4 0.081926 0.068727 0.980550
O O5 0.293497 0.348014 0.750000
O O6 0.299245 0.250000 0.000000
O O7 0.333033 0.433177 0.996300
O O8 0.399713 0.069572 0.750000
O O9 0.456251 0.118652 0.501376
O O10 0.420761 0.934047 0.546043
O O11 0.062404 0.250000 0.500000
O O12 0.039395 0.338126 0.250000
O O13 0.958142 0.365136 0.480094
O O14 0.449659 0.750000 0.500000
O O15 0.487142 0.833771 0.750000
O O16 0.149120 0.750000 0.500000
O O17 0.111522 0.813261 0.250000
#
# Coordination Sequence:
#
# PCOD8231014 Si02
#       6
#     8   8   8   8   8   8
#     4  10  21  36  53  75 104 137 175 218 262 311
#     4  11  23  38  56  77 106 142 177 216 261 312
#     4  10  21  37  57  82 112 145 181 219 260 308
#     4  10  19  31  51  77 104 134 169 214 266 318
#     4  10  20  35  58  86 114 144 178 218 262 308
#     4   9  19  35  53  75 102 133 172 217 266 317
#
# _framework density 19.29918
#
# number of rings (size 3 to 8) (size 9 to 14) (size 15 to 20)
#    0.000    2.000    0.000    3.500    0.000    6.000 
#    0.000    0.833    0.000    4.000    0.000    0.000 
#    0.000    0.000    0.000    0.000    0.000    0.000 
#
# Total GULP energy -595226.936794 kJ/mol
# GULP energy per Si atom -12400.561183 kJ/mol
# Density = 1.925525 g / cm^3
# Si number density = 19.299180 Si / 1000 Ang^3
#
#
#
# Elastic Constant Matrix: (Units=GPa)
#
#
# Indices 1 2 3 4 5 6 
#
# 1 49.3025 30.7327 32.3804 0.0000 0.0000 0.0000
# 2 30.7327 114.7790 48.9939 0.0000 0.0000 0.0000
# 3 32.3804 48.9939 90.4443 0.0000 0.0000 0.0000
# 4 0.0000 0.0000 0.0000 36.4094 0.0000 0.0000
# 5 0.0000 0.0000 0.0000 0.0000 22.6116 0.0000
# 6 0.0000 0.0000 0.0000 0.0000 0.0000 28.1324
#
#
#
# Elastic Compliance Matrix: (Units=1/GPa)
#
#
# Indices 1 2 3 4 5 6 
#
# 1 0.027982 -0.004183 -0.007752 0.000000 0.000000 0.000000
# 2 -0.004183 0.011958 -0.004980 0.000000 0.000000 0.000000
# 3 -0.007752 -0.004980 0.016529 0.000000 0.000000 0.000000
# 4 0.000000 0.000000 0.000000 0.027465 0.000000 0.000000
# 5 0.000000 0.000000 0.000000 0.000000 0.044225 0.000000
# 6 0.000000 0.000000 0.000000 0.000000 0.000000 0.035546
#
#
# Mechanical properties :
#
#
# Convention : Reuss Voigt Hill
#
# Bulk Modulus (GPa) = 44.17141 53.19330 48.68235
# Shear Modulus (GPa) = 24.38034 26.92526 25.65280
#
# Velocity S-wave (km/s) = 3.55813 3.73922 3.64980
# Velocity P-wave (km/s) = 6.31013 6.80182 6.56058
#
# Compressibility (1/GPa) = 0.02263908
#
# Stress axis : x y z
#
# Youngs Moduli (GPa) = 35.73756 83.62383 60.49792
#
# Poissons Ratio (x) = 0.34983 0.46896
# Poissons Ratio (y) = 0.14950 0.30129
# Poissons Ratio (z) = 0.27703 0.41646
#
# Static dielectric constant tensor:
#      x y z
#    x 3.315200 0.000000 0.000000 
#    y 0.000000 3.647590 0.000000 
#    z 0.000000 0.000000 3.554940 
# 
# 
# High freq. dielectric constant tensor:
#      x y z
#    x 1.725270 0.000000 0.000000 
#    y 0.000000 1.761410 0.000000 
#    z 0.000000 0.000000 1.758860 
# 
# From -- ./inp_files/6564.got.cif
#   From: 2010.03.12/outbox.cif.g09.slc.cpg/sg57_4_cif.got.tgz:6564.got - 2010.04.16 15:48:40.
