data_PCOD8231290
_publ_section_title
;
Structure prediction by ZEFSAII (Michael W. Deem and Ramdas Pophale) SiO2 
 PCOD8231290
Probable space group: P B C M
;
_chemical_formula_sum "Si O2"
_cell_formula_units_Z 64
_cell_length_a 19.860069
_cell_length_b 19.595634
_cell_length_c 9.280843
_cell_angle_alpha 90.000000
_cell_angle_beta 90.000000
_cell_angle_gamma 90.000000
_cell_volume 3611.831641
_symmetry_space_group_name_H-M "P B C M"
_symmetry_group_IT_number 57
_symmetry_cell_setting 'orthorhombic'
loop_
_space_group_symop_operation_xyz
x,y,z
-x,-y,1/2+z
x,1/2-y,-z
-x,1/2+y,1/2-z
-x,-y,-z
x,y,1/2-z
-x,1/2+y,z
x,1/2-y,1/2+z
loop_
_atom_site_type_symbol
_atom_site_label
_atom_site_fract_x
_atom_site_fract_y
_atom_site_fract_z
Si Si1 0.919350 0.440671 0.416544
Si Si2 0.044398 0.092553 0.418820
Si Si3 0.671541 0.179122 0.419054
Si Si4 0.766132 0.077523 0.917086
Si Si5 0.415972 0.063101 0.918235
Si Si6 0.168865 0.180492 0.419060
Si Si7 0.455540 0.589429 0.415390
Si Si8 0.717057 0.926796 0.582336
O O1 0.937113 0.433014 0.250000
O O2 0.924471 0.519616 0.464010
O O3 0.845022 0.413528 0.449945
O O4 0.973078 0.395001 0.503385
O O5 0.031694 0.096062 0.250000
O O6 0.096785 0.150523 0.468236
O O7 0.676759 0.250000 0.500000
O O8 0.684411 0.189390 0.250000
O O9 0.728284 0.129503 0.479967
O O10 0.597965 0.148200 0.448868
O O11 0.749992 0.093305 0.750000
O O12 0.744032 0.001394 0.957516
O O13 0.413369 0.078987 0.750000
O O14 0.421281 0.982821 0.952880
O O15 0.479999 0.102550 0.984445
O O16 0.348838 0.091649 0.991112
O O17 0.183977 0.250000 0.500000
O O18 0.169453 0.194502 0.250000
O O19 0.226199 0.126884 0.461996
O O20 0.479313 0.590181 0.250000
O O21 0.698733 0.921959 0.750000
#
# Coordination Sequence:
#
# PCOD8231290 Si02
#       8
#     8   8   8   8   8   8   8   8
#     4   9  17  31  53  81 108 135 176 224 271 323
#     4   9  17  32  52  77 108 140 176 222 272 322
#     4  11  23  39  57  81 113 146 184 226 273 330
#     4  10  19  34  57  82 109 145 184 226 276 329
#     4  10  19  32  54  84 111 135 176 227 270 317
#     4  10  21  37  55  78 110 148 186 225 274 331
#     4   9  19  35  53  78 110 141 174 219 270 322
#     4  10  19  34  56  80 110 146 182 225 278 328
#
# _framework density 17.719541
#
# number of rings (size 3 to 8) (size 9 to 14) (size 15 to 20)
#    0.000    2.250    2.500    0.750    0.000    3.000 
#    0.000    1.250    0.000    1.500    0.000    0.000 
#    0.000    0.000    0.000    0.000    0.000    0.000 
#
# Total GULP energy -793760.669274 kJ/mol
# GULP energy per Si atom -12402.510457 kJ/mol
# Density = 1.767921 g / cm^3
# Si number density = 17.719541 Si / 1000 Ang^3
#
#
#
# Elastic Constant Matrix: (Units=GPa)
#
#
# Indices 1 2 3 4 5 6 
#
# 1 138.9817 60.6788 74.9448 0.0000 0.0000 0.0000
# 2 60.6788 105.3058 55.7623 0.0000 0.0000 0.0000
# 3 74.9448 55.7623 82.8482 0.0000 0.0000 0.0000
# 4 0.0000 0.0000 0.0000 27.5712 0.0000 0.0000
# 5 0.0000 0.0000 0.0000 0.0000 36.6077 0.0000
# 6 0.0000 0.0000 0.0000 0.0000 0.0000 22.7683
#
#
#
# Elastic Compliance Matrix: (Units=1/GPa)
#
#
# Indices 1 2 3 4 5 6 
#
# 1 0.014359 -0.002169 -0.011530 0.000000 0.000000 0.000000
# 2 -0.002169 0.015082 -0.008190 0.000000 0.000000 0.000000
# 3 -0.011530 -0.008190 0.028012 0.000000 0.000000 0.000000
# 4 0.000000 0.000000 0.000000 0.036270 0.000000 0.000000
# 5 0.000000 0.000000 0.000000 0.000000 0.027317 0.000000
# 6 0.000000 0.000000 0.000000 0.000000 0.000000 0.043921
#
#
# Mechanical properties :
#
#
# Convention : Reuss Voigt Hill
#
# Bulk Modulus (GPa) = 73.11137 78.87861 75.99499
# Shear Modulus (GPa) = 23.44147 26.43944 24.94045
#
# Velocity S-wave (km/s) = 3.64114 3.86697 3.75575
# Velocity P-wave (km/s) = 7.68291 8.03428 7.86056
#
# Compressibility (1/GPa) = 0.01367776
#
# Stress axis : x y z
#
# Youngs Moduli (GPa) = 69.64048 66.30223 35.69845
#
# Poissons Ratio (x) = 0.14379 0.41160
# Poissons Ratio (y) = 0.15103 0.29236
# Poissons Ratio (z) = 0.80295 0.54299
#
# Static dielectric constant tensor:
#      x y z
#    x 3.413570 0.000000 0.000000 
#    y 0.000000 3.290350 0.000000 
#    z 0.000000 0.000000 3.245960 
# 
# 
# High freq. dielectric constant tensor:
#      x y z
#    x 1.696730 0.000000 0.000000 
#    y 0.000000 1.660460 0.000000 
#    z 0.000000 0.000000 1.685180 
# 
# From -- ./inp_files/7282.got.cif
#   From: 2010.03.12/outbox.cif.g09.slc.cpg/sg57_4_cif.got.tgz:7282.got - 2010.04.16 15:48:40.
