data_PCOD8231222
_publ_section_title
;
Structure prediction by ZEFSAII (Michael W. Deem and Ramdas Pophale) SiO2 
 PCOD8231222
Probable space group: P B C M
;
_chemical_formula_sum "Si O2"
_cell_formula_units_Z 64
_cell_length_a 14.791513
_cell_length_b 29.297810
_cell_length_c 8.516269
_cell_angle_alpha 90.000000
_cell_angle_beta 90.000000
_cell_angle_gamma 90.000000
_cell_volume 3690.601285
_symmetry_space_group_name_H-M "P B C M"
_symmetry_group_IT_number 57
_symmetry_cell_setting 'orthorhombic'
loop_
_space_group_symop_operation_xyz
x,y,z
-x,-y,1/2+z
x,1/2-y,-z
-x,1/2+y,1/2-z
-x,-y,-z
x,y,1/2-z
-x,1/2+y,z
x,1/2-y,1/2+z
loop_
_atom_site_type_symbol
_atom_site_label
_atom_site_fract_x
_atom_site_fract_y
_atom_site_fract_z
Si Si1 0.006045 0.201097 0.934723
Si Si2 0.797943 0.796495 0.932681
Si Si3 0.173401 0.964989 0.433621
Si Si4 0.956048 0.392049 0.932830
Si Si5 0.295448 0.120855 0.569968
Si Si6 0.551443 0.933521 0.931966
Si Si7 0.378068 0.532731 0.933687
Si Si8 0.873308 0.940194 0.431422
O O1 0.990353 0.199253 0.750000
O O2 0.972948 0.250000 0.000000
O O3 0.111058 0.192699 0.971999
O O4 0.949222 0.160740 0.015708
O O5 0.822080 0.791493 0.750000
O O6 0.754801 0.750000 0.000000
O O7 0.726279 0.836343 0.959699
O O8 0.171363 0.976419 0.250000
O O9 0.119273 0.919166 0.469844
O O10 0.276309 0.957873 0.491113
O O11 0.126008 0.006696 0.523752
O O12 0.934588 0.396310 0.750000
O O13 0.054980 0.412326 0.966318
O O14 0.289513 0.136278 0.750000
O O15 0.396483 0.105011 0.530036
O O16 0.225625 0.079980 0.533146
O O17 0.564219 0.922983 0.750000
O O18 0.595516 0.981517 0.980757
O O19 0.445474 0.932710 0.976633
O O20 0.389849 0.541250 0.750000
O O21 0.900995 0.935088 0.250000
#
# Coordination Sequence:
#
# PCOD8231222 Si02
#       8
#     8   8   8   8   8   8   8   8
#     4  11  21  36  55  77 103 134 172 215 264 310
#     4  11  21  34  53  76 105 137 173 214 261 311
#     4  11  22  37  54  73 104 141 181 223 264 311
#     4  12  24  37  53  75 104 140 180 219 262 313
#     4  11  21  33  52  76 106 140 177 215 258 311
#     4  10  19  32  52  76 102 133 171 214 259 308
#     4   9  19  34  51  73 101 134 171 214 260 306
#     4  11  22  35  51  73 104 142 182 219 257 308
#
# _framework density 17.341348
#
# number of rings (size 3 to 8) (size 9 to 14) (size 15 to 20)
#    0.000    1.250    2.500    6.000    0.000    2.500 
#    0.000    0.000    0.000    0.000    0.000    0.875 
#    0.000    6.000    0.000    0.000    0.000    0.000 
#
# Total GULP energy -793947.176864 kJ/mol
# GULP energy per Si atom -12405.424638 kJ/mol
# Density = 1.730188 g / cm^3
# Si number density = 17.341348 Si / 1000 Ang^3
#
#
#
# Elastic Constant Matrix: (Units=GPa)
#
#
# Indices 1 2 3 4 5 6 
#
# 1 66.3543 31.2181 14.3746 0.0000 0.0000 0.0000
# 2 31.2181 99.5370 16.5389 0.0000 0.0000 0.0000
# 3 14.3746 16.5389 66.0438 0.0000 0.0000 0.0000
# 4 0.0000 0.0000 0.0000 29.2171 0.0000 0.0000
# 5 0.0000 0.0000 0.0000 0.0000 24.8100 0.0000
# 6 0.0000 0.0000 0.0000 0.0000 0.0000 19.5571
#
#
#
# Elastic Compliance Matrix: (Units=1/GPa)
#
#
# Indices 1 2 3 4 5 6 
#
# 1 0.018106 -0.005242 -0.002628 0.000000 0.000000 0.000000
# 2 -0.005242 0.012000 -0.001864 0.000000 0.000000 0.000000
# 3 -0.002628 -0.001864 0.016180 0.000000 0.000000 0.000000
# 4 0.000000 0.000000 0.000000 0.034227 0.000000 0.000000
# 5 0.000000 0.000000 0.000000 0.000000 0.040306 0.000000
# 6 0.000000 0.000000 0.000000 0.000000 0.000000 0.051132
#
#
# Mechanical properties :
#
#
# Convention : Reuss Voigt Hill
#
# Bulk Modulus (GPa) = 37.28825 39.57761 38.43293
# Shear Modulus (GPa) = 24.95506 26.03707 25.49607
#
# Velocity S-wave (km/s) = 3.79760 3.87905 3.83854
# Velocity P-wave (km/s) = 6.38578 6.55248 6.46966
#
# Compressibility (1/GPa) = 0.02681810
#
# Stress axis : x y z
#
# Youngs Moduli (GPa) = 55.22965 83.33097 61.80342
#
# Poissons Ratio (x) = 0.43682 0.16243
# Poissons Ratio (y) = 0.28951 0.11522
# Poissons Ratio (z) = 0.14515 0.15535
#
# Static dielectric constant tensor:
#      x y z
#    x 3.104840 0.000000 0.000000 
#    y 0.000000 3.270980 0.000000 
#    z 0.000000 0.000000 3.257040 
# 
# 
# High freq. dielectric constant tensor:
#      x y z
#    x 1.644920 0.000000 0.000000 
#    y 0.000000 1.657610 0.000000 
#    z 0.000000 0.000000 1.685970 
# 
# From -- ./inp_files/6033.got.cif
#   From: 2010.03.12/outbox.cif.g09.slc.cpg/sg57_4_cif.got.tgz:6033.got - 2010.04.16 15:48:40.
