data_PCOD8231889
_publ_section_title
;
Structure prediction by ZEFSAII (Michael W. Deem and Ramdas Pophale) SiO2 
 PCOD8231889
Probable space group: P B C M
;
_chemical_formula_sum "Si O2"
_cell_formula_units_Z 64
_cell_length_a 11.927309
_cell_length_b 30.877206
_cell_length_c 8.897291
_cell_angle_alpha 90.000000
_cell_angle_beta 90.000000
_cell_angle_gamma 90.000000
_cell_volume 3276.711920
_symmetry_space_group_name_H-M "P B C M"
_symmetry_group_IT_number 57
_symmetry_cell_setting 'orthorhombic'
loop_
_space_group_symop_operation_xyz
x,y,z
-x,-y,1/2+z
x,1/2-y,-z
-x,1/2+y,1/2-z
-x,-y,-z
x,y,1/2-z
-x,1/2+y,z
x,1/2-y,1/2+z
loop_
_atom_site_type_symbol
_atom_site_label
_atom_site_fract_x
_atom_site_fract_y
_atom_site_fract_z
Si Si1 0.239637 0.459043 0.923790
Si Si2 0.005249 0.080798 0.076067
Si Si3 0.010726 0.171726 0.926606
Si Si4 0.367820 0.375626 0.571901
Si Si5 0.235342 0.952573 0.574122
Si Si6 0.772972 0.706154 0.428511
Si Si7 0.624010 0.129853 0.071924
Si Si8 0.234120 0.795875 0.427475
O O1 0.268555 0.463708 0.750000
O O2 0.107520 0.451893 0.950718
O O3 0.309265 0.418854 0.993709
O O4 0.278557 0.503229 0.001044
O O5 0.999578 0.096087 0.250000
O O6 0.892520 0.056546 0.026209
O O7 0.023770 0.121976 0.971710
O O8 0.031393 0.176955 0.750000
O O9 0.888961 0.188455 0.976042
O O10 0.099920 0.200372 0.016186
O O11 0.356983 0.376317 0.750000
O O12 0.302799 0.333445 0.510946
O O13 0.495875 0.374241 0.519520
O O14 0.247090 0.958363 0.750000
O O15 0.312311 0.913248 0.517048
O O16 0.723151 0.750000 0.500000
O O17 0.770987 0.709676 0.250000
O O18 0.635945 0.136380 0.250000
O O19 0.674926 0.170846 0.988976
O O20 0.261199 0.750000 0.500000
O O21 0.245900 0.792381 0.250000
#
# Coordination Sequence:
#
# PCOD8231889 Si02
#       8
#     8   8   8   8   8   8   8   8
#     4  10  20  36  58  83 116 155 192 233 289 348
#     4  10  19  35  58  84 115 155 191 232 294 349
#     4  11  22  36  59  90 119 150 189 234 288 347
#     4   9  20  39  61  84 113 154 197 241 290 339
#     4  10  21  35  56  87 118 151 192 237 289 343
#     4  11  22  39  61  86 119 152 191 235 287 346
#     4  10  21  40  63  84 114 154 197 243 289 338
#     4  11  24  40  60  88 119 151 190 235 288 345
#
# _framework density 19.531775
#
# number of rings (size 3 to 8) (size 9 to 14) (size 15 to 20)
#    0.000    1.750    2.500    1.875    0.000    5.000 
#    0.000    3.125    0.000    0.000    0.000    0.000 
#    0.000    0.000    0.000    0.000    0.000    0.000 
#
# Total GULP energy -793874.779567 kJ/mol
# GULP energy per Si atom -12404.293431 kJ/mol
# Density = 1.948732 g / cm^3
# Si number density = 19.531775 Si / 1000 Ang^3
#
#
#
# Elastic Constant Matrix: (Units=GPa)
#
#
# Indices 1 2 3 4 5 6 
#
# 1 122.2434 50.2706 26.3231 0.0000 0.0000 0.0000
# 2 50.2706 156.2869 37.0507 0.0000 0.0000 0.0000
# 3 26.3231 37.0507 46.5728 0.0000 0.0000 0.0000
# 4 0.0000 0.0000 0.0000 38.6536 0.0000 0.0000
# 5 0.0000 0.0000 0.0000 0.0000 11.6243 0.0000
# 6 0.0000 0.0000 0.0000 0.0000 0.0000 10.2270
#
#
#
# Elastic Compliance Matrix: (Units=1/GPa)
#
#
# Indices 1 2 3 4 5 6 
#
# 1 0.009942 -0.002299 -0.003790 0.000000 0.000000 0.000000
# 2 -0.002299 0.008418 -0.005397 0.000000 0.000000 0.000000
# 3 -0.003790 -0.005397 0.027907 0.000000 0.000000 0.000000
# 4 0.000000 0.000000 0.000000 0.025871 0.000000 0.000000
# 5 0.000000 0.000000 0.000000 0.000000 0.086027 0.000000
# 6 0.000000 0.000000 0.000000 0.000000 0.000000 0.097781
#
#
# Mechanical properties :
#
#
# Convention : Reuss Voigt Hill
#
# Bulk Modulus (GPa) = 42.92890 61.37689 52.15289
# Shear Modulus (GPa) = 17.44089 26.19822 21.81955
#
# Velocity S-wave (km/s) = 2.99147 3.66637 3.34598
# Velocity P-wave (km/s) = 5.82740 7.02960 6.45654
#
# Compressibility (1/GPa) = 0.02329433
#
# Stress axis : x y z
#
# Youngs Moduli (GPa) = 100.58211 118.79943 35.83292
#
# Poissons Ratio (x) = 0.27317 0.13581
# Poissons Ratio (y) = 0.23128 0.19339
# Poissons Ratio (z) = 0.38121 0.64114
#
# Static dielectric constant tensor:
#      x y z
#    x 3.683090 0.000000 0.000000 
#    y 0.000000 3.724660 0.000000 
#    z 0.000000 0.000000 3.340440 
# 
# 
# High freq. dielectric constant tensor:
#      x y z
#    x 1.761140 0.000000 0.000000 
#    y 0.000000 1.774560 0.000000 
#    z 0.000000 0.000000 1.742770 
# 
# From -- ./inp_files/3845.got.cif
#   From: 2010.03.12/outbox.cif.g09.slc.cpg/sg57_2_cif.got.tgz:3845.got - 2010.04.16 15:48:40.
