data_PCOD8231050
_publ_section_title
;
Structure prediction by ZEFSAII (Michael W. Deem and Ramdas Pophale) SiO2 
 PCOD8231050
Probable space group: P B C M
;
_chemical_formula_sum "Si O2"
_cell_formula_units_Z 64
_cell_length_a 15.303244
_cell_length_b 23.076934
_cell_length_c 9.389969
_cell_angle_alpha 90.000000
_cell_angle_beta 90.000000
_cell_angle_gamma 90.000000
_cell_volume 3316.085879
_symmetry_space_group_name_H-M "P B C M"
_symmetry_group_IT_number 57
_symmetry_cell_setting 'orthorhombic'
loop_
_space_group_symop_operation_xyz
x,y,z
-x,-y,1/2+z
x,1/2-y,-z
-x,1/2+y,1/2-z
-x,-y,-z
x,y,1/2-z
-x,1/2+y,z
x,1/2-y,1/2+z
loop_
_atom_site_type_symbol
_atom_site_label
_atom_site_fract_x
_atom_site_fract_y
_atom_site_fract_z
Si Si1 0.045295 0.369495 0.086917
Si Si2 0.383345 0.390337 0.084328
Si Si3 0.689365 0.511331 0.084336
Si Si4 0.222820 0.307743 0.415671
Si Si5 0.290383 0.879794 0.414157
Si Si6 0.460040 0.691383 0.583926
Si Si7 0.881807 0.383644 0.913095
Si Si8 0.858383 0.516142 0.590338
O O1 0.021044 0.355889 0.250000
O O2 0.128709 0.332258 0.037482
O O3 0.064749 0.437744 0.066940
O O4 0.963078 0.352022 0.989339
O O5 0.390211 0.405890 0.250000
O O6 0.295567 0.355253 0.047897
O O7 0.467070 0.354131 0.033559
O O8 0.383185 0.450382 0.996442
O O9 0.686453 0.526369 0.250000
O O10 0.671182 0.443673 0.054183
O O11 0.784287 0.528121 0.025068
O O12 0.245312 0.250000 0.500000
O O13 0.224529 0.292475 0.250000
O O14 0.260560 0.875927 0.250000
O O15 0.364883 0.833806 0.451452
O O16 0.208029 0.864762 0.512311
O O17 0.474967 0.750000 0.500000
O O18 0.471000 0.704817 0.750000
O O19 0.877873 0.363137 0.750000
O O20 0.897394 0.452251 0.927159
O O21 0.818365 0.524290 0.750000
#
# Coordination Sequence:
#
# PCOD8231050 Si02
#       8
#     8   8   8   8   8   8   8   8
#     4  10  19  33  52  74 107 148 181 219 273 329
#     4  10  20  37  58  82 114 147 179 222 282 340
#     4  10  19  31  53  84 116 148 185 224 269 331
#     4  10  21  36  54  76 107 146 184 224 274 328
#     4   9  20  39  57  80 115 150 183 227 285 335
#     4  10  22  40  63  85 109 144 187 234 281 331
#     4  10  20  32  53  83 109 140 183 229 271 322
#     4   9  17  32  51  75 111 147 180 218 272 330
#
# _framework density 19.299862999999998
#
# number of rings (size 3 to 8) (size 9 to 14) (size 15 to 20)
#    0.000    2.250    1.250    1.500    0.000    4.000 
#    0.000    0.625    0.000    0.000    0.000    0.000 
#    0.000    0.000    0.000    0.000    0.000    0.000 
#
# Total GULP energy -793740.254151 kJ/mol
# GULP energy per Si atom -12402.191471 kJ/mol
# Density = 1.925594 g / cm^3
# Si number density = 19.299863 Si / 1000 Ang^3
#
#
#
# Elastic Constant Matrix: (Units=GPa)
#
#
# Indices 1 2 3 4 5 6 
#
# 1 79.3769 6.5504 37.8415 0.0000 0.0000 0.0000
# 2 6.5504 20.4349 15.8134 0.0000 0.0000 0.0000
# 3 37.8415 15.8134 71.6311 0.0000 0.0000 0.0000
# 4 0.0000 0.0000 0.0000 29.9951 0.0000 0.0000
# 5 0.0000 0.0000 0.0000 0.0000 27.2677 0.0000
# 6 0.0000 0.0000 0.0000 0.0000 0.0000 14.0667
#
#
#
# Elastic Compliance Matrix: (Units=1/GPa)
#
#
# Indices 1 2 3 4 5 6 
#
# 1 0.016894 0.001798 -0.009322 0.000000 0.000000 0.000000
# 2 0.001798 0.059210 -0.014021 0.000000 0.000000 0.000000
# 3 -0.009322 -0.014021 0.021980 0.000000 0.000000 0.000000
# 4 0.000000 0.000000 0.000000 0.033339 0.000000 0.000000
# 5 0.000000 0.000000 0.000000 0.000000 0.036673 0.000000
# 6 0.000000 0.000000 0.000000 0.000000 0.000000 0.071090
#
#
# Mechanical properties :
#
#
# Convention : Reuss Voigt Hill
#
# Bulk Modulus (GPa) = 18.18372 32.42818 25.30595
# Shear Modulus (GPa) = 16.63307 21.68175 19.15741
#
# Velocity S-wave (km/s) = 2.93887 3.35537 3.15400
# Velocity P-wave (km/s) = 4.57800 5.64359 5.13849
#
# Compressibility (1/GPa) = 0.05499424
#
# Stress axis : x y z
#
# Youngs Moduli (GPa) = 59.19386 16.88917 45.49548
#
# Poissons Ratio (x) = -0.03037 0.42409
# Poissons Ratio (y) = -0.10644 0.63790
# Poissons Ratio (z) = 0.55178 0.23681
#
# Static dielectric constant tensor:
#      x y z
#    x 3.399820 0.000000 0.000000 
#    y 0.000000 3.376040 0.000000 
#    z 0.000000 0.000000 3.515830 
# 
# 
# High freq. dielectric constant tensor:
#      x y z
#    x 1.747710 0.000000 0.000000 
#    y 0.000000 1.737880 0.000000 
#    z 0.000000 0.000000 1.748870 
# 
# From -- ./inp_files/5677.got.cif
#   From: 2010.03.12/outbox.cif.g09.slc.cpg/sg57_3_cif.got.tgz:5677.got - 2010.04.16 15:48:40.
