data_PCOD8231069
_publ_section_title
;
Structure prediction by ZEFSAII (Michael W. Deem and Ramdas Pophale) SiO2 
 PCOD8231069
Probable space group: P B C M
;
_chemical_formula_sum "Si O2"
_cell_formula_units_Z 56
_cell_length_a 17.826920
_cell_length_b 20.128811
_cell_length_c 8.940745
_cell_angle_alpha 90.000000
_cell_angle_beta 90.000000
_cell_angle_gamma 90.000000
_cell_volume 3208.249580
_symmetry_space_group_name_H-M "P B C M"
_symmetry_group_IT_number 57
_symmetry_cell_setting 'orthorhombic'
loop_
_space_group_symop_operation_xyz
x,y,z
-x,-y,1/2+z
x,1/2-y,-z
-x,1/2+y,1/2-z
-x,-y,-z
x,y,1/2-z
-x,1/2+y,z
x,1/2-y,1/2+z
loop_
_atom_site_type_symbol
_atom_site_label
_atom_site_fract_x
_atom_site_fract_y
_atom_site_fract_z
Si Si1 0.331923 0.441441 0.416453
Si Si2 0.961203 0.937217 0.424901
Si Si3 0.203595 0.891835 0.571782
Si Si4 0.492846 0.070550 0.575683
Si Si5 0.186687 0.465431 0.926830
Si Si6 0.632545 0.403122 0.584355
Si Si7 0.927232 0.317118 0.075150
O O1 0.304708 0.421334 0.250000
O O2 0.408638 0.401052 0.459231
O O3 0.264473 0.427829 0.531924
O O4 0.353579 0.518417 0.418667
O O5 0.950356 0.951561 0.250000
O O6 0.881385 0.923438 0.503237
O O7 0.010930 0.872778 0.454237
O O8 0.000000 0.000000 0.500000
O O9 0.194509 0.899920 0.750000
O O10 0.289127 0.870295 0.530000
O O11 0.150252 0.835327 0.506983
O O12 0.182406 0.961219 0.495184
O O13 0.503591 0.060375 0.750000
O O14 0.560664 0.117501 0.516775
O O15 0.500000 0.000000 0.500000
O O16 0.178203 0.470144 0.750000
O O17 0.612658 0.378530 0.750000
O O18 0.911648 0.306767 0.250000
O O19 0.957921 0.250000 0.000000
#
# Coordination Sequence:
#
# PCOD8231069 Si02
#       7
#     8   8   8   8   8   8   8
#     4   8  15  26  37  55  87 124 159 197 244 290
#     4  11  22  36  55  77 101 131 169 210 255 308
#     4  10  19  32  49  68  96 130 165 207 249 294
#     4   9  15  22  34  53  81 119 157 194 237 285
#     4  11  20  29  46  72  97 127 167 208 253 300
#     4   8  15  25  38  58  84 119 158 195 238 283
#     4  11  24  39  56  77 101 132 169 208 258 311
#
# _framework density 17.455000999999999
#
# number of rings (size 3 to 8) (size 9 to 14) (size 15 to 20)
#    0.000    2.286    1.429    4.714    0.000    8.000 
#    0.000    0.000    0.000    0.000    0.000    0.000 
#    0.000    1.143    0.000    6.286    0.000    6.714 
#
# Total GULP energy -694016.704737 kJ/mol
# GULP energy per Si atom -12393.155442 kJ/mol
# Density = 1.741527 g / cm^3
# Si number density = 17.455001 Si / 1000 Ang^3
#
#
#
# Elastic Constant Matrix: (Units=GPa)
#
#
# Indices 1 2 3 4 5 6 
#
# 1 151.3202 37.5136 79.7823 0.0000 0.0000 0.0000
# 2 37.5136 47.4094 38.2354 0.0000 0.0000 0.0000
# 3 79.7823 38.2354 128.7260 0.0000 0.0000 0.0000
# 4 0.0000 0.0000 0.0000 17.4523 0.0000 0.0000
# 5 0.0000 0.0000 0.0000 0.0000 35.6328 0.0000
# 6 0.0000 0.0000 0.0000 0.0000 0.0000 11.6605
#
#
#
# Elastic Compliance Matrix: (Units=1/GPa)
#
#
# Indices 1 2 3 4 5 6 
#
# 1 0.010354 -0.003968 -0.005239 0.000000 0.000000 0.000000
# 2 -0.003968 0.029258 -0.006231 0.000000 0.000000 0.000000
# 3 -0.005239 -0.006231 0.012866 0.000000 0.000000 0.000000
# 4 0.000000 0.000000 0.000000 0.057299 0.000000 0.000000
# 5 0.000000 0.000000 0.000000 0.000000 0.028064 0.000000
# 6 0.000000 0.000000 0.000000 0.000000 0.000000 0.085759
#
#
# Mechanical properties :
#
#
# Convention : Reuss Voigt Hill
#
# Bulk Modulus (GPa) = 46.29085 70.94647 58.61866
# Shear Modulus (GPa) = 19.10744 24.41073 21.75908
#
# Velocity S-wave (km/s) = 3.31217 3.74370 3.53453
# Velocity P-wave (km/s) = 6.41911 7.70848 7.09315
#
# Compressibility (1/GPa) = 0.02160254
#
# Stress axis : x y z
#
# Youngs Moduli (GPa) = 96.57790 34.17870 77.72277
#
# Poissons Ratio (x) = 0.13562 0.40718
# Poissons Ratio (y) = 0.38322 0.48431
# Poissons Ratio (z) = 0.50596 0.21297
#
# Static dielectric constant tensor:
#      x y z
#    x 2.825390 0.000000 0.000000 
#    y 0.000000 2.712450 0.000000 
#    z 0.000000 0.000000 2.340580 
# 
# 
# High freq. dielectric constant tensor:
#      x y z
#    x 1.700420 0.000000 0.000000 
#    y 0.000000 1.592670 0.000000 
#    z 0.000000 0.000000 1.687240 
# 
# From -- ./inp_files/6984.got.cif
#   From: 2010.03.12/outbox.cif.g09.slc.cpg/sg57_4_cif.got.tgz:6984.got - 2010.04.16 15:48:40.
