data_PCOD8231422
_publ_section_title
;
Structure prediction by ZEFSAII (Michael W. Deem and Ramdas Pophale) SiO2 
 PCOD8231422
Probable space group: P B C M
;
_chemical_formula_sum "Si O2"
_cell_formula_units_Z 56
_cell_length_a 14.474098
_cell_length_b 22.447563
_cell_length_c 9.253533
_cell_angle_alpha 90.000000
_cell_angle_beta 90.000000
_cell_angle_gamma 90.000000
_cell_volume 3006.548998
_symmetry_space_group_name_H-M "P B C M"
_symmetry_group_IT_number 57
_symmetry_cell_setting 'orthorhombic'
loop_
_space_group_symop_operation_xyz
x,y,z
-x,-y,1/2+z
x,1/2-y,-z
-x,1/2+y,1/2-z
-x,-y,-z
x,y,1/2-z
-x,1/2+y,z
x,1/2-y,1/2+z
loop_
_atom_site_type_symbol
_atom_site_label
_atom_site_fract_x
_atom_site_fract_y
_atom_site_fract_z
Si Si1 0.573610 0.191716 0.921036
Si Si2 0.189133 0.308394 0.581581
Si Si3 0.410216 0.017595 0.415059
Si Si4 0.716259 0.410703 0.417485
Si Si5 0.090114 0.428319 0.917054
Si Si6 0.120211 0.952764 0.916820
Si Si7 0.393475 0.346682 0.916448
O O1 0.568325 0.201442 0.750000
O O2 0.642302 0.138803 0.964474
O O3 0.613178 0.250000 0.000000
O O4 0.470931 0.179059 0.978333
O O5 0.151215 0.250000 0.500000
O O6 0.169720 0.299642 0.750000
O O7 0.134623 0.366844 0.525806
O O8 0.297708 0.314441 0.548524
O O9 0.437771 0.008454 0.250000
O O10 0.377722 0.083963 0.449720
O O11 0.500000 0.000000 0.500000
O O12 0.325870 0.974928 0.455865
O O13 0.742181 0.403816 0.250000
O O14 0.809273 0.405520 0.511353
O O15 0.117259 0.439331 0.750000
O O16 0.980344 0.424276 0.938256
O O17 0.130105 0.483235 0.007286
O O18 0.144854 0.961389 0.750000
O O19 0.423611 0.336636 0.750000
#
# Coordination Sequence:
#
# PCOD8231422 Si02
#       7
#     8   8   8   8   8   8   8
#     4  11  23  38  55  74 103 144 186 225 267 316
#     4  10  21  37  56  79 110 148 184 223 272 327
#     4  10  19  33  53  79 109 141 177 219 270 320
#     4  10  21  37  55  78 111 147 177 217 275 326
#     4   9  19  38  59  81 114 146 174 219 281 334
#     4  10  20  34  59  89 110 138 181 227 272 326
#     4  10  20  34  55  80 108 142 179 220 269 321
#
# _framework density 18.626006
#
# number of rings (size 3 to 8) (size 9 to 14) (size 15 to 20)
#    0.000    2.000    1.429    2.143    0.000    6.857 
#    0.000    2.143    0.000    3.429    0.000    0.000 
#    0.000    0.000    0.000    0.000    0.000    0.000 
#
# Total GULP energy -694563.789199 kJ/mol
# GULP energy per Si atom -12402.924807 kJ/mol
# Density = 1.858361 g / cm^3
# Si number density = 18.626006 Si / 1000 Ang^3
#
#
#
# Elastic Constant Matrix: (Units=GPa)
#
#
# Indices 1 2 3 4 5 6 
#
# 1 82.9981 39.6569 45.9992 0.0000 0.0000 0.0000
# 2 39.6569 109.2107 46.7963 0.0000 0.0000 0.0000
# 3 45.9992 46.7963 76.2708 0.0000 0.0000 0.0000
# 4 0.0000 0.0000 0.0000 32.7819 0.0000 0.0000
# 5 0.0000 0.0000 0.0000 0.0000 32.8816 0.0000
# 6 0.0000 0.0000 0.0000 0.0000 0.0000 23.1727
#
#
#
# Elastic Compliance Matrix: (Units=1/GPa)
#
#
# Indices 1 2 3 4 5 6 
#
# 1 0.018646 -0.002648 -0.009620 0.000000 0.000000 0.000000
# 2 -0.002648 0.012799 -0.006255 0.000000 0.000000 0.000000
# 3 -0.009620 -0.006255 0.022751 0.000000 0.000000 0.000000
# 4 0.000000 0.000000 0.000000 0.030505 0.000000 0.000000
# 5 0.000000 0.000000 0.000000 0.000000 0.030412 0.000000
# 6 0.000000 0.000000 0.000000 0.000000 0.000000 0.043154
#
#
# Mechanical properties :
#
#
# Convention : Reuss Voigt Hill
#
# Bulk Modulus (GPa) = 58.31817 59.26495 58.79156
# Shear Modulus (GPa) = 24.87180 26.83573 25.85376
#
# Velocity S-wave (km/s) = 3.65818 3.79986 3.72969
# Velocity P-wave (km/s) = 7.01577 7.15118 7.08380
#
# Compressibility (1/GPa) = 0.01714731
#
# Stress axis : x y z
#
# Youngs Moduli (GPa) = 53.63170 78.13266 43.95348
#
# Poissons Ratio (x) = 0.20693 0.42285
# Poissons Ratio (y) = 0.14204 0.27495
# Poissons Ratio (z) = 0.51596 0.48876
#
# Static dielectric constant tensor:
#      x y z
#    x 2.659490 0.000000 0.000000 
#    y 0.000000 3.541030 0.000000 
#    z 0.000000 0.000000 3.413760 
# 
# 
# High freq. dielectric constant tensor:
#      x y z
#    x 1.720920 0.000000 0.000000 
#    y 0.000000 1.724440 0.000000 
#    z 0.000000 0.000000 1.720670 
# 
# From -- ./inp_files/5260.got.cif
#   From: 2010.03.12/outbox.cif.g09.slc.cpg/sg57_3_cif.got.tgz:5260.got - 2010.04.16 15:48:40.
