data_PCOD8231748
_publ_section_title
;
Structure prediction by ZEFSAII (Michael W. Deem and Ramdas Pophale) SiO2 
 PCOD8231748
Probable space group: P B C M
;
_chemical_formula_sum "Si O2"
_cell_formula_units_Z 48
_cell_length_a 15.808107
_cell_length_b 8.799525
_cell_length_c 16.590666
_cell_angle_alpha 90.000000
_cell_angle_beta 90.000000
_cell_angle_gamma 90.000000
_cell_volume 2307.825228
_symmetry_space_group_name_H-M "P B C M"
_symmetry_group_IT_number 57
_symmetry_cell_setting 'orthorhombic'
loop_
_space_group_symop_operation_xyz
x,y,z
-x,-y,1/2+z
x,1/2-y,-z
-x,1/2+y,1/2-z
-x,-y,-z
x,y,1/2-z
-x,1/2+y,z
x,1/2-y,1/2+z
loop_
_atom_site_type_symbol
_atom_site_label
_atom_site_fract_x
_atom_site_fract_y
_atom_site_fract_z
Si Si1 0.408255 0.189018 0.911344
Si Si2 0.424053 0.830226 0.587454
Si Si3 0.927097 0.302525 0.409019
Si Si4 0.260694 0.132434 0.341825
Si Si5 0.073405 0.116599 0.340676
Si Si6 0.740556 0.307213 0.091316
O O1 0.489974 0.270824 0.869936
O O2 0.325071 0.230606 0.860261
O O3 0.424888 0.010679 0.915957
O O4 0.392022 0.250000 0.000000
O O5 0.424404 0.750000 0.500000
O O6 0.338664 0.777271 0.634820
O O7 0.939828 0.250000 0.500000
O O8 0.937967 0.483532 0.405802
O O9 0.833136 0.262214 0.373734
O O10 0.998586 0.235414 0.351849
O O11 0.273602 0.077171 0.250000
O O12 0.165099 0.195686 0.354405
O O13 0.275263 0.988099 0.400713
O O14 0.068609 0.050547 0.250000
O O15 0.740485 0.250000 0.000000
#
# Coordination Sequence:
#
# PCOD8231748 Si02
#       6
#     8   8   8   8   8   8
#     4  11  20  34  59  84 111 149 189 229 274 336
#     4  10  19  34  57  85 113 143 187 232 275 333
#     4  10  20  34  56  83 112 146 190 242 284 332
#     4  10  22  39  56  81 119 156 190 238 297 348
#     4  10  21  37  56  79 113 153 189 231 291 352
#     4   9  18  36  59  84 114 151 195 238 286 345
#
# _framework density 20.798801000000001
#
# number of rings (size 3 to 8) (size 9 to 14) (size 15 to 20)
#    0.000    2.000    0.000    6.000    0.000    2.667 
#    0.000    4.167    0.000    0.000    0.000    0.000 
#    0.000    0.000    0.000    0.000    0.000    0.000 
#
# Total GULP energy -594801.340749 kJ/mol
# GULP energy per Si atom -12391.694599 kJ/mol
# Density = 2.075146 g / cm^3
# Si number density = 20.798801 Si / 1000 Ang^3
#
#
#
# Elastic Constant Matrix: (Units=GPa)
#
#
# Indices 1 2 3 4 5 6 
#
# 1 202.6159 79.4142 33.4159 0.0000 0.0000 0.0000
# 2 79.4142 135.4693 26.2632 0.0000 0.0000 0.0000
# 3 33.4159 26.2632 43.6167 0.0000 0.0000 0.0000
# 4 0.0000 0.0000 0.0000 23.4382 0.0000 0.0000
# 5 0.0000 0.0000 0.0000 0.0000 16.3490 0.0000
# 6 0.0000 0.0000 0.0000 0.0000 0.0000 41.4058
#
#
#
# Elastic Compliance Matrix: (Units=1/GPa)
#
#
# Indices 1 2 3 4 5 6 
#
# 1 0.006774 -0.003357 -0.003168 0.000000 0.000000 0.000000
# 2 -0.003357 0.010021 -0.003462 0.000000 0.000000 0.000000
# 3 -0.003168 -0.003462 0.027439 0.000000 0.000000 0.000000
# 4 0.000000 0.000000 0.000000 0.042665 0.000000 0.000000
# 5 0.000000 0.000000 0.000000 0.000000 0.061166 0.000000
# 6 0.000000 0.000000 0.000000 0.000000 0.000000 0.024151
#
#
# Mechanical properties :
#
#
# Convention : Reuss Voigt Hill
#
# Bulk Modulus (GPa) = 41.22171 73.32094 57.27133
# Shear Modulus (GPa) = 24.96549 32.41249 28.68899
#
# Velocity S-wave (km/s) = 3.46834 3.95192 3.71800
# Velocity P-wave (km/s) = 5.99178 7.49350 6.78432
#
# Compressibility (1/GPa) = 0.02425906
#
# Stress axis : x y z
#
# Youngs Moduli (GPa) = 147.63333 99.79430 36.44436
#
# Poissons Ratio (x) = 0.33496 0.11547
# Poissons Ratio (y) = 0.49553 0.12618
# Poissons Ratio (z) = 0.46775 0.34551
#
# Static dielectric constant tensor:
#      x y z
#    x 4.928090 0.000000 0.000000 
#    y 0.000000 3.531290 0.000000 
#    z 0.000000 0.000000 3.381710 
# 
# 
# High freq. dielectric constant tensor:
#      x y z
#    x 1.851120 0.000000 0.000000 
#    y 0.000000 1.799850 0.000000 
#    z 0.000000 0.000000 1.774270 
# 
# From -- ./inp_files/25261.got.cif
#   From: 2010.03.12/outbox.cif.g09.slc.cpg/sg57_13_cif.got.tgz:25261.got - 2010.04.16 15:48:40.
