data_PCOD8231463
_publ_section_title
;
Structure prediction by ZEFSAII (Michael W. Deem and Ramdas Pophale) SiO2 
 PCOD8231463
Probable space group: P B C M
;
_chemical_formula_sum "Si O2"
_cell_formula_units_Z 56
_cell_length_a 18.701878
_cell_length_b 17.010275
_cell_length_c 9.110645
_cell_angle_alpha 90.000000
_cell_angle_beta 90.000000
_cell_angle_gamma 90.000000
_cell_volume 2898.315630
_symmetry_space_group_name_H-M "P B C M"
_symmetry_group_IT_number 57
_symmetry_cell_setting 'orthorhombic'
loop_
_space_group_symop_operation_xyz
x,y,z
-x,-y,1/2+z
x,1/2-y,-z
-x,1/2+y,1/2-z
-x,-y,-z
x,y,1/2-z
-x,1/2+y,z
x,1/2-y,1/2+z
loop_
_atom_site_type_symbol
_atom_site_label
_atom_site_fract_x
_atom_site_fract_y
_atom_site_fract_z
Si Si1 0.148545 0.674043 0.921796
Si Si2 0.200755 0.061529 0.584037
Si Si3 0.670501 0.833237 0.075917
Si Si4 0.600404 0.330538 0.416845
Si Si5 0.722841 0.102355 0.417690
Si Si6 0.535399 0.571855 0.915622
Si Si7 0.925643 0.010426 0.920545
O O1 0.157981 0.689613 0.750000
O O2 0.099028 0.599027 0.952669
O O3 0.112710 0.750000 0.000000
O O4 0.225324 0.661512 0.996027
O O5 0.172872 0.073056 0.750000
O O6 0.250383 0.134610 0.534739
O O7 0.131798 0.052818 0.480421
O O8 0.250476 0.985930 0.572692
O O9 0.662130 0.822736 0.250000
O O10 0.610470 0.895614 0.019288
O O11 0.658909 0.750000 0.000000
O O12 0.612784 0.250000 0.500000
O O13 0.627526 0.322798 0.250000
O O14 0.646399 0.396577 0.501918
O O15 0.517864 0.354232 0.421805
O O16 0.716483 0.130756 0.250000
O O17 0.547488 0.542228 0.750000
O O18 0.500000 0.500000 0.000000
O O19 0.935433 0.993422 0.750000
O O20 0.000000 0.000000 0.000000
#
# Coordination Sequence:
#
# PCOD8231463 Si02
#       7
#     8   8   8   8   8   8   8
#     4  10  20  34  53  80 111 142 177 218 263 319
#     4   9  19  36  58  81 107 140 179 220 266 322
#     4  10  21  38  58  82 111 145 188 237 285 336
#     4  11  22  34  49  73 105 139 175 218 265 316
#     4  10  19  33  54  77 105 142 178 218 266 318
#     4  10  22  38  56  78 105 139 183 232 282 333
#     4  10  21  37  59  85 113 143 179 221 267 322
#
# _framework density 19.321567000000002
#
# number of rings (size 3 to 8) (size 9 to 14) (size 15 to 20)
#    0.000    2.000    0.000    3.429    0.000    5.714 
#    0.000    0.714    0.000    0.000    0.000    0.000 
#    0.000    0.000    0.000    0.000    0.000    0.000 
#
# Total GULP energy -694448.319560 kJ/mol
# GULP energy per Si atom -12400.862849 kJ/mol
# Density = 1.927759 g / cm^3
# Si number density = 19.321567 Si / 1000 Ang^3
#
#
#
# Elastic Constant Matrix: (Units=GPa)
#
#
# Indices 1 2 3 4 5 6 
#
# 1 121.0104 39.9833 60.6438 0.0000 0.0000 0.0000
# 2 39.9833 85.7138 48.2696 0.0000 0.0000 0.0000
# 3 60.6438 48.2696 117.5110 0.0000 0.0000 0.0000
# 4 0.0000 0.0000 0.0000 32.8276 0.0000 0.0000
# 5 0.0000 0.0000 0.0000 0.0000 32.7437 0.0000
# 6 0.0000 0.0000 0.0000 0.0000 0.0000 20.3827
#
#
#
# Elastic Compliance Matrix: (Units=1/GPa)
#
#
# Indices 1 2 3 4 5 6 
#
# 1 0.011592 -0.002652 -0.004893 0.000000 0.000000 0.000000
# 2 -0.002652 0.015784 -0.005115 0.000000 0.000000 0.000000
# 3 -0.004893 -0.005115 0.013136 0.000000 0.000000 0.000000
# 4 0.000000 0.000000 0.000000 0.030462 0.000000 0.000000
# 5 0.000000 0.000000 0.000000 0.000000 0.030540 0.000000
# 6 0.000000 0.000000 0.000000 0.000000 0.000000 0.049061
#
#
# Mechanical properties :
#
#
# Convention : Reuss Voigt Hill
#
# Bulk Modulus (GPa) = 65.82214 69.11430 67.46822
# Shear Modulus (GPa) = 27.63034 28.88002 28.25518
#
# Velocity S-wave (km/s) = 3.78567 3.87033 3.82824
# Velocity P-wave (km/s) = 7.29719 7.47134 7.38478
#
# Compressibility (1/GPa) = 0.01519246
#
# Stress axis : x y z
#
# Youngs Moduli (GPa) = 86.26574 63.35384 76.12615
#
# Poissons Ratio (x) = 0.16801 0.37248
# Poissons Ratio (y) = 0.22877 0.38939
# Poissons Ratio (z) = 0.42210 0.32406
#
# Static dielectric constant tensor:
#      x y z
#    x 3.544450 0.000000 0.000000 
#    y 0.000000 3.447600 0.000000 
#    z 0.000000 0.000000 3.626500 
# 
# 
# High freq. dielectric constant tensor:
#      x y z
#    x 1.748410 0.000000 0.000000 
#    y 0.000000 1.746020 0.000000 
#    z 0.000000 0.000000 1.756840 
# 
# From -- ./inp_files/8181.got.cif
#   From: 2010.03.12/outbox.cif.g09.slc.cpg/sg57_5_cif.got.tgz:8181.got - 2010.04.16 15:48:40.
