data_PCOD8231121
_publ_section_title
;
Structure prediction by ZEFSAII (Michael W. Deem and Ramdas Pophale) SiO2 
 PCOD8231121
Probable space group: P B C M
;
_chemical_formula_sum "Si O2"
_cell_formula_units_Z 48
_cell_length_a 18.498677
_cell_length_b 15.650206
_cell_length_c 8.829692
_cell_angle_alpha 90.000000
_cell_angle_beta 90.000000
_cell_angle_gamma 90.000000
_cell_volume 2556.267406
_symmetry_space_group_name_H-M "P B C M"
_symmetry_group_IT_number 57
_symmetry_cell_setting 'orthorhombic'
loop_
_space_group_symop_operation_xyz
x,y,z
-x,-y,1/2+z
x,1/2-y,-z
-x,1/2+y,1/2-z
-x,-y,-z
x,y,1/2-z
-x,1/2+y,z
x,1/2-y,1/2+z
loop_
_atom_site_type_symbol
_atom_site_label
_atom_site_fract_x
_atom_site_fract_y
_atom_site_fract_z
Si Si1 0.172836 0.996181 0.572423
Si Si2 0.031386 0.915058 0.928704
Si Si3 0.428892 0.837740 0.927780
Si Si4 0.094827 0.334567 0.070685
Si Si5 0.595064 0.661109 0.071114
Si Si6 0.665857 0.496074 0.930434
O O1 0.178410 0.009226 0.750000
O O2 0.118042 0.917220 0.535594
O O3 0.141015 0.085361 0.507626
O O4 0.252799 0.977433 0.509574
O O5 0.017249 0.912791 0.750000
O O6 0.988431 0.838296 0.009314
O O7 0.000000 0.000000 0.000000
O O8 0.419423 0.828544 0.750000
O O9 0.511703 0.853856 0.974564
O O10 0.383003 0.917796 0.990098
O O11 0.399581 0.750000 0.000000
O O12 0.093647 0.329427 0.250000
O O13 0.131010 0.250000 0.000000
O O14 0.605844 0.664734 0.250000
O O15 0.622968 0.750000 0.000000
O O16 0.640791 0.584330 0.002750
O O17 0.660910 0.504301 0.750000
#
# Coordination Sequence:
#
# PCOD8231121 Si02
#       6
#     8   8   8   8   8   8
#     4   8  17  32  50  71  99 130 161 197 246 299
#     4   9  16  30  50  70  92 122 157 195 233 281
#     4   9  19  34  54  75 100 133 172 215 259 303
#     4  10  19  32  50  73  97 127 164 204 246 294
#     4  10  20  34  51  76 104 135 173 214 255 303
#     4  10  19  34  54  77 104 137 170 209 260 310
#
# _framework density 18.777377000000001
#
# number of rings (size 3 to 8) (size 9 to 14) (size 15 to 20)
#    0.000    2.667    0.000    3.000    0.000    2.000 
#    0.000    7.500    0.000    2.000    0.000    0.000 
#    0.000    0.000    0.000    0.000    0.000    0.000 
#
# Total GULP energy -594899.326268 kJ/mol
# GULP energy per Si atom -12393.735964 kJ/mol
# Density = 1.873464 g / cm^3
# Si number density = 18.777377 Si / 1000 Ang^3
#
#
#
# Elastic Constant Matrix: (Units=GPa)
#
#
# Indices 1 2 3 4 5 6 
#
# 1 93.7762 26.1722 18.7704 0.0000 0.0000 0.0000
# 2 26.1722 66.0208 13.8521 0.0000 0.0000 0.0000
# 3 18.7704 13.8521 50.8261 0.0000 0.0000 0.0000
# 4 0.0000 0.0000 0.0000 32.7968 0.0000 0.0000
# 5 0.0000 0.0000 0.0000 0.0000 19.2141 0.0000
# 6 0.0000 0.0000 0.0000 0.0000 0.0000 18.7660
#
#
#
# Elastic Compliance Matrix: (Units=1/GPa)
#
#
# Indices 1 2 3 4 5 6 
#
# 1 0.012544 -0.004243 -0.003476 0.000000 0.000000 0.000000
# 2 -0.004243 0.017501 -0.003203 0.000000 0.000000 0.000000
# 3 -0.003476 -0.003203 0.021831 0.000000 0.000000 0.000000
# 4 0.000000 0.000000 0.000000 0.030491 0.000000 0.000000
# 5 0.000000 0.000000 0.000000 0.000000 0.052045 0.000000
# 6 0.000000 0.000000 0.000000 0.000000 0.000000 0.053288
#
#
# Mechanical properties :
#
#
# Convention : Reuss Voigt Hill
#
# Bulk Modulus (GPa) = 33.29757 36.46806 34.88282
# Shear Modulus (GPa) = 22.77342 24.27729 23.52536
#
# Velocity S-wave (km/s) = 3.48632 3.59959 3.54341
# Velocity P-wave (km/s) = 5.82900 6.06132 5.94629
#
# Compressibility (1/GPa) = 0.03003222
#
# Stress axis : x y z
#
# Youngs Moduli (GPa) = 79.72118 57.14013 45.80548
#
# Poissons Ratio (x) = 0.24246 0.15922
# Poissons Ratio (y) = 0.33828 0.14670
# Poissons Ratio (z) = 0.27711 0.18300
#
# Static dielectric constant tensor:
#      x y z
#    x 3.895070 0.000000 0.000000 
#    y 0.000000 3.540600 0.000000 
#    z 0.000000 0.000000 3.385250 
# 
# 
# High freq. dielectric constant tensor:
#      x y z
#    x 1.725500 0.000000 0.000000 
#    y 0.000000 1.722720 0.000000 
#    z 0.000000 0.000000 1.716710 
# 
# From -- ./inp_files/6573.got.cif
#   From: 2010.03.12/outbox.cif.g09.slc.cpg/sg57_4_cif.got.tgz:6573.got - 2010.04.16 15:48:40.
