data_PCOD8231498
_publ_section_title
;
Structure prediction by ZEFSAII (Michael W. Deem and Ramdas Pophale) SiO2 
 PCOD8231498
Probable space group: P B C M
;
_chemical_formula_sum "Si O2"
_cell_formula_units_Z 56
_cell_length_a 20.946714
_cell_length_b 15.466370
_cell_length_c 9.019562
_cell_angle_alpha 90.000000
_cell_angle_beta 90.000000
_cell_angle_gamma 90.000000
_cell_volume 2922.064155
_symmetry_space_group_name_H-M "P B C M"
_symmetry_group_IT_number 57
_symmetry_cell_setting 'orthorhombic'
loop_
_space_group_symop_operation_xyz
x,y,z
-x,-y,1/2+z
x,1/2-y,-z
-x,1/2+y,1/2-z
-x,-y,-z
x,y,1/2-z
-x,1/2+y,z
x,1/2-y,1/2+z
loop_
_atom_site_type_symbol
_atom_site_label
_atom_site_fract_x
_atom_site_fract_y
_atom_site_fract_z
Si Si1 0.906185 0.836066 0.076273
Si Si2 0.376193 0.836371 0.920041
Si Si3 0.286870 0.509312 0.076373
Si Si4 0.487300 0.409236 0.576607
Si Si5 0.637530 0.662056 0.925496
Si Si6 0.155292 0.501819 0.924129
Si Si7 0.029711 0.579132 0.919069
O O1 0.890233 0.833718 0.250000
O O2 0.983680 0.839260 0.045860
O O3 0.879626 0.750000 0.000000
O O4 0.869205 0.916068 0.005204
O O5 0.359566 0.823114 0.750000
O O6 0.338793 0.920868 0.978916
O O7 0.451084 0.849550 0.946061
O O8 0.352264 0.750000 0.000000
O O9 0.273119 0.517760 0.250000
O O10 0.312342 0.413672 0.038260
O O11 0.222890 0.529991 0.987690
O O12 0.500000 0.500000 0.500000
O O13 0.472312 0.423887 0.750000
O O14 0.430235 0.360082 0.496766
O O15 0.628573 0.674388 0.750000
O O16 0.663846 0.750000 0.000000
O O17 0.161252 0.482830 0.750000
O O18 0.105659 0.582385 0.956880
O O19 0.022170 0.554389 0.750000
O O20 0.000000 0.500000 0.000000
#
# Coordination Sequence:
#
# PCOD8231498 Si02
#       7
#     8   8   8   8   8   8   8
#     4  10  19  33  54  81 112 145 179 223 277 328
#     4  10  22  40  60  84 112 147 189 237 289 341
#     4  10  22  41  58  78 116 157 194 238 288 343
#     4  11  21  37  61  88 117 150 188 237 295 350
#     4  11  23  40  59  84 117 152 193 241 292 351
#     4  10  20  35  56  81 108 143 187 228 274 333
#     4   8  16  31  51  75 103 133 170 215 260 313
#
# _framework density 19.164532999999999
#
# number of rings (size 3 to 8) (size 9 to 14) (size 15 to 20)
#    0.000    2.000    1.429    2.143    0.000    5.714 
#    0.000    2.143    0.000    3.429    0.000    0.000 
#    0.000    0.000    0.000    0.000    0.000    0.000 
#
# Total GULP energy -694042.924523 kJ/mol
# GULP energy per Si atom -12393.623652 kJ/mol
# Density = 1.912091 g / cm^3
# Si number density = 19.164533 Si / 1000 Ang^3
#
#
#
# Elastic Constant Matrix: (Units=GPa)
#
#
# Indices 1 2 3 4 5 6 
#
# 1 86.8426 7.3929 36.5049 0.0000 0.0000 0.0000
# 2 7.3929 77.9587 32.2143 0.0000 0.0000 0.0000
# 3 36.5049 32.2143 78.2626 0.0000 0.0000 0.0000
# 4 0.0000 0.0000 0.0000 32.2160 0.0000 0.0000
# 5 0.0000 0.0000 0.0000 0.0000 33.9514 0.0000
# 6 0.0000 0.0000 0.0000 0.0000 0.0000 18.0774
#
#
#
# Elastic Compliance Matrix: (Units=1/GPa)
#
#
# Indices 1 2 3 4 5 6 
#
# 1 0.014511 0.001712 -0.007473 0.000000 0.000000 0.000000
# 2 0.001712 0.015658 -0.007244 0.000000 0.000000 0.000000
# 3 -0.007473 -0.007244 0.019245 0.000000 0.000000 0.000000
# 4 0.000000 0.000000 0.000000 0.031040 0.000000 0.000000
# 5 0.000000 0.000000 0.000000 0.000000 0.029454 0.000000
# 6 0.000000 0.000000 0.000000 0.000000 0.000000 0.055318
#
#
# Mechanical properties :
#
#
# Convention : Reuss Voigt Hill
#
# Bulk Modulus (GPa) = 42.72745 43.92090 43.32417
# Shear Modulus (GPa) = 25.12095 27.97907 26.55001
#
# Velocity S-wave (km/s) = 3.62443 3.82506 3.72610
# Velocity P-wave (km/s) = 6.31338 6.51734 6.41617
#
# Compressibility (1/GPa) = 0.02340416
#
# Stress axis : x y z
#
# Youngs Moduli (GPa) = 68.91460 63.86410 51.96176
#
# Poissons Ratio (x) = -0.10933 0.38831
# Poissons Ratio (y) = -0.11798 0.37640
# Poissons Ratio (z) = 0.51500 0.46262
#
# Static dielectric constant tensor:
#      x y z
#    x 3.935870 0.000000 0.000000 
#    y 0.000000 3.429370 0.000000 
#    z 0.000000 0.000000 3.552990 
# 
# 
# High freq. dielectric constant tensor:
#      x y z
#    x 1.746590 0.000000 0.000000 
#    y 0.000000 1.733800 0.000000 
#    z 0.000000 0.000000 1.754260 
# 
# From -- ./inp_files/8141.got.cif
#   From: 2010.03.12/outbox.cif.g09.slc.cpg/sg57_5_cif.got.tgz:8141.got - 2010.04.16 15:48:40.
