data_PCOD8231992
_publ_section_title
;
Structure prediction by ZEFSAII (Michael W. Deem and Ramdas Pophale) SiO2 
 PCOD8231992
Probable space group: P B C M
;
_chemical_formula_sum "Si O2"
_cell_formula_units_Z 64
_cell_length_a 9.997862
_cell_length_b 18.618179
_cell_length_c 18.558550
_cell_angle_alpha 90.000000
_cell_angle_beta 90.000000
_cell_angle_gamma 90.000000
_cell_volume 3454.525323
_symmetry_space_group_name_H-M "P B C M"
_symmetry_group_IT_number 57
_symmetry_cell_setting 'orthorhombic'
loop_
_space_group_symop_operation_xyz
x,y,z
-x,-y,1/2+z
x,1/2-y,-z
-x,1/2+y,1/2-z
-x,-y,-z
x,y,1/2-z
-x,1/2+y,z
x,1/2-y,1/2+z
loop_
_atom_site_type_symbol
_atom_site_label
_atom_site_fract_x
_atom_site_fract_y
_atom_site_fract_z
Si Si1 0.197047 0.651903 0.331665
Si Si2 0.899488 0.487183 0.898665
Si Si3 0.245029 0.782971 0.423643
Si Si4 0.560704 0.994788 0.579603
Si Si5 0.663469 0.570640 0.833621
Si Si6 0.495649 0.293330 0.167932
Si Si7 0.158082 0.938409 0.440837
Si Si8 0.508270 0.867645 0.831364
O O1 0.172720 0.675459 0.250000
O O2 0.103540 0.583657 0.348920
O O3 0.163975 0.722058 0.379465
O O4 0.349377 0.628173 0.345323
O O5 0.796958 0.549302 0.875493
O O6 0.045083 0.523146 0.892828
O O7 0.861087 0.461399 0.977533
O O8 0.287466 0.750000 0.500000
O O9 0.379743 0.808704 0.384035
O O10 0.149151 0.852093 0.433385
O O11 0.582555 0.912871 0.606162
O O12 0.500000 0.000000 0.500000
O O13 0.460828 0.024642 0.639350
O O14 0.698511 0.036276 0.586370
O O15 0.685467 0.553771 0.750000
O O16 0.628273 0.653910 0.848981
O O17 0.546958 0.304360 0.250000
O O18 0.440115 0.213279 0.157386
O O19 0.541932 0.893887 0.750000
#
# Coordination Sequence:
#
# PCOD8231992 Si02
#       8
#     8   8   8   8   8   8   8   8
#     4  10  19  36  60  86 114 157 205 238 287 366
#     4  11  22  41  60  83 121 166 199 244 295 374
#     4  11  20  35  59  89 118 155 194 253 304 354
#     4  12  21  35  58  90 117 150 194 252 300 351
#     4  11  21  37  60  87 121 158 199 245 301 360
#     4   9  20  35  56  86 121 153 194 249 296 351
#     4  11  24  39  59  90 124 149 204 254 304 350
#     4   9  18  34  56  83 116 154 195 243 299 350
#
# _framework density 18.526423999999999
#
# number of rings (size 3 to 8) (size 9 to 14) (size 15 to 20)
#    0.000    1.500    5.000    1.875    1.750    0.000 
#    0.000    6.250    0.000    1.500    0.000    0.000 
#    0.000    0.000    0.000    0.000    0.000    0.000 
#
# Total GULP energy -793597.391421 kJ/mol
# GULP energy per Si atom -12399.959241 kJ/mol
# Density = 1.848426 g / cm^3
# Si number density = 18.526424 Si / 1000 Ang^3
#
#
#
# Elastic Constant Matrix: (Units=GPa)
#
#
# Indices 1 2 3 4 5 6 
#
# 1 84.6093 51.0089 32.4653 0.0000 0.0000 0.0000
# 2 51.0089 141.3275 62.7924 0.0000 0.0000 0.0000
# 3 32.4653 62.7924 93.9494 0.0000 0.0000 0.0000
# 4 0.0000 0.0000 0.0000 35.4065 0.0000 0.0000
# 5 0.0000 0.0000 0.0000 0.0000 17.4090 0.0000
# 6 0.0000 0.0000 0.0000 0.0000 0.0000 18.8142
#
#
#
# Elastic Compliance Matrix: (Units=1/GPa)
#
#
# Indices 1 2 3 4 5 6 
#
# 1 0.015445 -0.004556 -0.002292 0.000000 0.000000 0.000000
# 2 -0.004556 0.011409 -0.006051 0.000000 0.000000 0.000000
# 3 -0.002292 -0.006051 0.015480 0.000000 0.000000 0.000000
# 4 0.000000 0.000000 0.000000 0.028243 0.000000 0.000000
# 5 0.000000 0.000000 0.000000 0.000000 0.057441 0.000000
# 6 0.000000 0.000000 0.000000 0.000000 0.000000 0.053151
#
#
# Mechanical properties :
#
#
# Convention : Reuss Voigt Hill
#
# Bulk Modulus (GPa) = 60.47364 68.04658 64.26011
# Shear Modulus (GPa) = 23.53161 25.90058 24.71610
#
# Velocity S-wave (km/s) = 3.56780 3.74309 3.65650
# Velocity P-wave (km/s) = 7.04876 7.44917 7.25173
#
# Compressibility (1/GPa) = 0.01653613
#
# Stress axis : x y z
#
# Youngs Moduli (GPa) = 64.74420 87.65356 64.59913
#
# Poissons Ratio (x) = 0.39937 0.14807
# Poissons Ratio (y) = 0.29499 0.39086
# Poissons Ratio (z) = 0.14840 0.53036
#
# Static dielectric constant tensor:
#      x y z
#    x 3.147540 0.000000 0.000000 
#    y 0.000000 3.856890 0.000000 
#    z 0.000000 0.000000 3.494720 
# 
# 
# High freq. dielectric constant tensor:
#      x y z
#    x 1.675090 0.000000 0.000000 
#    y 0.000000 1.737240 0.000000 
#    z 0.000000 0.000000 1.729290 
# 
# From -- ./inp_files/21435.got.cif
#   From: 2010.03.12/outbox.cif.g09.slc.cpg/sg57_11_cif.got.tgz:21435.got - 2010.04.16 15:48:40.
