data_PCOD8231450
_publ_section_title
;
Structure prediction by ZEFSAII (Michael W. Deem and Ramdas Pophale) SiO2 
 PCOD8231450
Probable space group: P B C M
;
_chemical_formula_sum "Si O2"
_cell_formula_units_Z 64
_cell_length_a 20.674744
_cell_length_b 19.294613
_cell_length_c 8.644645
_cell_angle_alpha 90.000000
_cell_angle_beta 90.000000
_cell_angle_gamma 90.000000
_cell_volume 3448.445575
_symmetry_space_group_name_H-M "P B C M"
_symmetry_group_IT_number 57
_symmetry_cell_setting 'orthorhombic'
loop_
_space_group_symop_operation_xyz
x,y,z
-x,-y,1/2+z
x,1/2-y,-z
-x,1/2+y,1/2-z
-x,-y,-z
x,y,1/2-z
-x,1/2+y,z
x,1/2-y,1/2+z
loop_
_atom_site_type_symbol
_atom_site_label
_atom_site_fract_x
_atom_site_fract_y
_atom_site_fract_z
Si Si1 0.009421 0.322936 0.933484
Si Si2 0.868595 0.323210 0.433330
Si Si3 0.058488 0.043256 0.932156
Si Si4 0.184992 0.542255 0.432445
Si Si5 0.638904 0.678223 0.932155
Si Si6 0.441133 0.542694 0.433026
Si Si7 0.490585 0.678007 0.567223
Si Si8 0.313279 0.033029 0.933869
O O1 0.006464 0.319930 0.750000
O O2 0.034045 0.250000 0.000000
O O3 0.938430 0.341461 0.996415
O O4 0.059591 0.381048 0.990007
O O5 0.843138 0.250000 0.500000
O O6 0.874325 0.317764 0.250000
O O7 0.819382 0.383832 0.481938
O O8 0.049637 0.050918 0.750000
O O9 0.124716 0.005767 0.976576
O O10 0.000000 0.000000 0.000000
O O11 0.188742 0.556139 0.250000
O O12 0.248114 0.502480 0.496504
O O13 0.642640 0.684443 0.750000
O O14 0.564824 0.665969 0.984719
O O15 0.680873 0.612799 0.992974
O O16 0.666830 0.750000 0.000000
O O17 0.500000 0.500000 0.500000
O O18 0.444462 0.539032 0.250000
O O19 0.444639 0.620962 0.491503
O O20 0.374277 0.510543 0.495311
O O21 0.464850 0.750000 0.500000
O O22 0.483214 0.675953 0.750000
O O23 0.312760 0.033593 0.750000
#
# Coordination Sequence:
#
# PCOD8231450 Si02
#       8
#     8   8   8   8   8   8   8   8
#     4  11  21  35  56  83 114 147 187 232 283 334
#     4  11  21  35  57  83 113 143 183 231 279 334
#     4  11  21  34  56  84 113 145 185 230 280 332
#     4  10  21  38  59  81 110 150 190 226 276 334
#     4   9  17  32  53  78 107 141 180 224 271 323
#     4  11  20  34  56  82 111 145 184 230 279 328
#     4  10  19  33  53  82 113 143 183 229 280 332
#     4   9  19  37  57  79 111 149 187 227 275 331
#
# _framework density 18.559086000000001
#
# number of rings (size 3 to 8) (size 9 to 14) (size 15 to 20)
#    0.000    1.750    2.500    4.125    0.000    1.000 
#    0.000    3.125    0.000    1.500    0.000    0.000 
#    0.000    0.000    0.000    0.000    0.000    0.000 
#
# Total GULP energy -793717.035196 kJ/mol
# GULP energy per Si atom -12401.828675 kJ/mol
# Density = 1.851684 g / cm^3
# Si number density = 18.559086 Si / 1000 Ang^3
#
#
#
# Elastic Constant Matrix: (Units=GPa)
#
#
# Indices 1 2 3 4 5 6 
#
# 1 110.9845 77.9760 38.7973 0.0000 0.0000 0.0000
# 2 77.9760 186.2412 50.2675 0.0000 0.0000 0.0000
# 3 38.7973 50.2675 85.2640 0.0000 0.0000 0.0000
# 4 0.0000 0.0000 0.0000 36.6317 0.0000 0.0000
# 5 0.0000 0.0000 0.0000 0.0000 17.4858 0.0000
# 6 0.0000 0.0000 0.0000 0.0000 0.0000 31.4360
#
#
#
# Elastic Compliance Matrix: (Units=1/GPa)
#
#
# Indices 1 2 3 4 5 6 
#
# 1 0.013524 -0.004759 -0.003348 0.000000 0.000000 0.000000
# 2 -0.004759 0.008060 -0.002586 0.000000 0.000000 0.000000
# 3 -0.003348 -0.002586 0.014777 0.000000 0.000000 0.000000
# 4 0.000000 0.000000 0.000000 0.027299 0.000000 0.000000
# 5 0.000000 0.000000 0.000000 0.000000 0.057189 0.000000
# 6 0.000000 0.000000 0.000000 0.000000 0.000000 0.031811
#
#
# Mechanical properties :
#
#
# Convention : Reuss Voigt Hill
#
# Bulk Modulus (GPa) = 66.78294 79.61904 73.20099
# Shear Modulus (GPa) = 27.92719 31.47399 29.70059
#
# Velocity S-wave (km/s) = 3.88335 4.12257 4.00475
# Velocity P-wave (km/s) = 7.49462 8.10273 7.80460
#
# Compressibility (1/GPa) = 0.01497388
#
# Stress axis : x y z
#
# Youngs Moduli (GPa) = 73.94239 124.07281 67.67416
#
# Poissons Ratio (x) = 0.59041 0.22660
# Poissons Ratio (y) = 0.35186 0.17503
# Poissons Ratio (z) = 0.24759 0.32090
#
# Static dielectric constant tensor:
#      x y z
#    x 3.336790 0.000000 0.000000 
#    y 0.000000 3.826940 0.000000 
#    z 0.000000 0.000000 3.378200 
# 
# 
# High freq. dielectric constant tensor:
#      x y z
#    x 1.687910 0.000000 0.000000 
#    y 0.000000 1.741810 0.000000 
#    z 0.000000 0.000000 1.717520 
# 
# From -- ./inp_files/7268.got.cif
#   From: 2010.03.12/outbox.cif.g09.slc.cpg/sg57_4_cif.got.tgz:7268.got - 2010.04.16 15:48:40.
