data_PCOD8231467
_publ_section_title
;
Structure prediction by ZEFSAII (Michael W. Deem and Ramdas Pophale) SiO2 
 PCOD8231467
Probable space group: P B C M
;
_chemical_formula_sum "Si O2"
_cell_formula_units_Z 40
_cell_length_a 18.316620
_cell_length_b 13.405503
_cell_length_c 8.932570
_cell_angle_alpha 90.000000
_cell_angle_beta 90.000000
_cell_angle_gamma 90.000000
_cell_volume 2193.334541
_symmetry_space_group_name_H-M "P B C M"
_symmetry_group_IT_number 57
_symmetry_cell_setting 'orthorhombic'
loop_
_space_group_symop_operation_xyz
x,y,z
-x,-y,1/2+z
x,1/2-y,-z
-x,1/2+y,1/2-z
-x,-y,-z
x,y,1/2-z
-x,1/2+y,z
x,1/2-y,1/2+z
loop_
_atom_site_type_symbol
_atom_site_label
_atom_site_fract_x
_atom_site_fract_y
_atom_site_fract_z
Si Si1 0.745558 0.144983 0.424879
Si Si2 0.608649 0.458323 0.425044
Si Si3 0.899134 0.053659 0.077642
Si Si4 0.029914 0.150397 0.575393
Si Si5 0.543452 0.855566 0.075076
O O1 0.762936 0.250000 0.500000
O O2 0.729190 0.160643 0.250000
O O3 0.676860 0.095301 0.502253
O O4 0.814361 0.073252 0.452687
O O5 0.621736 0.474728 0.250000
O O6 0.539428 0.387988 0.456309
O O7 0.598456 0.565319 0.501998
O O8 0.920040 0.072154 0.250000
O O9 0.916000 0.939736 0.031175
O O10 0.947942 0.128554 0.980555
O O11 0.061370 0.250000 0.500000
O O12 0.026540 0.168833 0.750000
O O13 0.560519 0.848747 0.250000
O O14 0.558389 0.750000 0.000000
#
# Coordination Sequence:
#
# PCOD8231467 Si02
#       5
#     8   8   8   8   8
#     4  11  22  36  54  77 107 139 173 215 263 313
#     4  10  21  36  55  80 108 139 177 217 260 311
#     4   9  20  36  53  76 105 138 176 216 258 308
#     4  10  19  33  54  78 104 135 173 216 261 309
#     4  10  20  35  56  80 107 139 176 218 262 310
#
# _framework density 18.237072000000001
#
# number of rings (size 3 to 8) (size 9 to 14) (size 15 to 20)
#    0.000    2.000    0.000    3.600    0.000    8.000 
#    0.000    1.000    0.000    2.400    0.000    0.000 
#    0.000    0.000    0.000    0.000    0.000    0.000 
#
# Total GULP energy -496182.368453 kJ/mol
# GULP energy per Si atom -12404.559211 kJ/mol
# Density = 1.819556 g / cm^3
# Si number density = 18.237072 Si / 1000 Ang^3
#
#
#
# Elastic Constant Matrix: (Units=GPa)
#
#
# Indices 1 2 3 4 5 6 
#
# 1 70.1119 29.9507 32.7714 0.0000 0.0000 0.0000
# 2 29.9507 126.0730 51.6191 0.0000 0.0000 0.0000
# 3 32.7714 51.6191 92.4978 0.0000 0.0000 0.0000
# 4 0.0000 0.0000 0.0000 38.9114 0.0000 0.0000
# 5 0.0000 0.0000 0.0000 0.0000 26.8678 0.0000
# 6 0.0000 0.0000 0.0000 0.0000 0.0000 22.6562
#
#
#
# Elastic Compliance Matrix: (Units=1/GPa)
#
#
# Indices 1 2 3 4 5 6 
#
# 1 0.017512 -0.002100 -0.005033 0.000000 0.000000 0.000000
# 2 -0.002100 0.010533 -0.005134 0.000000 0.000000 0.000000
# 3 -0.005033 -0.005134 0.015459 0.000000 0.000000 0.000000
# 4 0.000000 0.000000 0.000000 0.025699 0.000000 0.000000
# 5 0.000000 0.000000 0.000000 0.000000 0.037219 0.000000
# 6 0.000000 0.000000 0.000000 0.000000 0.000000 0.044138
#
#
# Mechanical properties :
#
#
# Convention : Reuss Voigt Hill
#
# Bulk Modulus (GPa) = 52.71101 57.48501 55.09801
# Shear Modulus (GPa) = 27.56074 29.30986 28.43530
#
# Velocity S-wave (km/s) = 3.89169 4.01329 3.95296
# Velocity P-wave (km/s) = 7.01140 7.28455 7.14928
#
# Compressibility (1/GPa) = 0.01897137
#
# Stress axis : x y z
#
# Youngs Moduli (GPa) = 57.10287 94.94169 64.68646
#
# Poissons Ratio (x) = 0.19935 0.32555
# Poissons Ratio (y) = 0.11990 0.33210
# Poissons Ratio (z) = 0.28738 0.48743
#
# Static dielectric constant tensor:
#      x y z
#    x 3.215850 0.000000 0.000000 
#    y 0.000000 3.534650 0.000000 
#    z 0.000000 0.000000 3.546420 
# 
# 
# High freq. dielectric constant tensor:
#      x y z
#    x 1.691530 0.000000 0.000000 
#    y 0.000000 1.717080 0.000000 
#    z 0.000000 0.000000 1.723430 
# 
# From -- ./inp_files/4299.got.cif
#   From: 2010.03.12/outbox.cif.g09.slc.cpg/sg57_3_cif.got.tgz:4299.got - 2010.04.16 15:48:40.
