data_PCOD8231867
_publ_section_title
;
Structure prediction by ZEFSAII (Michael W. Deem and Ramdas Pophale) SiO2 
 PCOD8231867
Probable space group: P B C M
;
_chemical_formula_sum "Si O2"
_cell_formula_units_Z 64
_cell_length_a 11.017061
_cell_length_b 8.732413
_cell_length_c 31.012750
_cell_angle_alpha 90.000000
_cell_angle_beta 90.000000
_cell_angle_gamma 90.000000
_cell_volume 2983.597948
_symmetry_space_group_name_H-M "P B C M"
_symmetry_group_IT_number 57
_symmetry_cell_setting 'orthorhombic'
loop_
_space_group_symop_operation_xyz
x,y,z
-x,-y,1/2+z
x,1/2-y,-z
-x,1/2+y,1/2-z
-x,-y,-z
x,y,1/2-z
-x,1/2+y,z
x,1/2-y,1/2+z
loop_
_atom_site_type_symbol
_atom_site_label
_atom_site_fract_x
_atom_site_fract_y
_atom_site_fract_z
Si Si1 0.155458 0.001601 0.605332
Si Si2 0.130584 0.071021 0.507510
Si Si3 0.865500 0.506574 0.200337
Si Si4 0.638900 0.481501 0.152852
Si Si5 0.329312 0.063096 0.060630
Si Si6 0.520344 0.283861 0.452972
Si Si7 0.996649 0.250208 0.351191
Si Si8 0.607138 0.357941 0.868139
O O1 0.178397 0.024059 0.554566
O O2 0.099887 0.157667 0.623560
O O3 0.278774 0.972655 0.632348
O O4 0.067496 0.856755 0.613195
O O5 0.119466 0.250000 0.500000
O O6 0.224587 0.007220 0.471553
O O7 0.000000 0.000000 0.500000
O O8 0.889767 0.470437 0.250000
O O9 0.722290 0.539797 0.192265
O O10 0.944805 0.652526 0.187236
O O11 0.899492 0.361305 0.170926
O O12 0.712602 0.536719 0.109726
O O13 0.628253 0.298592 0.157834
O O14 0.506245 0.556834 0.153834
O O15 0.454264 0.962890 0.055294
O O16 0.375841 0.238022 0.050946
O O17 0.572214 0.250000 0.500000
O O18 0.591449 0.185073 0.417994
#
# Coordination Sequence:
#
# PCOD8231867 Si02
#       8
#     8   8   8   8   8   8   8   8
#     4  11  23  43  65  94 132 177 223 268 319 389
#     4  12  28  41  60  92 135 180 228 271 321 374
#     4  11  23  45  73 103 130 160 210 272 331 402
#     4  10  23  40  66  93 132 171 216 265 330 385
#     4  10  23  39  59  89 125 168 218 267 316 368
#     4  10  19  35  57  84 119 161 216 270 306 351
#     4  10  24  42  74  96 128 171 216 260 332 393
#     4  10  22  39  63  94 128 176 216 265 324 392
#
# _framework density 21.450610000000001
#
# number of rings (size 3 to 8) (size 9 to 14) (size 15 to 20)
#    0.000    1.500    1.250    2.625    7.000    7.500 
#    0.000    0.625    0.000    0.000    0.000    0.000 
#    0.000    0.000    0.000    0.000    0.000    0.000 
#
# Total GULP energy -793454.003258 kJ/mol
# GULP energy per Si atom -12397.718801 kJ/mol
# Density = 2.140179 g / cm^3
# Si number density = 21.450610 Si / 1000 Ang^3
#
#
#
# Elastic Constant Matrix: (Units=GPa)
#
#
# Indices 1 2 3 4 5 6 
#
# 1 125.1427 40.5745 21.1581 0.0000 0.0000 0.0000
# 2 40.5745 93.2491 19.3861 0.0000 0.0000 0.0000
# 3 21.1581 19.3861 66.3379 0.0000 0.0000 0.0000
# 4 0.0000 0.0000 0.0000 19.2074 0.0000 0.0000
# 5 0.0000 0.0000 0.0000 0.0000 23.7337 0.0000
# 6 0.0000 0.0000 0.0000 0.0000 0.0000 26.6317
#
#
#
# Elastic Compliance Matrix: (Units=1/GPa)
#
#
# Indices 1 2 3 4 5 6 
#
# 1 0.009534 -0.003744 -0.001947 0.000000 0.000000 0.000000
# 2 -0.003744 0.012888 -0.002572 0.000000 0.000000 0.000000
# 3 -0.001947 -0.002572 0.016447 0.000000 0.000000 0.000000
# 4 0.000000 0.000000 0.000000 0.052063 0.000000 0.000000
# 5 0.000000 0.000000 0.000000 0.000000 0.042134 0.000000
# 6 0.000000 0.000000 0.000000 0.000000 0.000000 0.037549
#
#
# Mechanical properties :
#
#
# Convention : Reuss Voigt Hill
#
# Bulk Modulus (GPa) = 44.75624 49.66302 47.20963
# Shear Modulus (GPa) = 25.69535 27.48864 26.59199
#
# Velocity S-wave (km/s) = 3.46480 3.58367 3.52474
# Velocity P-wave (km/s) = 6.07590 6.35028 6.21461
#
# Compressibility (1/GPa) = 0.02234325
#
# Stress axis : x y z
#
# Youngs Moduli (GPa) = 104.89007 77.59381 60.80168
#
# Poissons Ratio (x) = 0.29048 0.11837
# Poissons Ratio (y) = 0.39267 0.15639
# Poissons Ratio (z) = 0.20419 0.19959
#
# Static dielectric constant tensor:
#      x y z
#    x 3.975040 0.000000 0.000000 
#    y 0.000000 4.087530 0.000000 
#    z 0.000000 0.000000 3.643170 
# 
# 
# High freq. dielectric constant tensor:
#      x y z
#    x 1.847150 0.000000 0.000000 
#    y 0.000000 1.853960 0.000000 
#    z 0.000000 0.000000 1.812200 
# 
# From -- ./inp_files/29767.got.cif
#   From: 2010.03.12/outbox.cif.g09.slc.cpg/sg57_15_cif.got.tgz:29767.got - 2010.04.16 15:48:40.
