data_PCOD8231224
_publ_section_title
;
Structure prediction by ZEFSAII (Michael W. Deem and Ramdas Pophale) SiO2 
 PCOD8231224
Probable space group: P B C M
;
_chemical_formula_sum "Si O2"
_cell_formula_units_Z 48
_cell_length_a 16.413586
_cell_length_b 17.975303
_cell_length_c 9.191100
_cell_angle_alpha 90.000000
_cell_angle_beta 90.000000
_cell_angle_gamma 90.000000
_cell_volume 2711.734623
_symmetry_space_group_name_H-M "P B C M"
_symmetry_group_IT_number 57
_symmetry_cell_setting 'orthorhombic'
loop_
_space_group_symop_operation_xyz
x,y,z
-x,-y,1/2+z
x,1/2-y,-z
-x,1/2+y,1/2-z
-x,-y,-z
x,y,1/2-z
-x,1/2+y,z
x,1/2-y,1/2+z
loop_
_atom_site_type_symbol
_atom_site_label
_atom_site_fract_x
_atom_site_fract_y
_atom_site_fract_z
Si Si1 0.336159 0.176142 0.078373
Si Si2 0.420452 0.024896 0.417707
Si Si3 0.820238 0.597190 0.079793
Si Si4 0.254576 0.946058 0.080185
Si Si5 0.844878 0.171403 0.422839
Si Si6 0.001156 0.077736 0.080192
O O1 0.338412 0.189686 0.250000
O O2 0.393417 0.107339 0.032322
O O3 0.244084 0.157931 0.020049
O O4 0.368373 0.250000 0.000000
O O5 0.442930 0.026727 0.250000
O O6 0.500000 0.000000 0.500000
O O7 0.348827 0.965632 0.447431
O O8 0.802358 0.592033 0.250000
O O9 0.800825 0.514345 0.020915
O O10 0.913163 0.619224 0.042468
O O11 0.238082 0.928643 0.250000
O O12 0.231831 0.874869 0.983046
O O13 0.844681 0.250000 0.500000
O O14 0.837879 0.180830 0.250000
O O15 0.928395 0.130695 0.470649
O O16 0.995465 0.060086 0.250000
O O17 0.000000 0.000000 0.000000
#
# Coordination Sequence:
#
# PCOD8231224 Si02
#       6
#     8   8   8   8   8   8
#     4   9  18  33  52  77 107 138 170 206 256 310
#     4   9  19  35  57  83 107 136 173 212 259 315
#     4   8  15  30  52  73  99 135 170 208 255 306
#     4   9  17  34  57  75  98 136 174 212 262 312
#     4  11  23  35  50  76 107 140 180 222 265 311
#     4  10  19  32  52  76 102 138 180 220 261 307
#
# _framework density 17.700847
#
# number of rings (size 3 to 8) (size 9 to 14) (size 15 to 20)
#    0.000    2.667    1.667    2.500    0.000    2.667 
#    0.000    4.167    0.000    2.000    0.000    0.000 
#    0.000    0.000    0.000    0.000    0.000    0.000 
#
# Total GULP energy -595014.023280 kJ/mol
# GULP energy per Si atom -12396.125485 kJ/mol
# Density = 1.766056 g / cm^3
# Si number density = 17.700847 Si / 1000 Ang^3
#
#
#
# Elastic Constant Matrix: (Units=GPa)
#
#
# Indices 1 2 3 4 5 6 
#
# 1 117.1341 64.4002 47.1687 0.0000 0.0000 0.0000
# 2 64.4002 136.3643 54.5626 0.0000 0.0000 0.0000
# 3 47.1687 54.5626 55.7571 0.0000 0.0000 0.0000
# 4 0.0000 0.0000 0.0000 30.8006 0.0000 0.0000
# 5 0.0000 0.0000 0.0000 0.0000 27.0805 0.0000
# 6 0.0000 0.0000 0.0000 0.0000 0.0000 21.5820
#
#
#
# Elastic Compliance Matrix: (Units=1/GPa)
#
#
# Indices 1 2 3 4 5 6 
#
# 1 0.013657 -0.003003 -0.008615 0.000000 0.000000 0.000000
# 2 -0.003003 0.012713 -0.009900 0.000000 0.000000 0.000000
# 3 -0.008615 -0.009900 0.034911 0.000000 0.000000 0.000000
# 4 0.000000 0.000000 0.000000 0.032467 0.000000 0.000000
# 5 0.000000 0.000000 0.000000 0.000000 0.036927 0.000000
# 6 0.000000 0.000000 0.000000 0.000000 0.000000 0.046335
#
#
# Mechanical properties :
#
#
# Convention : Reuss Voigt Hill
#
# Bulk Modulus (GPa) = 54.80960 71.27983 63.04472
# Shear Modulus (GPa) = 22.11139 25.43424 23.77281
#
# Velocity S-wave (km/s) = 3.53820 3.79475 3.66872
# Velocity P-wave (km/s) = 6.90821 7.71730 7.32394
#
# Compressibility (1/GPa) = 0.01824498
#
# Stress axis : x y z
#
# Youngs Moduli (GPa) = 73.22019 78.66198 28.64412
#
# Poissons Ratio (x) = 0.23620 0.24678
# Poissons Ratio (y) = 0.21986 0.28358
# Poissons Ratio (z) = 0.63082 0.77876
#
# Static dielectric constant tensor:
#      x y z
#    x 3.422730 0.000000 0.000000 
#    y 0.000000 3.206490 0.000000 
#    z 0.000000 0.000000 3.057560 
# 
# 
# High freq. dielectric constant tensor:
#      x y z
#    x 1.684660 0.000000 0.000000 
#    y 0.000000 1.676980 0.000000 
#    z 0.000000 0.000000 1.667080 
# 
# From -- ./inp_files/6701.got.cif
#   From: 2010.03.12/outbox.cif.g09.slc.cpg/sg57_4_cif.got.tgz:6701.got - 2010.04.16 15:48:40.
