data_PCOD8231897
_publ_section_title
;
Structure prediction by ZEFSAII (Michael W. Deem and Ramdas Pophale) SiO2 
 PCOD8231897
Probable space group: P B C M
;
_chemical_formula_sum "Si O2"
_cell_formula_units_Z 64
_cell_length_a 9.776235
_cell_length_b 18.798268
_cell_length_c 18.599117
_cell_angle_alpha 90.000000
_cell_angle_beta 90.000000
_cell_angle_gamma 90.000000
_cell_volume 3418.076637
_symmetry_space_group_name_H-M "P B C M"
_symmetry_group_IT_number 57
_symmetry_cell_setting 'orthorhombic'
loop_
_space_group_symop_operation_xyz
x,y,z
-x,-y,1/2+z
x,1/2-y,-z
-x,1/2+y,1/2-z
-x,-y,-z
x,y,1/2-z
-x,1/2+y,z
x,1/2-y,1/2+z
loop_
_atom_site_type_symbol
_atom_site_label
_atom_site_fract_x
_atom_site_fract_y
_atom_site_fract_z
Si Si1 0.383064 0.096792 0.330634
Si Si2 0.998995 0.430195 0.047195
Si Si3 0.790697 0.169685 0.026846
Si Si4 0.057784 0.658157 0.332262
Si Si5 0.520992 0.080354 0.024729
Si Si6 0.790507 0.715272 0.385940
Si Si7 0.258210 0.148614 0.535838
Si Si8 0.108654 0.016275 0.331110
O O1 0.441588 0.085737 0.250000
O O2 0.500867 0.084613 0.389086
O O3 0.321720 0.176272 0.336407
O O4 0.261820 0.041711 0.348427
O O5 0.924271 0.447493 0.121755
O O6 0.158435 0.413979 0.062123
O O7 0.924675 0.362106 0.011916
O O8 0.000000 0.500000 0.000000
O O9 0.816968 0.171957 0.113008
O O10 0.667106 0.115723 0.008074
O O11 0.759994 0.250000 0.000000
O O12 0.109892 0.666019 0.250000
O O13 0.937392 0.715633 0.346511
O O14 0.996889 0.579930 0.347024
O O15 0.411827 0.124958 0.979331
O O16 0.500000 0.000000 0.000000
O O17 0.736916 0.794567 0.399728
O O18 0.808384 0.676925 0.462465
O O19 0.096565 0.990393 0.250000
#
# Coordination Sequence:
#
# PCOD8231897 Si02
#       8
#     8   8   8   8   8   8   8   8
#     4   9  18  35  60  82 107 149 199 237 284 356
#     4  12  19  35  61  87 118 155 196 240 294 358
#     4  12  25  38  58  91 125 154 197 253 306 358
#     4  10  19  35  58  88 121 153 191 243 301 359
#     4  11  24  39  59  86 117 159 205 247 299 353
#     4   9  16  33  56  85 110 141 189 239 284 340
#     4  10  20  32  59  82 113 147 195 239 287 340
#     4   9  18  33  58  90 117 149 194 244 290 348
#
# _framework density 18.723980000000001
#
# number of rings (size 3 to 8) (size 9 to 14) (size 15 to 20)
#    0.000    1.750    2.500    4.875    3.500    0.500 
#    0.000    3.125    0.000    2.250    0.000    0.000 
#    0.000    0.000    0.000    0.000    0.000    0.000 
#
# Total GULP energy -793462.299946 kJ/mol
# GULP energy per Si atom -12397.848437 kJ/mol
# Density = 1.868136 g / cm^3
# Si number density = 18.723980 Si / 1000 Ang^3
#
#
#
# Elastic Constant Matrix: (Units=GPa)
#
#
# Indices 1 2 3 4 5 6 
#
# 1 73.7733 22.7318 23.8366 0.0000 0.0000 0.0000
# 2 22.7318 83.6409 30.9214 0.0000 0.0000 0.0000
# 3 23.8366 30.9214 81.9765 0.0000 0.0000 0.0000
# 4 0.0000 0.0000 0.0000 27.3152 0.0000 0.0000
# 5 0.0000 0.0000 0.0000 0.0000 19.1057 0.0000
# 6 0.0000 0.0000 0.0000 0.0000 0.0000 23.7827
#
#
#
# Elastic Compliance Matrix: (Units=1/GPa)
#
#
# Indices 1 2 3 4 5 6 
#
# 1 0.015572 -0.002973 -0.003407 0.000000 0.000000 0.000000
# 2 -0.002973 0.014461 -0.004590 0.000000 0.000000 0.000000
# 3 -0.003407 -0.004590 0.014921 0.000000 0.000000 0.000000
# 4 0.000000 0.000000 0.000000 0.036610 0.000000 0.000000
# 5 0.000000 0.000000 0.000000 0.000000 0.052340 0.000000
# 6 0.000000 0.000000 0.000000 0.000000 0.000000 0.042047
#
#
# Mechanical properties :
#
#
# Convention : Reuss Voigt Hill
#
# Bulk Modulus (GPa) = 43.45151 43.81893 43.63522
# Shear Modulus (GPa) = 24.32373 24.83412 24.57893
#
# Velocity S-wave (km/s) = 3.60817 3.64583 3.62705
# Velocity P-wave (km/s) = 6.37301 6.41686 6.39497
#
# Compressibility (1/GPa) = 0.02301416
#
# Stress axis : x y z
#
# Youngs Moduli (GPa) = 64.21914 69.15277 67.02156
#
# Poissons Ratio (x) = 0.20557 0.22831
# Poissons Ratio (y) = 0.19090 0.30764
# Poissons Ratio (z) = 0.21877 0.31742
#
# Static dielectric constant tensor:
#      x y z
#    x 3.051800 0.000000 0.000000 
#    y 0.000000 3.473970 0.000000 
#    z 0.000000 0.000000 3.203940 
# 
# 
# High freq. dielectric constant tensor:
#      x y z
#    x 1.712530 0.000000 0.000000 
#    y 0.000000 1.714540 0.000000 
#    z 0.000000 0.000000 1.723310 
# 
# From -- ./inp_files/21396.got.cif
#   From: 2010.03.12/outbox.cif.g09.slc.cpg/sg57_11_cif.got.tgz:21396.got - 2010.04.16 15:48:40.
