data_PCOD8231614
_publ_section_title
;
Structure prediction by ZEFSAII (Michael W. Deem and Ramdas Pophale) SiO2 
 PCOD8231614
Probable space group: P B C M
;
_chemical_formula_sum "Si O2"
_cell_formula_units_Z 64
_cell_length_a 14.697347
_cell_length_b 29.509063
_cell_length_c 8.773035
_cell_angle_alpha 90.000000
_cell_angle_beta 90.000000
_cell_angle_gamma 90.000000
_cell_volume 3804.908606
_symmetry_space_group_name_H-M "P B C M"
_symmetry_group_IT_number 57
_symmetry_cell_setting 'orthorhombic'
loop_
_space_group_symop_operation_xyz
x,y,z
-x,-y,1/2+z
x,1/2-y,-z
-x,1/2+y,1/2-z
-x,-y,-z
x,y,1/2-z
-x,1/2+y,z
x,1/2-y,1/2+z
loop_
_atom_site_type_symbol
_atom_site_label
_atom_site_fract_x
_atom_site_fract_y
_atom_site_fract_z
Si Si1 0.292491 0.204632 0.570664
Si Si2 0.642648 0.559737 0.072501
Si Si3 0.675655 0.042930 0.925987
Si Si4 0.199009 0.114128 0.570385
Si Si5 0.460349 0.610659 0.070913
Si Si6 0.500054 0.203417 0.569853
Si Si7 0.942816 0.559216 0.074576
Si Si8 0.863739 0.028673 0.424832
O O1 0.249715 0.250000 0.500000
O O2 0.289308 0.208564 0.750000
O O3 0.234068 0.162535 0.511270
O O4 0.395897 0.198172 0.514427
O O5 0.662380 0.569273 0.250000
O O6 0.631739 0.506246 0.041742
O O7 0.552355 0.585549 0.015414
O O8 0.727482 0.576036 0.972949
O O9 0.665313 0.056180 0.750000
O O10 0.624767 0.079796 0.027362
O O11 0.781829 0.044431 0.968668
O O12 0.183133 0.113611 0.750000
O O13 0.103959 0.105542 0.482864
O O14 0.461889 0.618190 0.250000
O O15 0.447333 0.659432 0.991779
O O16 0.540985 0.250000 0.500000
O O17 0.509996 0.205590 0.750000
O O18 0.918298 0.548939 0.250000
O O19 0.051526 0.563253 0.052704
O O20 0.899565 0.520656 0.969212
O O21 0.830910 0.027446 0.250000
#
# Coordination Sequence:
#
# PCOD8231614 Si02
#       8
#     8   8   8   8   8   8   8   8
#     4   9  19  32  48  72  99 131 166 206 250 299
#     4  10  21  34  48  70 101 138 176 209 246 296
#     4  11  22  35  51  72 101 137 176 216 255 299
#     4  11  20  31  50  75 102 134 171 207 250 300
#     4  11  22  35  51  73 101 138 176 210 254 304
#     4  10  19  34  52  73 100 130 168 212 257 301
#     4  10  20  33  50  73 100 130 166 205 250 299
#     4  10  20  34  51  72  98 130 168 210 251 295
#
# _framework density 16.820377000000001
#
# number of rings (size 3 to 8) (size 9 to 14) (size 15 to 20)
#    0.000    1.750    2.500    2.625    0.000    4.000 
#    0.000    0.000    0.000    0.000    0.000    0.875 
#    0.000    4.000    0.000    0.000    0.000    0.000 
#
# Total GULP energy -793766.621569 kJ/mol
# GULP energy per Si atom -12402.603462 kJ/mol
# Density = 1.678209 g / cm^3
# Si number density = 16.820377 Si / 1000 Ang^3
#
#
#
# Elastic Constant Matrix: (Units=GPa)
#
#
# Indices 1 2 3 4 5 6 
#
# 1 59.6462 29.9733 16.2685 0.0000 0.0000 0.0000
# 2 29.9733 106.0438 30.0789 0.0000 0.0000 0.0000
# 3 16.2685 30.0789 51.7933 0.0000 0.0000 0.0000
# 4 0.0000 0.0000 0.0000 29.5361 0.0000 0.0000
# 5 0.0000 0.0000 0.0000 0.0000 25.6355 0.0000
# 6 0.0000 0.0000 0.0000 0.0000 0.0000 21.5037
#
#
#
# Elastic Compliance Matrix: (Units=1/GPa)
#
#
# Indices 1 2 3 4 5 6 
#
# 1 0.020088 -0.004655 -0.003606 0.000000 0.000000 0.000000
# 2 -0.004655 0.012369 -0.005721 0.000000 0.000000 0.000000
# 3 -0.003606 -0.005721 0.023763 0.000000 0.000000 0.000000
# 4 0.000000 0.000000 0.000000 0.033857 0.000000 0.000000
# 5 0.000000 0.000000 0.000000 0.000000 0.039008 0.000000
# 6 0.000000 0.000000 0.000000 0.000000 0.000000 0.046504
#
#
# Mechanical properties :
#
#
# Convention : Reuss Voigt Hill
#
# Bulk Modulus (GPa) = 35.39198 41.12497 38.25847
# Shear Modulus (GPa) = 23.47731 24.74589 24.11160
#
# Velocity S-wave (km/s) = 3.74005 3.83976 3.79023
# Velocity P-wave (km/s) = 6.30376 6.64537 6.47682
#
# Compressibility (1/GPa) = 0.02825499
#
# Stress axis : x y z
#
# Youngs Moduli (GPa) = 49.77986 80.85044 42.08280
#
# Poissons Ratio (x) = 0.37636 0.15177
# Poissons Ratio (y) = 0.23173 0.24075
# Poissons Ratio (z) = 0.17953 0.46253
#
# Static dielectric constant tensor:
#      x y z
#    x 3.120790 0.000000 0.000000 
#    y 0.000000 3.192890 0.000000 
#    z 0.000000 0.000000 3.192000 
# 
# 
# High freq. dielectric constant tensor:
#      x y z
#    x 1.625590 0.000000 0.000000 
#    y 0.000000 1.635360 0.000000 
#    z 0.000000 0.000000 1.661100 
# 
# From -- ./inp_files/5986.got.cif
#   From: 2010.03.12/outbox.cif.g09.slc.cpg/sg57_3_cif.got.tgz:5986.got - 2010.04.16 15:48:40.
