data_PCOD8231286
_publ_section_title
;
Structure prediction by ZEFSAII (Michael W. Deem and Ramdas Pophale) SiO2 
 PCOD8231286
Probable space group: P B C M
;
_chemical_formula_sum "Si O2"
_cell_formula_units_Z 64
_cell_length_a 18.743970
_cell_length_b 18.810907
_cell_length_c 9.117797
_cell_angle_alpha 90.000000
_cell_angle_beta 90.000000
_cell_angle_gamma 90.000000
_cell_volume 3214.853859
_symmetry_space_group_name_H-M "P B C M"
_symmetry_group_IT_number 57
_symmetry_cell_setting 'orthorhombic'
loop_
_space_group_symop_operation_xyz
x,y,z
-x,-y,1/2+z
x,1/2-y,-z
-x,1/2+y,1/2-z
-x,-y,-z
x,y,1/2-z
-x,1/2+y,z
x,1/2-y,1/2+z
loop_
_atom_site_type_symbol
_atom_site_label
_atom_site_fract_x
_atom_site_fract_y
_atom_site_fract_z
Si Si1 0.298999 0.558109 0.420431
Si Si2 0.429979 0.312794 0.592721
Si Si3 0.789469 0.574683 0.584472
Si Si4 0.934821 0.093163 0.914552
Si Si5 0.071429 0.075663 0.085115
Si Si6 0.210308 0.673227 0.574733
Si Si7 0.730646 0.810847 0.907075
Si Si8 0.571867 0.973685 0.927556
O O1 0.319501 0.573530 0.250000
O O2 0.228383 0.508550 0.426610
O O3 0.277075 0.630156 0.504928
O O4 0.364093 0.519605 0.502823
O O5 0.469205 0.250000 0.500000
O O6 0.470011 0.316991 0.750000
O O7 0.349844 0.286143 0.619605
O O8 0.426806 0.391132 0.521720
O O9 0.788393 0.601666 0.750000
O O10 0.863909 0.599972 0.516419
O O11 0.728496 0.615014 0.493664
O O12 0.954867 0.117293 0.750000
O O13 0.863281 0.133122 0.965704
O O14 0.926300 0.009006 0.919834
O O15 0.999333 0.111793 0.024076
O O16 0.081549 0.103417 0.250000
O O17 0.208472 0.750000 0.500000
O O18 0.220833 0.679024 0.750000
O O19 0.769250 0.820561 0.750000
O O20 0.771609 0.750000 0.000000
O O21 0.574189 0.981070 0.750000
O O22 0.500000 0.000000 0.000000
#
# Coordination Sequence:
#
# PCOD8231286 Si02
#       8
#     8   8   8   8   8   8   8   8
#     4  11  23  39  62  91 120 156 203 253 304 365
#     4   9  19  34  56  84 116 151 190 235 288 352
#     4  11  21  33  54  84 117 152 195 244 294 353
#     4   9  19  35  54  80 114 150 192 245 303 361
#     4  10  19  32  54  82 113 149 193 245 302 358
#     4  11  23  41  64  90 123 163 208 260 316 372
#     4  10  19  33  52  78 112 148 186 229 281 340
#     4  11  23  41  63  92 126 162 202 253 311 372
#
# _framework density 19.907592999999999
#
# number of rings (size 3 to 8) (size 9 to 14) (size 15 to 20)
#    0.000    1.750    2.500    2.250    0.000    4.000 
#    0.000    1.250    0.000    3.000    0.000    0.000 
#    0.000    0.000    0.000    0.000    0.000    0.000 
#
# Total GULP energy -793036.701476 kJ/mol
# GULP energy per Si atom -12391.198461 kJ/mol
# Density = 1.986228 g / cm^3
# Si number density = 19.907593 Si / 1000 Ang^3
#
#
#
# Elastic Constant Matrix: (Units=GPa)
#
#
# Indices 1 2 3 4 5 6 
#
# 1 84.0462 40.3565 49.2755 0.0000 0.0000 0.0000
# 2 40.3565 114.2813 60.6061 0.0000 0.0000 0.0000
# 3 49.2755 60.6061 155.8072 0.0000 0.0000 0.0000
# 4 0.0000 0.0000 0.0000 33.7522 0.0000 0.0000
# 5 0.0000 0.0000 0.0000 0.0000 28.8435 0.0000
# 6 0.0000 0.0000 0.0000 0.0000 0.0000 20.9129
#
#
#
# Elastic Compliance Matrix: (Units=1/GPa)
#
#
# Indices 1 2 3 4 5 6 
#
# 1 0.015745 -0.003678 -0.003549 0.000000 0.000000 0.000000
# 2 -0.003678 0.011884 -0.003459 0.000000 0.000000 0.000000
# 3 -0.003549 -0.003459 0.008886 0.000000 0.000000 0.000000
# 4 0.000000 0.000000 0.000000 0.029628 0.000000 0.000000
# 5 0.000000 0.000000 0.000000 0.000000 0.034670 0.000000
# 6 0.000000 0.000000 0.000000 0.000000 0.000000 0.047817
#
#
# Mechanical properties :
#
#
# Convention : Reuss Voigt Hill
#
# Bulk Modulus (GPa) = 66.03941 72.73454 69.38698
# Shear Modulus (GPa) = 28.56332 30.29482 29.42907
#
# Velocity S-wave (km/s) = 3.79198 3.90522 3.84902
# Velocity P-wave (km/s) = 7.23997 7.54651 7.39482
#
# Compressibility (1/GPa) = 0.01514247
#
# Stress axis : x y z
#
# Youngs Moduli (GPa) = 63.51247 84.14851 112.53472
#
# Poissons Ratio (x) = 0.30950 0.39936
# Poissons Ratio (y) = 0.23360 0.38930
# Poissons Ratio (z) = 0.22539 0.29110
#
# Static dielectric constant tensor:
#      x y z
#    x 3.401820 0.000000 0.000000 
#    y 0.000000 3.526810 0.000000 
#    z 0.000000 0.000000 4.164060 
# 
# 
# High freq. dielectric constant tensor:
#      x y z
#    x 1.752080 0.000000 0.000000 
#    y 0.000000 1.764180 0.000000 
#    z 0.000000 0.000000 1.794200 
# 
# From -- ./inp_files/7218.got.cif
#   From: 2010.03.12/outbox.cif.g09.slc.cpg/sg57_4_cif.got.tgz:7218.got - 2010.04.16 15:48:40.
