data_PCOD8231673
_publ_section_title
;
Structure prediction by ZEFSAII (Michael W. Deem and Ramdas Pophale) SiO2 
 PCOD8231673
Probable space group: P B C M
;
_chemical_formula_sum "Si O2"
_cell_formula_units_Z 64
_cell_length_a 21.656706
_cell_length_b 17.900882
_cell_length_c 8.775589
_cell_angle_alpha 90.000000
_cell_angle_beta 90.000000
_cell_angle_gamma 90.000000
_cell_volume 3402.068906
_symmetry_space_group_name_H-M "P B C M"
_symmetry_group_IT_number 57
_symmetry_cell_setting 'orthorhombic'
loop_
_space_group_symop_operation_xyz
x,y,z
-x,-y,1/2+z
x,1/2-y,-z
-x,1/2+y,1/2-z
-x,-y,-z
x,y,1/2-z
-x,1/2+y,z
x,1/2-y,1/2+z
loop_
_atom_site_type_symbol
_atom_site_label
_atom_site_fract_x
_atom_site_fract_y
_atom_site_fract_z
Si Si1 0.309957 0.538947 0.073661
Si Si2 0.991567 0.670863 0.430924
Si Si3 0.124366 0.408431 0.431572
Si Si4 0.109108 0.923228 0.569925
Si Si5 0.562923 0.525062 0.573421
Si Si6 0.776166 0.170376 0.073342
Si Si7 0.253727 0.102289 0.430024
Si Si8 0.370615 0.326459 0.069126
O O1 0.299452 0.515020 0.250000
O O2 0.382524 0.533731 0.032432
O O3 0.285965 0.622457 0.043448
O O4 0.270509 0.482790 0.971142
O O5 0.011284 0.750000 0.500000
O O6 0.985063 0.676889 0.250000
O O7 0.927994 0.645374 0.504634
O O8 0.044215 0.612051 0.479705
O O9 0.124878 0.405025 0.250000
O O10 0.112867 0.492554 0.493723
O O11 0.188179 0.377087 0.497195
O O12 0.116635 0.925975 0.750000
O O13 0.165052 0.873264 0.502054
O O14 0.500000 0.500000 0.500000
O O15 0.549995 0.526943 0.750000
O O16 0.583419 0.607239 0.517041
O O17 0.787922 0.183619 0.250000
O O18 0.766154 0.250000 0.000000
O O19 0.251279 0.112638 0.250000
O O20 0.303133 0.159277 0.500145
O O21 0.365495 0.321811 0.250000
O O22 0.397596 0.250000 0.000000
#
# Coordination Sequence:
#
# PCOD8231673 Si02
#       8
#     8   8   8   8   8   8   8   8
#     4   9  18  36  57  77 111 151 187 225 276 333
#     4  11  23  39  55  79 109 142 185 232 281 336
#     4  11  21  38  60  81 108 147 185 228 283 338
#     4   9  19  36  59  80 106 143 184 227 278 335
#     4   9  19  35  58  85 113 152 192 231 274 325
#     4  10  19  34  55  81 111 145 182 227 278 333
#     4  11  21  34  56  86 113 142 182 230 280 335
#     4  10  21  38  59  86 118 153 191 234 284 335
#
# _framework density 18.812082
#
# number of rings (size 3 to 8) (size 9 to 14) (size 15 to 20)
#    0.000    2.000    1.250    3.750    0.000    3.500 
#    0.000    5.625    0.000    3.000    0.000    0.000 
#    0.000    0.000    0.000    0.000    0.000    0.000 
#
# Total GULP energy -793686.353930 kJ/mol
# GULP energy per Si atom -12401.349280 kJ/mol
# Density = 1.876927 g / cm^3
# Si number density = 18.812082 Si / 1000 Ang^3
#
#
#
# Elastic Constant Matrix: (Units=GPa)
#
#
# Indices 1 2 3 4 5 6 
#
# 1 136.3857 38.1891 39.1030 0.0000 0.0000 0.0000
# 2 38.1891 86.9717 30.7313 0.0000 0.0000 0.0000
# 3 39.1030 30.7313 73.3082 0.0000 0.0000 0.0000
# 4 0.0000 0.0000 0.0000 31.5978 0.0000 0.0000
# 5 0.0000 0.0000 0.0000 0.0000 28.6994 0.0000
# 6 0.0000 0.0000 0.0000 0.0000 0.0000 23.0977
#
#
#
# Elastic Compliance Matrix: (Units=1/GPa)
#
#
# Indices 1 2 3 4 5 6 
#
# 1 0.009165 -0.002696 -0.003758 0.000000 0.000000 0.000000
# 2 -0.002696 0.014291 -0.004553 0.000000 0.000000 0.000000
# 3 -0.003758 -0.004553 0.017554 0.000000 0.000000 0.000000
# 4 0.000000 0.000000 0.000000 0.031648 0.000000 0.000000
# 5 0.000000 0.000000 0.000000 0.000000 0.034844 0.000000
# 6 0.000000 0.000000 0.000000 0.000000 0.000000 0.043294
#
#
# Mechanical properties :
#
#
# Convention : Reuss Voigt Hill
#
# Bulk Modulus (GPa) = 52.64423 56.96805 54.80614
# Shear Modulus (GPa) = 27.91098 29.25512 28.58305
#
# Velocity S-wave (km/s) = 3.85603 3.94778 3.90217
# Velocity P-wave (km/s) = 6.91883 7.15041 7.03558
#
# Compressibility (1/GPa) = 0.01899543
#
# Stress axis : x y z
#
# Youngs Moduli (GPa) = 109.11529 69.97647 56.96661
#
# Poissons Ratio (x) = 0.18867 0.21409
# Poissons Ratio (y) = 0.29420 0.25934
# Poissons Ratio (z) = 0.41008 0.31857
#
# Static dielectric constant tensor:
#      x y z
#    x 3.638330 0.000000 0.000000 
#    y 0.000000 3.539900 0.000000 
#    z 0.000000 0.000000 3.327940 
# 
# 
# High freq. dielectric constant tensor:
#      x y z
#    x 1.730990 0.000000 0.000000 
#    y 0.000000 1.731020 0.000000 
#    z 0.000000 0.000000 1.721640 
# 
# From -- ./inp_files/8435.got.cif
#   From: 2010.03.12/outbox.cif.g09.slc.cpg/sg57_5_cif.got.tgz:8435.got - 2010.04.16 15:48:40.
