data_PCOD8231699
_publ_section_title
;
Structure prediction by ZEFSAII (Michael W. Deem and Ramdas Pophale) SiO2 
 PCOD8231699
Probable space group: P B C M
;
_chemical_formula_sum "Si O2"
_cell_formula_units_Z 32
_cell_length_a 10.396801
_cell_length_b 8.970191
_cell_length_c 16.808082
_cell_angle_alpha 90.000000
_cell_angle_beta 90.000000
_cell_angle_gamma 90.000000
_cell_volume 1567.543423
_symmetry_space_group_name_H-M "P B C M"
_symmetry_group_IT_number 57
_symmetry_cell_setting 'orthorhombic'
loop_
_space_group_symop_operation_xyz
x,y,z
-x,-y,1/2+z
x,1/2-y,-z
-x,1/2+y,1/2-z
-x,-y,-z
x,y,1/2-z
-x,1/2+y,z
x,1/2-y,1/2+z
loop_
_atom_site_type_symbol
_atom_site_label
_atom_site_fract_x
_atom_site_fract_y
_atom_site_fract_z
Si Si1 0.100258 0.330838 0.916312
Si Si2 0.143381 0.680174 0.585229
Si Si3 0.399915 0.893731 0.340507
Si Si4 0.617154 0.703617 0.408897
O O1 0.100812 0.508378 0.924583
O O2 0.235047 0.272605 0.879558
O O3 0.972410 0.272289 0.870133
O O4 0.080234 0.250000 0.000000
O O5 0.179677 0.750000 0.500000
O O6 0.269822 0.696796 0.639649
O O7 0.392916 0.950809 0.250000
O O8 0.524677 0.791811 0.350233
O O9 0.415406 0.029598 0.401637
O O10 0.597512 0.750000 0.500000
#
# Coordination Sequence:
#
# PCOD8231699 Si02
#       4
#     8   8   8   8
#     4   9  18  32  55  84 108 136 183 234 271 319
#     4  10  19  34  56  81 110 143 183 227 272 331
#     4  11  23  38  55  83 118 150 185 235 288 340
#     4  10  21  38  60  84 110 149 195 236 279 336
#
# _framework density 20.414109
#
# number of rings (size 3 to 8) (size 9 to 14) (size 15 to 20)
#    0.000    2.000    0.000    5.250    0.000    6.000 
#    0.000    6.250    0.000    0.000    0.000    0.000 
#    0.000    0.000    0.000    0.000    0.000    0.000 
#
# Total GULP energy -396598.223169 kJ/mol
# GULP energy per Si atom -12393.694474 kJ/mol
# Density = 2.036765 g / cm^3
# Si number density = 20.414109 Si / 1000 Ang^3
#
#
#
# Elastic Constant Matrix: (Units=GPa)
#
#
# Indices 1 2 3 4 5 6 
#
# 1 152.4786 71.2006 49.8896 0.0000 0.0000 0.0000
# 2 71.2006 106.1082 33.6967 0.0000 0.0000 0.0000
# 3 49.8896 33.6967 69.2956 0.0000 0.0000 0.0000
# 4 0.0000 0.0000 0.0000 21.4866 0.0000 0.0000
# 5 0.0000 0.0000 0.0000 0.0000 12.3081 0.0000
# 6 0.0000 0.0000 0.0000 0.0000 0.0000 38.1105
#
#
#
# Elastic Compliance Matrix: (Units=1/GPa)
#
#
# Indices 1 2 3 4 5 6 
#
# 1 0.010869 -0.005687 -0.005060 0.000000 0.000000 0.000000
# 2 -0.005687 0.014121 -0.002772 0.000000 0.000000 0.000000
# 3 -0.005060 -0.002772 0.019422 0.000000 0.000000 0.000000
# 4 0.000000 0.000000 0.000000 0.046541 0.000000 0.000000
# 5 0.000000 0.000000 0.000000 0.000000 0.081247 0.000000
# 6 0.000000 0.000000 0.000000 0.000000 0.000000 0.026240
#
#
# Mechanical properties :
#
#
# Convention : Reuss Voigt Hill
#
# Bulk Modulus (GPa) = 57.55809 70.82850 64.19330
# Shear Modulus (GPa) = 21.61984 25.92073 23.77029
#
# Velocity S-wave (km/s) = 3.25786 3.56721 3.41604
# Velocity P-wave (km/s) = 6.51214 7.19290 6.86097
#
# Compressibility (1/GPa) = 0.01737375
#
# Stress axis : x y z
#
# Youngs Moduli (GPa) = 92.00225 70.81871 51.48756
#
# Poissons Ratio (x) = 0.40271 0.26054
# Poissons Ratio (y) = 0.52318 0.14275
# Poissons Ratio (z) = 0.46555 0.19634
#
# Static dielectric constant tensor:
#      x y z
#    x 4.459350 0.000000 0.000000 
#    y 0.000000 3.692140 0.000000 
#    z 0.000000 0.000000 3.219230 
# 
# 
# High freq. dielectric constant tensor:
#      x y z
#    x 1.829440 0.000000 0.000000 
#    y 0.000000 1.800190 0.000000 
#    z 0.000000 0.000000 1.751210 
# 
# From -- ./inp_files/17181.got.cif
#   From: 2010.03.12/outbox.cif.g09.slc.cpg/sg57_9_cif.got.tgz:17181.got - 2010.04.16 15:48:40.
