data_PCOD8231307
_publ_section_title
;
Structure prediction by ZEFSAII (Michael W. Deem and Ramdas Pophale) SiO2 
 PCOD8231307
Probable space group: P B C M
;
_chemical_formula_sum "Si O2"
_cell_formula_units_Z 60
_cell_length_a 13.206715
_cell_length_b 17.562280
_cell_length_c 14.215978
_cell_angle_alpha 90.000000
_cell_angle_beta 90.000000
_cell_angle_gamma 90.000000
_cell_volume 3297.254317
_symmetry_space_group_name_H-M "P B C M"
_symmetry_group_IT_number 57
_symmetry_cell_setting 'orthorhombic'
loop_
_space_group_symop_operation_xyz
x,y,z
-x,-y,1/2+z
x,1/2-y,-z
-x,1/2+y,1/2-z
-x,-y,-z
x,y,1/2-z
-x,1/2+y,z
x,1/2-y,1/2+z
loop_
_atom_site_type_symbol
_atom_site_label
_atom_site_fract_x
_atom_site_fract_y
_atom_site_fract_z
Si Si1 0.906152 0.010539 0.930335
Si Si2 0.397177 0.640570 0.358361
Si Si3 0.070383 0.250000 0.000000
Si Si4 0.070431 0.670883 0.854087
Si Si5 0.313892 0.946042 0.022082
Si Si6 0.387765 0.079163 0.144007
Si Si7 0.170228 0.141884 0.354618
Si Si8 0.701822 0.201670 0.858037
O O1 0.921670 0.079702 0.858271
O O2 0.802391 0.027382 0.986518
O O3 0.893188 0.935341 0.868329
O O4 0.000000 0.000000 0.000000
O O5 0.366805 0.628478 0.250000
O O6 0.347080 0.571142 0.415650
O O7 0.517775 0.635149 0.374440
O O8 0.355086 0.722200 0.393842
O O9 0.141115 0.202433 0.067735
O O10 0.003042 0.304753 0.063179
O O11 0.029247 0.692287 0.750000
O O12 0.177626 0.712709 0.870038
O O13 0.333931 0.869965 0.081857
O O14 0.384064 0.010796 0.068839
O O15 0.392581 0.044608 0.250000
O O16 0.289200 0.130667 0.133116
O O17 0.144910 0.172253 0.250000
O O18 0.673803 0.184891 0.750000
#
# Coordination Sequence:
#
# PCOD8231307 Si02
#       8
#     8   8   4   8   8   8   8   8
#     4  10  19  36  58  80 109 145 187 228 262 321
#     4  10  20  34  53  81 114 143 172 223 282 326
#     4  12  22  34  56  80 116 138 184 226 276 324
#     4  10  21  35  55  81 112 147 181 223 272 324
#     4  10  19  32  57  79 107 140 186 224 266 316
#     4   9  19  37  59  77 102 142 189 228 265 319
#     4  10  21  38  58  79 106 147 189 227 270 322
#     4   9  19  33  52  80 109 139 178 220 269 324
#
# _framework density 18.196957999999999
#
# number of rings (size 3 to 8) (size 9 to 14) (size 15 to 20)
#    0.000    2.133    1.333    2.000    3.733    3.200 
#    2.400    1.333    0.000    0.000    0.000    0.000 
#    0.000    0.000    0.000    0.000    0.000    0.000 
#
# Total GULP energy -743928.131081 kJ/mol
# GULP energy per Si atom -12398.802185 kJ/mol
# Density = 1.815554 g / cm^3
# Si number density = 18.196958 Si / 1000 Ang^3
#
#
#
# Elastic Constant Matrix: (Units=GPa)
#
#
# Indices 1 2 3 4 5 6 
#
# 1 93.7096 50.0016 52.1935 0.0000 0.0000 0.0000
# 2 50.0016 104.8012 56.7391 0.0000 0.0000 0.0000
# 3 52.1935 56.7391 106.5640 0.0000 0.0000 0.0000
# 4 0.0000 0.0000 0.0000 30.6866 0.0000 0.0000
# 5 0.0000 0.0000 0.0000 0.0000 26.5030 0.0000
# 6 0.0000 0.0000 0.0000 0.0000 0.0000 16.2290
#
#
#
# Elastic Compliance Matrix: (Units=1/GPa)
#
#
# Indices 1 2 3 4 5 6 
#
# 1 0.016252 -0.004839 -0.005383 0.000000 0.000000 0.000000
# 2 -0.004839 0.014848 -0.005535 0.000000 0.000000 0.000000
# 3 -0.005383 -0.005535 0.014968 0.000000 0.000000 0.000000
# 4 0.000000 0.000000 0.000000 0.032588 0.000000 0.000000
# 5 0.000000 0.000000 0.000000 0.000000 0.037732 0.000000
# 6 0.000000 0.000000 0.000000 0.000000 0.000000 0.061618
#
#
# Mechanical properties :
#
#
# Convention : Reuss Voigt Hill
#
# Bulk Modulus (GPa) = 68.72114 69.21591 68.96852
# Shear Modulus (GPa) = 23.32415 24.42644 23.87529
#
# Velocity S-wave (km/s) = 3.58405 3.66777 3.62615
# Velocity P-wave (km/s) = 7.41447 7.48708 7.45086
#
# Compressibility (1/GPa) = 0.01455156
#
# Stress axis : x y z
#
# Youngs Moduli (GPa) = 61.53183 67.35125 66.81022
#
# Poissons Ratio (x) = 0.32594 0.35965
# Poissons Ratio (y) = 0.29778 0.36981
# Poissons Ratio (z) = 0.33124 0.37280
#
# Static dielectric constant tensor:
#      x y z
#    x 3.362520 0.000000 0.000000 
#    y 0.000000 3.292070 0.000000 
#    z 0.000000 0.000000 3.461840 
# 
# 
# High freq. dielectric constant tensor:
#      x y z
#    x 1.699920 0.000000 0.000000 
#    y 0.000000 1.698390 0.000000 
#    z 0.000000 0.000000 1.712690 
# 
# From -- ./inp_files/17906.got.cif
#   From: 2010.03.12/outbox.cif.g09.slc.cpg/sg57_9_cif.got.tgz:17906.got - 2010.04.16 15:48:40.
