data_PCOD8231541
_publ_section_title
;
Structure prediction by ZEFSAII (Michael W. Deem and Ramdas Pophale) SiO2 
 PCOD8231541
Probable space group: P B C M
;
_chemical_formula_sum "Si O2"
_cell_formula_units_Z 64
_cell_length_a 21.432171
_cell_length_b 18.878420
_cell_length_c 8.712856
_cell_angle_alpha 90.000000
_cell_angle_beta 90.000000
_cell_angle_gamma 90.000000
_cell_volume 3525.269682
_symmetry_space_group_name_H-M "P B C M"
_symmetry_group_IT_number 57
_symmetry_cell_setting 'orthorhombic'
loop_
_space_group_symop_operation_xyz
x,y,z
-x,-y,1/2+z
x,1/2-y,-z
-x,1/2+y,1/2-z
-x,-y,-z
x,y,1/2-z
-x,1/2+y,z
x,1/2-y,1/2+z
loop_
_atom_site_type_symbol
_atom_site_label
_atom_site_fract_x
_atom_site_fract_y
_atom_site_fract_z
Si Si1 0.986968 0.576089 0.429095
Si Si2 0.615569 0.679268 0.432561
Si Si3 0.728426 0.616970 0.571730
Si Si4 0.192254 0.922017 0.925705
Si Si5 0.139511 0.078799 0.577334
Si Si6 0.691527 0.473981 0.427482
Si Si7 0.908487 0.327038 0.430274
Si Si8 0.437126 0.028889 0.069890
O O1 0.000057 0.572186 0.250000
O O2 0.915553 0.598657 0.460754
O O3 0.000000 0.500000 0.500000
O O4 0.032058 0.633820 0.500472
O O5 0.581915 0.750000 0.500000
O O6 0.621547 0.683015 0.250000
O O7 0.684331 0.680227 0.513274
O O8 0.577915 0.609078 0.487296
O O9 0.714843 0.596794 0.750000
O O10 0.802521 0.633236 0.553512
O O11 0.713440 0.553511 0.456404
O O12 0.186566 0.898088 0.750000
O O13 0.163733 0.999434 0.952951
O O14 0.265582 0.920644 0.973320
O O15 0.155336 0.867421 0.031179
O O16 0.113073 0.084609 0.750000
O O17 0.700516 0.454701 0.250000
O O18 0.618215 0.473427 0.474872
O O19 0.904532 0.250000 0.500000
O O20 0.916951 0.322219 0.250000
O O21 0.444998 0.031731 0.250000
O O22 0.500000 0.000000 0.000000
#
# Coordination Sequence:
#
# PCOD8231541 Si02
#       8
#     8   8   8   8   8   8   8   8
#     4  12  23  36  56  81 109 143 187 232 279 334
#     4  10  20  34  52  77 108 143 184 225 271 327
#     4   9  17  30  49  74 104 136 171 215 263 313
#     4  10  19  33  55  81 107 136 176 221 269 324
#     4   9  18  32  52  78 107 135 175 223 268 318
#     4   9  17  30  49  77 109 137 172 217 265 312
#     4  12  25  41  59  79 108 143 180 230 288 343
#     4   9  19  33  52  80 113 147 185 229 271 321
#
# _framework density 18.154641000000002
#
# number of rings (size 3 to 8) (size 9 to 14) (size 15 to 20)
#    0.000    2.000    1.250    5.250    0.000    5.500 
#    0.000    0.625    0.000    3.750    0.000    1.750 
#    0.000    0.000    0.000    0.000    0.000    0.000 
#
# Total GULP energy -793286.268218 kJ/mol
# GULP energy per Si atom -12395.097941 kJ/mol
# Density = 1.811332 g / cm^3
# Si number density = 18.154641 Si / 1000 Ang^3
#
#
#
# Elastic Constant Matrix: (Units=GPa)
#
#
# Indices 1 2 3 4 5 6 
#
# 1 134.1119 45.5282 49.3902 0.0000 0.0000 0.0000
# 2 45.5282 71.8483 30.3397 0.0000 0.0000 0.0000
# 3 49.3902 30.3397 98.6527 0.0000 0.0000 0.0000
# 4 0.0000 0.0000 0.0000 27.4952 0.0000 0.0000
# 5 0.0000 0.0000 0.0000 0.0000 33.5466 0.0000
# 6 0.0000 0.0000 0.0000 0.0000 0.0000 19.2043
#
#
#
# Elastic Compliance Matrix: (Units=1/GPa)
#
#
# Indices 1 2 3 4 5 6 
#
# 1 0.010564 -0.005126 -0.003712 0.000000 0.000000 0.000000
# 2 -0.005126 0.018483 -0.003118 0.000000 0.000000 0.000000
# 3 -0.003712 -0.003118 0.012954 0.000000 0.000000 0.000000
# 4 0.000000 0.000000 0.000000 0.036370 0.000000 0.000000
# 5 0.000000 0.000000 0.000000 0.000000 0.029809 0.000000
# 6 0.000000 0.000000 0.000000 0.000000 0.000000 0.052072
#
#
# Mechanical properties :
#
#
# Convention : Reuss Voigt Hill
#
# Bulk Modulus (GPa) = 55.28476 61.68099 58.48287
# Shear Modulus (GPa) = 26.28891 28.00622 27.14756
#
# Velocity S-wave (km/s) = 3.80946 3.93192 3.87117
# Velocity P-wave (km/s) = 7.06170 7.39340 7.22945
#
# Compressibility (1/GPa) = 0.01808817
#
# Stress axis : x y z
#
# Youngs Moduli (GPa) = 94.66199 54.10294 77.19672
#
# Poissons Ratio (x) = 0.27736 0.28657
# Poissons Ratio (y) = 0.48528 0.24068
# Poissons Ratio (z) = 0.35140 0.16868
#
# Static dielectric constant tensor:
#      x y z
#    x 6.103180 0.000000 0.000000 
#    y 0.000000 2.766950 0.000000 
#    z 0.000000 0.000000 3.441290 
# 
# 
# High freq. dielectric constant tensor:
#      x y z
#    x 1.703560 0.000000 0.000000 
#    y 0.000000 1.667970 0.000000 
#    z 0.000000 0.000000 1.715180 
# 
# From -- ./inp_files/8470.got.cif
#   From: 2010.03.12/outbox.cif.g09.slc.cpg/sg57_5_cif.got.tgz:8470.got - 2010.04.16 15:48:40.
