data_PCOD8231414
_publ_section_title
;
Structure prediction by ZEFSAII (Michael W. Deem and Ramdas Pophale) SiO2 
 PCOD8231414
Probable space group: P B C M
;
_chemical_formula_sum "Si O2"
_cell_formula_units_Z 56
_cell_length_a 9.957616
_cell_length_b 20.503037
_cell_length_c 14.217346
_cell_angle_alpha 90.000000
_cell_angle_beta 90.000000
_cell_angle_gamma 90.000000
_cell_volume 2902.632827
_symmetry_space_group_name_H-M "P B C M"
_symmetry_group_IT_number 57
_symmetry_cell_setting 'orthorhombic'
loop_
_space_group_symop_operation_xyz
x,y,z
-x,-y,1/2+z
x,1/2-y,-z
-x,1/2+y,1/2-z
-x,-y,-z
x,y,1/2-z
-x,1/2+y,z
x,1/2-y,1/2+z
loop_
_atom_site_type_symbol
_atom_site_label
_atom_site_fract_x
_atom_site_fract_y
_atom_site_fract_z
Si Si1 0.727843 0.409691 0.506555
Si Si2 0.412909 0.291221 0.142643
Si Si3 0.853553 0.656632 0.856034
Si Si4 0.127594 0.792945 0.086115
Si Si5 0.226059 0.018173 0.858521
Si Si6 0.477211 0.933372 0.145020
Si Si7 0.635862 0.199659 0.357691
O O1 0.823714 0.364385 0.444281
O O2 0.814495 0.459978 0.570221
O O3 0.630875 0.450593 0.436124
O O4 0.649064 0.363996 0.579589
O O5 0.397187 0.269481 0.250000
O O6 0.264587 0.299622 0.095136
O O7 0.496599 0.357111 0.134178
O O8 0.503999 0.234315 0.097248
O O9 0.800553 0.646090 0.750000
O O10 0.853625 0.582608 0.896087
O O11 0.995116 0.693289 0.852917
O O12 0.240138 0.751163 0.139772
O O13 0.075938 0.750000 0.000000
O O14 0.187926 0.000866 0.750000
O O15 0.386457 0.026398 0.869100
O O16 0.418953 0.947970 0.250000
O O17 0.619079 0.177554 0.250000
#
# Coordination Sequence:
#
# PCOD8231414 Si02
#       7
#     8   8   8   8   8   8   8
#     4  11  20  31  52  79 110 134 173 212 271 313
#     4   8  15  30  51  74  97 128 172 209 249 302
#     4   9  18  35  55  72  98 140 179 214 258 310
#     4  10  21  33  47  78 107 135 177 217 259 313
#     4   9  19  35  53  76 103 136 177 216 261 314
#     4   9  17  31  51  74 104 134 166 211 250 302
#     4  10  19  33  53  78 108 137 170 218 264 312
#
# _framework density 19.292829000000001
#
# number of rings (size 3 to 8) (size 9 to 14) (size 15 to 20)
#    0.000    2.571    1.429    3.000    0.000    1.143 
#    5.143    0.000    0.000    0.000    0.000    1.000 
#    0.000    0.000    0.000    0.000    0.000    0.000 
#
# Total GULP energy -693777.294095 kJ/mol
# GULP energy per Si atom -12388.880252 kJ/mol
# Density = 1.924892 g / cm^3
# Si number density = 19.292829 Si / 1000 Ang^3
#
#
#
# Elastic Constant Matrix: (Units=GPa)
#
#
# Indices 1 2 3 4 5 6 
#
# 1 57.9893 9.1560 9.0641 0.0000 0.0000 0.0000
# 2 9.1560 49.9443 6.6451 0.0000 0.0000 0.0000
# 3 9.0641 6.6451 61.7398 0.0000 0.0000 0.0000
# 4 0.0000 0.0000 0.0000 25.7644 0.0000 0.0000
# 5 0.0000 0.0000 0.0000 0.0000 18.1856 0.0000
# 6 0.0000 0.0000 0.0000 0.0000 0.0000 20.0555
#
#
#
# Elastic Compliance Matrix: (Units=1/GPa)
#
#
# Indices 1 2 3 4 5 6 
#
# 1 0.018083 -0.003005 -0.002331 0.000000 0.000000 0.000000
# 2 -0.003005 0.020813 -0.001799 0.000000 0.000000 0.000000
# 3 -0.002331 -0.001799 0.016733 0.000000 0.000000 0.000000
# 4 0.000000 0.000000 0.000000 0.038813 0.000000 0.000000
# 5 0.000000 0.000000 0.000000 0.000000 0.054989 0.000000
# 6 0.000000 0.000000 0.000000 0.000000 0.000000 0.049862
#
#
# Mechanical properties :
#
#
# Convention : Reuss Voigt Hill
#
# Bulk Modulus (GPa) = 24.17893 24.37820 24.27856
# Shear Modulus (GPa) = 21.99262 22.45497 22.22380
#
# Velocity S-wave (km/s) = 3.37996 3.41530 3.39768
# Velocity P-wave (km/s) = 5.27181 5.31185 5.29187
#
# Compressibility (1/GPa) = 0.04135832
#
# Stress axis : x y z
#
# Youngs Moduli (GPa) = 55.29919 48.04797 59.76244
#
# Poissons Ratio (x) = 0.14438 0.13933
# Poissons Ratio (y) = 0.16617 0.10751
# Poissons Ratio (z) = 0.12893 0.08643
#
# Static dielectric constant tensor:
#      x y z
#    x 3.305920 0.000000 0.000000 
#    y 0.000000 3.401230 0.000000 
#    z 0.000000 0.000000 3.447570 
# 
# 
# High freq. dielectric constant tensor:
#      x y z
#    x 1.729260 0.000000 0.000000 
#    y 0.000000 1.737510 0.000000 
#    z 0.000000 0.000000 1.744260 
# 
# From -- ./inp_files/16735.got.cif
#   From: 2010.03.12/outbox.cif.g09.slc.cpg/sg57_9_cif.got.tgz:16735.got - 2010.04.16 15:48:40.
