data_PCOD8231617
_publ_section_title
;
Structure prediction by ZEFSAII (Michael W. Deem and Ramdas Pophale) SiO2 
 PCOD8231617
Probable space group: P B C M
;
_chemical_formula_sum "Si O2"
_cell_formula_units_Z 64
_cell_length_a 15.286404
_cell_length_b 28.282978
_cell_length_c 8.877902
_cell_angle_alpha 90.000000
_cell_angle_beta 90.000000
_cell_angle_gamma 90.000000
_cell_volume 3838.316789
_symmetry_space_group_name_H-M "P B C M"
_symmetry_group_IT_number 57
_symmetry_cell_setting 'orthorhombic'
loop_
_space_group_symop_operation_xyz
x,y,z
-x,-y,1/2+z
x,1/2-y,-z
-x,1/2+y,1/2-z
-x,-y,-z
x,y,1/2-z
-x,1/2+y,z
x,1/2-y,1/2+z
loop_
_atom_site_type_symbol
_atom_site_label
_atom_site_fract_x
_atom_site_fract_y
_atom_site_fract_z
Si Si1 0.000444 0.949602 0.924643
Si Si2 0.490198 0.550591 0.572080
Si Si3 0.419666 0.796921 0.574398
Si Si4 0.193406 0.046555 0.421677
Si Si5 0.619126 0.798447 0.571890
Si Si6 0.335538 0.894086 0.927683
Si Si7 0.829436 0.064053 0.573647
Si Si8 0.661250 0.892906 0.073222
O O1 0.025934 0.954211 0.750000
O O2 0.902208 0.928908 0.942327
O O3 0.075005 0.919787 0.011564
O O4 0.000000 0.000000 0.000000
O O5 0.500000 0.500000 0.500000
O O6 0.486985 0.545202 0.750000
O O7 0.399511 0.570991 0.514175
O O8 0.570353 0.583604 0.520065
O O9 0.379705 0.750000 0.500000
O O10 0.419836 0.788363 0.750000
O O11 0.518846 0.805805 0.518606
O O12 0.359377 0.840624 0.527252
O O13 0.225654 0.052762 0.250000
O O14 0.260077 0.072011 0.532707
O O15 0.189103 0.990997 0.462080
O O16 0.656246 0.750000 0.500000
O O17 0.629478 0.795711 0.750000
O O18 0.674101 0.842949 0.510626
O O19 0.344419 0.902691 0.750000
O O20 0.238228 0.903550 0.983926
O O21 0.824284 0.074777 0.750000
O O22 0.661947 0.883678 0.250000
#
# Coordination Sequence:
#
# PCOD8231617 Si02
#       8
#     8   8   8   8   8   8   8   8
#     4   9  17  31  50  72  98 130 166 209 253 295
#     4  11  23  35  47  66  97 136 173 206 240 287
#     4   9  19  33  51  72  94 125 162 205 252 294
#     4   9  19  33  49  70  99 132 167 204 247 293
#     4  10  19  34  53  72  96 126 162 207 252 295
#     4  11  21  34  50  72  99 131 168 205 249 297
#     4  10  20  33  50  74 101 134 170 207 250 297
#     4  11  22  33  48  72  98 130 169 205 246 294
#
# _framework density 16.673976
#
# number of rings (size 3 to 8) (size 9 to 14) (size 15 to 20)
#    0.000    2.000    1.250    3.750    0.000    8.000 
#    0.000    0.000    0.000    0.000    0.000    0.875 
#    0.000    4.000    0.000    0.000    0.000    0.000 
#
# Total GULP energy -793620.925169 kJ/mol
# GULP energy per Si atom -12400.326956 kJ/mol
# Density = 1.663603 g / cm^3
# Si number density = 16.673976 Si / 1000 Ang^3
#
#
#
# Elastic Constant Matrix: (Units=GPa)
#
#
# Indices 1 2 3 4 5 6 
#
# 1 57.8754 9.2451 17.9781 0.0000 0.0000 0.0000
# 2 9.2451 72.2272 31.6883 0.0000 0.0000 0.0000
# 3 17.9781 31.6883 64.5169 0.0000 0.0000 0.0000
# 4 0.0000 0.0000 0.0000 29.4316 0.0000 0.0000
# 5 0.0000 0.0000 0.0000 0.0000 30.2787 0.0000
# 6 0.0000 0.0000 0.0000 0.0000 0.0000 8.5348
#
#
#
# Elastic Compliance Matrix: (Units=1/GPa)
#
#
# Indices 1 2 3 4 5 6 
#
# 1 0.018917 -0.000139 -0.005203 0.000000 0.000000 0.000000
# 2 -0.000139 0.017649 -0.008630 0.000000 0.000000 0.000000
# 3 -0.005203 -0.008630 0.021189 0.000000 0.000000 0.000000
# 4 0.000000 0.000000 0.000000 0.033977 0.000000 0.000000
# 5 0.000000 0.000000 0.000000 0.000000 0.033027 0.000000
# 6 0.000000 0.000000 0.000000 0.000000 0.000000 0.117167
#
#
# Mechanical properties :
#
#
# Convention : Reuss Voigt Hill
#
# Bulk Modulus (GPa) = 33.54476 34.71586 34.13031
# Shear Modulus (GPa) = 17.86952 22.69621 20.28287
#
# Velocity S-wave (km/s) = 3.27724 3.69341 3.49153
# Velocity P-wave (km/s) = 5.87214 6.24932 6.06367
#
# Compressibility (1/GPa) = 0.02981092
#
# Stress axis : x y z
#
# Youngs Moduli (GPa) = 52.86259 56.65981 47.19539
#
# Poissons Ratio (x) = 0.00785 0.24557
# Poissons Ratio (y) = 0.00732 0.40730
# Poissons Ratio (z) = 0.27506 0.48898
#
# Static dielectric constant tensor:
#      x y z
#    x 3.293430 0.000000 0.000000 
#    y 0.000000 2.952100 0.000000 
#    z 0.000000 0.000000 3.239820 
# 
# 
# High freq. dielectric constant tensor:
#      x y z
#    x 1.630920 0.000000 0.000000 
#    y 0.000000 1.619650 0.000000 
#    z 0.000000 0.000000 1.657580 
# 
# From -- ./inp_files/6011.got.cif
#   From: 2010.03.12/outbox.cif.g09.slc.cpg/sg57_4_cif.got.tgz:6011.got - 2010.04.16 15:48:40.
