data_PCOD8231520
_publ_section_title
;
Structure prediction by ZEFSAII (Michael W. Deem and Ramdas Pophale) SiO2 
 PCOD8231520
Probable space group: P B C M
;
_chemical_formula_sum "Si O2"
_cell_formula_units_Z 64
_cell_length_a 12.523281
_cell_length_b 28.932470
_cell_length_c 8.521340
_cell_angle_alpha 90.000000
_cell_angle_beta 90.000000
_cell_angle_gamma 90.000000
_cell_volume 3087.532451
_symmetry_space_group_name_H-M "P B C M"
_symmetry_group_IT_number 57
_symmetry_cell_setting 'orthorhombic'
loop_
_space_group_symop_operation_xyz
x,y,z
-x,-y,1/2+z
x,1/2-y,-z
-x,1/2+y,1/2-z
-x,-y,-z
x,y,1/2-z
-x,1/2+y,z
x,1/2-y,1/2+z
loop_
_atom_site_type_symbol
_atom_site_label
_atom_site_fract_x
_atom_site_fract_y
_atom_site_fract_z
Si Si1 0.333011 0.180416 0.569519
Si Si2 0.399128 0.423832 0.429772
Si Si3 0.030924 0.391890 0.067746
Si Si4 0.110908 0.298582 0.933287
Si Si5 0.197596 0.040164 0.431646
Si Si6 0.833937 0.056822 0.066740
Si Si7 0.446434 0.795846 0.935293
Si Si8 0.383606 0.603586 0.434732
O O1 0.305599 0.191671 0.750000
O O2 0.349814 0.126341 0.542764
O O3 0.237525 0.197751 0.460549
O O4 0.438624 0.206763 0.517325
O O5 0.398648 0.439194 0.250000
O O6 0.323485 0.459217 0.524791
O O7 0.520322 0.425815 0.490309
O O8 0.002576 0.396403 0.250000
O O9 0.049185 0.338648 0.025578
O O10 0.137449 0.420893 0.031988
O O11 0.933734 0.410316 0.963899
O O12 0.085676 0.302508 0.750000
O O13 0.067902 0.250000 0.000000
O O14 0.179813 0.051096 0.250000
O O15 0.149468 0.990172 0.470690
O O16 0.826517 0.045072 0.250000
O O17 0.727456 0.082479 0.006634
O O18 0.458667 0.794136 0.750000
O O19 0.385955 0.842616 0.988403
O O20 0.384578 0.750000 0.000000
O O21 0.396953 0.600052 0.250000
#
# Coordination Sequence:
#
# PCOD8231520 Si02
#       8
#     8   8   8   8   8   8   8   8
#     4  10  19  33  54  84 122 160 197 243 297 358
#     4  10  20  35  60  91 126 161 198 247 303 362
#     4  12  25  44  66  92 125 160 204 256 308 367
#     4  12  24  39  61  90 124 163 202 248 303 365
#     4  12  24  40  65  95 125 160 202 252 312 372
#     4  11  24  44  66  89 119 161 210 259 310 367
#     4  10  19  33  54  83 116 154 201 248 298 357
#     4   9  21  40  61  85 120 162 205 252 304 365
#
# _framework density 20.728527
#
# number of rings (size 3 to 8) (size 9 to 14) (size 15 to 20)
#    0.000    1.250    1.250    5.625    0.000    3.000 
#    0.000    0.625    0.000    1.500    0.000    0.000 
#    0.000    0.000    0.000    0.000    0.000    0.000 
#
# Total GULP energy -793929.611219 kJ/mol
# GULP energy per Si atom -12405.150175 kJ/mol
# Density = 2.068135 g / cm^3
# Si number density = 20.728527 Si / 1000 Ang^3
#
#
#
# Elastic Constant Matrix: (Units=GPa)
#
#
# Indices 1 2 3 4 5 6 
#
# 1 86.5588 29.7238 13.1278 0.0000 0.0000 0.0000
# 2 29.7238 96.9548 19.0617 0.0000 0.0000 0.0000
# 3 13.1278 19.0617 72.3034 0.0000 0.0000 0.0000
# 4 0.0000 0.0000 0.0000 33.7247 0.0000 0.0000
# 5 0.0000 0.0000 0.0000 0.0000 26.8828 0.0000
# 6 0.0000 0.0000 0.0000 0.0000 0.0000 10.2258
#
#
#
# Elastic Compliance Matrix: (Units=1/GPa)
#
#
# Indices 1 2 3 4 5 6 
#
# 1 0.013043 -0.003726 -0.001386 0.000000 0.000000 0.000000
# 2 -0.003726 0.011942 -0.002472 0.000000 0.000000 0.000000
# 3 -0.001386 -0.002472 0.014734 0.000000 0.000000 0.000000
# 4 0.000000 0.000000 0.000000 0.029652 0.000000 0.000000
# 5 0.000000 0.000000 0.000000 0.000000 0.037199 0.000000
# 6 0.000000 0.000000 0.000000 0.000000 0.000000 0.097792
#
#
# Mechanical properties :
#
#
# Convention : Reuss Voigt Hill
#
# Bulk Modulus (GPa) = 40.73090 42.18259 41.45675
# Shear Modulus (GPa) = 21.95750 27.09355 24.52552
#
# Velocity S-wave (km/s) = 3.25820 3.61926 3.44347
# Velocity P-wave (km/s) = 5.81780 6.15301 5.98776
#
# Compressibility (1/GPa) = 0.02455139
#
# Stress axis : x y z
#
# Youngs Moduli (GPa) = 76.67232 83.73537 67.87073
#
# Poissons Ratio (x) = 0.31200 0.09405
# Poissons Ratio (y) = 0.28568 0.16777
# Poissons Ratio (z) = 0.10625 0.20699
#
# Static dielectric constant tensor:
#      x y z
#    x 3.628520 0.000000 0.000000 
#    y 0.000000 4.011600 0.000000 
#    z 0.000000 0.000000 3.733090 
# 
# 
# High freq. dielectric constant tensor:
#      x y z
#    x 1.791480 0.000000 0.000000 
#    y 0.000000 1.822250 0.000000 
#    z 0.000000 0.000000 1.817920 
# 
# From -- ./inp_files/3867.got.cif
#   From: 2010.03.12/outbox.cif.g09.slc.cpg/sg57_2_cif.got.tgz:3867.got - 2010.04.16 15:48:40.
