data_PCOD8231211
_publ_section_title
;
Structure prediction by ZEFSAII (Michael W. Deem and Ramdas Pophale) SiO2 
 PCOD8231211
Probable space group: P B C M
;
_chemical_formula_sum "Si O2"
_cell_formula_units_Z 64
_cell_length_a 13.019052
_cell_length_b 27.410712
_cell_length_c 8.998594
_cell_angle_alpha 90.000000
_cell_angle_beta 90.000000
_cell_angle_gamma 90.000000
_cell_volume 3211.251617
_symmetry_space_group_name_H-M "P B C M"
_symmetry_group_IT_number 57
_symmetry_cell_setting 'orthorhombic'
loop_
_space_group_symop_operation_xyz
x,y,z
-x,-y,1/2+z
x,1/2-y,-z
-x,1/2+y,1/2-z
-x,-y,-z
x,y,1/2-z
-x,1/2+y,z
x,1/2-y,1/2+z
loop_
_atom_site_type_symbol
_atom_site_label
_atom_site_fract_x
_atom_site_fract_y
_atom_site_fract_z
Si Si1 0.339382 0.301536 0.074420
Si Si2 0.752632 0.598730 0.573896
Si Si3 0.964537 0.551000 0.572273
Si Si4 0.454199 0.851680 0.420916
Si Si5 0.587430 0.527253 0.912720
Si Si6 0.660452 0.073929 0.412920
Si Si7 0.129089 0.617579 0.427140
Si Si8 0.762378 0.301068 0.423959
O O1 0.341865 0.292721 0.250000
O O2 0.254873 0.343551 0.031532
O O3 0.450472 0.320453 0.014307
O O4 0.309811 0.250000 0.000000
O O5 0.749945 0.592952 0.750000
O O6 0.853093 0.570251 0.514998
O O7 0.648104 0.572642 0.511783
O O8 0.968825 0.545655 0.750000
O O9 0.000000 0.500000 0.500000
O O10 0.036850 0.593817 0.515905
O O11 0.477492 0.860424 0.250000
O O12 0.439061 0.906007 0.492780
O O13 0.348493 0.824527 0.453935
O O14 0.546167 0.542155 0.750000
O O15 0.671167 0.483979 0.901228
O O16 0.500000 0.500000 0.000000
O O17 0.647447 0.097845 0.250000
O O18 0.768798 0.089682 0.480970
O O19 0.110013 0.616418 0.250000
O O20 0.144851 0.671965 0.489955
O O21 0.755460 0.250000 0.500000
O O22 0.787633 0.297915 0.250000
#
# Coordination Sequence:
#
# PCOD8231211 Si02
#       8
#     8   8   8   8   8   8   8   8
#     4  10  20  36  56  78 105 143 185 227 270 316
#     4   9  20  38  58  78 108 147 184 221 272 334
#     4  11  22  39  62  85 108 139 178 223 275 336
#     4   9  18  31  51  78 110 146 185 223 264 316
#     4  10  19  33  52  76 106 141 175 211 259 319
#     4   9  18  31  50  76 108 141 174 214 264 317
#     4  10  20  36  56  79 106 139 178 223 271 321
#     4  10  19  32  51  80 114 148 184 226 273 323
#
# _framework density 19.929922999999999
#
# number of rings (size 3 to 8) (size 9 to 14) (size 15 to 20)
#    0.000    2.250    0.000    3.000    0.000    5.000 
#    0.000    5.000    0.000    1.500    0.000    0.000 
#    0.000    0.000    0.000    0.000    0.000    0.000 
#
# Total GULP energy -792953.304463 kJ/mol
# GULP energy per Si atom -12389.895382 kJ/mol
# Density = 1.988456 g / cm^3
# Si number density = 19.929923 Si / 1000 Ang^3
#
#
#
# Elastic Constant Matrix: (Units=GPa)
#
#
# Indices 1 2 3 4 5 6 
#
# 1 92.0913 33.8182 30.1059 0.0000 0.0000 0.0000
# 2 33.8182 128.7375 31.0431 0.0000 0.0000 0.0000
# 3 30.1059 31.0431 57.6668 0.0000 0.0000 0.0000
# 4 0.0000 0.0000 0.0000 34.3434 0.0000 0.0000
# 5 0.0000 0.0000 0.0000 0.0000 23.3142 0.0000
# 6 0.0000 0.0000 0.0000 0.0000 0.0000 31.3656
#
#
#
# Elastic Compliance Matrix: (Units=1/GPa)
#
#
# Indices 1 2 3 4 5 6 
#
# 1 0.013586 -0.002136 -0.005943 0.000000 0.000000 0.000000
# 2 -0.002136 0.009262 -0.003871 0.000000 0.000000 0.000000
# 3 -0.005943 -0.003871 0.022527 0.000000 0.000000 0.000000
# 4 0.000000 0.000000 0.000000 0.029118 0.000000 0.000000
# 5 0.000000 0.000000 0.000000 0.000000 0.042892 0.000000
# 6 0.000000 0.000000 0.000000 0.000000 0.000000 0.031882
#
#
# Mechanical properties :
#
#
# Convention : Reuss Voigt Hill
#
# Bulk Modulus (GPa) = 46.56364 52.04780 49.30572
# Shear Modulus (GPa) = 27.72754 30.03985 28.88369
#
# Velocity S-wave (km/s) = 3.73399 3.88657 3.81105
# Velocity P-wave (km/s) = 6.48110 6.80534 6.64520
#
# Compressibility (1/GPa) = 0.02147598
#
# Stress axis : x y z
#
# Youngs Moduli (GPa) = 73.60528 107.96523 44.39027
#
# Poissons Ratio (x) = 0.23060 0.26381
# Poissons Ratio (y) = 0.15721 0.17183
# Poissons Ratio (z) = 0.43744 0.41793
#
# Static dielectric constant tensor:
#      x y z
#    x 3.793610 0.000000 0.000000 
#    y 0.000000 4.088170 0.000000 
#    z 0.000000 0.000000 3.510290 
# 
# 
# High freq. dielectric constant tensor:
#      x y z
#    x 1.767840 0.000000 0.000000 
#    y 0.000000 1.793560 0.000000 
#    z 0.000000 0.000000 1.757780 
# 
# From -- ./inp_files/3838.got.cif
#   From: 2010.03.12/outbox.cif.g09.slc.cpg/sg57_2_cif.got.tgz:3838.got - 2010.04.16 15:48:40.
