data_PCOD8231704
_publ_section_title
;
Structure prediction by ZEFSAII (Michael W. Deem and Ramdas Pophale) SiO2 
 PCOD8231704
Probable space group: P B C M
;
_chemical_formula_sum "Si O2"
_cell_formula_units_Z 64
_cell_length_a 20.039505
_cell_length_b 19.925252
_cell_length_c 8.880950
_cell_angle_alpha 90.000000
_cell_angle_beta 90.000000
_cell_angle_gamma 90.000000
_cell_volume 3546.093949
_symmetry_space_group_name_H-M "P B C M"
_symmetry_group_IT_number 57
_symmetry_cell_setting 'orthorhombic'
loop_
_space_group_symop_operation_xyz
x,y,z
-x,-y,1/2+z
x,1/2-y,-z
-x,1/2+y,1/2-z
-x,-y,-z
x,y,1/2-z
-x,1/2+y,z
x,1/2-y,1/2+z
loop_
_atom_site_type_symbol
_atom_site_label
_atom_site_fract_x
_atom_site_fract_y
_atom_site_fract_z
Si Si1 0.303099 0.894959 0.074564
Si Si2 0.532889 0.935176 0.427819
Si Si3 0.948637 0.179618 0.429589
Si Si4 0.194684 0.066421 0.926746
Si Si5 0.169307 0.916271 0.926569
Si Si6 0.567812 0.180055 0.572593
Si Si7 0.910538 0.680071 0.928657
Si Si8 0.670019 0.548321 0.425840
O O1 0.290924 0.885780 0.250000
O O2 0.359929 0.844846 0.013504
O O3 0.327812 0.969641 0.037309
O O4 0.233598 0.878713 0.993895
O O5 0.534379 0.945423 0.250000
O O6 0.488861 0.871871 0.476359
O O7 0.606772 0.920879 0.489042
O O8 0.500000 0.000000 0.500000
O O9 0.924638 0.250000 0.500000
O O10 0.954238 0.186523 0.250000
O O11 0.897004 0.122028 0.480239
O O12 0.019461 0.158531 0.498585
O O13 0.209513 0.066376 0.750000
O O14 0.141735 0.122723 0.972273
O O15 0.166107 0.993933 0.979538
O O16 0.263074 0.083482 0.012781
O O17 0.176475 0.911526 0.750000
O O18 0.548734 0.250000 0.500000
O O19 0.570257 0.187817 0.750000
O O20 0.918818 0.688252 0.750000
O O21 0.885511 0.750000 0.000000
O O22 0.663045 0.563036 0.250000
#
# Coordination Sequence:
#
# PCOD8231704 Si02
#       8
#     8   8   8   8   8   8   8   8
#     4   9  18  34  52  74 106 138 172 216 260 312
#     4  11  21  36  58  82 109 141 181 226 268 320
#     4  10  20  34  52  74 104 139 179 220 261 317
#     4   9  19  36  55  79 108 138 174 220 269 316
#     4   9  19  34  52  77 106 138 177 217 260 314
#     4  10  22  38  53  77 111 142 179 223 266 317
#     4  10  20  35  56  78 104 137 178 222 268 324
#     4  10  19  34  56  83 109 135 176 221 265 318
#
# _framework density 18.048027000000001
#
# number of rings (size 3 to 8) (size 9 to 14) (size 15 to 20)
#    0.000    2.250    1.250    2.250    0.000    5.000 
#    0.000    3.125    0.000    0.000    0.000    0.000 
#    0.000    0.000    0.000    0.000    0.000    0.000 
#
# Total GULP energy -793707.699138 kJ/mol
# GULP energy per Si atom -12401.682799 kJ/mol
# Density = 1.800695 g / cm^3
# Si number density = 18.048027 Si / 1000 Ang^3
#
#
#
# Elastic Constant Matrix: (Units=GPa)
#
#
# Indices 1 2 3 4 5 6 
#
# 1 157.7661 94.1957 56.6610 0.0000 0.0000 0.0000
# 2 94.1957 117.7391 47.6275 0.0000 0.0000 0.0000
# 3 56.6610 47.6275 59.8722 0.0000 0.0000 0.0000
# 4 0.0000 0.0000 0.0000 27.0567 0.0000 0.0000
# 5 0.0000 0.0000 0.0000 0.0000 34.0613 0.0000
# 6 0.0000 0.0000 0.0000 0.0000 0.0000 22.9046
#
#
#
# Elastic Compliance Matrix: (Units=1/GPa)
#
#
# Indices 1 2 3 4 5 6 
#
# 1 0.013527 -0.008322 -0.006182 0.000000 0.000000 0.000000
# 2 -0.008322 0.017642 -0.006159 0.000000 0.000000 0.000000
# 3 -0.006182 -0.006159 0.027452 0.000000 0.000000 0.000000
# 4 0.000000 0.000000 0.000000 0.036959 0.000000 0.000000
# 5 0.000000 0.000000 0.000000 0.000000 0.029359 0.000000
# 6 0.000000 0.000000 0.000000 0.000000 0.000000 0.043659
#
#
# Mechanical properties :
#
#
# Convention : Reuss Voigt Hill
#
# Bulk Modulus (GPa) = 57.81520 81.37175 69.59347
# Shear Modulus (GPa) = 23.18146 25.93075 24.55610
#
# Velocity S-wave (km/s) = 3.58779 3.79458 3.69263
# Velocity P-wave (km/s) = 7.01901 8.02387 7.53821
#
# Compressibility (1/GPa) = 0.01729649
#
# Stress axis : x y z
#
# Youngs Moduli (GPa) = 73.92531 56.68192 36.42715
#
# Poissons Ratio (x) = 0.47168 0.22519
# Poissons Ratio (y) = 0.61517 0.22436
# Poissons Ratio (z) = 0.45700 0.34911
#
# Static dielectric constant tensor:
#      x y z
#    x 3.577090 0.000000 0.000000 
#    y 0.000000 3.313490 0.000000 
#    z 0.000000 0.000000 3.339130 
# 
# 
# High freq. dielectric constant tensor:
#      x y z
#    x 1.708190 0.000000 0.000000 
#    y 0.000000 1.686310 0.000000 
#    z 0.000000 0.000000 1.702900 
# 
# From -- ./inp_files/8479.got.cif
#   From: 2010.03.12/outbox.cif.g09.slc.cpg/sg57_5_cif.got.tgz:8479.got - 2010.04.16 15:48:40.
