data_PCOD8231947
_publ_section_title
;
Structure prediction by ZEFSAII (Michael W. Deem and Ramdas Pophale) SiO2 
 PCOD8231947
Probable space group: P B C M
;
_chemical_formula_sum "Si O2"
_cell_formula_units_Z 48
_cell_length_a 15.157742
_cell_length_b 10.320743
_cell_length_c 17.026719
_cell_angle_alpha 90.000000
_cell_angle_beta 90.000000
_cell_angle_gamma 90.000000
_cell_volume 2663.645612
_symmetry_space_group_name_H-M "P B C M"
_symmetry_group_IT_number 57
_symmetry_cell_setting 'orthorhombic'
loop_
_space_group_symop_operation_xyz
x,y,z
-x,-y,1/2+z
x,1/2-y,-z
-x,1/2+y,1/2-z
-x,-y,-z
x,y,1/2-z
-x,1/2+y,z
x,1/2-y,1/2+z
loop_
_atom_site_type_symbol
_atom_site_label
_atom_site_fract_x
_atom_site_fract_y
_atom_site_fract_z
Si Si1 0.170505 0.263831 0.590060
Si Si2 0.148676 0.513555 0.341469
Si Si3 0.650315 0.477811 0.839886
Si Si4 0.505674 0.125580 0.446925
Si Si5 0.005655 0.874857 0.946848
Si Si6 0.353431 0.278661 0.658900
O O1 0.201638 0.250000 0.500000
O O2 0.135418 0.127847 0.622475
O O3 0.252579 0.318369 0.640051
O O4 0.088419 0.362076 0.597430
O O5 0.125727 0.507795 0.250000
O O6 0.248591 0.560737 0.355504
O O7 0.083345 0.614325 0.383185
O O8 0.624520 0.454801 0.750000
O O9 0.590648 0.383631 0.891397
O O10 0.633437 0.627723 0.862417
O O11 0.518911 0.250000 0.500000
O O12 0.418289 0.135363 0.393666
O O13 0.500000 0.000000 0.500000
O O14 0.024378 0.750000 0.000000
O O15 0.000000 0.000000 0.000000
O O16 0.372487 0.306580 0.750000
#
# Coordination Sequence:
#
# PCOD8231947 Si02
#       6
#     8   8   8   8   8   8
#     4  10  19  35  63  86 119 152 201 236 289 351
#     4  10  21  38  61  88 118 158 198 241 297 354
#     4   9  20  39  60  83 118 156 190 237 297 349
#     4  12  23  37  60  90 117 149 196 241 290 347
#     4  11  21  38  60  87 120 156 193 245 295 344
#     4  10  21  38  60  86 117 157 198 241 288 348
#
# _framework density 18.020416000000001
#
# number of rings (size 3 to 8) (size 9 to 14) (size 15 to 20)
#    0.000    1.667    5.000    2.500    2.333    2.000 
#    0.000    0.000    0.000    2.000    0.000    0.000 
#    0.000    0.000    0.000    0.000    0.000    0.000 
#
# Total GULP energy -595285.531481 kJ/mol
# GULP energy per Si atom -12401.781906 kJ/mol
# Density = 1.797940 g / cm^3
# Si number density = 18.020416 Si / 1000 Ang^3
#
#
#
# Elastic Constant Matrix: (Units=GPa)
#
#
# Indices 1 2 3 4 5 6 
#
# 1 132.8399 60.4906 72.7791 0.0000 0.0000 0.0000
# 2 60.4906 97.9721 61.9597 0.0000 0.0000 0.0000
# 3 72.7791 61.9597 115.7188 0.0000 0.0000 0.0000
# 4 0.0000 0.0000 0.0000 31.8046 0.0000 0.0000
# 5 0.0000 0.0000 0.0000 0.0000 42.1872 0.0000
# 6 0.0000 0.0000 0.0000 0.0000 0.0000 34.1424
#
#
#
# Elastic Compliance Matrix: (Units=1/GPa)
#
#
# Indices 1 2 3 4 5 6 
#
# 1 0.012513 -0.004156 -0.005644 0.000000 0.000000 0.000000
# 2 -0.004156 0.016813 -0.006388 0.000000 0.000000 0.000000
# 3 -0.005644 -0.006388 0.015612 0.000000 0.000000 0.000000
# 4 0.000000 0.000000 0.000000 0.031442 0.000000 0.000000
# 5 0.000000 0.000000 0.000000 0.000000 0.023704 0.000000
# 6 0.000000 0.000000 0.000000 0.000000 0.000000 0.029289
#
#
# Mechanical properties :
#
#
# Convention : Reuss Voigt Hill
#
# Bulk Modulus (GPa) = 79.61577 81.88771 80.75174
# Shear Modulus (GPa) = 30.13176 31.71360 30.92268
#
# Velocity S-wave (km/s) = 4.09356 4.19963 4.14693
# Velocity P-wave (km/s) = 8.16209 8.31000 8.23638
#
# Compressibility (1/GPa) = 0.01256033
#
# Stress axis : x y z
#
# Youngs Moduli (GPa) = 79.91831 59.47670 64.05267
#
# Poissons Ratio (x) = 0.24719 0.36154
# Poissons Ratio (y) = 0.33215 0.40920
# Poissons Ratio (z) = 0.45109 0.37997
#
# Static dielectric constant tensor:
#      x y z
#    x 3.486530 0.000000 0.000000 
#    y 0.000000 2.903520 0.000000 
#    z 0.000000 0.000000 3.642860 
# 
# 
# High freq. dielectric constant tensor:
#      x y z
#    x 1.709040 0.000000 0.000000 
#    y 0.000000 1.673640 0.000000 
#    z 0.000000 0.000000 1.711530 
# 
# From -- ./inp_files/22461.got.cif
#   From: 2010.03.12/outbox.cif.g09.slc.cpg/sg57_12_cif.got.tgz:22461.got - 2010.04.16 15:48:40.
