data_PCOD8231517
_publ_section_title
;
Structure prediction by ZEFSAII (Michael W. Deem and Ramdas Pophale) SiO2 
 PCOD8231517
Probable space group: P B C M
;
_chemical_formula_sum "Si O2"
_cell_formula_units_Z 56
_cell_length_a 20.776199
_cell_length_b 15.223288
_cell_length_c 9.027989
_cell_angle_alpha 90.000000
_cell_angle_beta 90.000000
_cell_angle_gamma 90.000000
_cell_volume 2855.390967
_symmetry_space_group_name_H-M "P B C M"
_symmetry_group_IT_number 57
_symmetry_cell_setting 'orthorhombic'
loop_
_space_group_symop_operation_xyz
x,y,z
-x,-y,1/2+z
x,1/2-y,-z
-x,1/2+y,1/2-z
-x,-y,-z
x,y,1/2-z
-x,1/2+y,z
x,1/2-y,1/2+z
loop_
_atom_site_type_symbol
_atom_site_label
_atom_site_fract_x
_atom_site_fract_y
_atom_site_fract_z
Si Si1 0.854217 0.837701 0.077669
Si Si2 0.527748 0.418745 0.418036
Si Si3 0.125705 0.838818 0.078549
Si Si4 0.343177 0.510078 0.924736
Si Si5 0.210945 0.981254 0.923983
Si Si6 0.011890 0.409502 0.419702
Si Si7 0.400835 0.162285 0.923907
O O1 0.858231 0.817200 0.250000
O O2 0.805208 0.917015 0.044025
O O3 0.925072 0.861693 0.013980
O O4 0.827802 0.750000 0.000000
O O5 0.500000 0.500000 0.500000
O O6 0.522104 0.446796 0.250000
O O7 0.604073 0.411332 0.456252
O O8 0.479276 0.337664 0.449562
O O9 0.146925 0.837462 0.250000
O O10 0.048794 0.845414 0.062373
O O11 0.149604 0.750000 0.000000
O O12 0.156315 0.921997 0.997411
O O13 0.331914 0.495479 0.750000
O O14 0.278521 0.542980 0.001753
O O15 0.366716 0.419656 0.998214
O O16 0.213511 0.961334 0.750000
O O17 0.025623 0.433716 0.250000
O O18 0.000000 0.500000 0.500000
O O19 0.383277 0.161630 0.750000
O O20 0.373754 0.250000 0.000000
#
# Coordination Sequence:
#
# PCOD8231517 Si02
#       7
#     8   8   8   8   8   8   8
#     4  10  22  38  57  83 115 150 190 236 289 345
#     4   8  16  31  52  76 103 135 173 219 266 319
#     4  11  23  39  62  88 114 149 193 242 298 353
#     4  10  20  36  57  80 109 147 189 231 281 337
#     4  11  23  40  59  82 117 157 199 244 289 345
#     4  10  20  36  59  87 115 147 186 236 294 351
#     4  10  19  33  54  83 114 144 181 225 278 334
#
# _framework density 19.612024999999999
#
# number of rings (size 3 to 8) (size 9 to 14) (size 15 to 20)
#    0.000    2.000    1.429    2.143    0.000    4.000 
#    0.000    2.143    0.000    1.714    0.000    0.000 
#    0.000    0.000    0.000    0.000    0.000    0.000 
#
# Total GULP energy -694069.762110 kJ/mol
# GULP energy per Si atom -12394.102895 kJ/mol
# Density = 1.956739 g / cm^3
# Si number density = 19.612025 Si / 1000 Ang^3
#
#
#
# Elastic Constant Matrix: (Units=GPa)
#
#
# Indices 1 2 3 4 5 6 
#
# 1 76.1080 -9.1272 26.8147 0.0000 0.0000 0.0000
# 2 -9.1272 58.3713 29.5142 0.0000 0.0000 0.0000
# 3 26.8147 29.5142 93.5458 0.0000 0.0000 0.0000
# 4 0.0000 0.0000 0.0000 32.5941 0.0000 0.0000
# 5 0.0000 0.0000 0.0000 0.0000 30.6178 0.0000
# 6 0.0000 0.0000 0.0000 0.0000 0.0000 18.5014
#
#
#
# Elastic Compliance Matrix: (Units=1/GPa)
#
#
# Indices 1 2 3 4 5 6 
#
# 1 0.016099 0.005771 -0.006436 0.000000 0.000000 0.000000
# 2 0.005771 0.022452 -0.008738 0.000000 0.000000 0.000000
# 3 -0.006436 -0.008738 0.015292 0.000000 0.000000 0.000000
# 4 0.000000 0.000000 0.000000 0.030680 0.000000 0.000000
# 5 0.000000 0.000000 0.000000 0.000000 0.032661 0.000000
# 6 0.000000 0.000000 0.000000 0.000000 0.000000 0.054050
#
#
# Mechanical properties :
#
#
# Convention : Reuss Voigt Hill
#
# Bulk Modulus (GPa) = 28.54059 35.82541 32.18300
# Shear Modulus (GPa) = 24.78708 28.39756 26.59232
#
# Velocity S-wave (km/s) = 3.55895 3.80934 3.68628
# Velocity P-wave (km/s) = 5.61003 6.13636 5.87908
#
# Compressibility (1/GPa) = 0.03503782
#
# Stress axis : x y z
#
# Youngs Moduli (GPa) = 62.11673 44.53871 65.39526
#
# Poissons Ratio (x) = -0.25704 0.42085
# Poissons Ratio (y) = -0.35849 0.57143
# Poissons Ratio (z) = 0.39975 0.38919
#
# Static dielectric constant tensor:
#      x y z
#    x 3.279160 0.000000 0.000000 
#    y 0.000000 3.568190 0.000000 
#    z 0.000000 0.000000 3.656060 
# 
# 
# High freq. dielectric constant tensor:
#      x y z
#    x 1.768880 0.000000 0.000000 
#    y 0.000000 1.744660 0.000000 
#    z 0.000000 0.000000 1.772640 
# 
# From -- ./inp_files/8145.got.cif
#   From: 2010.03.12/outbox.cif.g09.slc.cpg/sg57_5_cif.got.tgz:8145.got - 2010.04.16 15:48:40.
