data_PCOD8231297
_publ_section_title
;
Structure prediction by ZEFSAII (Michael W. Deem and Ramdas Pophale) SiO2 
 PCOD8231297
Probable space group: P B C M
;
_chemical_formula_sum "Si O2"
_cell_formula_units_Z 56
_cell_length_a 14.109526
_cell_length_b 20.008149
_cell_length_c 9.877002
_cell_angle_alpha 90.000000
_cell_angle_beta 90.000000
_cell_angle_gamma 90.000000
_cell_volume 2788.331974
_symmetry_space_group_name_H-M "P B C M"
_symmetry_group_IT_number 57
_symmetry_cell_setting 'orthorhombic'
loop_
_space_group_symop_operation_xyz
x,y,z
-x,-y,1/2+z
x,1/2-y,-z
-x,1/2+y,1/2-z
-x,-y,-z
x,y,1/2-z
-x,1/2+y,z
x,1/2-y,1/2+z
loop_
_atom_site_type_symbol
_atom_site_label
_atom_site_fract_x
_atom_site_fract_y
_atom_site_fract_z
Si Si1 0.135013 0.439722 0.473452
Si Si2 0.591121 0.864445 0.904643
Si Si3 0.688011 0.001180 0.898902
Si Si4 0.379702 0.883989 0.595408
Si Si5 0.064222 0.923732 0.896615
Si Si6 0.247795 0.309751 0.407658
Si Si7 0.803380 0.309391 0.905161
O O1 0.207694 0.468428 0.584665
O O2 0.109256 0.502442 0.378572
O O3 0.181316 0.375486 0.401086
O O4 0.034366 0.416946 0.528306
O O5 0.608891 0.837818 0.750000
O O6 0.481965 0.856639 0.949959
O O7 0.611276 0.942884 0.910746
O O8 0.653409 0.824893 0.015021
O O9 0.684955 0.034276 0.750000
O O10 0.659717 0.054914 0.009038
O O11 0.383136 0.909999 0.750000
O O12 0.308633 0.821900 0.579935
O O13 0.041275 0.895593 0.750000
O O14 0.142188 0.874863 0.962102
O O15 0.201096 0.250000 0.500000
O O16 0.264691 0.288062 0.250000
O O17 0.828756 0.292270 0.750000
O O18 0.836983 0.250000 0.000000
#
# Coordination Sequence:
#
# PCOD8231297 Si02
#       7
#     8   8   8   8   8   8   8
#     4  10  21  38  61  90 119 153 201 243 303 359
#     4   9  20  37  57  85 120 157 200 249 298 350
#     4  10  19  32  54  88 123 153 192 247 302 354
#     4  10  20  36  58  83 118 160 200 244 296 353
#     4  10  20  38  62  87 117 154 199 249 300 353
#     4  11  24  41  63  89 122 161 199 247 300 363
#     4  10  22  40  59  83 116 157 198 245 295 349
#
# _framework density 20.083691999999999
#
# number of rings (size 3 to 8) (size 9 to 14) (size 15 to 20)
#    0.000    2.000    1.429    1.714    0.000    6.286 
#    0.000    4.286    0.000    0.000    0.000    0.000 
#    0.000    0.000    0.000    0.000    0.000    0.000 
#
# Total GULP energy -693897.819146 kJ/mol
# GULP energy per Si atom -12391.032485 kJ/mol
# Density = 2.003798 g / cm^3
# Si number density = 20.083692 Si / 1000 Ang^3
#
#
#
# Elastic Constant Matrix: (Units=GPa)
#
#
# Indices 1 2 3 4 5 6 
#
# 1 124.7411 44.4841 42.0151 0.0000 0.0000 0.0000
# 2 44.4841 92.1407 44.7905 0.0000 0.0000 0.0000
# 3 42.0151 44.7905 108.7009 0.0000 0.0000 0.0000
# 4 0.0000 0.0000 0.0000 27.3291 0.0000 0.0000
# 5 0.0000 0.0000 0.0000 0.0000 -34.0156 0.0000
# 6 0.0000 0.0000 0.0000 0.0000 0.0000 18.5623
#
#
#
# Elastic Compliance Matrix: (Units=1/GPa)
#
#
# Indices 1 2 3 4 5 6 
#
# 1 0.010154 -0.003744 -0.002382 0.000000 0.000000 0.000000
# 2 -0.003744 0.014952 -0.004714 0.000000 0.000000 0.000000
# 3 -0.002382 -0.004714 0.012063 0.000000 0.000000 0.000000
# 4 0.000000 0.000000 0.000000 0.036591 0.000000 0.000000
# 5 0.000000 0.000000 0.000000 0.000000 -0.029398 0.000000
# 6 0.000000 0.000000 0.000000 0.000000 0.000000 0.053873
#
#
# Mechanical properties :
#
#
# Convention : Reuss Voigt Hill
#
# Bulk Modulus (GPa) = 64.56334 65.35133 64.95734
# Shear Modulus (GPa) = 39.97530 15.32802 27.65166
#
# Velocity S-wave (km/s) = 4.46627 2.76562 3.71458
# Velocity P-wave (km/s) = 7.66901 6.54281 7.12818
#
# Compressibility (1/GPa) = 0.01548866
#
# Stress axis : x y z
#
# Youngs Moduli (GPa) = 98.48168 66.88019 82.90136
#
# Poissons Ratio (x) = 0.25043 0.19746
# Poissons Ratio (y) = 0.36876 0.39078
# Poissons Ratio (z) = 0.23457 0.31526
#
# Static dielectric constant tensor:
#      x y z
#    x 3.748940 0.000000 0.000000 
#    y 0.000000 3.578900 0.000000 
#    z 0.000000 0.000000 3.558060 
# 
# 
# High freq. dielectric constant tensor:
#      x y z
#    x 1.790850 0.000000 0.000000 
#    y 0.000000 1.775160 0.000000 
#    z 0.000000 0.000000 1.777050 
# 
# From -- ./inp_files/5140.got.cif
#   From: 2010.03.12/outbox.cif.g09.slc.cpg/sg57_3_cif.got.tgz:5140.got - 2010.04.16 15:48:40.
