data_PCOD8231804
_publ_section_title
;
Structure prediction by ZEFSAII (Michael W. Deem and Ramdas Pophale) SiO2 
 PCOD8231804
Probable space group: P B C M
;
_chemical_formula_sum "Si O2"
_cell_formula_units_Z 40
_cell_length_a 14.268393
_cell_length_b 15.574668
_cell_length_c 8.649655
_cell_angle_alpha 90.000000
_cell_angle_beta 90.000000
_cell_angle_gamma 90.000000
_cell_volume 1922.173768
_symmetry_space_group_name_H-M "P B C M"
_symmetry_group_IT_number 57
_symmetry_cell_setting 'orthorhombic'
loop_
_space_group_symop_operation_xyz
x,y,z
-x,-y,1/2+z
x,1/2-y,-z
-x,1/2+y,1/2-z
-x,-y,-z
x,y,1/2-z
-x,1/2+y,z
x,1/2-y,1/2+z
loop_
_atom_site_type_symbol
_atom_site_label
_atom_site_fract_x
_atom_site_fract_y
_atom_site_fract_z
Si Si1 0.602904 0.999085 0.567703
Si Si2 0.287308 0.161057 0.930819
Si Si3 0.892751 0.598001 0.072490
Si Si4 0.100581 0.581971 0.426426
Si Si5 0.293779 0.660310 0.071306
O O1 0.597254 0.994161 0.750000
O O2 0.658557 0.917153 0.507388
O O3 0.500000 0.000000 0.500000
O O4 0.655307 0.085004 0.518872
O O5 0.305856 0.159485 0.750000
O O6 0.326264 0.250000 0.000000
O O7 0.176335 0.153362 0.965765
O O8 0.865695 0.615435 0.250000
O O9 0.000067 0.625329 0.035718
O O10 0.880001 0.497058 0.039903
O O11 0.100264 0.546892 0.250000
O O12 0.181632 0.651986 0.450033
O O13 0.323163 0.656209 0.250000
O O14 0.326987 0.750000 0.000000
#
# Coordination Sequence:
#
# PCOD8231804 Si02
#       5
#     8   8   8   8   8
#     4  12  26  47  72  98 126 163 207 262 325 388
#     4  12  25  43  66  96 131 170 214 266 319 380
#     4  10  19  34  59  92 128 172 217 261 313 373
#     4   9  19  35  58  89 129 173 217 261 311 371
#     4  11  23  41  65  96 132 171 215 264 315 375
#
# _framework density 20.809774000000001
#
# number of rings (size 3 to 8) (size 9 to 14) (size 15 to 20)
#    0.000    1.200    2.000    4.800    0.000    3.200 
#    0.000    6.000    0.000    0.000    0.000    0.000 
#    0.000    0.000    0.000    0.000    0.000    0.000 
#
# Total GULP energy -496159.326826 kJ/mol
# GULP energy per Si atom -12403.983171 kJ/mol
# Density = 2.076241 g / cm^3
# Si number density = 20.809774 Si / 1000 Ang^3
#
#
#
# Elastic Constant Matrix: (Units=GPa)
#
#
# Indices 1 2 3 4 5 6 
#
# 1 118.1414 58.7926 55.1254 0.0000 0.0000 0.0000
# 2 58.7926 146.3391 62.7018 0.0000 0.0000 0.0000
# 3 55.1254 62.7018 161.7937 0.0000 0.0000 0.0000
# 4 0.0000 0.0000 0.0000 36.1035 0.0000 0.0000
# 5 0.0000 0.0000 0.0000 0.0000 32.6839 0.0000
# 6 0.0000 0.0000 0.0000 0.0000 0.0000 1.7898
#
#
#
# Elastic Compliance Matrix: (Units=1/GPa)
#
#
# Indices 1 2 3 4 5 6 
#
# 1 0.011379 -0.003490 -0.002525 0.000000 0.000000 0.000000
# 2 -0.003490 0.009264 -0.002401 0.000000 0.000000 0.000000
# 3 -0.002525 -0.002401 0.007971 0.000000 0.000000 0.000000
# 4 0.000000 0.000000 0.000000 0.027698 0.000000 0.000000
# 5 0.000000 0.000000 0.000000 0.000000 0.030596 0.000000
# 6 0.000000 0.000000 0.000000 0.000000 0.000000 0.558716
#
#
# Mechanical properties :
#
#
# Convention : Reuss Voigt Hill
#
# Bulk Modulus (GPa) = 84.86441 86.61262 85.73852
# Shear Modulus (GPa) = 7.50318 30.75906 19.13112
#
# Velocity S-wave (km/s) = 1.90090 3.84879 3.03534
# Velocity P-wave (km/s) = 6.75925 7.83979 7.31949
#
# Compressibility (1/GPa) = 0.01178350
#
# Stress axis : x y z
#
# Youngs Moduli (GPa) = 87.87991 107.93972 125.44773
#
# Poissons Ratio (x) = 0.37671 0.31670
# Poissons Ratio (y) = 0.30670 0.30123
# Poissons Ratio (z) = 0.22186 0.25919
#
# Static dielectric constant tensor:
#      x y z
#    x 3.885280 0.000000 0.000000 
#    y 0.000000 3.612190 0.000000 
#    z 0.000000 0.000000 3.795920 
# 
# 
# High freq. dielectric constant tensor:
#      x y z
#    x 1.820080 0.000000 0.000000 
#    y 0.000000 1.806120 0.000000 
#    z 0.000000 0.000000 1.826990 
# 
# From -- ./inp_files/4296.got.cif
#   From: 2010.03.12/outbox.cif.g09.slc.cpg/sg57_3_cif.got.tgz:4296.got - 2010.04.16 15:48:40.
