data_PCOD8231700
_publ_section_title
;
Structure prediction by ZEFSAII (Michael W. Deem and Ramdas Pophale) SiO2 
 PCOD8231700
Probable space group: P B C M
;
_chemical_formula_sum "Si O2"
_cell_formula_units_Z 48
_cell_length_a 26.517177
_cell_length_b 5.147579
_cell_length_c 17.241066
_cell_angle_alpha 90.000000
_cell_angle_beta 90.000000
_cell_angle_gamma 90.000000
_cell_volume 2353.392810
_symmetry_space_group_name_H-M "P B C M"
_symmetry_group_IT_number 57
_symmetry_cell_setting 'orthorhombic'
loop_
_space_group_symop_operation_xyz
x,y,z
-x,-y,1/2+z
x,1/2-y,-z
-x,1/2+y,1/2-z
-x,-y,-z
x,y,1/2-z
-x,1/2+y,z
x,1/2-y,1/2+z
loop_
_atom_site_type_symbol
_atom_site_label
_atom_site_fract_x
_atom_site_fract_y
_atom_site_fract_z
Si Si1 0.532183 0.266759 0.339534
Si Si2 0.859426 0.271325 0.841558
Si Si3 0.688109 0.773472 0.158406
Si Si4 0.802527 0.728960 0.342396
Si Si5 0.361138 0.773799 0.409614
Si Si6 0.968424 0.260190 0.409708
O O1 0.549352 0.250269 0.250000
O O2 0.508105 0.544325 0.358935
O O3 0.580235 0.223286 0.393521
O O4 0.853872 0.269593 0.750000
O O5 0.831934 0.523172 0.876785
O O6 0.917798 0.272926 0.861970
O O7 0.830992 0.021691 0.876724
O O8 0.683330 0.738212 0.250000
O O9 0.745031 0.729733 0.128879
O O10 0.652515 0.563077 0.117814
O O11 0.671969 0.063817 0.136295
O O12 0.804160 0.732414 0.250000
O O13 0.350040 0.750000 0.500000
O O14 0.954944 0.250000 0.500000
O O15 0.993321 0.532339 0.386211
#
# Coordination Sequence:
#
# PCOD8231700 Si02
#       6
#     8   8   8   8   8   8
#     4  10  21  38  61  87 115 153 202 245 285 349
#     4  10  19  34  56  82 108 135 178 233 284 328
#     4  11  22  41  66  87 116 163 208 239 286 359
#     4   9  19  35  57  83 109 141 184 235 281 329
#     4  12  25  40  60  92 129 157 192 249 307 348
#     4  10  21  36  52  73 105 143 180 217 265 331
#
# _framework density 20.396084999999999
#
# number of rings (size 3 to 8) (size 9 to 14) (size 15 to 20)
#    0.000    1.667    0.000    5.000    0.000    5.333 
#    0.000    5.000    0.000    0.000    0.000    0.000 
#    0.000    0.000    0.000    0.000    0.000    0.000 
#
# Total GULP energy -595469.211980 kJ/mol
# GULP energy per Si atom -12405.608583 kJ/mol
# Density = 2.034966 g / cm^3
# Si number density = 20.396085 Si / 1000 Ang^3
#
#
#
# Elastic Constant Matrix: (Units=GPa)
#
#
# Indices 1 2 3 4 5 6 
#
# 1 96.0585 21.9058 24.4785 0.0000 0.0000 0.0000
# 2 21.9058 119.6707 20.1682 0.0000 0.0000 0.0000
# 3 24.4785 20.1682 46.9197 0.0000 0.0000 0.0000
# 4 0.0000 0.0000 0.0000 19.1270 0.0000 0.0000
# 5 0.0000 0.0000 0.0000 0.0000 -0.8113 0.0000
# 6 0.0000 0.0000 0.0000 0.0000 0.0000 34.9825
#
#
#
# Elastic Compliance Matrix: (Units=1/GPa)
#
#
# Indices 1 2 3 4 5 6 
#
# 1 0.012177 -0.001249 -0.005816 0.000000 0.000000 0.000000
# 2 -0.001249 0.009137 -0.003276 0.000000 0.000000 0.000000
# 3 -0.005816 -0.003276 0.025756 0.000000 0.000000 0.000000
# 4 0.000000 0.000000 0.000000 0.052282 0.000000 0.000000
# 5 0.000000 0.000000 0.000000 0.000000 -1.232608 0.000000
# 6 0.000000 0.000000 0.000000 0.000000 0.000000 0.028586
#
#
# Mechanical properties :
#
#
# Convention : Reuss Voigt Hill
#
# Bulk Modulus (GPa) = 37.89631 43.97266 40.93448
# Shear Modulus (GPa) = -4.65033 23.73274 9.54121
#
# Velocity S-wave (km/s) = -1.51161 3.41485 2.16521
# Velocity P-wave (km/s) = 3.94638 6.09544 5.13460
#
# Compressibility (1/GPa) = 0.02638779
#
# Stress axis : x y z
#
# Youngs Moduli (GPa) = 82.12034 109.44558 38.82661
#
# Poissons Ratio (x) = 0.13668 0.22582
# Poissons Ratio (y) = 0.10256 0.12719
# Poissons Ratio (z) = 0.47763 0.35854
#
# Static dielectric constant tensor:
#      x y z
#    x 3.681280 0.000000 0.000000 
#    y 0.000000 4.050060 0.000000 
#    z 0.000000 0.000000 3.432250 
# 
# 
# High freq. dielectric constant tensor:
#      x y z
#    x 1.809480 0.000000 0.000000 
#    y 0.000000 1.818900 0.000000 
#    z 0.000000 0.000000 1.769200 
# 
# From -- ./inp_files/23124.got.cif
#   From: 2010.03.12/outbox.cif.g09.slc.cpg/sg57_12_cif.got.tgz:23124.got - 2010.04.16 15:48:40.
