data_PCOD8231744
_publ_section_title
;
Structure prediction by ZEFSAII (Michael W. Deem and Ramdas Pophale) SiO2 
 PCOD8231744
Probable space group: P B C M
;
_chemical_formula_sum "Si O2"
_cell_formula_units_Z 48
_cell_length_a 8.758483
_cell_length_b 16.812413
_cell_length_c 15.914578
_cell_angle_alpha 90.000000
_cell_angle_beta 90.000000
_cell_angle_gamma 90.000000
_cell_volume 2343.441240
_symmetry_space_group_name_H-M "P B C M"
_symmetry_group_IT_number 57
_symmetry_cell_setting 'orthorhombic'
loop_
_space_group_symop_operation_xyz
x,y,z
-x,-y,1/2+z
x,1/2-y,-z
-x,1/2+y,1/2-z
-x,-y,-z
x,y,1/2-z
-x,1/2+y,z
x,1/2-y,1/2+z
loop_
_atom_site_type_symbol
_atom_site_label
_atom_site_fract_x
_atom_site_fract_y
_atom_site_fract_z
Si Si1 0.849444 0.028475 0.399577
Si Si2 0.970451 0.383196 0.348257
Si Si3 0.400946 0.080886 0.656487
Si Si4 0.856286 0.898530 0.655828
Si Si5 0.291530 0.544634 0.924195
Si Si6 0.795167 0.730177 0.903396
O O1 0.762196 0.060484 0.481119
O O2 0.960408 0.098821 0.365088
O O3 0.964764 0.953503 0.409436
O O4 0.718543 0.992649 0.338718
O O5 0.015456 0.393252 0.250000
O O6 0.033498 0.301327 0.385845
O O7 0.789124 0.390746 0.362039
O O8 0.469514 0.090955 0.750000
O O9 0.528739 0.059098 0.587634
O O10 0.322933 0.163818 0.628893
O O11 0.835887 0.930303 0.750000
O O12 0.784866 0.811051 0.649039
O O13 0.752803 0.954009 0.597100
O O14 0.767076 0.750000 0.000000
#
# Coordination Sequence:
#
# PCOD8231744 Si02
#       6
#     8   8   8   8   8   8
#     4  10  19  34  57  84 113 146 185 231 276 328
#     4  10  19  36  58  83 113 152 190 228 280 345
#     4  11  22  39  58  82 117 159 190 223 282 353
#     4  11  20  35  59  88 112 142 189 243 282 322
#     4  11  21  36  59  86 115 150 190 232 279 339
#     4  11  22  38  58  81 111 149 191 237 284 333
#
# _framework density 20.482697000000002
#
# number of rings (size 3 to 8) (size 9 to 14) (size 15 to 20)
#    0.000    1.333    0.000   12.000    0.000    0.000 
#    0.000    4.167    0.000    0.000    0.000    0.000 
#    0.000    0.000    0.000    0.000    0.000    0.000 
#
# Total GULP energy -594734.505585 kJ/mol
# GULP energy per Si atom -12390.302200 kJ/mol
# Density = 2.043608 g / cm^3
# Si number density = 20.482697 Si / 1000 Ang^3
#
#
#
# Elastic Constant Matrix: (Units=GPa)
#
#
# Indices 1 2 3 4 5 6 
#
# 1 96.7647 35.7775 15.4169 0.0000 0.0000 0.0000
# 2 35.7775 89.5317 23.9189 0.0000 0.0000 0.0000
# 3 15.4169 23.9189 100.1754 0.0000 0.0000 0.0000
# 4 0.0000 0.0000 0.0000 25.3818 0.0000 0.0000
# 5 0.0000 0.0000 0.0000 0.0000 28.1443 0.0000
# 6 0.0000 0.0000 0.0000 0.0000 0.0000 25.5143
#
#
#
# Elastic Compliance Matrix: (Units=1/GPa)
#
#
# Indices 1 2 3 4 5 6 
#
# 1 0.012180 -0.004664 -0.000761 0.000000 0.000000 0.000000
# 2 -0.004664 0.013716 -0.002557 0.000000 0.000000 0.000000
# 3 -0.000761 -0.002557 0.010710 0.000000 0.000000 0.000000
# 4 0.000000 0.000000 0.000000 0.039398 0.000000 0.000000
# 5 0.000000 0.000000 0.000000 0.000000 0.035531 0.000000
# 6 0.000000 0.000000 0.000000 0.000000 0.000000 0.039194
#
#
# Mechanical properties :
#
#
# Convention : Reuss Voigt Hill
#
# Bulk Modulus (GPa) = 48.44439 48.52205 48.48322
# Shear Modulus (GPa) = 28.80607 29.89863 29.35235
#
# Velocity S-wave (km/s) = 3.75422 3.82475 3.78965
# Velocity P-wave (km/s) = 6.51881 6.57614 6.54754
#
# Compressibility (1/GPa) = 0.02064222
#
# Stress axis : x y z
#
# Youngs Moduli (GPa) = 82.10179 72.90678 93.36909
#
# Poissons Ratio (x) = 0.34003 0.07104
# Poissons Ratio (y) = 0.38292 0.23877
# Poissons Ratio (z) = 0.06247 0.18644
#
# Static dielectric constant tensor:
#      x y z
#    x 3.805500 0.000000 0.000000 
#    y 0.000000 3.585140 0.000000 
#    z 0.000000 0.000000 3.713270 
# 
# 
# High freq. dielectric constant tensor:
#      x y z
#    x 1.792640 0.000000 0.000000 
#    y 0.000000 1.778380 0.000000 
#    z 0.000000 0.000000 1.811350 
# 
# From -- ./inp_files/16335.got.cif
#   From: 2010.03.12/outbox.cif.g09.slc.cpg/sg57_9_cif.got.tgz:16335.got - 2010.04.16 15:48:40.
