data_PCOD8231008
_publ_section_title
;
Structure prediction by ZEFSAII (Michael W. Deem and Ramdas Pophale) SiO2 
 PCOD8231008
Probable space group: P B C M
;
_chemical_formula_sum "Si O2"
_cell_formula_units_Z 64
_cell_length_a 19.435798
_cell_length_b 19.860580
_cell_length_c 9.157930
_cell_angle_alpha 90.000000
_cell_angle_beta 90.000000
_cell_angle_gamma 90.000000
_cell_volume 3535.017952
_symmetry_space_group_name_H-M "P B C M"
_symmetry_group_IT_number 57
_symmetry_cell_setting 'orthorhombic'
loop_
_space_group_symop_operation_xyz
x,y,z
-x,-y,1/2+z
x,1/2-y,-z
-x,1/2+y,1/2-z
-x,-y,-z
x,y,1/2-z
-x,1/2+y,z
x,1/2-y,1/2+z
loop_
_atom_site_type_symbol
_atom_site_label
_atom_site_fract_x
_atom_site_fract_y
_atom_site_fract_z
Si Si1 0.648341 0.087579 0.082443
Si Si2 0.227075 0.815534 0.918027
Si Si3 0.027792 0.064814 0.919039
Si Si4 0.116608 0.610393 0.584798
Si Si5 0.451506 0.682228 0.578558
Si Si6 0.843109 0.957693 0.921158
Si Si7 0.390151 0.183630 0.580354
Si Si8 0.298740 0.442616 0.421021
O O1 0.624983 0.096345 0.250000
O O2 0.720520 0.124009 0.053412
O O3 0.658506 0.009742 0.040804
O O4 0.589796 0.117831 0.979139
O O5 0.218929 0.797355 0.750000
O O6 0.255542 0.750000 0.000000
O O7 0.152551 0.836513 0.978614
O O8 0.042964 0.048042 0.750000
O O9 0.966116 0.119420 0.931915
O O10 0.098247 0.087904 0.998717
O O11 0.000000 0.000000 0.000000
O O12 0.139444 0.626277 0.750000
O O13 0.141075 0.535322 0.543268
O O14 0.424586 0.750000 0.500000
O O15 0.438892 0.690654 0.750000
O O16 0.530829 0.669225 0.538886
O O17 0.845086 0.942102 0.750000
O O18 0.769874 0.937269 0.984906
O O19 0.362269 0.250000 0.500000
O O20 0.382096 0.197769 0.750000
O O21 0.345941 0.119690 0.531229
O O22 0.279597 0.441631 0.250000
#
# Coordination Sequence:
#
# PCOD8231008 Si02
#       8
#     8   8   8   8   8   8   8   8
#     4  10  21  35  52  78 107 140 179 221 270 321
#     4  11  22  34  50  72 102 144 184 220 266 319
#     4   9  17  29  48  74 103 136 172 215 262 309
#     4   9  18  32  49  72 102 134 174 220 260 306
#     4  10  20  35  55  78 105 142 182 222 266 315
#     4  10  19  31  50  79 109 138 173 216 264 315
#     4   9  20  38  59  81 106 137 176 219 268 327
#     4  10  20  36  56  79 110 143 175 220 273 322
#
# _framework density 18.104576000000002
#
# number of rings (size 3 to 8) (size 9 to 14) (size 15 to 20)
#    0.000    2.250    1.250    2.625    0.000    6.500 
#    0.000    0.000    0.000    0.750    0.000    3.500 
#    0.000    0.000    0.000    0.000    0.000    0.000 
#
# Total GULP energy -793637.948975 kJ/mol
# GULP energy per Si atom -12400.592953 kJ/mol
# Density = 1.806337 g / cm^3
# Si number density = 18.104576 Si / 1000 Ang^3
#
#
#
# Elastic Constant Matrix: (Units=GPa)
#
#
# Indices 1 2 3 4 5 6 
#
# 1 106.8170 55.4930 61.2671 0.0000 0.0000 0.0000
# 2 55.4930 103.6473 51.6740 0.0000 0.0000 0.0000
# 3 61.2671 51.6740 100.3810 0.0000 0.0000 0.0000
# 4 0.0000 0.0000 0.0000 27.1429 0.0000 0.0000
# 5 0.0000 0.0000 0.0000 0.0000 31.9961 0.0000
# 6 0.0000 0.0000 0.0000 0.0000 0.0000 17.5601
#
#
#
# Elastic Compliance Matrix: (Units=1/GPa)
#
#
# Indices 1 2 3 4 5 6 
#
# 1 0.016135 -0.005017 -0.007266 0.000000 0.000000 0.000000
# 2 -0.005017 0.014539 -0.004422 0.000000 0.000000 0.000000
# 3 -0.007266 -0.004422 0.016673 0.000000 0.000000 0.000000
# 4 0.000000 0.000000 0.000000 0.036842 0.000000 0.000000
# 5 0.000000 0.000000 0.000000 0.000000 0.031254 0.000000
# 6 0.000000 0.000000 0.000000 0.000000 0.000000 0.056947
#
#
# Mechanical properties :
#
#
# Convention : Reuss Voigt Hill
#
# Bulk Modulus (GPa) = 71.74650 71.96818 71.85734
# Shear Modulus (GPa) = 23.75906 24.83390 24.29648
#
# Velocity S-wave (km/s) = 3.62653 3.70765 3.66732
# Velocity P-wave (km/s) = 7.56641 7.62670 7.59662
#
# Compressibility (1/GPa) = 0.01393796
#
# Stress axis : x y z
#
# Youngs Moduli (GPa) = 61.97555 68.78139 59.97630
#
# Poissons Ratio (x) = 0.34504 0.43577
# Poissons Ratio (y) = 0.31090 0.26524
# Poissons Ratio (z) = 0.45030 0.30418
#
# Static dielectric constant tensor:
#      x y z
#    x 3.628390 0.000000 0.000000 
#    y 0.000000 3.172160 0.000000 
#    z 0.000000 0.000000 3.414120 
# 
# 
# High freq. dielectric constant tensor:
#      x y z
#    x 1.705660 0.000000 0.000000 
#    y 0.000000 1.671540 0.000000 
#    z 0.000000 0.000000 1.709650 
# 
# From -- ./inp_files/7123.got.cif
#   From: 2010.03.12/outbox.cif.g09.slc.cpg/sg57_4_cif.got.tgz:7123.got - 2010.04.16 15:48:40.
