data_PCOD8231692
_publ_section_title
;
Structure prediction by ZEFSAII (Michael W. Deem and Ramdas Pophale) SiO2 
 PCOD8231692
Probable space group: P B C M
;
_chemical_formula_sum "Si O2"
_cell_formula_units_Z 48
_cell_length_a 15.552136
_cell_length_b 18.142385
_cell_length_c 8.843127
_cell_angle_alpha 90.000000
_cell_angle_beta 90.000000
_cell_angle_gamma 90.000000
_cell_volume 2495.113388
_symmetry_space_group_name_H-M "P B C M"
_symmetry_group_IT_number 57
_symmetry_cell_setting 'orthorhombic'
loop_
_space_group_symop_operation_xyz
x,y,z
-x,-y,1/2+z
x,1/2-y,-z
-x,1/2+y,1/2-z
-x,-y,-z
x,y,1/2-z
-x,1/2+y,z
x,1/2-y,1/2+z
loop_
_atom_site_type_symbol
_atom_site_label
_atom_site_fract_x
_atom_site_fract_y
_atom_site_fract_z
Si Si1 0.668924 0.673110 0.571438
Si Si2 0.997667 0.920510 0.072720
Si Si3 0.494705 0.079136 0.572965
Si Si4 0.658809 0.169942 0.929947
Si Si5 0.171819 0.405174 0.570320
Si Si6 0.814172 0.427709 0.426410
O O1 0.640082 0.750000 0.500000
O O2 0.679521 0.681623 0.750000
O O3 0.595845 0.614658 0.527586
O O4 0.757907 0.648535 0.498427
O O5 0.977939 0.925726 0.250000
O O6 0.093521 0.887617 0.043129
O O7 0.921159 0.875862 0.990072
O O8 0.000000 0.000000 0.000000
O O9 0.504183 0.068607 0.750000
O O10 0.571576 0.131024 0.513742
O O11 0.500000 0.000000 0.500000
O O12 0.662612 0.176973 0.750000
O O13 0.738478 0.121986 0.996303
O O14 0.664207 0.250000 0.000000
O O15 0.173081 0.400043 0.750000
O O16 0.188091 0.488569 0.509029
O O17 0.797372 0.435717 0.250000
#
# Coordination Sequence:
#
# PCOD8231692 Si02
#       6
#     8   8   8   8   8   8
#     4  11  23  38  55  80 111 145 181 222 271 327
#     4   9  16  29  50  78 109 142 181 228 275 323
#     4  10  22  38  59  84 110 139 177 220 265 316
#     4  10  20  36  54  77 108 142 176 214 260 315
#     4  10  19  34  56  80 105 141 184 230 280 327
#     4   8  16  31  53  77 105 141 180 220 267 316
#
# _framework density 19.237603
#
# number of rings (size 3 to 8) (size 9 to 14) (size 15 to 20)
#    0.000    2.333    0.000    4.000    0.000    3.333 
#    0.000    5.833    0.000    2.000    0.000    0.000 
#    0.000    0.000    0.000    0.000    0.000    0.000 
#
# Total GULP energy -595042.489304 kJ/mol
# GULP energy per Si atom -12396.718527 kJ/mol
# Density = 1.919382 g / cm^3
# Si number density = 19.237603 Si / 1000 Ang^3
#
#
#
# Elastic Constant Matrix: (Units=GPa)
#
#
# Indices 1 2 3 4 5 6 
#
# 1 122.6088 28.0095 43.5800 0.0000 0.0000 0.0000
# 2 28.0095 82.9172 30.7651 0.0000 0.0000 0.0000
# 3 43.5800 30.7651 64.7845 0.0000 0.0000 0.0000
# 4 0.0000 0.0000 0.0000 31.5950 0.0000 0.0000
# 5 0.0000 0.0000 0.0000 0.0000 24.4050 0.0000
# 6 0.0000 0.0000 0.0000 0.0000 0.0000 19.6657
#
#
#
# Elastic Compliance Matrix: (Units=1/GPa)
#
#
# Indices 1 2 3 4 5 6 
#
# 1 0.010810 -0.001157 -0.006722 0.000000 0.000000 0.000000
# 2 -0.001157 0.014764 -0.006232 0.000000 0.000000 0.000000
# 3 -0.006722 -0.006232 0.022917 0.000000 0.000000 0.000000
# 4 0.000000 0.000000 0.000000 0.031651 0.000000 0.000000
# 5 0.000000 0.000000 0.000000 0.000000 0.040975 0.000000
# 6 0.000000 0.000000 0.000000 0.000000 0.000000 0.050850
#
#
# Mechanical properties :
#
#
# Convention : Reuss Voigt Hill
#
# Bulk Modulus (GPa) = 49.34129 52.77997 51.06063
# Shear Modulus (GPa) = 24.16093 26.33018 25.24555
#
# Velocity S-wave (km/s) = 3.54774 3.70358 3.62650
# Velocity P-wave (km/s) = 6.51813 6.76640 6.64342
#
# Compressibility (1/GPa) = 0.02026700
#
# Stress axis : x y z
#
# Youngs Moduli (GPa) = 92.50962 67.73388 43.63520
#
# Poissons Ratio (x) = 0.07840 0.29331
# Poissons Ratio (y) = 0.10708 0.27195
# Poissons Ratio (z) = 0.62184 0.42215
#
# Static dielectric constant tensor:
#      x y z
#    x 4.472160 0.000000 0.000000 
#    y 0.000000 3.357820 0.000000 
#    z 0.000000 0.000000 3.505120 
# 
# 
# High freq. dielectric constant tensor:
#      x y z
#    x 1.773110 0.000000 0.000000 
#    y 0.000000 1.726460 0.000000 
#    z 0.000000 0.000000 1.736480 
# 
# From -- ./inp_files/4538.got.cif
#   From: 2010.03.12/outbox.cif.g09.slc.cpg/sg57_3_cif.got.tgz:4538.got - 2010.04.16 15:48:40.
