data_PCOD8231565
_publ_section_title
;
Structure prediction by ZEFSAII (Michael W. Deem and Ramdas Pophale) SiO2 
 PCOD8231565
Probable space group: P B C M
;
_chemical_formula_sum "Si O2"
_cell_formula_units_Z 56
_cell_length_a 17.447391
_cell_length_b 19.143247
_cell_length_c 9.010101
_cell_angle_alpha 90.000000
_cell_angle_beta 90.000000
_cell_angle_gamma 90.000000
_cell_volume 3009.371170
_symmetry_space_group_name_H-M "P B C M"
_symmetry_group_IT_number 57
_symmetry_cell_setting 'orthorhombic'
loop_
_space_group_symop_operation_xyz
x,y,z
-x,-y,1/2+z
x,1/2-y,-z
-x,1/2+y,1/2-z
-x,-y,-z
x,y,1/2-z
-x,1/2+y,z
x,1/2-y,1/2+z
loop_
_atom_site_type_symbol
_atom_site_label
_atom_site_fract_x
_atom_site_fract_y
_atom_site_fract_z
Si Si1 0.296981 0.942778 0.080808
Si Si2 0.143719 0.918897 0.576075
Si Si3 0.591653 0.820935 0.076079
Si Si4 0.879430 0.577680 0.577572
Si Si5 0.533206 0.432951 0.077046
Si Si6 0.727139 0.604366 0.080888
Si Si7 0.977775 0.175439 0.575144
O O1 0.277616 0.920878 0.250000
O O2 0.379768 0.914327 0.027568
O O3 0.302135 0.025854 0.066551
O O4 0.232285 0.912484 0.972412
O O5 0.136926 0.904163 0.750000
O O6 0.099098 0.858599 0.489104
O O7 0.110519 0.995788 0.534501
O O8 0.601251 0.811457 0.250000
O O9 0.521202 0.869902 0.032868
O O10 0.568161 0.750000 0.000000
O O11 0.672117 0.847175 0.013952
O O12 0.857651 0.583621 0.750000
O O13 0.812477 0.612359 0.482081
O O14 0.955181 0.620618 0.537491
O O15 0.533321 0.449460 0.250000
O O16 0.500000 0.500000 0.000000
O O17 0.727128 0.630469 0.250000
O O18 0.994690 0.250000 0.500000
O O19 0.968771 0.187036 0.750000
#
# Coordination Sequence:
#
# PCOD8231565 Si02
#       7
#     8   8   8   8   8   8   8
#     4   9  18  34  56  84 113 143 182 230 282 333
#     4  10  20  36  59  86 113 145 188 235 283 335
#     4  11  23  37  54  78 113 153 189 231 282 338
#     4   9  20  37  58  84 115 148 188 233 279 334
#     4  10  20  35  58  84 111 145 188 236 283 331
#     4  10  19  33  56  83 112 146 183 227 279 335
#     4  11  23  39  58  81 112 150 188 233 285 339
#
# _framework density 18.608537999999999
#
# number of rings (size 3 to 8) (size 9 to 14) (size 15 to 20)
#    0.000    2.000    1.429    2.143    0.000    4.000 
#    0.000    2.143    0.000    1.714    0.000    0.000 
#    0.000    0.000    0.000    0.000    0.000    0.000 
#
# Total GULP energy -694525.803409 kJ/mol
# GULP energy per Si atom -12402.246489 kJ/mol
# Density = 1.856618 g / cm^3
# Si number density = 18.608538 Si / 1000 Ang^3
#
#
#
# Elastic Constant Matrix: (Units=GPa)
#
#
# Indices 1 2 3 4 5 6 
#
# 1 107.3409 48.6821 47.7466 0.0000 0.0000 0.0000
# 2 48.6821 76.1604 47.8991 0.0000 0.0000 0.0000
# 3 47.7466 47.8991 81.5854 0.0000 0.0000 0.0000
# 4 0.0000 0.0000 0.0000 31.7389 0.0000 0.0000
# 5 0.0000 0.0000 0.0000 0.0000 31.7729 0.0000
# 6 0.0000 0.0000 0.0000 0.0000 0.0000 21.1020
#
#
#
# Elastic Compliance Matrix: (Units=1/GPa)
#
#
# Indices 1 2 3 4 5 6 
#
# 1 0.014180 -0.006095 -0.004720 0.000000 0.000000 0.000000
# 2 -0.006095 0.023437 -0.010193 0.000000 0.000000 0.000000
# 3 -0.004720 -0.010193 0.021004 0.000000 0.000000 0.000000
# 4 0.000000 0.000000 0.000000 0.031507 0.000000 0.000000
# 5 0.000000 0.000000 0.000000 0.000000 0.031473 0.000000
# 6 0.000000 0.000000 0.000000 0.000000 0.000000 0.047389
#
#
# Mechanical properties :
#
#
# Convention : Reuss Voigt Hill
#
# Bulk Modulus (GPa) = 60.22528 61.52692 60.87610
# Shear Modulus (GPa) = 23.09036 24.97335 24.03185
#
# Velocity S-wave (km/s) = 3.52639 3.66736 3.59756
# Velocity P-wave (km/s) = 7.00108 7.14621 7.07402
#
# Compressibility (1/GPa) = 0.01660432
#
# Stress axis : x y z
#
# Youngs Moduli (GPa) = 70.52134 42.66797 47.61106
#
# Poissons Ratio (x) = 0.26008 0.22473
# Poissons Ratio (y) = 0.42986 0.48528
# Poissons Ratio (z) = 0.33286 0.43490
#
# Static dielectric constant tensor:
#      x y z
#    x 3.550860 0.000000 0.000000 
#    y 0.000000 3.328050 0.000000 
#    z 0.000000 0.000000 3.477600 
# 
# 
# High freq. dielectric constant tensor:
#      x y z
#    x 1.732460 0.000000 0.000000 
#    y 0.000000 1.705850 0.000000 
#    z 0.000000 0.000000 1.729900 
# 
# From -- ./inp_files/6992.got.cif
#   From: 2010.03.12/outbox.cif.g09.slc.cpg/sg57_4_cif.got.tgz:6992.got - 2010.04.16 15:48:40.
