data_PCOD8231981
_publ_section_title
;
Structure prediction by ZEFSAII (Michael W. Deem and Ramdas Pophale) SiO2 
 PCOD8231981
Probable space group: P B C M
;
_chemical_formula_sum "Si O2"
_cell_formula_units_Z 48
_cell_length_a 13.115417
_cell_length_b 12.563820
_cell_length_c 15.115955
_cell_angle_alpha 90.000000
_cell_angle_beta 90.000000
_cell_angle_gamma 90.000000
_cell_volume 2490.803111
_symmetry_space_group_name_H-M "P B C M"
_symmetry_group_IT_number 57
_symmetry_cell_setting 'orthorhombic'
loop_
_space_group_symop_operation_xyz
x,y,z
-x,-y,1/2+z
x,1/2-y,-z
-x,1/2+y,1/2-z
-x,-y,-z
x,y,1/2-z
-x,1/2+y,z
x,1/2-y,1/2+z
loop_
_atom_site_type_symbol
_atom_site_label
_atom_site_fract_x
_atom_site_fract_y
_atom_site_fract_z
Si Si1 0.376613 0.801494 0.750000
Si Si2 0.145333 0.863230 0.750000
Si Si3 0.911916 0.371740 0.250000
Si Si4 0.868125 0.628415 0.471044
Si Si5 0.973025 0.490363 0.617559
Si Si6 0.351474 0.036040 0.060274
Si Si7 0.438095 0.644069 0.054179
Si Si8 0.676960 0.064961 0.750000
O O1 0.262302 0.838666 0.750000
O O2 0.425988 0.846293 0.839924
O O3 0.386180 0.674350 0.750000
O O4 0.081876 0.754666 0.750000
O O5 0.120538 0.935459 0.833625
O O6 0.797156 0.415218 0.250000
O O7 0.972172 0.411235 0.164587
O O8 0.880058 0.750000 0.500000
O O9 0.917752 0.539485 0.533709
O O10 0.750548 0.603439 0.454459
O O11 0.941210 0.604144 0.387979
O O12 0.444955 0.113518 0.038839
O O13 0.356019 0.997583 0.161841
O O14 0.359414 0.940648 0.988897
O O15 0.413509 0.750000 0.000000
#
# Coordination Sequence:
#
# PCOD8231981 Si02
#       8
#     4   4   4   8   8   8   8   4
#     4  11  22  40  63  88 122 158 206 255 313 370
#     4  10  21  36  57  87 117 154 200 253 308 362
#     4  10  19  36  59  85 119 158 200 257 303 364
#     4  11  22  38  59  86 122 163 205 255 312 371
#     4  10  21  37  57  86 122 157 207 249 306 373
#     4  11  23  40  63  90 126 161 209 261 312 374
#     4  11  23  41  64  91 122 162 208 261 315 371
#     4  11  20  38  61  88 120 162 202 253 310 368
#
# _framework density 19.270893999999998
#
# number of rings (size 3 to 8) (size 9 to 14) (size 15 to 20)
#    0.000    1.333    3.333    3.000    0.000    0.000 
#    0.000    1.667    0.000    0.000    0.000    0.000 
#    0.000    0.000    0.000    0.000    0.000    0.000 
#
# Total GULP energy -594845.027334 kJ/mol
# GULP energy per Si atom -12392.604736 kJ/mol
# Density = 1.922703 g / cm^3
# Si number density = 19.270894 Si / 1000 Ang^3
#
#
#
# Elastic Constant Matrix: (Units=GPa)
#
#
# Indices 1 2 3 4 5 6 
#
# 1 70.1414 34.1742 16.0711 0.0000 0.0000 0.0000
# 2 34.1742 109.3015 27.0148 0.0000 0.0000 0.0000
# 3 16.0711 27.0148 93.6978 0.0000 0.0000 0.0000
# 4 0.0000 0.0000 0.0000 37.0067 0.0000 0.0000
# 5 0.0000 0.0000 0.0000 0.0000 49.9627 0.0000
# 6 0.0000 0.0000 0.0000 0.0000 0.0000 22.0055
#
#
#
# Elastic Compliance Matrix: (Units=1/GPa)
#
#
# Indices 1 2 3 4 5 6 
#
# 1 0.017010 -0.004950 -0.001490 0.000000 0.000000 0.000000
# 2 -0.004950 0.011291 -0.002407 0.000000 0.000000 0.000000
# 3 -0.001490 -0.002407 0.011622 0.000000 0.000000 0.000000
# 4 0.000000 0.000000 0.000000 0.027022 0.000000 0.000000
# 5 0.000000 0.000000 0.000000 0.000000 0.020015 0.000000
# 6 0.000000 0.000000 0.000000 0.000000 0.000000 0.045443
#
#
# Mechanical properties :
#
#
# Convention : Reuss Voigt Hill
#
# Bulk Modulus (GPa) = 44.98460 47.51787 46.25124
# Shear Modulus (GPa) = 31.74444 34.85367 33.29906
#
# Velocity S-wave (km/s) = 4.06307 4.25740 4.16137
# Velocity P-wave (km/s) = 6.73835 6.99132 6.86600
#
# Compressibility (1/GPa) = 0.02222983
#
# Stress axis : x y z
#
# Youngs Moduli (GPa) = 58.78838 88.56235 86.04302
#
# Poissons Ratio (x) = 0.43839 0.12824
# Poissons Ratio (y) = 0.29100 0.20706
# Poissons Ratio (z) = 0.08762 0.21313
#
# Static dielectric constant tensor:
#      x y z
#    x 3.562150 0.000000 0.000000 
#    y 0.000000 3.528770 0.000000 
#    z 0.000000 0.000000 3.667510 
# 
# 
# High freq. dielectric constant tensor:
#      x y z
#    x 1.756660 0.000000 0.000000 
#    y 0.000000 1.756080 0.000000 
#    z 0.000000 0.000000 1.757330 
# 
# From -- ./inp_files/21873.got.cif
#   From: 2010.03.12/outbox.cif.g09.slc.cpg/sg57_11_cif.got.tgz:21873.got - 2010.04.16 15:48:40.
