data_PCOD8231702
_publ_section_title
;
Structure prediction by ZEFSAII (Michael W. Deem and Ramdas Pophale) SiO2 
 PCOD8231702
Probable space group: P B C M
;
_chemical_formula_sum "Si O2"
_cell_formula_units_Z 48
_cell_length_a 16.729162
_cell_length_b 9.939371
_cell_length_c 15.387107
_cell_angle_alpha 90.000000
_cell_angle_beta 90.000000
_cell_angle_gamma 90.000000
_cell_volume 2558.527340
_symmetry_space_group_name_H-M "P B C M"
_symmetry_group_IT_number 57
_symmetry_cell_setting 'orthorhombic'
loop_
_space_group_symop_operation_xyz
x,y,z
-x,-y,1/2+z
x,1/2-y,-z
-x,1/2+y,1/2-z
-x,-y,-z
x,y,1/2-z
-x,1/2+y,z
x,1/2-y,1/2+z
loop_
_atom_site_type_symbol
_atom_site_label
_atom_site_fract_x
_atom_site_fract_y
_atom_site_fract_z
Si Si1 0.406262 0.564049 0.750000
Si Si2 0.977700 0.621349 0.559217
Si Si3 0.136414 0.821199 0.148293
Si Si4 0.841585 0.020580 0.350013
Si Si5 0.558054 0.381093 0.750000
Si Si6 0.298760 0.603450 0.593534
Si Si7 0.675524 0.415547 0.600722
O O1 0.471121 0.445834 0.750000
O O2 0.443174 0.716617 0.750000
O O3 0.351368 0.531932 0.666673
O O4 0.968492 0.750000 0.500000
O O5 0.892859 0.595298 0.604564
O O6 0.000000 0.500000 0.500000
O O7 0.046976 0.628859 0.631634
O O8 0.156679 0.823690 0.250000
O O9 0.139594 0.668698 0.110782
O O10 0.202305 0.919770 0.101108
O O11 0.864425 0.017641 0.250000
O O12 0.747684 0.990918 0.364822
O O13 0.599135 0.440508 0.662175
O O14 0.336735 0.555076 0.501910
O O15 0.302889 0.760994 0.612204
#
# Coordination Sequence:
#
# PCOD8231702 Si02
#       7
#     4   8   8   8   4   8   8
#     4  10  20  36  58  87 116 142 184 233 288 344
#     4  12  23  36  53  82 118 151 191 237 286 334
#     4  10  19  34  56  82 111 146 197 246 278 325
#     4  10  19  35  58  81 111 149 196 238 282 336
#     4  10  20  36  60  85 112 146 182 235 284 348
#     4   9  17  31  56  87 109 143 193 239 272 332
#     4   9  17  32  58  83 109 147 192 230 282 339
#
# _framework density 18.760794000000001
#
# number of rings (size 3 to 8) (size 9 to 14) (size 15 to 20)
#    0.000    2.000    3.333    1.500    2.333    0.667 
#    0.000    0.000    7.333    0.000    0.000    0.000 
#    0.000    0.000    0.000    0.000    0.000    0.000 
#
# Total GULP energy -594882.059396 kJ/mol
# GULP energy per Si atom -12393.376237 kJ/mol
# Density = 1.871809 g / cm^3
# Si number density = 18.760794 Si / 1000 Ang^3
#
#
#
# Elastic Constant Matrix: (Units=GPa)
#
#
# Indices 1 2 3 4 5 6 
#
# 1 98.4614 25.5703 32.0434 0.0000 0.0000 0.0000
# 2 25.5703 51.6288 20.7044 0.0000 0.0000 0.0000
# 3 32.0434 20.7044 98.4515 0.0000 0.0000 0.0000
# 4 0.0000 0.0000 0.0000 17.7269 0.0000 0.0000
# 5 0.0000 0.0000 0.0000 0.0000 27.8484 0.0000
# 6 0.0000 0.0000 0.0000 0.0000 0.0000 31.6295
#
#
#
# Elastic Compliance Matrix: (Units=1/GPa)
#
#
# Indices 1 2 3 4 5 6 
#
# 1 0.012418 -0.004946 -0.003001 0.000000 0.000000 0.000000
# 2 -0.004946 0.023123 -0.003253 0.000000 0.000000 0.000000
# 3 -0.003001 -0.003253 0.011818 0.000000 0.000000 0.000000
# 4 0.000000 0.000000 0.000000 0.056412 0.000000 0.000000
# 5 0.000000 0.000000 0.000000 0.000000 0.035909 0.000000
# 6 0.000000 0.000000 0.000000 0.000000 0.000000 0.031616
#
#
# Mechanical properties :
#
#
# Convention : Reuss Voigt Hill
#
# Bulk Modulus (GPa) = 40.06774 45.01977 42.54375
# Shear Modulus (GPa) = 24.75049 26.78921 25.76985
#
# Velocity S-wave (km/s) = 3.63611 3.78290 3.71023
# Velocity P-wave (km/s) = 6.24755 6.56729 6.40942
#
# Compressibility (1/GPa) = 0.02495774
#
# Stress axis : x y z
#
# Youngs Moduli (GPa) = 80.53068 43.24627 84.61504
#
# Poissons Ratio (x) = 0.21392 0.25396
# Poissons Ratio (y) = 0.39834 0.27524
# Poissons Ratio (z) = 0.24170 0.14068
#
# Static dielectric constant tensor:
#      x y z
#    x 3.376820 0.000000 0.000000 
#    y 0.000000 3.246010 0.000000 
#    z 0.000000 0.000000 14.423900 
# 
# 
# High freq. dielectric constant tensor:
#      x y z
#    x 1.728730 0.000000 0.000000 
#    y 0.000000 1.673890 0.000000 
#    z 0.000000 0.000000 1.745870 
# 
# From -- ./inp_files/18442.got.cif
#   From: 2010.03.12/outbox.cif.g09.slc.cpg/sg57_10_cif.got.tgz:18442.got - 2010.04.16 15:48:40.
