data_PCOD8231243
_publ_section_title
;
Structure prediction by ZEFSAII (Michael W. Deem and Ramdas Pophale) SiO2 
 PCOD8231243
Probable space group: P B C M
;
_chemical_formula_sum "Si O2"
_cell_formula_units_Z 64
_cell_length_a 16.992011
_cell_length_b 21.501619
_cell_length_c 8.765274
_cell_angle_alpha 90.000000
_cell_angle_beta 90.000000
_cell_angle_gamma 90.000000
_cell_volume 3202.443226
_symmetry_space_group_name_H-M "P B C M"
_symmetry_group_IT_number 57
_symmetry_cell_setting 'orthorhombic'
loop_
_space_group_symop_operation_xyz
x,y,z
-x,-y,1/2+z
x,1/2-y,-z
-x,1/2+y,1/2-z
-x,-y,-z
x,y,1/2-z
-x,1/2+y,z
x,1/2-y,1/2+z
loop_
_atom_site_type_symbol
_atom_site_label
_atom_site_fract_x
_atom_site_fract_y
_atom_site_fract_z
Si Si1 0.021366 0.415707 0.424081
Si Si2 0.850848 0.809312 0.422965
Si Si3 0.274225 0.383347 0.569906
Si Si4 0.700577 0.182466 0.932917
Si Si5 0.848679 0.519650 0.420374
Si Si6 0.578907 0.936492 0.071574
Si Si7 0.413394 0.578275 0.070928
Si Si8 0.145105 0.881027 0.421405
O O1 0.000173 0.434577 0.250000
O O2 0.086788 0.363595 0.435882
O O3 0.063866 0.475319 0.503184
O O4 0.941200 0.387807 0.502196
O O5 0.891984 0.750000 0.500000
O O6 0.826696 0.796409 0.250000
O O7 0.771439 0.821181 0.521016
O O8 0.290598 0.386270 0.750000
O O9 0.219388 0.439205 0.504145
O O10 0.354860 0.387704 0.477658
O O11 0.699005 0.184969 0.750000
O O12 0.789168 0.164652 0.994925
O O13 0.677339 0.250000 0.000000
O O14 0.640465 0.128799 0.985086
O O15 0.860061 0.544826 0.250000
O O16 0.817167 0.449606 0.425699
O O17 0.560016 0.931928 0.250000
O O18 0.607687 0.006554 0.028213
O O19 0.503354 0.913471 0.978759
O O20 0.404428 0.590646 0.250000
O O21 0.130561 0.857233 0.250000
#
# Coordination Sequence:
#
# PCOD8231243 Si02
#       8
#     8   8   8   8   8   8   8   8
#     4   9  18  32  50  74 104 138 177 224 276 324
#     4  10  20  34  51  71  99 137 179 222 268 318
#     4  10  19  32  52  79 110 142 175 213 261 317
#     4  11  23  40  59  79 109 149 192 235 279 327
#     4   9  17  30  50  77 108 141 176 216 268 325
#     4  10  20  35  59  90 118 142 174 217 265 320
#     4  10  21  38  60  86 115 146 180 219 267 321
#     4   9  18  33  53  76 104 140 180 223 271 322
#
# _framework density 19.984741
#
# number of rings (size 3 to 8) (size 9 to 14) (size 15 to 20)
#    0.000    2.250    0.000    3.000    0.000    4.000 
#    0.000    3.125    0.000    0.000    0.000    0.000 
#    0.000    0.000    0.000    0.000    0.000    0.000 
#
# Total GULP energy -793039.377832 kJ/mol
# GULP energy per Si atom -12391.240279 kJ/mol
# Density = 1.993925 g / cm^3
# Si number density = 19.984741 Si / 1000 Ang^3
#
#
#
# Elastic Constant Matrix: (Units=GPa)
#
#
# Indices 1 2 3 4 5 6 
#
# 1 94.8412 21.9401 25.0526 0.0000 0.0000 0.0000
# 2 21.9401 50.8238 18.6591 0.0000 0.0000 0.0000
# 3 25.0526 18.6591 57.3041 0.0000 0.0000 0.0000
# 4 0.0000 0.0000 0.0000 28.2246 0.0000 0.0000
# 5 0.0000 0.0000 0.0000 0.0000 25.5603 0.0000
# 6 0.0000 0.0000 0.0000 0.0000 0.0000 12.4860
#
#
#
# Elastic Compliance Matrix: (Units=1/GPa)
#
#
# Indices 1 2 3 4 5 6 
#
# 1 0.012556 -0.003867 -0.004230 0.000000 0.000000 0.000000
# 2 -0.003867 0.023538 -0.005974 0.000000 0.000000 0.000000
# 3 -0.004230 -0.005974 0.021245 0.000000 0.000000 0.000000
# 4 0.000000 0.000000 0.000000 0.035430 0.000000 0.000000
# 5 0.000000 0.000000 0.000000 0.000000 0.039123 0.000000
# 6 0.000000 0.000000 0.000000 0.000000 0.000000 0.080090
#
#
# Mechanical properties :
#
#
# Convention : Reuss Voigt Hill
#
# Bulk Modulus (GPa) = 34.24955 37.14141 35.69548
# Shear Modulus (GPa) = 20.01143 22.40867 21.21005
#
# Velocity S-wave (km/s) = 3.16782 3.35220 3.26131
# Velocity P-wave (km/s) = 5.52767 5.79726 5.66407
#
# Compressibility (1/GPa) = 0.02919746
#
# Stress axis : x y z
#
# Youngs Moduli (GPa) = 79.64344 42.48368 47.06937
#
# Poissons Ratio (x) = 0.16430 0.19911
# Poissons Ratio (y) = 0.30800 0.28118
# Poissons Ratio (z) = 0.33690 0.25379
#
# Static dielectric constant tensor:
#      x y z
#    x 3.741580 0.000000 0.000000 
#    y 0.000000 3.599510 0.000000 
#    z 0.000000 0.000000 3.577720 
# 
# 
# High freq. dielectric constant tensor:
#      x y z
#    x 1.787000 0.000000 0.000000 
#    y 0.000000 1.768140 0.000000 
#    z 0.000000 0.000000 1.766310 
# 
# From -- ./inp_files/5534.got.cif
#   From: 2010.03.12/outbox.cif.g09.slc.cpg/sg57_3_cif.got.tgz:5534.got - 2010.04.16 15:48:40.
