data_PCOD8231878
_publ_section_title
;
Structure prediction by ZEFSAII (Michael W. Deem and Ramdas Pophale) SiO2 
 PCOD8231878
Probable space group: P B C M
;
_chemical_formula_sum "Si O2"
_cell_formula_units_Z 48
_cell_length_a 13.195748
_cell_length_b 10.366407
_cell_length_c 18.557535
_cell_angle_alpha 90.000000
_cell_angle_beta 90.000000
_cell_angle_gamma 90.000000
_cell_volume 2538.531503
_symmetry_space_group_name_H-M "P B C M"
_symmetry_group_IT_number 57
_symmetry_cell_setting 'orthorhombic'
loop_
_space_group_symop_operation_xyz
x,y,z
-x,-y,1/2+z
x,1/2-y,-z
-x,1/2+y,1/2-z
-x,-y,-z
x,y,1/2-z
-x,1/2+y,z
x,1/2-y,1/2+z
loop_
_atom_site_type_symbol
_atom_site_label
_atom_site_fract_x
_atom_site_fract_y
_atom_site_fract_z
Si Si1 0.432360 0.145937 0.060972
Si Si2 0.969370 0.496389 0.389610
Si Si3 0.085674 0.237398 0.669047
Si Si4 0.360190 0.966620 0.943602
Si Si5 0.857363 0.106003 0.484714
Si Si6 0.310268 0.192317 0.662909
O O1 0.373953 0.183733 0.134608
O O2 0.551246 0.131688 0.080021
O O3 0.413584 0.250000 0.000000
O O4 0.387497 0.017406 0.024023
O O5 0.940405 0.610375 0.334817
O O6 0.873520 0.478910 0.442979
O O7 0.995150 0.355139 0.358039
O O8 0.071635 0.543033 0.425972
O O9 0.101478 0.197806 0.750000
O O10 0.195179 0.209402 0.633590
O O11 0.354152 0.067528 0.877774
O O12 0.255563 0.890981 0.953661
O O13 0.895100 0.250000 0.500000
O O14 0.320929 0.181065 0.750000
#
# Coordination Sequence:
#
# PCOD8231878 Si02
#       6
#     8   8   8   8   8   8
#     4   9  19  35  56  82 109 145 186 241 297 346
#     4  11  22  37  56  87 114 154 198 240 296 345
#     4  11  22  39  59  82 118 158 197 239 293 359
#     4  10  19  35  58  83 111 147 192 242 293 348
#     4  11  21  34  57  84 117 146 191 251 289 344
#     4  10  21  36  56  82 113 152 192 238 295 357
#
# _framework density 18.908570999999998
#
# number of rings (size 3 to 8) (size 9 to 14) (size 15 to 20)
#    0.000    1.667    3.333    2.000    0.000    0.667 
#    0.000    0.000    0.000    0.000    0.000    0.000 
#    0.000    0.000    0.000    0.000    0.000    0.000 
#
# Total GULP energy -594800.757016 kJ/mol
# GULP energy per Si atom -12391.682438 kJ/mol
# Density = 1.886553 g / cm^3
# Si number density = 18.908571 Si / 1000 Ang^3
#
#
#
# Elastic Constant Matrix: (Units=GPa)
#
#
# Indices 1 2 3 4 5 6 
#
# 1 85.2584 12.3566 24.8971 0.0000 0.0000 0.0000
# 2 12.3566 50.6647 13.8485 0.0000 0.0000 0.0000
# 3 24.8971 13.8485 73.2176 0.0000 0.0000 0.0000
# 4 0.0000 0.0000 0.0000 21.8667 0.0000 0.0000
# 5 0.0000 0.0000 0.0000 0.0000 118.3893 0.0000
# 6 0.0000 0.0000 0.0000 0.0000 0.0000 32.0647
#
#
#
# Elastic Compliance Matrix: (Units=1/GPa)
#
#
# Indices 1 2 3 4 5 6 
#
# 1 0.013232 -0.002106 -0.004101 0.000000 0.000000 0.000000
# 2 -0.002106 0.021149 -0.003284 0.000000 0.000000 0.000000
# 3 -0.004101 -0.003284 0.015674 0.000000 0.000000 0.000000
# 4 0.000000 0.000000 0.000000 0.045732 0.000000 0.000000
# 5 0.000000 0.000000 0.000000 0.000000 0.008447 0.000000
# 6 0.000000 0.000000 0.000000 0.000000 0.000000 0.031187
#
#
# Mechanical properties :
#
#
# Convention : Reuss Voigt Hill
#
# Bulk Modulus (GPa) = 32.18325 34.59389 33.38857
# Shear Modulus (GPa) = 30.34729 45.00004 37.67367
#
# Velocity S-wave (km/s) = 4.01053 4.88369 4.46849
# Velocity P-wave (km/s) = 6.20509 7.08065 6.65728
#
# Compressibility (1/GPa) = 0.03107206
#
# Stress axis : x y z
#
# Youngs Moduli (GPa) = 75.57505 47.28376 63.80159
#
# Poissons Ratio (x) = 0.09959 0.26165
# Poissons Ratio (y) = 0.15917 0.20952
# Poissons Ratio (z) = 0.30994 0.15528
#
# Static dielectric constant tensor:
#      x y z
#    x 3.553540 0.000000 0.000000 
#    y 0.000000 3.650260 0.000000 
#    z 0.000000 0.000000 3.362310 
# 
# 
# High freq. dielectric constant tensor:
#      x y z
#    x 1.741400 0.000000 0.000000 
#    y 0.000000 1.733810 0.000000 
#    z 0.000000 0.000000 1.718430 
# 
# From -- ./inp_files/21839.got.cif
#   From: 2010.03.12/outbox.cif.g09.slc.cpg/sg57_11_cif.got.tgz:21839.got - 2010.04.16 15:48:40.
