data_PCOD8231005
_publ_section_title
;
Structure prediction by ZEFSAII (Michael W. Deem and Ramdas Pophale) SiO2 
 PCOD8231005
Probable space group: P B C M
;
_chemical_formula_sum "Si O2"
_cell_formula_units_Z 64
_cell_length_a 24.738735
_cell_length_b 14.399037
_cell_length_c 9.133774
_cell_angle_alpha 90.000000
_cell_angle_beta 90.000000
_cell_angle_gamma 90.000000
_cell_volume 3253.577812
_symmetry_space_group_name_H-M "P B C M"
_symmetry_group_IT_number 57
_symmetry_cell_setting 'orthorhombic'
loop_
_space_group_symop_operation_xyz
x,y,z
-x,-y,1/2+z
x,1/2-y,-z
-x,1/2+y,1/2-z
-x,-y,-z
x,y,1/2-z
-x,1/2+y,z
x,1/2-y,1/2+z
loop_
_atom_site_type_symbol
_atom_site_label
_atom_site_fract_x
_atom_site_fract_y
_atom_site_fract_z
Si Si1 0.463677 0.622284 0.413737
Si Si2 0.564004 0.908645 0.086691
Si Si3 0.356741 0.837507 0.421914
Si Si4 0.776433 0.651811 0.078238
Si Si5 0.668989 0.955972 0.578772
Si Si6 0.117963 0.459493 0.579247
Si Si7 0.909082 0.161036 0.582173
Si Si8 0.967037 0.657410 0.922506
O O1 0.460899 0.665646 0.250000
O O2 0.457200 0.512643 0.401152
O O3 0.520962 0.648407 0.488907
O O4 0.417632 0.663014 0.517700
O O5 0.568622 0.865562 0.250000
O O6 0.622341 0.903742 0.010227
O O7 0.326392 0.750000 0.500000
O O8 0.357491 0.820148 0.250000
O O9 0.327476 0.934535 0.461762
O O10 0.777457 0.670130 0.250000
O O11 0.724956 0.590876 0.032405
O O12 0.828777 0.594403 0.027260
O O13 0.774993 0.750000 0.000000
O O14 0.656051 0.944630 0.750000
O O15 0.105197 0.442381 0.750000
O O16 0.126344 0.569417 0.549468
O O17 0.066940 0.428254 0.484185
O O18 0.884243 0.250000 0.500000
O O19 0.907496 0.188687 0.750000
O O20 0.970758 0.141237 0.533589
O O21 0.958209 0.666058 0.750000
O O22 0.944519 0.750000 0.000000
#
# Coordination Sequence:
#
# PCOD8231005 Si02
#       8
#     8   8   8   8   8   8   8   8
#     4   9  16  27  45  71 103 136 169 206 250 302
#     4   9  16  27  47  74 101 131 169 212 256 302
#     4  10  19  32  51  75 105 138 172 210 254 307
#     4  10  22  40  60  80 103 132 170 218 269 317
#     4   9  19  36  55  74 100 137 175 213 262 315
#     4  10  20  35  55  79 108 142 180 223 270 317
#     4   9  19  34  52  77 111 148 182 218 262 314
#     4  10  19  31  50  78 111 146 183 222 265 315
#
# _framework density 19.670652
#
# number of rings (size 3 to 8) (size 9 to 14) (size 15 to 20)
#    0.000    2.500    0.000    2.250    0.000    6.500 
#    0.000    1.250    0.000    1.500    0.000    0.000 
#    0.000    0.000    0.000    0.000    0.000    0.000 
#
# Total GULP energy -793554.204015 kJ/mol
# GULP energy per Si atom -12399.284438 kJ/mol
# Density = 1.962588 g / cm^3
# Si number density = 19.670652 Si / 1000 Ang^3
#
#
#
# Elastic Constant Matrix: (Units=GPa)
#
#
# Indices 1 2 3 4 5 6 
#
# 1 82.8635 55.0352 38.7915 0.0000 0.0000 0.0000
# 2 55.0352 120.7608 47.4526 0.0000 0.0000 0.0000
# 3 38.7915 47.4526 82.9076 0.0000 0.0000 0.0000
# 4 0.0000 0.0000 0.0000 33.0715 0.0000 0.0000
# 5 0.0000 0.0000 0.0000 0.0000 19.5024 0.0000
# 6 0.0000 0.0000 0.0000 0.0000 0.0000 17.3869
#
#
#
# Elastic Compliance Matrix: (Units=1/GPa)
#
#
# Indices 1 2 3 4 5 6 
#
# 1 0.018798 -0.006594 -0.005021 0.000000 0.000000 0.000000
# 2 -0.006594 0.012997 -0.004353 0.000000 0.000000 0.000000
# 3 -0.005021 -0.004353 0.016903 0.000000 0.000000 0.000000
# 4 0.000000 0.000000 0.000000 0.030238 0.000000 0.000000
# 5 0.000000 0.000000 0.000000 0.000000 0.051276 0.000000
# 6 0.000000 0.000000 0.000000 0.000000 0.000000 0.057515
#
#
# Mechanical properties :
#
#
# Convention : Reuss Voigt Hill
#
# Bulk Modulus (GPa) = 59.66561 63.23228 61.44895
# Shear Modulus (GPa) = 22.19759 23.67567 22.93663
#
# Velocity S-wave (km/s) = 3.36290 3.47306 3.41843
# Velocity P-wave (km/s) = 6.74366 6.94969 6.84745
#
# Compressibility (1/GPa) = 0.01676007
#
# Stress axis : x y z
#
# Youngs Moduli (GPa) = 53.19658 76.94319 59.16174
#
# Poissons Ratio (x) = 0.50736 0.29708
# Poissons Ratio (y) = 0.35077 0.25756
# Poissons Ratio (z) = 0.26712 0.33497
#
# Static dielectric constant tensor:
#      x y z
#    x 3.408020 0.000000 0.000000 
#    y 0.000000 3.705640 0.000000 
#    z 0.000000 0.000000 3.640910 
# 
# 
# High freq. dielectric constant tensor:
#      x y z
#    x 1.740400 0.000000 0.000000 
#    y 0.000000 1.769200 0.000000 
#    z 0.000000 0.000000 1.769470 
# 
# From -- ./inp_files/9308.got.cif
#   From: 2010.03.12/outbox.cif.g09.slc.cpg/sg57_5_cif.got.tgz:9308.got - 2010.04.16 15:48:40.
