data_PCOD8231419
_publ_section_title
;
Structure prediction by ZEFSAII (Michael W. Deem and Ramdas Pophale) SiO2 
 PCOD8231419
Probable space group: P B C M
;
_chemical_formula_sum "Si O2"
_cell_formula_units_Z 64
_cell_length_a 20.380045
_cell_length_b 19.059276
_cell_length_c 9.322397
_cell_angle_alpha 90.000000
_cell_angle_beta 90.000000
_cell_angle_gamma 90.000000
_cell_volume 3621.088436
_symmetry_space_group_name_H-M "P B C M"
_symmetry_group_IT_number 57
_symmetry_cell_setting 'orthorhombic'
loop_
_space_group_symop_operation_xyz
x,y,z
-x,-y,1/2+z
x,1/2-y,-z
-x,1/2+y,1/2-z
-x,-y,-z
x,y,1/2-z
-x,1/2+y,z
x,1/2-y,1/2+z
loop_
_atom_site_type_symbol
_atom_site_label
_atom_site_fract_x
_atom_site_fract_y
_atom_site_fract_z
Si Si1 0.010235 0.315301 0.913660
Si Si2 0.178371 0.530009 0.084060
Si Si3 0.860548 0.317316 0.916189
Si Si4 0.356817 0.320825 0.579900
Si Si5 0.059779 0.034447 0.417483
Si Si6 0.685845 0.546151 0.583438
Si Si7 0.557498 0.036155 0.084074
Si Si8 0.507790 0.183641 0.085794
O O1 0.010205 0.292090 0.750000
O O2 0.935773 0.332272 0.963113
O O3 0.056089 0.382074 0.940188
O O4 0.040151 0.250000 0.000000
O O5 0.156687 0.520629 0.250000
O O6 0.180621 0.612802 0.045767
O O7 0.248740 0.497181 0.053171
O O8 0.127979 0.490463 0.982073
O O9 0.855079 0.298941 0.750000
O O10 0.831789 0.250000 0.000000
O O11 0.333855 0.250000 0.500000
O O12 0.343770 0.314608 0.750000
O O13 0.314721 0.384646 0.514727
O O14 0.433021 0.335750 0.543467
O O15 0.055216 0.014533 0.250000
O O16 0.000000 0.000000 0.500000
O O17 0.679981 0.568278 0.750000
O O18 0.627177 0.494537 0.536771
O O19 0.543275 0.022448 0.250000
O O20 0.555702 0.119059 0.050295
O O21 0.500000 0.000000 0.000000
O O22 0.510340 0.205666 0.250000
O O23 0.534653 0.250000 0.000000
#
# Coordination Sequence:
#
# PCOD8231419 Si02
#       8
#     8   8   8   8   8   8   8   8
#     4   9  18  32  51  78 107 135 172 216 264 312
#     4  10  21  38  55  78 111 146 181 221 269 323
#     4   9  17  32  52  75 105 137 174 217 260 311
#     4  10  19  33  54  79 108 139 179 226 271 325
#     4  11  21  35  56  82 109 139 178 223 269 320
#     4  10  21  36  56  79 109 147 183 221 273 327
#     4  10  19  33  53  79 106 137 178 221 268 320
#     4   9  18  31  49  76 107 138 174 221 272 320
#
# _framework density 17.674244000000002
#
# number of rings (size 3 to 8) (size 9 to 14) (size 15 to 20)
#    0.000    2.250    2.500    0.750    0.000    3.000 
#    0.000    1.250    0.000    1.500    0.000    0.000 
#    0.000    0.000    0.000    0.000    0.000    0.000 
#
# Total GULP energy -793657.658301 kJ/mol
# GULP energy per Si atom -12400.900911 kJ/mol
# Density = 1.763402 g / cm^3
# Si number density = 17.674244 Si / 1000 Ang^3
#
#
#
# Elastic Constant Matrix: (Units=GPa)
#
#
# Indices 1 2 3 4 5 6 
#
# 1 89.8608 63.4161 51.5766 0.0000 0.0000 0.0000
# 2 63.4161 151.9714 77.4819 0.0000 0.0000 0.0000
# 3 51.5766 77.4819 86.7911 0.0000 0.0000 0.0000
# 4 0.0000 0.0000 0.0000 37.5174 0.0000 0.0000
# 5 0.0000 0.0000 0.0000 0.0000 20.6716 0.0000
# 6 0.0000 0.0000 0.0000 0.0000 0.0000 24.9925
#
#
#
# Elastic Compliance Matrix: (Units=1/GPa)
#
#
# Indices 1 2 3 4 5 6 
#
# 1 0.017997 -0.003776 -0.007324 0.000000 0.000000 0.000000
# 2 -0.003776 0.012869 -0.009245 0.000000 0.000000 0.000000
# 3 -0.007324 -0.009245 0.024128 0.000000 0.000000 0.000000
# 4 0.000000 0.000000 0.000000 0.026654 0.000000 0.000000
# 5 0.000000 0.000000 0.000000 0.000000 0.048376 0.000000
# 6 0.000000 0.000000 0.000000 0.000000 0.000000 0.040012
#
#
# Mechanical properties :
#
#
# Convention : Reuss Voigt Hill
#
# Bulk Modulus (GPa) = 69.91051 79.28583 74.59817
# Shear Modulus (GPa) = 23.20254 25.71287 24.45770
#
# Velocity S-wave (km/s) = 3.62717 3.81835 3.72399
# Velocity P-wave (km/s) = 7.56193 8.02475 7.79677
#
# Compressibility (1/GPa) = 0.01430400
#
# Stress axis : x y z
#
# Youngs Moduli (GPa) = 55.56630 77.70362 41.44583
#
# Poissons Ratio (x) = 0.29338 0.30355
# Poissons Ratio (y) = 0.20980 0.38318
# Poissons Ratio (z) = 0.40696 0.71839
#
# Static dielectric constant tensor:
#      x y z
#    x 3.127570 0.000000 0.000000 
#    y 0.000000 3.395210 0.000000 
#    z 0.000000 0.000000 3.328920 
# 
# 
# High freq. dielectric constant tensor:
#      x y z
#    x 1.652660 0.000000 0.000000 
#    y 0.000000 1.695780 0.000000 
#    z 0.000000 0.000000 1.686220 
# 
# From -- ./inp_files/7269.got.cif
#   From: 2010.03.12/outbox.cif.g09.slc.cpg/sg57_4_cif.got.tgz:7269.got - 2010.04.16 15:48:40.
