data_PCOD8231327
_publ_section_title
;
Structure prediction by ZEFSAII (Michael W. Deem and Ramdas Pophale) SiO2 
 PCOD8231327
Probable space group: P B C M
;
_chemical_formula_sum "Si O2"
_cell_formula_units_Z 64
_cell_length_a 15.365165
_cell_length_b 28.246850
_cell_length_c 8.980416
_cell_angle_alpha 90.000000
_cell_angle_beta 90.000000
_cell_angle_gamma 90.000000
_cell_volume 3897.657800
_symmetry_space_group_name_H-M "P B C M"
_symmetry_group_IT_number 57
_symmetry_cell_setting 'orthorhombic'
loop_
_space_group_symop_operation_xyz
x,y,z
-x,-y,1/2+z
x,1/2-y,-z
-x,1/2+y,1/2-z
-x,-y,-z
x,y,1/2-z
-x,1/2+y,z
x,1/2-y,1/2+z
loop_
_atom_site_type_symbol
_atom_site_label
_atom_site_fract_x
_atom_site_fract_y
_atom_site_fract_z
Si Si1 0.819743 0.948223 0.424035
Si Si2 0.820362 0.058277 0.420644
Si Si3 0.412664 0.703163 0.576053
Si Si4 0.012156 0.049440 0.078439
Si Si5 0.511597 0.450036 0.575804
Si Si6 0.665780 0.395776 0.077603
Si Si7 0.664334 0.896914 0.920721
Si Si8 0.596234 0.796846 0.575946
O O1 0.833204 0.942494 0.250000
O O2 0.904984 0.924877 0.502702
O O3 0.735108 0.919740 0.472667
O O4 0.809999 0.003314 0.468842
O O5 0.790228 0.064143 0.250000
O O6 0.762598 0.090918 0.526712
O O7 0.920111 0.076719 0.439885
O O8 0.371732 0.750000 0.500000
O O9 0.428040 0.712434 0.750000
O O10 0.347000 0.659947 0.548273
O O11 0.504578 0.691136 0.500478
O O12 0.034050 0.040998 0.250000
O O13 0.000000 0.000000 0.000000
O O14 0.500000 0.500000 0.500000
O O15 0.522512 0.457885 0.750000
O O16 0.598298 0.426046 0.516357
O O17 0.429665 0.417367 0.536701
O O18 0.652916 0.408436 0.250000
O O19 0.687682 0.908832 0.750000
O O20 0.662018 0.840484 0.948215
O O21 0.637570 0.750000 0.500000
O O22 0.579752 0.787800 0.750000
#
# Coordination Sequence:
#
# PCOD8231327 Si02
#       8
#     8   8   8   8   8   8   8   8
#     4  10  20  32  49  73  99 129 165 202 241 285
#     4   9  19  33  49  71  98 131 165 199 239 285
#     4  10  20  33  50  71  94 123 161 203 247 290
#     4   9  17  31  50  71  96 126 162 202 244 286
#     4  11  22  35  48  65  95 133 169 201 236 281
#     4  11  22  33  48  72  98 128 164 201 242 288
#     4  10  21  34  48  68  96 130 164 198 241 289
#     4  10  19  33  51  71  93 123 161 203 250 291
#
# _framework density 16.420117000000001
#
# number of rings (size 3 to 8) (size 9 to 14) (size 15 to 20)
#    0.000    2.000    1.250    4.500    0.000    8.500 
#    0.000    0.000    0.000    0.000    0.000    0.875 
#    0.000    6.000    0.000    0.000    0.000    0.000 
#
# Total GULP energy -793537.278862 kJ/mol
# GULP energy per Si atom -12399.019982 kJ/mol
# Density = 1.638274 g / cm^3
# Si number density = 16.420117 Si / 1000 Ang^3
#
#
#
# Elastic Constant Matrix: (Units=GPa)
#
#
# Indices 1 2 3 4 5 6 
#
# 1 76.2590 27.2539 46.9837 0.0000 0.0000 0.0000
# 2 27.2539 79.7412 45.2679 0.0000 0.0000 0.0000
# 3 46.9837 45.2679 103.7341 0.0000 0.0000 0.0000
# 4 0.0000 0.0000 0.0000 26.2737 0.0000 0.0000
# 5 0.0000 0.0000 0.0000 0.0000 31.2839 0.0000
# 6 0.0000 0.0000 0.0000 0.0000 0.0000 6.5824
#
#
#
# Elastic Compliance Matrix: (Units=1/GPa)
#
#
# Indices 1 2 3 4 5 6 
#
# 1 0.018444 -0.002076 -0.007448 0.000000 0.000000 0.000000
# 2 -0.002076 0.016904 -0.006436 0.000000 0.000000 0.000000
# 3 -0.007448 -0.006436 0.015822 0.000000 0.000000 0.000000
# 4 0.000000 0.000000 0.000000 0.038061 0.000000 0.000000
# 5 0.000000 0.000000 0.000000 0.000000 0.031965 0.000000
# 6 0.000000 0.000000 0.000000 0.000000 0.000000 0.151919
#
#
# Mechanical properties :
#
#
# Convention : Reuss Voigt Hill
#
# Bulk Modulus (GPa) = 51.94864 55.41613 53.68239
# Shear Modulus (GPa) = 16.05388 22.17661 19.11525
#
# Velocity S-wave (km/s) = 3.13020 3.67901 3.41564
# Velocity P-wave (km/s) = 6.69105 7.20201 6.95123
#
# Compressibility (1/GPa) = 0.01924978
#
# Stress axis : x y z
#
# Youngs Moduli (GPa) = 54.21923 59.15803 63.20283
#
# Poissons Ratio (x) = 0.12279 0.47072
# Poissons Ratio (y) = 0.11254 0.40680
# Poissons Ratio (z) = 0.40381 0.38077
#
# Static dielectric constant tensor:
#      x y z
#    x 3.200990 0.000000 0.000000 
#    y 0.000000 2.826220 0.000000 
#    z 0.000000 0.000000 3.268380 
# 
# 
# High freq. dielectric constant tensor:
#      x y z
#    x 1.620060 0.000000 0.000000 
#    y 0.000000 1.610040 0.000000 
#    z 0.000000 0.000000 1.650610 
# 
# From -- ./inp_files/6020.got.cif
#   From: 2010.03.12/outbox.cif.g09.slc.cpg/sg57_4_cif.got.tgz:6020.got - 2010.04.16 15:48:40.
