data_PCOD8231742
_publ_section_title
;
Structure prediction by ZEFSAII (Michael W. Deem and Ramdas Pophale) SiO2 
 PCOD8231742
Probable space group: P B C M
;
_chemical_formula_sum "Si O2"
_cell_formula_units_Z 64
_cell_length_a 11.769412
_cell_length_b 18.575211
_cell_length_c 15.646786
_cell_angle_alpha 90.000000
_cell_angle_beta 90.000000
_cell_angle_gamma 90.000000
_cell_volume 3420.689579
_symmetry_space_group_name_H-M "P B C M"
_symmetry_group_IT_number 57
_symmetry_cell_setting 'orthorhombic'
loop_
_space_group_symop_operation_xyz
x,y,z
-x,-y,1/2+z
x,1/2-y,-z
-x,1/2+y,1/2-z
-x,-y,-z
x,y,1/2-z
-x,1/2+y,z
x,1/2-y,1/2+z
loop_
_atom_site_type_symbol
_atom_site_label
_atom_site_fract_x
_atom_site_fract_y
_atom_site_fract_z
Si Si1 0.252611 0.219930 0.371411
Si Si2 0.014091 0.415506 0.495656
Si Si3 0.751438 0.859203 0.045961
Si Si4 0.489952 0.083928 0.989221
Si Si5 0.616468 0.325937 0.348668
Si Si6 0.498540 0.176132 0.155999
Si Si7 0.142634 0.702471 0.579892
Si Si8 0.986835 0.677863 0.158992
O O1 0.233352 0.192291 0.466103
O O2 0.264167 0.307073 0.372225
O O3 0.364307 0.185530 0.330769
O O4 0.142550 0.198325 0.318528
O O5 0.134160 0.405680 0.447320
O O6 0.009046 0.387147 0.592579
O O7 0.000000 0.500000 0.500000
O O8 0.914846 0.373688 0.445012
O O9 0.640616 0.907399 0.036466
O O10 0.524720 0.120585 0.079655
O O11 0.570527 0.113102 0.913370
O O12 0.500000 0.000000 0.000000
O O13 0.593842 0.348649 0.250000
O O14 0.553871 0.251580 0.371396
O O15 0.751007 0.315812 0.360507
O O16 0.545744 0.150638 0.250000
O O17 0.186305 0.750000 0.500000
O O18 0.049471 0.750311 0.627722
O O19 0.040507 0.652654 0.250000
#
# Coordination Sequence:
#
# PCOD8231742 Si02
#       8
#     8   8   8   8   8   8   8   8
#     4   9  15  31  58  85 109 135 182 242 286 321
#     4  10  21  36  58  82 115 155 189 225 283 351
#     4   9  17  33  56  83 109 143 191 231 277 339
#     4  11  23  37  59  84 119 158 188 231 290 347
#     4  11  23  39  59  85 114 149 195 241 282 336
#     4  10  20  36  60  86 111 146 194 242 285 338
#     4  10  20  36  59  83 109 149 194 230 284 338
#     4  10  19  34  57  84 111 142 188 242 283 330
#
# _framework density 18.709676999999999
#
# number of rings (size 3 to 8) (size 9 to 14) (size 15 to 20)
#    0.000    2.000    2.500    1.875    1.750    0.500 
#    0.000    1.250    0.000    0.000    0.000    0.000 
#    0.000    0.000    0.000    0.000    0.000    0.000 
#
# Total GULP energy -793101.289634 kJ/mol
# GULP energy per Si atom -12392.207651 kJ/mol
# Density = 1.866709 g / cm^3
# Si number density = 18.709677 Si / 1000 Ang^3
#
#
#
# Elastic Constant Matrix: (Units=GPa)
#
#
# Indices 1 2 3 4 5 6 
#
# 1 91.5731 38.5995 23.0239 0.0000 0.0000 0.0000
# 2 38.5995 141.2437 53.8732 0.0000 0.0000 0.0000
# 3 23.0239 53.8732 112.4996 0.0000 0.0000 0.0000
# 4 0.0000 0.0000 0.0000 13.6524 0.0000 0.0000
# 5 0.0000 0.0000 0.0000 0.0000 31.7386 0.0000
# 6 0.0000 0.0000 0.0000 0.0000 0.0000 15.3012
#
#
#
# Elastic Compliance Matrix: (Units=1/GPa)
#
#
# Indices 1 2 3 4 5 6 
#
# 1 0.012457 -0.002975 -0.001125 0.000000 0.000000 0.000000
# 2 -0.002975 0.009373 -0.003879 0.000000 0.000000 0.000000
# 3 -0.001125 -0.003879 0.010977 0.000000 0.000000 0.000000
# 4 0.000000 0.000000 0.000000 0.073247 0.000000 0.000000
# 5 0.000000 0.000000 0.000000 0.000000 0.031507 0.000000
# 6 0.000000 0.000000 0.000000 0.000000 0.000000 0.065354
#
#
# Mechanical properties :
#
#
# Convention : Reuss Voigt Hill
#
# Bulk Modulus (GPa) = 59.35457 64.03438 61.69448
# Shear Modulus (GPa) = 22.27266 27.45976 24.86621
#
# Velocity S-wave (km/s) = 3.45401 3.83518 3.64958
# Velocity P-wave (km/s) = 6.90650 7.34242 7.12779
#
# Compressibility (1/GPa) = 0.01684790
#
# Stress axis : x y z
#
# Youngs Moduli (GPa) = 80.27508 106.69184 91.10077
#
# Poissons Ratio (x) = 0.31745 0.10245
# Poissons Ratio (y) = 0.23885 0.35342
# Poissons Ratio (z) = 0.09028 0.41391
#
# Static dielectric constant tensor:
#      x y z
#    x 3.611830 0.000000 0.000000 
#    y 0.000000 2.866390 0.000000 
#    z 0.000000 0.000000 3.499060 
# 
# 
# High freq. dielectric constant tensor:
#      x y z
#    x 1.734730 0.000000 0.000000 
#    y 0.000000 1.701510 0.000000 
#    z 0.000000 0.000000 1.729370 
# 
# From -- ./inp_files/17986.got.cif
#   From: 2010.03.12/outbox.cif.g09.slc.cpg/sg57_9_cif.got.tgz:17986.got - 2010.04.16 15:48:40.
