data_PCOD8231410
_publ_section_title
;
Structure prediction by ZEFSAII (Michael W. Deem and Ramdas Pophale) SiO2 
 PCOD8231410
Probable space group: P B C M
;
_chemical_formula_sum "Si O2"
_cell_formula_units_Z 48
_cell_length_a 18.263592
_cell_length_b 15.375799
_cell_length_c 8.916896
_cell_angle_alpha 90.000000
_cell_angle_beta 90.000000
_cell_angle_gamma 90.000000
_cell_volume 2504.018834
_symmetry_space_group_name_H-M "P B C M"
_symmetry_group_IT_number 57
_symmetry_cell_setting 'orthorhombic'
loop_
_space_group_symop_operation_xyz
x,y,z
-x,-y,1/2+z
x,1/2-y,-z
-x,1/2+y,1/2-z
-x,-y,-z
x,y,1/2-z
-x,1/2+y,z
x,1/2-y,1/2+z
loop_
_atom_site_type_symbol
_atom_site_label
_atom_site_fract_x
_atom_site_fract_y
_atom_site_fract_z
Si Si1 0.831345 0.982167 0.572163
Si Si2 0.611607 0.337960 0.426370
Si Si3 0.467451 0.418690 0.421081
Si Si4 0.321059 0.009510 0.927155
Si Si5 0.067557 0.160722 0.927380
Si Si6 0.899260 0.337187 0.424738
O O1 0.833880 0.969798 0.750000
O O2 0.751700 0.959125 0.509601
O O3 0.889478 0.919204 0.496985
O O4 0.851181 0.080593 0.524299
O O5 0.642218 0.250000 0.500000
O O6 0.630389 0.339920 0.250000
O O7 0.522551 0.338640 0.455187
O O8 0.651625 0.418198 0.505695
O O9 0.500000 0.500000 0.500000
O O10 0.472487 0.443932 0.250000
O O11 0.380889 0.412982 0.462565
O O12 0.306972 0.998835 0.750000
O O13 0.079769 0.164055 0.750000
O O14 0.983094 0.146533 0.972403
O O15 0.096965 0.250000 0.000000
O O16 0.867470 0.250000 0.500000
O O17 0.893204 0.321909 0.250000
#
# Coordination Sequence:
#
# PCOD8231410 Si02
#       6
#     8   8   8   8   8   8
#     4  11  22  36  54  81 114 149 185 225 273 330
#     4  10  19  33  53  78 104 133 170 215 263 317
#     4   8  16  31  51  71  94 125 165 207 249 298
#     4  10  20  35  53  75 104 140 176 216 265 318
#     4  10  20  37  59  82 106 139 182 231 280 329
#     4   9  20  36  56  81 110 142 182 228 275 326
#
# _framework density 19.169184999999999
#
# number of rings (size 3 to 8) (size 9 to 14) (size 15 to 20)
#    0.000    2.333    0.000    2.500    0.000    4.000 
#    0.000    2.500    0.000    2.000    0.000    0.000 
#    0.000    0.000    0.000    0.000    0.000    0.000 
#
# Total GULP energy -594816.885924 kJ/mol
# GULP energy per Si atom -12392.018457 kJ/mol
# Density = 1.912555 g / cm^3
# Si number density = 19.169185 Si / 1000 Ang^3
#
#
#
# Elastic Constant Matrix: (Units=GPa)
#
#
# Indices 1 2 3 4 5 6 
#
# 1 64.8835 3.4382 25.2018 0.0000 0.0000 0.0000
# 2 3.4382 40.1120 21.3414 0.0000 0.0000 0.0000
# 3 25.2018 21.3414 71.1284 0.0000 0.0000 0.0000
# 4 0.0000 0.0000 0.0000 31.6989 0.0000 0.0000
# 5 0.0000 0.0000 0.0000 0.0000 30.3757 0.0000
# 6 0.0000 0.0000 0.0000 0.0000 0.0000 15.5604
#
#
#
# Elastic Compliance Matrix: (Units=1/GPa)
#
#
# Indices 1 2 3 4 5 6 
#
# 1 0.018034 0.002206 -0.007052 0.000000 0.000000 0.000000
# 2 0.002206 0.029936 -0.009764 0.000000 0.000000 0.000000
# 3 -0.007052 -0.009764 0.019487 0.000000 0.000000 0.000000
# 4 0.000000 0.000000 0.000000 0.031547 0.000000 0.000000
# 5 0.000000 0.000000 0.000000 0.000000 0.032921 0.000000
# 6 0.000000 0.000000 0.000000 0.000000 0.000000 0.064266
#
#
# Mechanical properties :
#
#
# Convention : Reuss Voigt Hill
#
# Bulk Modulus (GPa) = 26.15152 30.67627 28.41390
# Shear Modulus (GPa) = 20.99467 23.93649 22.46558
#
# Velocity S-wave (km/s) = 3.31302 3.53752 3.42711
# Velocity P-wave (km/s) = 5.32042 5.72041 5.52404
#
# Compressibility (1/GPa) = 0.03823869
#
# Stress axis : x y z
#
# Youngs Moduli (GPa) = 55.44973 33.40481 51.31602
#
# Poissons Ratio (x) = -0.07369 0.36187
# Poissons Ratio (y) = -0.12232 0.50103
# Poissons Ratio (z) = 0.39102 0.32615
#
# Static dielectric constant tensor:
#      x y z
#    x 3.690530 0.000000 0.000000 
#    y 0.000000 2.800100 0.000000 
#    z 0.000000 0.000000 3.537210 
# 
# 
# High freq. dielectric constant tensor:
#      x y z
#    x 1.748340 0.000000 0.000000 
#    y 0.000000 1.728450 0.000000 
#    z 0.000000 0.000000 1.756950 
# 
# From -- ./inp_files/6496.got.cif
#   From: 2010.03.12/outbox.cif.g09.slc.cpg/sg57_4_cif.got.tgz:6496.got - 2010.04.16 15:48:40.
