data_PCOD8231722
_publ_section_title
;
Structure prediction by ZEFSAII (Michael W. Deem and Ramdas Pophale) SiO2 
 PCOD8231722
Probable space group: P B C M
;
_chemical_formula_sum "Si O2"
_cell_formula_units_Z 56
_cell_length_a 16.049050
_cell_length_b 12.561843
_cell_length_c 14.365205
_cell_angle_alpha 90.000000
_cell_angle_beta 90.000000
_cell_angle_gamma 90.000000
_cell_volume 2896.106440
_symmetry_space_group_name_H-M "P B C M"
_symmetry_group_IT_number 57
_symmetry_cell_setting 'orthorhombic'
loop_
_space_group_symop_operation_xyz
x,y,z
-x,-y,1/2+z
x,1/2-y,-z
-x,1/2+y,1/2-z
-x,-y,-z
x,y,1/2-z
-x,1/2+y,z
x,1/2-y,1/2+z
loop_
_atom_site_type_symbol
_atom_site_label
_atom_site_fract_x
_atom_site_fract_y
_atom_site_fract_z
Si Si1 0.441188 0.596208 0.016871
Si Si2 0.898734 0.122428 0.508889
Si Si3 0.491552 0.255589 0.358470
Si Si4 0.821190 0.818148 0.411112
Si Si5 0.964357 0.536468 0.857154
Si Si6 0.731633 0.496197 0.490113
Si Si7 0.318327 0.328390 0.647890
O O1 0.467090 0.642445 0.117585
O O2 0.500000 0.500000 0.000000
O O3 0.457068 0.667069 0.925507
O O4 0.344421 0.570424 0.030834
O O5 0.905166 0.250000 0.500000
O O6 0.951633 0.078609 0.595597
O O7 0.929963 0.066612 0.413043
O O8 0.804748 0.087446 0.533152
O O9 0.502102 0.286823 0.250000
O O10 0.394109 0.245260 0.390897
O O11 0.852628 0.750000 0.500000
O O12 0.900543 0.863981 0.357424
O O13 0.763061 0.917178 0.436722
O O14 0.766382 0.740050 0.348247
O O15 0.981300 0.503116 0.750000
O O16 0.696797 0.560015 0.401917
O O17 0.345737 0.362758 0.750000
#
# Coordination Sequence:
#
# PCOD8231722 Si02
#       7
#     8   8   8   8   8   8   8
#     4  11  21  37  62  80 112 159 197 242 297 356
#     4  10  23  41  61  87 123 157 193 241 289 344
#     4  10  23  37  54  84 115 148 196 249 292 345
#     4   9  18  34  60  87 115 148 188 244 297 350
#     4  10  21  40  63  89 118 154 197 237 288 349
#     4  10  21  36  58  82 113 155 197 236 293 356
#     4  10  19  34  56  85 117 145 190 249 297 345
#
# _framework density 19.336304999999999
#
# number of rings (size 3 to 8) (size 9 to 14) (size 15 to 20)
#    0.000    2.000    1.429    1.714    6.000    3.429 
#    0.000    3.571    0.000    0.000    0.000    0.000 
#    0.000    0.000    0.000    0.000    0.000    0.000 
#
# Total GULP energy -693932.115907 kJ/mol
# GULP energy per Si atom -12391.644927 kJ/mol
# Density = 1.929230 g / cm^3
# Si number density = 19.336305 Si / 1000 Ang^3
#
#
#
# Elastic Constant Matrix: (Units=GPa)
#
#
# Indices 1 2 3 4 5 6 
#
# 1 109.1357 20.4037 19.5523 0.0000 0.0000 0.0000
# 2 20.4037 77.8535 15.5487 0.0000 0.0000 0.0000
# 3 19.5523 15.5487 96.3354 0.0000 0.0000 0.0000
# 4 0.0000 0.0000 0.0000 15.7160 0.0000 0.0000
# 5 0.0000 0.0000 0.0000 0.0000 14.3436 0.0000
# 6 0.0000 0.0000 0.0000 0.0000 0.0000 27.5053
#
#
#
# Elastic Compliance Matrix: (Units=1/GPa)
#
#
# Indices 1 2 3 4 5 6 
#
# 1 0.009880 -0.002262 -0.001640 0.000000 0.000000 0.000000
# 2 -0.002262 0.013790 -0.001767 0.000000 0.000000 0.000000
# 3 -0.001640 -0.001767 0.010998 0.000000 0.000000 0.000000
# 4 0.000000 0.000000 0.000000 0.063629 0.000000 0.000000
# 5 0.000000 0.000000 0.000000 0.000000 0.069717 0.000000
# 6 0.000000 0.000000 0.000000 0.000000 0.000000 0.036357
#
#
# Mechanical properties :
#
#
# Convention : Reuss Voigt Hill
#
# Bulk Modulus (GPa) = 42.86110 43.81490 43.33800
# Shear Modulus (GPa) = 22.37280 26.70098 24.53689
#
# Velocity S-wave (km/s) = 3.40521 3.72004 3.56610
# Velocity P-wave (km/s) = 6.13799 6.41562 6.27834
#
# Compressibility (1/GPa) = 0.02333118
#
# Stress axis : x y z
#
# Youngs Moduli (GPa) = 101.21887 72.51515 90.92203
#
# Poissons Ratio (x) = 0.16400 0.14912
# Poissons Ratio (y) = 0.22892 0.16063
# Poissons Ratio (z) = 0.16601 0.12811
#
# Static dielectric constant tensor:
#      x y z
#    x 2.995280 0.000000 0.000000 
#    y 0.000000 3.592090 0.000000 
#    z 0.000000 0.000000 3.374800 
# 
# 
# High freq. dielectric constant tensor:
#      x y z
#    x 1.763420 0.000000 0.000000 
#    y 0.000000 1.753970 0.000000 
#    z 0.000000 0.000000 1.738230 
# 
# From -- ./inp_files/18530.got.cif
#   From: 2010.03.12/outbox.cif.g09.slc.cpg/sg57_10_cif.got.tgz:18530.got - 2010.04.16 15:48:40.
