data_PCOD8231807
_publ_section_title
;
Structure prediction by ZEFSAII (Michael W. Deem and Ramdas Pophale) SiO2 
 PCOD8231807
Probable space group: P B C M
;
_chemical_formula_sum "Si O2"
_cell_formula_units_Z 56
_cell_length_a 12.423700
_cell_length_b 14.026052
_cell_length_c 14.547812
_cell_angle_alpha 90.000000
_cell_angle_beta 90.000000
_cell_angle_gamma 90.000000
_cell_volume 2535.035705
_symmetry_space_group_name_H-M "P B C M"
_symmetry_group_IT_number 57
_symmetry_cell_setting 'orthorhombic'
loop_
_space_group_symop_operation_xyz
x,y,z
-x,-y,1/2+z
x,1/2-y,-z
-x,1/2+y,1/2-z
-x,-y,-z
x,y,1/2-z
-x,1/2+y,z
x,1/2-y,1/2+z
loop_
_atom_site_type_symbol
_atom_site_label
_atom_site_fract_x
_atom_site_fract_y
_atom_site_fract_z
Si Si1 0.108906 0.719188 0.598260
Si Si2 0.678582 0.124634 0.852024
Si Si3 0.341980 0.141225 0.642585
Si Si4 0.837586 0.414965 0.851019
Si Si5 0.514699 0.293276 0.645420
Si Si6 0.096784 0.116497 0.644353
Si Si7 0.369962 0.948281 0.542629
O O1 0.153750 0.750000 0.500000
O O2 0.193797 0.646579 0.643307
O O3 0.094960 0.817402 0.655602
O O4 0.992820 0.670440 0.585319
O O5 0.654614 0.081228 0.750000
O O6 0.616615 0.223786 0.864584
O O7 0.639437 0.051200 0.931221
O O8 0.361473 0.116137 0.750000
O O9 0.405901 0.237247 0.616509
O O10 0.215685 0.156944 0.621974
O O11 0.387749 0.054853 0.580361
O O12 0.791474 0.441438 0.750000
O O13 0.910068 0.504506 0.882803
O O14 0.738003 0.401074 0.918523
O O15 0.505894 0.330790 0.750000
O O16 0.530477 0.382438 0.576552
O O17 0.066163 0.133638 0.750000
#
# Coordination Sequence:
#
# PCOD8231807 Si02
#       7
#     8   8   8   8   8   8   8
#     4  12  21  36  59  89 123 158 202 256 312 354
#     4  11  22  36  57  88 120 154 201 258 310 348
#     4   9  20  38  61  89 121 163 205 241 302 375
#     4  10  19  35  60  89 117 156 203 242 297 367
#     4  10  19  34  60  89 120 153 196 254 304 358
#     4   9  20  37  59  86 121 162 201 246 298 367
#     4  11  19  36  60  91 117 155 207 255 297 360
#
# _framework density 22.090420000000002
#
# number of rings (size 3 to 8) (size 9 to 14) (size 15 to 20)
#    0.000    1.714    2.857    3.857    0.000    1.143 
#    0.000    1.429    3.143    0.857    0.000    0.000 
#    0.000    0.000    0.000    0.000    0.000    0.000 
#
# Total GULP energy -694238.436174 kJ/mol
# GULP energy per Si atom -12397.114932 kJ/mol
# Density = 2.204014 g / cm^3
# Si number density = 22.090420 Si / 1000 Ang^3
#
#
#
# Elastic Constant Matrix: (Units=GPa)
#
#
# Indices 1 2 3 4 5 6 
#
# 1 104.5112 41.5750 17.2029 0.0000 0.0000 0.0000
# 2 41.5750 53.1217 11.2681 0.0000 0.0000 0.0000
# 3 17.2029 11.2681 108.9041 0.0000 0.0000 0.0000
# 4 0.0000 0.0000 0.0000 9.6387 0.0000 0.0000
# 5 0.0000 0.0000 0.0000 0.0000 12.1546 0.0000
# 6 0.0000 0.0000 0.0000 0.0000 0.0000 36.8117
#
#
#
# Elastic Compliance Matrix: (Units=1/GPa)
#
#
# Indices 1 2 3 4 5 6 
#
# 1 0.014023 -0.010741 -0.001104 0.000000 0.000000 0.000000
# 2 -0.010741 0.027474 -0.001146 0.000000 0.000000 0.000000
# 3 -0.001104 -0.001146 0.009475 0.000000 0.000000 0.000000
# 4 0.000000 0.000000 0.000000 0.103749 0.000000 0.000000
# 5 0.000000 0.000000 0.000000 0.000000 0.082273 0.000000
# 6 0.000000 0.000000 0.000000 0.000000 0.000000 0.027165
#
#
# Mechanical properties :
#
#
# Convention : Reuss Voigt Hill
#
# Bulk Modulus (GPa) = 40.01434 45.18100 42.59767
# Shear Modulus (GPa) = 16.75210 24.82040 20.78625
#
# Velocity S-wave (km/s) = 2.75679 3.35562 3.07084
# Velocity P-wave (km/s) = 5.31850 5.95909 5.64788
#
# Compressibility (1/GPa) = 0.02499104
#
# Stress axis : x y z
#
# Youngs Moduli (GPa) = 71.31307 36.39840 105.53723
#
# Poissons Ratio (x) = 0.39094 0.11649
# Poissons Ratio (y) = 0.76594 0.12095
# Poissons Ratio (z) = 0.07871 0.04171
#
# Static dielectric constant tensor:
#      x y z
#    x 3.790130 0.000000 0.000000 
#    y 0.000000 3.801030 0.000000 
#    z 0.000000 0.000000 4.056570 
# 
# 
# High freq. dielectric constant tensor:
#      x y z
#    x 1.858400 0.000000 0.000000 
#    y 0.000000 1.849990 0.000000 
#    z 0.000000 0.000000 1.873120 
# 
# From -- ./inp_files/17751.got.cif
#   From: 2010.03.12/outbox.cif.g09.slc.cpg/sg57_9_cif.got.tgz:17751.got - 2010.04.16 15:48:40.
