data_PCOD8231217
_publ_section_title
;
Structure prediction by ZEFSAII (Michael W. Deem and Ramdas Pophale) SiO2 
 PCOD8231217
Probable space group: P B C M
;
_chemical_formula_sum "Si O2"
_cell_formula_units_Z 64
_cell_length_a 14.075471
_cell_length_b 26.350387
_cell_length_c 9.316604
_cell_angle_alpha 90.000000
_cell_angle_beta 90.000000
_cell_angle_gamma 90.000000
_cell_volume 3455.473531
_symmetry_space_group_name_H-M "P B C M"
_symmetry_group_IT_number 57
_symmetry_cell_setting 'orthorhombic'
loop_
_space_group_symop_operation_xyz
x,y,z
-x,-y,1/2+z
x,1/2-y,-z
-x,1/2+y,1/2-z
-x,-y,-z
x,y,1/2-z
-x,1/2+y,z
x,1/2-y,1/2+z
loop_
_atom_site_type_symbol
_atom_site_label
_atom_site_fract_x
_atom_site_fract_y
_atom_site_fract_z
Si Si1 0.857874 0.874796 0.410658
Si Si2 0.589774 0.515227 0.913142
Si Si3 0.467805 0.120928 0.916245
Si Si4 0.853848 0.130875 0.084506
Si Si5 0.978745 0.948579 0.916965
Si Si6 0.345205 0.911140 0.582144
Si Si7 0.028514 0.702785 0.590289
Si Si8 0.310651 0.302942 0.419358
O O1 0.834790 0.895870 0.250000
O O2 0.885269 0.921520 0.514859
O O3 0.769193 0.842819 0.472291
O O4 0.946303 0.837793 0.402103
O O5 0.559880 0.508959 0.750000
O O6 0.609494 0.574813 0.945534
O O7 0.668382 0.472152 0.949763
O O8 0.500000 0.500000 0.000000
O O9 0.497230 0.121488 0.750000
O O10 0.413577 0.172856 0.957039
O O11 0.564154 0.114294 0.005489
O O12 0.849789 0.147461 0.250000
O O13 0.751325 0.113755 0.026143
O O14 0.928682 0.085868 0.063462
O O15 0.880355 0.179528 0.989860
O O16 0.957602 0.959648 0.750000
O O17 0.000000 0.000000 0.000000
O O18 0.359159 0.901057 0.750000
O O19 0.989574 0.750000 0.500000
O O20 0.058328 0.720070 0.750000
O O21 0.299109 0.250000 0.500000
O O22 0.298854 0.293185 0.250000
#
# Coordination Sequence:
#
# PCOD8231217 Si02
#       8
#     8   8   8   8   8   8   8   8
#     4   9  19  35  54  76 102 134 171 210 255 307
#     4   8  14  26  45  68  92 119 154 194 236 284
#     4   9  18  32  50  73 101 132 166 206 253 304
#     4   9  19  34  51  73 101 135 172 207 248 299
#     4  10  20  34  53  78 110 144 175 211 256 309
#     4   9  17  31  52  75  99 130 166 205 250 299
#     4  10  19  32  52  75  98 125 160 205 251 295
#     4  10  21  36  54  76 103 137 176 218 265 315
#
# _framework density 18.521339999999999
#
# number of rings (size 3 to 8) (size 9 to 14) (size 15 to 20)
#    0.000    2.750    0.000    1.125    0.000    3.500 
#    0.000    4.375    0.000    7.500    0.000    0.000 
#    0.000    0.000    0.000    0.000    0.000    0.000 
#
# Total GULP energy -792994.681896 kJ/mol
# GULP energy per Si atom -12390.541905 kJ/mol
# Density = 1.847918 g / cm^3
# Si number density = 18.521340 Si / 1000 Ang^3
#
#
#
# Elastic Constant Matrix: (Units=GPa)
#
#
# Indices 1 2 3 4 5 6 
#
# 1 64.4845 12.8672 19.0294 0.0000 0.0000 0.0000
# 2 12.8672 73.1008 40.0764 0.0000 0.0000 0.0000
# 3 19.0294 40.0764 78.4982 0.0000 0.0000 0.0000
# 4 0.0000 0.0000 0.0000 34.5146 0.0000 0.0000
# 5 0.0000 0.0000 0.0000 0.0000 24.3727 0.0000
# 6 0.0000 0.0000 0.0000 0.0000 0.0000 21.1343
#
#
#
# Elastic Compliance Matrix: (Units=1/GPa)
#
#
# Indices 1 2 3 4 5 6 
#
# 1 0.016755 -0.001003 -0.003550 0.000000 0.000000 0.000000
# 2 -0.001003 0.019057 -0.009486 0.000000 0.000000 0.000000
# 3 -0.003550 -0.009486 0.018443 0.000000 0.000000 0.000000
# 4 0.000000 0.000000 0.000000 0.028973 0.000000 0.000000
# 5 0.000000 0.000000 0.000000 0.000000 0.041030 0.000000
# 6 0.000000 0.000000 0.000000 0.000000 0.000000 0.047317
#
#
# Mechanical properties :
#
#
# Convention : Reuss Voigt Hill
#
# Bulk Modulus (GPa) = 38.20148 40.00327 39.10238
# Shear Modulus (GPa) = 23.99488 25.61167 24.80327
#
# Velocity S-wave (km/s) = 3.60325 3.72266 3.66344
# Velocity P-wave (km/s) = 6.16292 6.33427 6.24918
#
# Compressibility (1/GPa) = 0.02617699
#
# Stress axis : x y z
#
# Youngs Moduli (GPa) = 59.68269 52.47427 54.22212
#
# Poissons Ratio (x) = 0.05265 0.19247
# Poissons Ratio (y) = 0.05988 0.51436
# Poissons Ratio (z) = 0.21185 0.49778
#
# Static dielectric constant tensor:
#      x y z
#    x 3.266670 0.000000 0.000000 
#    y 0.000000 -1.266360 0.000000 
#    z 0.000000 0.000000 3.539250 
# 
# 
# High freq. dielectric constant tensor:
#      x y z
#    x 1.702200 0.000000 0.000000 
#    y 0.000000 1.719240 0.000000 
#    z 0.000000 0.000000 1.717860 
# 
# From -- ./inp_files/5736.got.cif
#   From: 2010.03.12/outbox.cif.g09.slc.cpg/sg57_3_cif.got.tgz:5736.got - 2010.04.16 15:48:40.
