data_PCOD8231111
_publ_section_title
;
Structure prediction by ZEFSAII (Michael W. Deem and Ramdas Pophale) SiO2 
 PCOD8231111
Probable space group: P B C M
;
_chemical_formula_sum "Si O2"
_cell_formula_units_Z 64
_cell_length_a 14.572201
_cell_length_b 27.526107
_cell_length_c 8.922981
_cell_angle_alpha 90.000000
_cell_angle_beta 90.000000
_cell_angle_gamma 90.000000
_cell_volume 3579.150125
_symmetry_space_group_name_H-M "P B C M"
_symmetry_group_IT_number 57
_symmetry_cell_setting 'orthorhombic'
loop_
_space_group_symop_operation_xyz
x,y,z
-x,-y,1/2+z
x,1/2-y,-z
-x,1/2+y,1/2-z
-x,-y,-z
x,y,1/2-z
-x,1/2+y,z
x,1/2-y,1/2+z
loop_
_atom_site_type_symbol
_atom_site_label
_atom_site_fract_x
_atom_site_fract_y
_atom_site_fract_z
Si Si1 0.520638 0.388504 0.072810
Si Si2 0.841657 0.029100 0.075805
Si Si3 0.026675 0.884928 0.926828
Si Si4 0.658649 0.918127 0.926715
Si Si5 0.848136 0.918623 0.427585
Si Si6 0.646194 0.299463 0.425451
Si Si7 0.343423 0.529233 0.574994
Si Si8 0.856015 0.199493 0.927484
O O1 0.502700 0.388195 0.250000
O O2 0.581435 0.343012 0.020132
O O3 0.572476 0.437527 0.020510
O O4 0.424450 0.385260 0.986304
O O5 0.820216 0.029908 0.250000
O O6 0.925601 0.063869 0.032634
O O7 0.865142 0.974496 0.023112
O O8 0.750312 0.048718 0.996741
O O9 0.022024 0.876027 0.750000
O O10 0.082078 0.842175 0.003668
O O11 0.925143 0.885597 0.995381
O O12 0.671047 0.911522 0.750000
O O13 0.636909 0.973836 0.971675
O O14 0.750566 0.900570 0.009612
O O15 0.851340 0.911618 0.250000
O O16 0.610970 0.250000 0.500000
O O17 0.639148 0.292028 0.250000
O O18 0.750642 0.311397 0.472343
O O19 0.329302 0.535340 0.750000
O O20 0.869917 0.201750 0.750000
O O21 0.888085 0.250000 0.000000
#
# Coordination Sequence:
#
# PCOD8231111 Si02
#       8
#     8   8   8   8   8   8   8   8
#     4  10  19  32  50  73 100 133 169 205 247 300
#     4   9  19  32  48  73 105 137 171 209 251 298
#     4  11  21  33  51  77 105 134 170 212 253 301
#     4  10  20  33  49  72 100 133 170 211 253 294
#     4  10  20  35  52  71  99 138 176 212 253 298
#     4   9  19  34  53  76 103 132 164 202 247 296
#     4   9  18  31  48  71 102 135 169 207 248 296
#     4  10  20  36  56  79 106 136 167 204 251 303
#
# _framework density 17.881340999999999
#
# number of rings (size 3 to 8) (size 9 to 14) (size 15 to 20)
#    0.000    2.250    0.000    3.000    0.000    4.500 
#    0.000    0.000    0.000    0.750    0.000    3.500 
#    0.000    0.000    0.000    0.000    0.000    0.000 
#
# Total GULP energy -793796.465210 kJ/mol
# GULP energy per Si atom -12403.069769 kJ/mol
# Density = 1.784064 g / cm^3
# Si number density = 17.881341 Si / 1000 Ang^3
#
#
#
# Elastic Constant Matrix: (Units=GPa)
#
#
# Indices 1 2 3 4 5 6 
#
# 1 127.3037 57.5689 48.9591 0.0000 0.0000 0.0000
# 2 57.5689 81.4655 37.2383 0.0000 0.0000 0.0000
# 3 48.9591 37.2383 62.5127 0.0000 0.0000 0.0000
# 4 0.0000 0.0000 0.0000 27.7874 0.0000 0.0000
# 5 0.0000 0.0000 0.0000 0.0000 34.5545 0.0000
# 6 0.0000 0.0000 0.0000 0.0000 0.0000 24.1376
#
#
#
# Elastic Compliance Matrix: (Units=1/GPa)
#
#
# Indices 1 2 3 4 5 6 
#
# 1 0.013271 -0.006359 -0.006606 0.000000 0.000000 0.000000
# 2 -0.006359 0.019915 -0.006883 0.000000 0.000000 0.000000
# 3 -0.006606 -0.006883 0.025271 0.000000 0.000000 0.000000
# 4 0.000000 0.000000 0.000000 0.035988 0.000000 0.000000
# 5 0.000000 0.000000 0.000000 0.000000 0.028940 0.000000
# 6 0.000000 0.000000 0.000000 0.000000 0.000000 0.041429
#
#
# Mechanical properties :
#
#
# Convention : Reuss Voigt Hill
#
# Bulk Modulus (GPa) = 53.30150 62.09050 57.69600
# Shear Modulus (GPa) = 23.72332 25.79694 24.76013
#
# Velocity S-wave (km/s) = 3.64635 3.80238 3.72518
# Velocity P-wave (km/s) = 6.89935 7.35367 7.13013
#
# Compressibility (1/GPa) = 0.01876120
#
# Stress axis : x y z
#
# Youngs Moduli (GPa) = 75.35014 50.21354 39.57147
#
# Poissons Ratio (x) = 0.31930 0.26141
# Poissons Ratio (y) = 0.47913 0.27237
# Poissons Ratio (z) = 0.49777 0.34562
#
# Static dielectric constant tensor:
#      x y z
#    x 3.316440 0.000000 0.000000 
#    y 0.000000 3.573840 0.000000 
#    z 0.000000 0.000000 3.268170 
# 
# 
# High freq. dielectric constant tensor:
#      x y z
#    x 1.692620 0.000000 0.000000 
#    y 0.000000 1.671070 0.000000 
#    z 0.000000 0.000000 1.697020 
# 
# From -- ./inp_files/5593.got.cif
#   From: 2010.03.12/outbox.cif.g09.slc.cpg/sg57_3_cif.got.tgz:5593.got - 2010.04.16 15:48:40.
