data_PCOD8231800
_publ_section_title
;
Structure prediction by ZEFSAII (Michael W. Deem and Ramdas Pophale) SiO2 
 PCOD8231800
Probable space group: P B C M
;
_chemical_formula_sum "Si O2"
_cell_formula_units_Z 48
_cell_length_a 6.121580
_cell_length_b 17.996141
_cell_length_c 21.446543
_cell_angle_alpha 90.000000
_cell_angle_beta 90.000000
_cell_angle_gamma 90.000000
_cell_volume 2362.654481
_symmetry_space_group_name_H-M "P B C M"
_symmetry_group_IT_number 57
_symmetry_cell_setting 'orthorhombic'
loop_
_space_group_symop_operation_xyz
x,y,z
-x,-y,1/2+z
x,1/2-y,-z
-x,1/2+y,1/2-z
-x,-y,-z
x,y,1/2-z
-x,1/2+y,z
x,1/2-y,1/2+z
loop_
_atom_site_type_symbol
_atom_site_label
_atom_site_fract_x
_atom_site_fract_y
_atom_site_fract_z
Si Si1 0.983066 0.563330 0.917327
Si Si2 0.681649 0.212045 0.437545
Si Si3 0.690735 0.049628 0.028304
Si Si4 0.673675 0.685625 0.621674
Si Si5 0.051407 0.744006 0.181901
Si Si6 0.700009 0.102747 0.817602
O O1 0.152699 0.549446 0.860719
O O2 0.807143 0.496486 0.916207
O O3 0.863366 0.643299 0.916285
O O4 0.120663 0.567455 0.979732
O O5 0.788096 0.250000 0.500000
O O6 0.594692 0.128344 0.449076
O O7 0.476274 0.264659 0.422676
O O8 0.848664 0.203167 0.379043
O O9 0.500000 0.000000 0.000000
O O10 0.538384 0.619535 0.654645
O O11 0.793417 0.739988 0.671108
O O12 0.073559 0.702149 0.250000
O O13 0.179540 0.819849 0.188995
O O14 0.674032 0.064237 0.750000
#
# Coordination Sequence:
#
# PCOD8231800 Si02
#       6
#     8   8   8   8   8   8
#     4  10  21  37  57  81 112 149 189 232 283 343
#     4  11  22  36  59  89 116 147 195 250 300 354
#     4  11  23  40  58  79 113 154 194 238 295 353
#     4  10  19  34  59  88 117 146 189 240 294 350
#     4   9  19  35  56  84 117 151 188 234 292 352
#     4   9  17  32  55  83 112 145 187 230 276 336
#
# _framework density 20.316132
#
# number of rings (size 3 to 8) (size 9 to 14) (size 15 to 20)
#    0.000    2.000    0.000    5.500    0.000    6.000 
#    0.000    2.500    0.000    1.000    0.000    0.000 
#    0.000    0.000    0.000    0.000    0.000    0.000 
#
# Total GULP energy -594731.920915 kJ/mol
# GULP energy per Si atom -12390.248352 kJ/mol
# Density = 2.026989 g / cm^3
# Si number density = 20.316132 Si / 1000 Ang^3
#
#
#
# Elastic Constant Matrix: (Units=GPa)
#
#
# Indices 1 2 3 4 5 6 
#
# 1 110.7552 31.2896 47.9555 0.0000 0.0000 0.0000
# 2 31.2896 84.8691 45.7126 0.0000 0.0000 0.0000
# 3 47.9555 45.7126 135.1563 0.0000 0.0000 0.0000
# 4 0.0000 0.0000 0.0000 8.9750 0.0000 0.0000
# 5 0.0000 0.0000 0.0000 0.0000 -27.9034 0.0000
# 6 0.0000 0.0000 0.0000 0.0000 0.0000 31.8499
#
#
#
# Elastic Compliance Matrix: (Units=1/GPa)
#
#
# Indices 1 2 3 4 5 6 
#
# 1 0.011054 -0.002400 -0.003110 0.000000 0.000000 0.000000
# 2 -0.002400 0.014929 -0.004198 0.000000 0.000000 0.000000
# 3 -0.003110 -0.004198 0.009922 0.000000 0.000000 0.000000
# 4 0.000000 0.000000 0.000000 0.111420 0.000000 0.000000
# 5 0.000000 0.000000 0.000000 0.000000 -0.035838 0.000000
# 6 0.000000 0.000000 0.000000 0.000000 0.000000 0.031397
#
#
# Mechanical properties :
#
#
# Convention : Reuss Voigt Hill
#
# Bulk Modulus (GPa) = 60.64781 64.52178 62.58479
# Shear Modulus (GPa) = 29.79809 16.30582 23.05196
#
# Velocity S-wave (km/s) = 3.83393 2.83610 3.37213
# Velocity P-wave (km/s) = 7.03673 6.52323 6.78484
#
# Compressibility (1/GPa) = 0.01648864
#
# Stress axis : x y z
#
# Youngs Moduli (GPa) = 90.46780 66.98547 100.78483
#
# Poissons Ratio (x) = 0.16076 0.31347
# Poissons Ratio (y) = 0.21712 0.42306
# Poissons Ratio (z) = 0.28138 0.28118
#
# Static dielectric constant tensor:
#      x y z
#    x 3.932480 0.000000 0.000000 
#    y 0.000000 3.510350 0.000000 
#    z 0.000000 0.000000 4.838050 
# 
# 
# High freq. dielectric constant tensor:
#      x y z
#    x 1.802470 0.000000 0.000000 
#    y 0.000000 1.753890 0.000000 
#    z 0.000000 0.000000 1.796550 
# 
# From -- ./inp_files/26211.got.cif
#   From: 2010.03.12/outbox.cif.g09.slc.cpg/sg57_14_cif.got.tgz:26211.got - 2010.04.16 15:48:40.
