data_PCOD8231952
_publ_section_title
;
Structure prediction by ZEFSAII (Michael W. Deem and Ramdas Pophale) SiO2 
 PCOD8231952
Probable space group: P B C M
;
_chemical_formula_sum "Si O2"
_cell_formula_units_Z 64
_cell_length_a 14.992039
_cell_length_b 10.041166
_cell_length_c 22.316447
_cell_angle_alpha 90.000000
_cell_angle_beta 90.000000
_cell_angle_gamma 90.000000
_cell_volume 3359.463307
_symmetry_space_group_name_H-M "P B C M"
_symmetry_group_IT_number 57
_symmetry_cell_setting 'orthorhombic'
loop_
_space_group_symop_operation_xyz
x,y,z
-x,-y,1/2+z
x,1/2-y,-z
-x,1/2+y,1/2-z
-x,-y,-z
x,y,1/2-z
-x,1/2+y,z
x,1/2-y,1/2+z
loop_
_atom_site_type_symbol
_atom_site_label
_atom_site_fract_x
_atom_site_fract_y
_atom_site_fract_z
Si Si1 0.568861 0.297167 0.315556
Si Si2 0.080216 0.637439 0.817228
Si Si3 0.347725 0.021693 0.048893
Si Si4 0.790934 0.743791 0.430079
Si Si5 0.490815 0.958619 0.631097
Si Si6 0.082242 0.167654 0.180528
Si Si7 0.305643 0.505431 0.083014
Si Si8 0.743534 0.209931 0.884252
O O1 0.557623 0.239321 0.250000
O O2 0.534538 0.449053 0.317977
O O3 0.508431 0.199770 0.356445
O O4 0.673546 0.293048 0.330058
O O5 0.114371 0.665286 0.750000
O O6 0.048764 0.484501 0.823922
O O7 0.159052 0.669730 0.862646
O O8 0.998138 0.732608 0.832457
O O9 0.288970 0.894611 0.066672
O O10 0.298252 0.155628 0.069748
O O11 0.448732 0.017728 0.072606
O O12 0.357212 0.014897 0.978617
O O13 0.830051 0.750000 0.500000
O O14 0.851987 0.687619 0.376208
O O15 0.767158 0.891174 0.407316
O O16 0.387479 0.002681 0.629127
O O17 0.119735 0.191620 0.250000
O O18 0.252299 0.643879 0.086647
#
# Coordination Sequence:
#
# PCOD8231952 Si02
#       8
#     8   8   8   8   8   8   8   8
#     4  10  20  34  51  76 110 147 185 233 286 339
#     4  10  21  39  63  87 115 146 189 237 282 344
#     4  10  19  36  57  78 111 151 195 236 283 337
#     4  10  21  39  58  85 122 154 190 239 293 342
#     4  10  20  34  54  78 108 147 195 235 278 332
#     4  10  22  41  64  89 114 150 193 236 286 350
#     4  10  21  34  55  83 114 149 188 241 283 334
#     4  10  20  35  56  82 111 144 190 227 291 342
#
# _framework density 19.050661999999999
#
# number of rings (size 3 to 8) (size 9 to 14) (size 15 to 20)
#    0.000    2.000    1.250    2.250    1.750    0.000 
#    0.000   10.625    0.000    0.000    0.000    0.000 
#    0.000    0.000    0.000    0.000    0.000    0.000 
#
# Total GULP energy -793004.681072 kJ/mol
# GULP energy per Si atom -12390.698142 kJ/mol
# Density = 1.900730 g / cm^3
# Si number density = 19.050662 Si / 1000 Ang^3
#
#
#
# Elastic Constant Matrix: (Units=GPa)
#
#
# Indices 1 2 3 4 5 6 
#
# 1 54.9866 23.6790 27.7015 0.0000 0.0000 0.0000
# 2 23.6790 116.2876 19.3451 0.0000 0.0000 0.0000
# 3 27.7015 19.3451 55.5502 0.0000 0.0000 0.0000
# 4 0.0000 0.0000 0.0000 21.6780 0.0000 0.0000
# 5 0.0000 0.0000 0.0000 0.0000 11.2701 0.0000
# 6 0.0000 0.0000 0.0000 0.0000 0.0000 31.7052
#
#
#
# Elastic Compliance Matrix: (Units=1/GPa)
#
#
# Indices 1 2 3 4 5 6 
#
# 1 0.025397 -0.003253 -0.011532 0.000000 0.000000 0.000000
# 2 -0.003253 0.009545 -0.001702 0.000000 0.000000 0.000000
# 3 -0.011532 -0.001702 0.024345 0.000000 0.000000 0.000000
# 4 0.000000 0.000000 0.000000 0.046130 0.000000 0.000000
# 5 0.000000 0.000000 0.000000 0.000000 0.088731 0.000000
# 6 0.000000 0.000000 0.000000 0.000000 0.000000 0.031541
#
#
# Mechanical properties :
#
#
# Convention : Reuss Voigt Hill
#
# Bulk Modulus (GPa) = 38.00354 40.91950 39.46152
# Shear Modulus (GPa) = 18.69636 23.33725 21.01681
#
# Velocity S-wave (km/s) = 3.13613 3.50381 3.32506
# Velocity P-wave (km/s) = 5.75376 6.15588 5.95821
#
# Compressibility (1/GPa) = 0.02631334
#
# Stress axis : x y z
#
# Youngs Moduli (GPa) = 39.37522 104.76852 41.07619
#
# Poissons Ratio (x) = 0.34081 0.47368
# Poissons Ratio (y) = 0.12809 0.06990
# Poissons Ratio (z) = 0.45407 0.17829
#
# Static dielectric constant tensor:
#      x y z
#    x 3.296360 0.000000 0.000000 
#    y 0.000000 3.759500 0.000000 
#    z 0.000000 0.000000 3.560080 
# 
# 
# High freq. dielectric constant tensor:
#      x y z
#    x 1.719080 0.000000 0.000000 
#    y 0.000000 1.761750 0.000000 
#    z 0.000000 0.000000 1.736910 
# 
# From -- ./inp_files/27472.got.cif
#   From: 2010.03.12/outbox.cif.g09.slc.cpg/sg57_14_cif.got.tgz:27472.got - 2010.04.16 15:48:40.
