data_PCOD8231054
_publ_section_title
;
Structure prediction by ZEFSAII (Michael W. Deem and Ramdas Pophale) SiO2 
 PCOD8231054
Probable space group: P B C M
;
_chemical_formula_sum "Si O2"
_cell_formula_units_Z 48
_cell_length_a 14.542860
_cell_length_b 18.630095
_cell_length_c 9.324044
_cell_angle_alpha 90.000000
_cell_angle_beta 90.000000
_cell_angle_gamma 90.000000
_cell_volume 2526.208587
_symmetry_space_group_name_H-M "P B C M"
_symmetry_group_IT_number 57
_symmetry_cell_setting 'orthorhombic'
loop_
_space_group_symop_operation_xyz
x,y,z
-x,-y,1/2+z
x,1/2-y,-z
-x,1/2+y,1/2-z
-x,-y,-z
x,y,1/2-z
-x,1/2+y,z
x,1/2-y,1/2+z
loop_
_atom_site_type_symbol
_atom_site_label
_atom_site_fract_x
_atom_site_fract_y
_atom_site_fract_z
Si Si1 0.633054 0.451363 0.583813
Si Si2 0.024439 0.824640 0.082939
Si Si3 0.276166 0.183264 0.089974
Si Si4 0.114565 0.077595 0.085050
Si Si5 0.434410 0.086396 0.085757
Si Si6 0.811629 0.074447 0.585411
O O1 0.657445 0.460822 0.750000
O O2 0.608274 0.528404 0.520474
O O3 0.543111 0.401035 0.560574
O O4 0.719937 0.415220 0.507373
O O5 0.000225 0.812591 0.250000
O O6 0.127996 0.853948 0.064702
O O7 0.012812 0.750000 0.000000
O O8 0.957905 0.884978 0.018853
O O9 0.267154 0.211387 0.250000
O O10 0.213047 0.114434 0.062941
O O11 0.381238 0.160774 0.054442
O O12 0.241176 0.250000 0.000000
O O13 0.080580 0.083421 0.250000
O O14 0.128494 0.994940 0.037387
O O15 0.415911 0.061311 0.250000
O O16 0.781880 0.063794 0.750000
#
# Coordination Sequence:
#
# PCOD8231054 Si02
#       6
#     8   8   8   8   8   8
#     4  10  19  31  56  86 108 139 185 233 272 320
#     4  11  24  40  59  82 112 150 188 230 282 337
#     4  10  20  34  53  77 112 151 183 225 278 333
#     4  10  20  37  60  83 110 146 185 231 283 334
#     4   9  18  35  53  75 112 150 181 221 277 331
#     4  10  21  39  60  83 113 149 184 228 286 336
#
# _framework density 19.000807999999999
#
# number of rings (size 3 to 8) (size 9 to 14) (size 15 to 20)
#    0.000    2.000    1.667    2.000    0.000    5.333 
#    0.000    0.833    0.000    4.000    0.000    0.000 
#    0.000    0.000    0.000    0.000    0.000    0.000 
#
# Total GULP energy -595179.187476 kJ/mol
# GULP energy per Si atom -12399.566406 kJ/mol
# Density = 1.895756 g / cm^3
# Si number density = 19.000808 Si / 1000 Ang^3
#
#
#
# Elastic Constant Matrix: (Units=GPa)
#
#
# Indices 1 2 3 4 5 6 
#
# 1 90.5249 11.6555 48.1524 0.0000 0.0000 0.0000
# 2 11.6555 49.7805 22.1974 0.0000 0.0000 0.0000
# 3 48.1524 22.1974 92.3038 0.0000 0.0000 0.0000
# 4 0.0000 0.0000 0.0000 22.8462 0.0000 0.0000
# 5 0.0000 0.0000 0.0000 0.0000 35.7785 0.0000
# 6 0.0000 0.0000 0.0000 0.0000 0.0000 11.2780
#
#
#
# Elastic Compliance Matrix: (Units=1/GPa)
#
#
# Indices 1 2 3 4 5 6 
#
# 1 0.015289 -0.000026 -0.007970 0.000000 0.000000 0.000000
# 2 -0.000026 0.022501 -0.005398 0.000000 0.000000 0.000000
# 3 -0.007970 -0.005398 0.016289 0.000000 0.000000 0.000000
# 4 0.000000 0.000000 0.000000 0.043771 0.000000 0.000000
# 5 0.000000 0.000000 0.000000 0.000000 0.027950 0.000000
# 6 0.000000 0.000000 0.000000 0.000000 0.000000 0.088668
#
#
# Mechanical properties :
#
#
# Convention : Reuss Voigt Hill
#
# Bulk Modulus (GPa) = 36.63922 44.06887 40.35404
# Shear Modulus (GPa) = 19.97178 24.02079 21.99628
#
# Velocity S-wave (km/s) = 3.24559 3.55941 3.40612
# Velocity P-wave (km/s) = 5.77667 6.33530 6.06243
#
# Compressibility (1/GPa) = 0.02729316
#
# Stress axis : x y z
#
# Youngs Moduli (GPa) = 65.40489 44.44228 61.38950
#
# Poissons Ratio (x) = 0.00116 0.48926
# Poissons Ratio (y) = 0.00170 0.33135
# Poissons Ratio (z) = 0.52126 0.23988
#
# Static dielectric constant tensor:
#      x y z
#    x 3.654400 0.000000 0.000000 
#    y 0.000000 3.216510 0.000000 
#    z 0.000000 0.000000 3.538760 
# 
# 
# High freq. dielectric constant tensor:
#      x y z
#    x 1.746930 0.000000 0.000000 
#    y 0.000000 1.715910 0.000000 
#    z 0.000000 0.000000 1.742730 
# 
# From -- ./inp_files/4531.got.cif
#   From: 2010.03.12/outbox.cif.g09.slc.cpg/sg57_3_cif.got.tgz:4531.got - 2010.04.16 15:48:40.
