data_PCOD8231610
_publ_section_title
;
Structure prediction by ZEFSAII (Michael W. Deem and Ramdas Pophale) SiO2 
 PCOD8231610
Probable space group: P B C M
;
_chemical_formula_sum "Si O2"
_cell_formula_units_Z 48
_cell_length_a 8.747355
_cell_length_b 15.385690
_cell_length_c 17.298454
_cell_angle_alpha 90.000000
_cell_angle_beta 90.000000
_cell_angle_gamma 90.000000
_cell_volume 2328.096731
_symmetry_space_group_name_H-M "P B C M"
_symmetry_group_IT_number 57
_symmetry_cell_setting 'orthorhombic'
loop_
_space_group_symop_operation_xyz
x,y,z
-x,-y,1/2+z
x,1/2-y,-z
-x,1/2+y,1/2-z
-x,-y,-z
x,y,1/2-z
-x,1/2+y,z
x,1/2-y,1/2+z
loop_
_atom_site_type_symbol
_atom_site_label
_atom_site_fract_x
_atom_site_fract_y
_atom_site_fract_z
Si Si1 0.591944 0.923043 0.584131
Si Si2 0.947139 0.537122 0.082537
Si Si3 0.421203 0.413902 0.095149
Si Si4 0.906204 0.883280 0.339256
Si Si5 0.573467 0.244022 0.407933
Si Si6 0.080834 0.724914 0.089139
O O1 0.770701 0.939369 0.588936
O O2 0.543925 0.916510 0.495399
O O3 0.536774 0.833007 0.622968
O O4 0.497298 0.998476 0.628739
O O5 0.975244 0.461496 0.145277
O O6 0.037377 0.624836 0.102410
O O7 0.000000 0.500000 0.000000
O O8 0.242138 0.407123 0.110787
O O9 0.507863 0.331167 0.131208
O O10 0.861924 0.879845 0.250000
O O11 0.972597 0.789764 0.363271
O O12 0.568403 0.250000 0.500000
O O13 0.746981 0.232751 0.379729
O O14 0.064391 0.750000 0.000000
#
# Coordination Sequence:
#
# PCOD8231610 Si02
#       6
#     8   8   8   8   8   8
#     4  10  19  33  60  92 119 156 215 268 312 366
#     4  12  22  38  67  96 127 167 217 271 315 387
#     4  10  19  35  57  84 124 163 207 262 316 379
#     4  12  26  42  62  95 135 173 212 270 339 391
#     4   9  19  32  57  92 121 154 205 267 313 366
#     4  11  21  39  67  95 126 166 217 266 319 385
#
# _framework density 20.617701
#
# number of rings (size 3 to 8) (size 9 to 14) (size 15 to 20)
#    0.000    1.333    3.333    3.000    4.667    2.000 
#    0.000    3.333    0.000    4.000    0.000    0.000 
#    0.000    0.000    0.000    0.000    0.000    0.000 
#
# Total GULP energy -595121.216271 kJ/mol
# GULP energy per Si atom -12398.358672 kJ/mol
# Density = 2.057077 g / cm^3
# Si number density = 20.617701 Si / 1000 Ang^3
#
#
#
# Elastic Constant Matrix: (Units=GPa)
#
#
# Indices 1 2 3 4 5 6 
#
# 1 150.9558 72.1520 2.4924 0.0000 0.0000 0.0000
# 2 72.1520 191.9287 25.9143 0.0000 0.0000 0.0000
# 3 2.4924 25.9143 34.8753 0.0000 0.0000 0.0000
# 4 0.0000 0.0000 0.0000 15.1015 0.0000 0.0000
# 5 0.0000 0.0000 0.0000 0.0000 5.7627 0.0000
# 6 0.0000 0.0000 0.0000 0.0000 0.0000 50.3482
#
#
#
# Elastic Compliance Matrix: (Units=1/GPa)
#
#
# Indices 1 2 3 4 5 6 
#
# 1 0.008186 -0.003333 0.001891 0.000000 0.000000 0.000000
# 2 -0.003333 0.007148 -0.005073 0.000000 0.000000 0.000000
# 3 0.001891 -0.005073 0.032308 0.000000 0.000000 0.000000
# 4 0.000000 0.000000 0.000000 0.066219 0.000000 0.000000
# 5 0.000000 0.000000 0.000000 0.000000 0.173529 0.000000
# 6 0.000000 0.000000 0.000000 0.000000 0.000000 0.019862
#
#
# Mechanical properties :
#
#
# Convention : Reuss Voigt Hill
#
# Bulk Modulus (GPa) = 28.89073 64.31968 46.60520
# Shear Modulus (GPa) = 15.06844 32.72254 23.89549
#
# Velocity S-wave (km/s) = 2.70636 3.98818 3.40807
# Velocity P-wave (km/s) = 4.87943 7.24372 6.17577
#
# Compressibility (1/GPa) = 0.03461318
#
# Stress axis : x y z
#
# Youngs Moduli (GPa) = 122.15653 139.89560 30.95191
#
# Poissons Ratio (x) = 0.46625 -0.05854
# Poissons Ratio (y) = 0.40713 0.15703
# Poissons Ratio (z) = -0.23105 0.70973
#
# Static dielectric constant tensor:
#      x y z
#    x 3.777230 0.000000 0.000000 
#    y 0.000000 4.332910 0.000000 
#    z 0.000000 0.000000 3.212600 
# 
# 
# High freq. dielectric constant tensor:
#      x y z
#    x 1.820900 0.000000 0.000000 
#    y 0.000000 1.836540 0.000000 
#    z 0.000000 0.000000 1.742670 
# 
# From -- ./inp_files/20929.got.cif
#   From: 2010.03.12/outbox.cif.g09.slc.cpg/sg57_11_cif.got.tgz:20929.got - 2010.04.16 15:48:40.
