data_PCOD8231381
_publ_section_title
;
Structure prediction by ZEFSAII (Michael W. Deem and Ramdas Pophale) SiO2 
 PCOD8231381
Probable space group: P B C M
;
_chemical_formula_sum "Si O2"
_cell_formula_units_Z 64
_cell_length_a 15.128504
_cell_length_b 23.894865
_cell_length_c 9.012214
_cell_angle_alpha 90.000000
_cell_angle_beta 90.000000
_cell_angle_gamma 90.000000
_cell_volume 3257.857329
_symmetry_space_group_name_H-M "P B C M"
_symmetry_group_IT_number 57
_symmetry_cell_setting 'orthorhombic'
loop_
_space_group_symop_operation_xyz
x,y,z
-x,-y,1/2+z
x,1/2-y,-z
-x,1/2+y,1/2-z
-x,-y,-z
x,y,1/2-z
-x,1/2+y,z
x,1/2-y,1/2+z
loop_
_atom_site_type_symbol
_atom_site_label
_atom_site_fract_x
_atom_site_fract_y
_atom_site_fract_z
Si Si1 0.852654 0.021569 0.081586
Si Si2 0.207726 0.693698 0.078893
Si Si3 0.959516 0.371780 0.923240
Si Si4 0.621271 0.123541 0.077215
Si Si5 0.529495 0.808206 0.075736
Si Si6 0.670437 0.014959 0.925694
Si Si7 0.128638 0.105156 0.583290
Si Si8 0.326021 0.401045 0.423427
O O1 0.818175 0.033966 0.250000
O O2 0.927121 0.065837 0.035562
O O3 0.895380 0.960369 0.072824
O O4 0.771696 0.025953 0.968582
O O5 0.199567 0.708470 0.250000
O O6 0.113436 0.672091 0.016154
O O7 0.278876 0.644841 0.053467
O O8 0.238506 0.750000 0.000000
O O9 0.971058 0.364357 0.750000
O O10 0.055195 0.360018 0.993896
O O11 0.596501 0.118498 0.250000
O O12 0.558140 0.168085 0.999138
O O13 0.610071 0.063397 0.998529
O O14 0.512576 0.799701 0.250000
O O15 0.610695 0.849471 0.044652
O O16 0.554990 0.750000 0.000000
O O17 0.658212 0.016512 0.750000
O O18 0.638295 0.954993 0.987824
O O19 0.123869 0.127569 0.750000
O O20 0.227526 0.115351 0.519888
O O21 0.321210 0.417502 0.250000
#
# Coordination Sequence:
#
# PCOD8231381 Si02
#       8
#     8   8   8   8   8   8   8   8
#     4   9  17  33  52  75 116 157 187 225 284 348
#     4  10  22  38  56  78 110 153 193 233 286 341
#     4  10  19  33  52  77 111 151 190 231 282 340
#     4  11  22  40  63  86 119 157 190 235 295 356
#     4  11  24  43  66  91 115 148 196 245 293 348
#     4  11  21  33  57  92 123 152 194 240 288 348
#     4   9  18  32  54  82 110 147 189 234 284 333
#     4   9  21  42  62  82 119 160 193 237 295 354
#
# _framework density 19.644814
#
# number of rings (size 3 to 8) (size 9 to 14) (size 15 to 20)
#    0.000    2.000    1.250    3.375    0.000    6.500 
#    0.000    0.625    0.000    3.000    0.000    0.000 
#    0.000    0.000    0.000    0.000    0.000    0.000 
#
# Total GULP energy -793663.927615 kJ/mol
# GULP energy per Si atom -12400.998869 kJ/mol
# Density = 1.960010 g / cm^3
# Si number density = 19.644814 Si / 1000 Ang^3
#
#
#
# Elastic Constant Matrix: (Units=GPa)
#
#
# Indices 1 2 3 4 5 6 
#
# 1 73.8397 46.9870 41.5904 0.0000 0.0000 0.0000
# 2 46.9870 106.1286 61.2916 0.0000 0.0000 0.0000
# 3 41.5904 61.2916 103.8643 0.0000 0.0000 0.0000
# 4 0.0000 0.0000 0.0000 31.6074 0.0000 0.0000
# 5 0.0000 0.0000 0.0000 0.0000 29.3151 0.0000
# 6 0.0000 0.0000 0.0000 0.0000 0.0000 27.6275
#
#
#
# Elastic Compliance Matrix: (Units=1/GPa)
#
#
# Indices 1 2 3 4 5 6 
#
# 1 0.020006 -0.006418 -0.004224 0.000000 0.000000 0.000000
# 2 -0.006418 0.016353 -0.007080 0.000000 0.000000 0.000000
# 3 -0.004224 -0.007080 0.015497 0.000000 0.000000 0.000000
# 4 0.000000 0.000000 0.000000 0.031638 0.000000 0.000000
# 5 0.000000 0.000000 0.000000 0.000000 0.034112 0.000000
# 6 0.000000 0.000000 0.000000 0.000000 0.000000 0.036196
#
#
# Mechanical properties :
#
#
# Convention : Reuss Voigt Hill
#
# Bulk Modulus (GPa) = 60.92893 64.84119 62.88506
# Shear Modulus (GPa) = 25.67836 26.64091 26.15964
#
# Velocity S-wave (km/s) = 3.61935 3.68656 3.65311
# Velocity P-wave (km/s) = 6.96770 7.15538 7.06216
#
# Compressibility (1/GPa) = 0.01641256
#
# Stress axis : x y z
#
# Youngs Moduli (GPa) = 49.98536 61.15094 64.52771
#
# Poissons Ratio (x) = 0.39248 0.27253
# Poissons Ratio (y) = 0.32081 0.45686
# Poissons Ratio (z) = 0.21111 0.43295
#
# Static dielectric constant tensor:
#      x y z
#    x 3.518700 0.000000 0.000000 
#    y 0.000000 3.516560 0.000000 
#    z 0.000000 0.000000 3.497010 
# 
# 
# High freq. dielectric constant tensor:
#      x y z
#    x 1.762760 0.000000 0.000000 
#    y 0.000000 1.756490 0.000000 
#    z 0.000000 0.000000 1.759200 
# 
# From -- ./inp_files/5578.got.cif
#   From: 2010.03.12/outbox.cif.g09.slc.cpg/sg57_3_cif.got.tgz:5578.got - 2010.04.16 15:48:40.
