data_PCOD8231120
_publ_section_title
;
Structure prediction by ZEFSAII (Michael W. Deem and Ramdas Pophale) SiO2 
 PCOD8231120
Probable space group: P B C M
;
_chemical_formula_sum "Si O2"
_cell_formula_units_Z 64
_cell_length_a 20.354168
_cell_length_b 19.542465
_cell_length_c 9.285757
_cell_angle_alpha 90.000000
_cell_angle_beta 90.000000
_cell_angle_gamma 90.000000
_cell_volume 3693.601280
_symmetry_space_group_name_H-M "P B C M"
_symmetry_group_IT_number 57
_symmetry_cell_setting 'orthorhombic'
loop_
_space_group_symop_operation_xyz
x,y,z
-x,-y,1/2+z
x,1/2-y,-z
-x,1/2+y,1/2-z
-x,-y,-z
x,y,1/2-z
-x,1/2+y,z
x,1/2-y,1/2+z
loop_
_atom_site_type_symbol
_atom_site_label
_atom_site_fract_x
_atom_site_fract_y
_atom_site_fract_z
Si Si1 0.679781 0.552681 0.084536
Si Si2 0.023306 0.685305 0.083812
Si Si3 0.127076 0.314355 0.583713
Si Si4 0.173001 0.461843 0.584953
Si Si5 0.557516 0.037640 0.582068
Si Si6 0.365319 0.317887 0.419316
Si Si7 0.939283 0.464979 0.919963
Si Si8 0.517769 0.184534 0.584055
O O1 0.669694 0.576493 0.250000
O O2 0.751038 0.517943 0.064354
O O3 0.627276 0.494933 0.040564
O O4 0.673920 0.617746 0.981339
O O5 0.028220 0.703839 0.250000
O O6 0.062081 0.615978 0.047307
O O7 0.948097 0.673451 0.036013
O O8 0.054333 0.750000 0.000000
O O9 0.158088 0.250000 0.500000
O O10 0.132661 0.296421 0.750000
O O11 0.167037 0.382100 0.543515
O O12 0.149299 0.473210 0.750000
O O13 0.129440 0.506893 0.478436
O O14 0.541460 0.030541 0.750000
O O15 0.559017 0.117600 0.538026
O O16 0.500000 0.000000 0.500000
O O17 0.339948 0.250000 0.500000
O O18 0.351467 0.310818 0.250000
O O19 0.441886 0.329620 0.453964
O O20 0.946267 0.479311 0.750000
O O21 0.000000 0.500000 0.000000
O O22 0.545673 0.250000 0.500000
O O23 0.526585 0.202047 0.750000
#
# Coordination Sequence:
#
# PCOD8231120 Si02
#       8
#     8   8   8   8   8   8   8   8
#     4  10  21  35  53  75 105 142 178 218 265 314
#     4   9  18  32  51  77 104 130 165 211 255 301
#     4   9  17  31  48  69 101 134 170 209 247 298
#     4  10  21  37  52  74 107 142 177 215 261 313
#     4  10  19  33  53  78 103 133 173 217 262 309
#     4  10  19  32  50  73 105 140 177 216 259 313
#     4  11  21  35  56  81 106 136 175 219 262 309
#     4   9  18  31  49  75 103 131 168 215 261 311
#
# _framework density 17.327262000000001
#
# number of rings (size 3 to 8) (size 9 to 14) (size 15 to 20)
#    0.000    2.250    2.500    0.750    0.000    3.500 
#    0.000    1.250    0.000    0.750    0.000    3.500 
#    0.000    0.000    0.000    0.000    0.000    0.000 
#
# Total GULP energy -793683.745889 kJ/mol
# GULP energy per Si atom -12401.308530 kJ/mol
# Density = 1.728782 g / cm^3
# Si number density = 17.327262 Si / 1000 Ang^3
#
#
#
# Elastic Constant Matrix: (Units=GPa)
#
#
# Indices 1 2 3 4 5 6 
#
# 1 85.4467 55.4419 42.0023 0.0000 0.0000 0.0000
# 2 55.4419 123.8446 62.8371 0.0000 0.0000 0.0000
# 3 42.0023 62.8371 76.8424 0.0000 0.0000 0.0000
# 4 0.0000 0.0000 0.0000 34.6343 0.0000 0.0000
# 5 0.0000 0.0000 0.0000 0.0000 19.6365 0.0000
# 6 0.0000 0.0000 0.0000 0.0000 0.0000 21.6995
#
#
#
# Elastic Compliance Matrix: (Units=1/GPa)
#
#
# Indices 1 2 3 4 5 6 
#
# 1 0.017747 -0.005167 -0.005476 0.000000 0.000000 0.000000
# 2 -0.005167 0.015305 -0.009691 0.000000 0.000000 0.000000
# 3 -0.005476 -0.009691 0.023932 0.000000 0.000000 0.000000
# 4 0.000000 0.000000 0.000000 0.028873 0.000000 0.000000
# 5 0.000000 0.000000 0.000000 0.000000 0.050926 0.000000
# 6 0.000000 0.000000 0.000000 0.000000 0.000000 0.046084
#
#
# Mechanical properties :
#
#
# Convention : Reuss Voigt Hill
#
# Bulk Modulus (GPa) = 61.28793 67.41070 64.34931
# Shear Modulus (GPa) = 21.83671 23.58423 22.71047
#
# Velocity S-wave (km/s) = 3.55385 3.69332 3.62426
# Velocity P-wave (km/s) = 7.23100 7.56150 7.39810
#
# Compressibility (1/GPa) = 0.01631643
#
# Stress axis : x y z
#
# Youngs Moduli (GPa) = 56.34685 65.33898 41.78584
#
# Poissons Ratio (x) = 0.33758 0.22881
# Poissons Ratio (y) = 0.29113 0.40496
# Poissons Ratio (z) = 0.30854 0.63321
#
# Static dielectric constant tensor:
#      x y z
#    x 3.064190 0.000000 0.000000 
#    y 0.000000 3.377830 0.000000 
#    z 0.000000 0.000000 3.286080 
# 
# 
# High freq. dielectric constant tensor:
#      x y z
#    x 1.642470 0.000000 0.000000 
#    y 0.000000 1.671380 0.000000 
#    z 0.000000 0.000000 1.671280 
# 
# From -- ./inp_files/7210.got.cif
#   From: 2010.03.12/outbox.cif.g09.slc.cpg/sg57_4_cif.got.tgz:7210.got - 2010.04.16 15:48:40.
