data_PCOD8231751
_publ_section_title
;
Structure prediction by ZEFSAII (Michael W. Deem and Ramdas Pophale) SiO2 
 PCOD8231751
Probable space group: P B C M
;
_chemical_formula_sum "Si O2"
_cell_formula_units_Z 48
_cell_length_a 31.369714
_cell_length_b 9.140327
_cell_length_c 8.547698
_cell_angle_alpha 90.000000
_cell_angle_beta 90.000000
_cell_angle_gamma 90.000000
_cell_volume 2450.876694
_symmetry_space_group_name_H-M "P B C M"
_symmetry_group_IT_number 57
_symmetry_cell_setting 'orthorhombic'
loop_
_space_group_symop_operation_xyz
x,y,z
-x,-y,1/2+z
x,1/2-y,-z
-x,1/2+y,1/2-z
-x,-y,-z
x,y,1/2-z
-x,1/2+y,z
x,1/2-y,1/2+z
loop_
_atom_site_type_symbol
_atom_site_label
_atom_site_fract_x
_atom_site_fract_y
_atom_site_fract_z
Si Si1 0.288213 0.908812 0.932669
Si Si2 0.118138 0.411968 0.934738
Si Si3 0.620106 0.087970 0.435165
Si Si4 0.960356 0.411887 0.565035
Si Si5 0.539464 0.911142 0.064454
Si Si6 0.804477 0.414336 0.564163
O O1 0.289923 0.891703 0.750000
O O2 0.333358 0.980814 0.987840
O O3 0.242772 0.981687 0.978180
O O4 0.286951 0.750000 0.000000
O O5 0.111689 0.409918 0.750000
O O6 0.112995 0.250000 0.000000
O O7 0.083275 0.514784 0.012613
O O8 0.164072 0.475505 0.978158
O O9 0.613376 0.250000 0.500000
O O10 0.616823 0.098307 0.250000
O O11 0.583131 0.983268 0.500248
O O12 0.962298 0.250000 0.500000
O O13 0.962799 0.407681 0.750000
O O14 0.000000 0.500000 0.500000
O O15 0.537918 0.909649 0.250000
O O16 0.536660 0.750000 0.000000
O O17 0.500000 0.000000 0.000000
O O18 0.810484 0.250000 0.500000
O O19 0.812871 0.413185 0.750000
#
# Coordination Sequence:
#
# PCOD8231751 Si02
#       6
#     8   8   8   8   8   8
#     4   8  15  29  51  78 109 142 181 225 273 326
#     4  12  25  42  61  85 117 155 196 240 288 340
#     4   9  18  33  54  80 108 141 179 224 273 328
#     4  12  25  44  67  94 124 157 195 237 285 338
#     4  11  23  38  56  78 107 141 181 225 275 330
#     4  10  19  34  57  85 115 150 190 235 281 332
#
# _framework density 19.58483
#
# number of rings (size 3 to 8) (size 9 to 14) (size 15 to 20)
#    0.000    1.667    0.000    5.500    0.000    3.333 
#    0.000    0.833    0.000    2.000    0.000    0.000 
#    0.000    0.000    0.000    0.000    0.000    0.000 
#
# Total GULP energy -594843.099838 kJ/mol
# GULP energy per Si atom -12392.564580 kJ/mol
# Density = 1.954025 g / cm^3
# Si number density = 19.584830 Si / 1000 Ang^3
#
#
#
# Elastic Constant Matrix: (Units=GPa)
#
#
# Indices 1 2 3 4 5 6 
#
# 1 184.5562 80.8873 54.1329 0.0000 0.0000 0.0000
# 2 80.8873 133.4979 46.6044 0.0000 0.0000 0.0000
# 3 54.1329 46.6044 102.3344 0.0000 0.0000 0.0000
# 4 0.0000 0.0000 0.0000 33.2192 0.0000 0.0000
# 5 0.0000 0.0000 0.0000 0.0000 201.6317 0.0000
# 6 0.0000 0.0000 0.0000 0.0000 0.0000 27.6251
#
#
#
# Elastic Compliance Matrix: (Units=1/GPa)
#
#
# Indices 1 2 3 4 5 6 
#
# 1 0.007827 -0.003921 -0.002355 0.000000 0.000000 0.000000
# 2 -0.003921 0.010870 -0.002877 0.000000 0.000000 0.000000
# 3 -0.002355 -0.002877 0.012328 0.000000 0.000000 0.000000
# 4 0.000000 0.000000 0.000000 0.030103 0.000000 0.000000
# 5 0.000000 0.000000 0.000000 0.000000 0.004960 0.000000
# 6 0.000000 0.000000 0.000000 0.000000 0.000000 0.036199
#
#
# Mechanical properties :
#
#
# Convention : Reuss Voigt Hill
#
# Bulk Modulus (GPa) = 78.60969 87.07084 82.84027
# Shear Modulus (GPa) = 40.05372 68.41279 54.23326
#
# Velocity S-wave (km/s) = 4.52723 5.91670 5.26798
# Velocity P-wave (km/s) = 8.21906 9.55151 8.91023
#
# Compressibility (1/GPa) = 0.01272108
#
# Stress axis : x y z
#
# Youngs Moduli (GPa) = 127.75479 91.99212 81.11766
#
# Poissons Ratio (x) = 0.36066 0.19104
# Poissons Ratio (y) = 0.50087 0.23335
# Poissons Ratio (z) = 0.30088 0.26463
#
# Static dielectric constant tensor:
#      x y z
#    x 4.529450 0.000000 0.000000 
#    y 0.000000 3.434860 0.000000 
#    z 0.000000 0.000000 3.730170 
# 
# 
# High freq. dielectric constant tensor:
#      x y z
#    x 1.797490 0.000000 0.000000 
#    y 0.000000 1.740770 0.000000 
#    z 0.000000 0.000000 1.773180 
# 
# From -- ./inp_files/9952.got.cif
#   From: 2010.03.12/outbox.cif.g09.slc.cpg/sg57_5_cif.got.tgz:9952.got - 2010.04.16 15:48:40.
