data_PCOD8231115
_publ_section_title
;
Structure prediction by ZEFSAII (Michael W. Deem and Ramdas Pophale) SiO2 
 PCOD8231115
Probable space group: P B C M
;
_chemical_formula_sum "Si O2"
_cell_formula_units_Z 64
_cell_length_a 12.015877
_cell_length_b 31.350219
_cell_length_c 9.177819
_cell_angle_alpha 90.000000
_cell_angle_beta 90.000000
_cell_angle_gamma 90.000000
_cell_volume 3457.287863
_symmetry_space_group_name_H-M "P B C M"
_symmetry_group_IT_number 57
_symmetry_cell_setting 'orthorhombic'
loop_
_space_group_symop_operation_xyz
x,y,z
-x,-y,1/2+z
x,1/2-y,-z
-x,1/2+y,1/2-z
-x,-y,-z
x,y,1/2-z
-x,1/2+y,z
x,1/2-y,1/2+z
loop_
_atom_site_type_symbol
_atom_site_label
_atom_site_fract_x
_atom_site_fract_y
_atom_site_fract_z
Si Si1 0.421603 0.630893 0.421303
Si Si2 0.602199 0.980882 0.416026
Si Si3 0.867526 0.874287 0.921710
Si Si4 0.988140 0.292693 0.920876
Si Si5 0.258516 0.560129 0.416818
Si Si6 0.642089 0.885904 0.423341
Si Si7 0.983823 0.045426 0.076596
Si Si8 0.264608 0.709101 0.081876
O O1 0.449493 0.625998 0.250000
O O2 0.353415 0.590272 0.487444
O O3 0.535255 0.637834 0.509930
O O4 0.344379 0.670566 0.456765
O O5 0.564056 0.977862 0.250000
O O6 0.635601 0.934871 0.475785
O O7 0.500000 0.000000 0.500000
O O8 0.709333 0.010767 0.436429
O O9 0.843820 0.873911 0.750000
O O10 0.944516 0.834665 0.968549
O O11 0.923450 0.919588 0.966816
O O12 0.753819 0.866847 0.008700
O O13 0.999718 0.284687 0.750000
O O14 0.860933 0.301704 0.968340
O O15 0.033730 0.250000 0.000000
O O16 0.255097 0.574961 0.250000
O O17 0.134106 0.565029 0.479713
O O18 0.644593 0.880358 0.250000
O O19 0.980736 0.037696 0.250000
O O20 0.000000 0.000000 0.000000
O O21 0.266119 0.720266 0.250000
O O22 0.312443 0.750000 0.000000
#
# Coordination Sequence:
#
# PCOD8231115 Si02
#       8
#     8   8   8   8   8   8   8   8
#     4  10  19  34  56  78 102 138 179 212 255 320
#     4  10  19  32  50  73 102 138 176 216 260 308
#     4  10  21  37  57  79 108 149 189 223 268 334
#     4   9  18  35  59  87 112 138 178 224 274 331
#     4   9  17  31  53  76 100 133 172 215 258 304
#     4  11  23  36  52  78 110 142 180 228 272 311
#     4  10  20  35  54  78 109 144 181 222 268 320
#     4   9  18  33  56  84 110 136 168 212 266 322
#
# _framework density 18.511621000000002
#
# number of rings (size 3 to 8) (size 9 to 14) (size 15 to 20)
#    0.000    2.250    1.250    1.875    0.000    6.000 
#    0.000    1.875    0.000    3.000    0.000    0.000 
#    0.000    0.000    0.000    0.000    0.000    0.000 
#
# Total GULP energy -793486.633852 kJ/mol
# GULP energy per Si atom -12398.228654 kJ/mol
# Density = 1.846949 g / cm^3
# Si number density = 18.511621 Si / 1000 Ang^3
#
#
#
# Elastic Constant Matrix: (Units=GPa)
#
#
# Indices 1 2 3 4 5 6 
#
# 1 127.4272 51.3798 43.7859 0.0000 0.0000 0.0000
# 2 51.3798 119.7204 43.2821 0.0000 0.0000 0.0000
# 3 43.7859 43.2821 44.8860 0.0000 0.0000 0.0000
# 4 0.0000 0.0000 0.0000 30.6396 0.0000 0.0000
# 5 0.0000 0.0000 0.0000 0.0000 24.6536 0.0000
# 6 0.0000 0.0000 0.0000 0.0000 0.0000 20.4699
#
#
#
# Elastic Compliance Matrix: (Units=1/GPa)
#
#
# Indices 1 2 3 4 5 6 
#
# 1 0.011956 -0.001404 -0.010309 0.000000 0.000000 0.000000
# 2 -0.001404 0.012988 -0.011154 0.000000 0.000000 0.000000
# 3 -0.010309 -0.011154 0.043091 0.000000 0.000000 0.000000
# 4 0.000000 0.000000 0.000000 0.032638 0.000000 0.000000
# 5 0.000000 0.000000 0.000000 0.000000 0.040562 0.000000
# 6 0.000000 0.000000 0.000000 0.000000 0.000000 0.048852
#
#
# Mechanical properties :
#
#
# Convention : Reuss Voigt Hill
#
# Bulk Modulus (GPa) = 44.84312 63.21436 54.02874
# Shear Modulus (GPa) = 20.55460 25.39167 22.97314
#
# Velocity S-wave (km/s) = 3.33582 3.70761 3.52662
# Velocity P-wave (km/s) = 6.25411 7.24922 6.76997
#
# Compressibility (1/GPa) = 0.02229997
#
# Stress axis : x y z
#
# Youngs Moduli (GPa) = 83.63890 76.99470 23.20687
#
# Poissons Ratio (x) = 0.10811 0.23924
# Poissons Ratio (y) = 0.11744 0.25885
# Poissons Ratio (z) = 0.86225 0.85881
#
# Static dielectric constant tensor:
#      x y z
#    x 3.651940 0.000000 0.000000 
#    y 0.000000 3.627040 0.000000 
#    z 0.000000 0.000000 3.221130 
# 
# 
# High freq. dielectric constant tensor:
#      x y z
#    x 1.723710 0.000000 0.000000 
#    y 0.000000 1.717410 0.000000 
#    z 0.000000 0.000000 1.696550 
# 
# From -- ./inp_files/3804.got.cif
#   From: 2010.03.12/outbox.cif.g09.slc.cpg/sg57_2_cif.got.tgz:3804.got - 2010.04.16 15:48:40.
