data_PCOD8231094
_publ_section_title
;
Structure prediction by ZEFSAII (Michael W. Deem and Ramdas Pophale) SiO2 
 PCOD8231094
Probable space group: P B C M
;
_chemical_formula_sum "Si O2"
_cell_formula_units_Z 56
_cell_length_a 25.737572
_cell_length_b 13.987655
_cell_length_c 8.669656
_cell_angle_alpha 90.000000
_cell_angle_beta 90.000000
_cell_angle_gamma 90.000000
_cell_volume 3121.147925
_symmetry_space_group_name_H-M "P B C M"
_symmetry_group_IT_number 57
_symmetry_cell_setting 'orthorhombic'
loop_
_space_group_symop_operation_xyz
x,y,z
-x,-y,1/2+z
x,1/2-y,-z
-x,1/2+y,1/2-z
-x,-y,-z
x,y,1/2-z
-x,1/2+y,z
x,1/2-y,1/2+z
loop_
_atom_site_type_symbol
_atom_site_label
_atom_site_fract_x
_atom_site_fract_y
_atom_site_fract_z
Si Si1 0.421005 0.469782 0.069295
Si Si2 0.523999 0.144814 0.931321
Si Si3 0.910443 0.154369 0.429749
Si Si4 0.980549 0.594312 0.074558
Si Si5 0.873110 0.957492 0.568850
Si Si6 0.780139 0.850825 0.431522
Si Si7 0.330486 0.352051 0.932272
O O1 0.409883 0.474041 0.250000
O O2 0.467264 0.396478 0.029337
O O3 0.433491 0.576065 0.009397
O O4 0.370226 0.433984 0.981431
O O5 0.534213 0.147848 0.750000
O O6 0.529480 0.250000 0.000000
O O7 0.884614 0.250000 0.500000
O O8 0.896279 0.142056 0.250000
O O9 0.973406 0.170414 0.451144
O O10 0.888488 0.065509 0.525224
O O11 0.972986 0.567670 0.250000
O O12 0.921100 0.614718 0.017871
O O13 0.000000 0.500000 0.000000
O O14 0.860013 0.950909 0.750000
O O15 0.822818 0.929918 0.471278
O O16 0.798889 0.750000 0.500000
O O17 0.772876 0.841219 0.250000
O O18 0.725735 0.882414 0.505302
O O19 0.328593 0.342932 0.750000
O O20 0.348214 0.250000 0.000000
#
# Coordination Sequence:
#
# PCOD8231094 Si02
#       7
#     8   8   8   8   8   8   8
#     4  10  20  34  53  78 108 143 181 219 261 308
#     4  10  20  33  51  77 110 146 182 220 261 306
#     4  10  19  32  49  73 101 134 171 208 250 300
#     4   8  16  29  46  67  94 125 160 199 244 295
#     4  10  19  34  53  75 102 133 167 209 256 304
#     4  11  22  37  55  77 103 133 169 211 258 308
#     4  11  21  35  55  79 106 136 172 214 259 308
#
# _framework density 17.942115999999999
#
# number of rings (size 3 to 8) (size 9 to 14) (size 15 to 20)
#    0.000    2.000    0.000    5.571    0.000    4.571 
#    0.000    1.429    0.000    0.857    0.000    6.000 
#    0.000    0.000    0.000    0.000    0.000    0.000 
#
# Total GULP energy -694007.031549 kJ/mol
# GULP energy per Si atom -12392.982706 kJ/mol
# Density = 1.790128 g / cm^3
# Si number density = 17.942116 Si / 1000 Ang^3
#
#
#
# Elastic Constant Matrix: (Units=GPa)
#
#
# Indices 1 2 3 4 5 6 
#
# 1 101.1772 51.0950 47.3980 0.0000 0.0000 0.0000
# 2 51.0950 94.2221 41.6627 0.0000 0.0000 0.0000
# 3 47.3980 41.6627 108.8288 0.0000 0.0000 0.0000
# 4 0.0000 0.0000 0.0000 31.0567 0.0000 0.0000
# 5 0.0000 0.0000 0.0000 0.0000 27.3057 0.0000
# 6 0.0000 0.0000 0.0000 0.0000 0.0000 10.6055
#
#
#
# Elastic Compliance Matrix: (Units=1/GPa)
#
#
# Indices 1 2 3 4 5 6 
#
# 1 0.015001 -0.006315 -0.004116 0.000000 0.000000 0.000000
# 2 -0.006315 0.015434 -0.003158 0.000000 0.000000 0.000000
# 3 -0.004116 -0.003158 0.012190 0.000000 0.000000 0.000000
# 4 0.000000 0.000000 0.000000 0.032199 0.000000 0.000000
# 5 0.000000 0.000000 0.000000 0.000000 0.036622 0.000000
# 6 0.000000 0.000000 0.000000 0.000000 0.000000 0.094291
#
#
# Mechanical properties :
#
#
# Convention : Reuss Voigt Hill
#
# Bulk Modulus (GPa) = 64.73545 64.94882 64.84213
# Shear Modulus (GPa) = 21.00271 24.73175 22.86723
#
# Velocity S-wave (km/s) = 3.42509 3.71673 3.57389
# Velocity P-wave (km/s) = 7.19723 7.39571 7.29714
#
# Compressibility (1/GPa) = 0.01544749
#
# Stress axis : x y z
#
# Youngs Moduli (GPa) = 66.66348 64.79144 82.03180
#
# Poissons Ratio (x) = 0.40914 0.33762
# Poissons Ratio (y) = 0.42096 0.25909
# Poissons Ratio (z) = 0.27437 0.20464
#
# Static dielectric constant tensor:
#      x y z
#    x 3.696410 0.000000 0.000000 
#    y 0.000000 3.255360 0.000000 
#    z 0.000000 0.000000 3.425820 
# 
# 
# High freq. dielectric constant tensor:
#      x y z
#    x 1.684190 0.000000 0.000000 
#    y 0.000000 1.679840 0.000000 
#    z 0.000000 0.000000 1.713680 
# 
# From -- ./inp_files/8129.got.cif
#   From: 2010.03.12/outbox.cif.g09.slc.cpg/sg57_5_cif.got.tgz:8129.got - 2010.04.16 15:48:40.
