data_PCOD8231484
_publ_section_title
;
Structure prediction by ZEFSAII (Michael W. Deem and Ramdas Pophale) SiO2 
 PCOD8231484
Probable space group: P B C M
;
_chemical_formula_sum "Si O2"
_cell_formula_units_Z 64
_cell_length_a 19.464494
_cell_length_b 20.644226
_cell_length_c 8.703361
_cell_angle_alpha 90.000000
_cell_angle_beta 90.000000
_cell_angle_gamma 90.000000
_cell_volume 3497.266443
_symmetry_space_group_name_H-M "P B C M"
_symmetry_group_IT_number 57
_symmetry_cell_setting 'orthorhombic'
loop_
_space_group_symop_operation_xyz
x,y,z
-x,-y,1/2+z
x,1/2-y,-z
-x,1/2+y,1/2-z
-x,-y,-z
x,y,1/2-z
-x,1/2+y,z
x,1/2-y,1/2+z
loop_
_atom_site_type_symbol
_atom_site_label
_atom_site_fract_x
_atom_site_fract_y
_atom_site_fract_z
Si Si1 0.681664 0.867226 0.429660
Si Si2 0.685839 0.482815 0.572039
Si Si3 0.961228 0.817768 0.431716
Si Si4 0.460740 0.939842 0.569321
Si Si5 0.174911 0.367068 0.929219
Si Si6 0.826613 0.481344 0.427313
Si Si7 0.544498 0.816613 0.932182
Si Si8 0.961436 0.061348 0.069209
O O1 0.685959 0.852419 0.250000
O O2 0.751572 0.843609 0.509638
O O3 0.620561 0.826714 0.503339
O O4 0.668548 0.942626 0.464151
O O5 0.704581 0.473734 0.750000
O O6 0.619560 0.440994 0.522309
O O7 0.750265 0.458305 0.472801
O O8 0.987671 0.750000 0.500000
O O9 0.968123 0.817321 0.250000
O O10 0.882293 0.828062 0.478414
O O11 0.008973 0.873276 0.499939
O O12 0.468249 0.946446 0.750000
O O13 0.493906 0.873300 0.509050
O O14 0.500000 0.000000 0.500000
O O15 0.168274 0.351190 0.750000
O O16 0.164559 0.442891 0.962846
O O17 0.839787 0.465509 0.250000
O O18 0.880923 0.442129 0.529447
O O19 0.547200 0.813519 0.750000
O O20 0.514581 0.750000 0.000000
O O21 0.973470 0.061549 0.250000
O O22 0.000000 0.000000 0.000000
#
# Coordination Sequence:
#
# PCOD8231484 Si02
#       8
#     8   8   8   8   8   8   8   8
#     4  10  19  33  54  79 111 148 188 230 279 334
#     4   9  18  33  54  82 113 143 180 230 285 337
#     4  12  25  41  60  84 117 154 194 237 286 341
#     4  10  20  35  57  83 110 143 184 231 280 333
#     4  10  20  35  55  81 116 152 192 233 278 334
#     4  10  20  34  56  86 117 148 187 234 282 335
#     4  11  23  37  54  78 111 149 189 230 279 333
#     4  12  23  38  61  88 117 152 193 238 286 336
#
# _framework density 18.300007000000001
#
# number of rings (size 3 to 8) (size 9 to 14) (size 15 to 20)
#    0.000    1.500    2.500    3.750    0.000    3.000 
#    0.000    2.500    0.000    0.750    0.000    3.500 
#    0.000    0.000    0.000    0.000    0.000    0.000 
#
# Total GULP energy -793902.536491 kJ/mol
# GULP energy per Si atom -12404.727133 kJ/mol
# Density = 1.825836 g / cm^3
# Si number density = 18.300007 Si / 1000 Ang^3
#
#
#
# Elastic Constant Matrix: (Units=GPa)
#
#
# Indices 1 2 3 4 5 6 
#
# 1 108.6591 64.0968 45.6628 0.0000 0.0000 0.0000
# 2 64.0968 116.7014 52.2000 0.0000 0.0000 0.0000
# 3 45.6628 52.2000 110.5666 0.0000 0.0000 0.0000
# 4 0.0000 0.0000 0.0000 27.9223 0.0000 0.0000
# 5 0.0000 0.0000 0.0000 0.0000 31.8275 0.0000
# 6 0.0000 0.0000 0.0000 0.0000 0.0000 24.8215
#
#
#
# Elastic Compliance Matrix: (Units=1/GPa)
#
#
# Indices 1 2 3 4 5 6 
#
# 1 0.014256 -0.006588 -0.002778 0.000000 0.000000 0.000000
# 2 -0.006588 0.013907 -0.003845 0.000000 0.000000 0.000000
# 3 -0.002778 -0.003845 0.012007 0.000000 0.000000 0.000000
# 4 0.000000 0.000000 0.000000 0.035814 0.000000 0.000000
# 5 0.000000 0.000000 0.000000 0.000000 0.031419 0.000000
# 6 0.000000 0.000000 0.000000 0.000000 0.000000 0.040288
#
#
# Mechanical properties :
#
#
# Convention : Reuss Voigt Hill
#
# Bulk Modulus (GPa) = 72.73033 73.31627 73.02330
# Shear Modulus (GPa) = 27.98073 28.51210 28.24642
#
# Velocity S-wave (km/s) = 3.91449 3.95148 3.93303
# Velocity P-wave (km/s) = 7.76277 7.80829 7.78556
#
# Compressibility (1/GPa) = 0.01374942
#
# Stress axis : x y z
#
# Youngs Moduli (GPa) = 70.14412 71.90642 83.28680
#
# Poissons Ratio (x) = 0.47370 0.23133
# Poissons Ratio (y) = 0.46209 0.32024
# Poissons Ratio (z) = 0.19483 0.27648
#
# Static dielectric constant tensor:
#      x y z
#    x 3.528730 0.000000 0.000000 
#    y 0.000000 3.308930 0.000000 
#    z 0.000000 0.000000 3.436010 
# 
# 
# High freq. dielectric constant tensor:
#      x y z
#    x 1.713590 0.000000 0.000000 
#    y 0.000000 1.688220 0.000000 
#    z 0.000000 0.000000 1.721650 
# 
# From -- ./inp_files/7154.got.cif
#   From: 2010.03.12/outbox.cif.g09.slc.cpg/sg57_4_cif.got.tgz:7154.got - 2010.04.16 15:48:40.
