data_PCOD8231344
_publ_section_title
;
Structure prediction by ZEFSAII (Michael W. Deem and Ramdas Pophale) SiO2 
 PCOD8231344
Probable space group: P B C M
;
_chemical_formula_sum "Si O2"
_cell_formula_units_Z 56
_cell_length_a 12.793758
_cell_length_b 12.605706
_cell_length_c 18.286319
_cell_angle_alpha 90.000000
_cell_angle_beta 90.000000
_cell_angle_gamma 90.000000
_cell_volume 2949.114247
_symmetry_space_group_name_H-M "P B C M"
_symmetry_group_IT_number 57
_symmetry_cell_setting 'orthorhombic'
loop_
_space_group_symop_operation_xyz
x,y,z
-x,-y,1/2+z
x,1/2-y,-z
-x,1/2+y,1/2-z
-x,-y,-z
x,y,1/2-z
-x,1/2+y,z
x,1/2-y,1/2+z
loop_
_atom_site_type_symbol
_atom_site_label
_atom_site_fract_x
_atom_site_fract_y
_atom_site_fract_z
Si Si1 0.368534 0.053381 0.432882
Si Si2 0.649320 0.157315 0.334347
Si Si3 0.420569 0.264750 0.833634
Si Si4 0.011713 0.845939 0.949028
Si Si5 0.857699 0.466570 0.064355
Si Si6 0.421302 0.451911 0.403868
Si Si7 0.139250 0.725613 0.664488
O O1 0.350632 0.158807 0.384594
O O2 0.405061 0.087062 0.513495
O O3 0.264993 0.984865 0.440051
O O4 0.457405 0.983564 0.392786
O O5 0.655808 0.122396 0.250000
O O6 0.543018 0.220253 0.351049
O O7 0.744304 0.234616 0.355173
O O8 0.653090 0.051080 0.383474
O O9 0.393287 0.291095 0.750000
O O10 0.391606 0.143521 0.850062
O O11 0.056635 0.804028 0.872810
O O12 0.969786 0.750000 0.000000
O O13 0.103998 0.907942 0.991050
O O14 0.916262 0.921728 0.927851
O O15 0.878617 0.393054 0.134695
O O16 0.116625 0.725473 0.750000
#
# Coordination Sequence:
#
# PCOD8231344 Si02
#       7
#     8   8   8   8   8   8   8
#     4  10  21  33  52  78 103 134 177 218 256 306
#     4   9  18  32  52  77 105 140 178 212 254 312
#     4  10  20  33  49  73 107 142 173 208 256 315
#     4   9  20  37  57  79 103 135 176 218 266 320
#     4  10  20  37  58  78 104 141 176 215 267 319
#     4  10  19  33  51  76 108 141 174 218 260 297
#     4  10  20  35  57  82 105 133 173 220 264 309
#
# _framework density 18.988752999999999
#
# number of rings (size 3 to 8) (size 9 to 14) (size 15 to 20)
#    0.000    2.286    0.000    2.571    0.000    2.857 
#    0.000    5.714    0.000    0.000    0.000    0.000 
#    0.000    0.000    0.000    0.000    0.000    0.000 
#
# Total GULP energy -694545.849784 kJ/mol
# GULP energy per Si atom -12402.604460 kJ/mol
# Density = 1.894553 g / cm^3
# Si number density = 18.988753 Si / 1000 Ang^3
#
#
#
# Elastic Constant Matrix: (Units=GPa)
#
#
# Indices 1 2 3 4 5 6 
#
# 1 64.4344 37.6255 30.5271 0.0000 0.0000 0.0000
# 2 37.6255 121.9587 49.9317 0.0000 0.0000 0.0000
# 3 30.5271 49.9317 93.5693 0.0000 0.0000 0.0000
# 4 0.0000 0.0000 0.0000 28.1298 0.0000 0.0000
# 5 0.0000 0.0000 0.0000 0.0000 21.6929 0.0000
# 6 0.0000 0.0000 0.0000 0.0000 0.0000 25.6971
#
#
#
# Elastic Compliance Matrix: (Units=1/GPa)
#
#
# Indices 1 2 3 4 5 6 
#
# 1 0.020121 -0.004504 -0.004161 0.000000 0.000000 0.000000
# 2 -0.004504 0.011500 -0.004667 0.000000 0.000000 0.000000
# 3 -0.004161 -0.004667 0.014535 0.000000 0.000000 0.000000
# 4 0.000000 0.000000 0.000000 0.035549 0.000000 0.000000
# 5 0.000000 0.000000 0.000000 0.000000 0.046098 0.000000
# 6 0.000000 0.000000 0.000000 0.000000 0.000000 0.038915
#
#
# Mechanical properties :
#
#
# Convention : Reuss Voigt Hill
#
# Bulk Modulus (GPa) = 51.30376 57.34790 54.32583
# Shear Modulus (GPa) = 25.01494 25.89585 25.45539
#
# Velocity S-wave (km/s) = 3.63348 3.69690 3.66533
# Velocity P-wave (km/s) = 6.68427 6.96343 6.82528
#
# Compressibility (1/GPa) = 0.01949175
#
# Stress axis : x y z
#
# Youngs Moduli (GPa) = 49.69922 86.95756 68.79735
#
# Poissons Ratio (x) = 0.39165 0.28627
# Poissons Ratio (y) = 0.22384 0.32110
# Poissons Ratio (z) = 0.20680 0.40586
#
# Static dielectric constant tensor:
#      x y z
#    x 3.275890 0.000000 0.000000 
#    y 0.000000 3.503920 0.000000 
#    z 0.000000 0.000000 3.420240 
# 
# 
# High freq. dielectric constant tensor:
#      x y z
#    x 1.717120 0.000000 0.000000 
#    y 0.000000 1.744480 0.000000 
#    z 0.000000 0.000000 1.739150 
# 
# From -- ./inp_files/25044.got.cif
#   From: 2010.03.12/outbox.cif.g09.slc.cpg/sg57_13_cif.got.tgz:25044.got - 2010.04.16 15:48:40.
