data_PCOD8231255
_publ_section_title
;
Structure prediction by ZEFSAII (Michael W. Deem and Ramdas Pophale) SiO2 
 PCOD8231255
Probable space group: P B C M
;
_chemical_formula_sum "Si O2"
_cell_formula_units_Z 56
_cell_length_a 16.533350
_cell_length_b 21.422666
_cell_length_c 9.026767
_cell_angle_alpha 90.000000
_cell_angle_beta 90.000000
_cell_angle_gamma 90.000000
_cell_volume 3197.176476
_symmetry_space_group_name_H-M "P B C M"
_symmetry_group_IT_number 57
_symmetry_cell_setting 'orthorhombic'
loop_
_space_group_symop_operation_xyz
x,y,z
-x,-y,1/2+z
x,1/2-y,-z
-x,1/2+y,1/2-z
-x,-y,-z
x,y,1/2-z
-x,1/2+y,z
x,1/2-y,1/2+z
loop_
_atom_site_type_symbol
_atom_site_label
_atom_site_fract_x
_atom_site_fract_y
_atom_site_fract_z
Si Si1 0.959690 0.058642 0.579781
Si Si2 0.648322 0.813052 0.917263
Si Si3 0.790132 0.005973 0.579516
Si Si4 0.534608 0.920399 0.583857
Si Si5 0.628608 0.024080 0.078421
Si Si6 0.794592 0.622271 0.577528
Si Si7 0.961230 0.685291 0.921645
O O1 0.988140 0.054782 0.750000
O O2 0.988262 0.125794 0.514561
O O3 0.862666 0.055624 0.564583
O O4 0.000000 0.000000 0.500000
O O5 0.676697 0.799581 0.750000
O O6 0.563166 0.849188 0.921985
O O7 0.631660 0.750000 0.000000
O O8 0.716246 0.853204 0.995954
O O9 0.774719 0.987409 0.750000
O O10 0.816891 0.944680 0.489839
O O11 0.709417 0.037807 0.514309
O O12 0.547555 0.948152 0.750000
O O13 0.438965 0.922858 0.544852
O O14 0.588874 0.958567 0.468447
O O15 0.652794 0.020752 0.250000
O O16 0.775789 0.613593 0.750000
O O17 0.866805 0.671083 0.551126
O O18 0.981068 0.694554 0.750000
O O19 0.985704 0.750000 0.000000
#
# Coordination Sequence:
#
# PCOD8231255 Si02
#       7
#     8   8   8   8   8   8   8
#     4  10  21  37  56  80 109 142 181 226 273 325
#     4  11  22  35  51  74 108 143 179 215 260 316
#     4  11  21  33  53  80 111 142 174 220 274 321
#     4   9  19  34  51  74 103 136 173 214 257 306
#     4  10  19  32  53  77 103 134 171 214 260 311
#     4  11  21  34  53  78 109 143 181 218 262 322
#     4  10  22  38  55  78 108 142 183 225 268 325
#
# _framework density 17.515456
#
# number of rings (size 3 to 8) (size 9 to 14) (size 15 to 20)
#    0.000    1.714    2.857    2.143    0.000    4.571 
#    0.000    0.000    0.000    0.857    0.000    6.000 
#    0.000    0.000    0.000    0.000    0.000    0.000 
#
# Total GULP energy -694355.074142 kJ/mol
# GULP energy per Si atom -12399.197753 kJ/mol
# Density = 1.747559 g / cm^3
# Si number density = 17.515456 Si / 1000 Ang^3
#
#
#
# Elastic Constant Matrix: (Units=GPa)
#
#
# Indices 1 2 3 4 5 6 
#
# 1 93.6945 46.8282 43.4964 0.0000 0.0000 0.0000
# 2 46.8282 113.6278 45.4610 0.0000 0.0000 0.0000
# 3 43.4964 45.4610 100.7238 0.0000 0.0000 0.0000
# 4 0.0000 0.0000 0.0000 28.0068 0.0000 0.0000
# 5 0.0000 0.0000 0.0000 0.0000 25.0793 0.0000
# 6 0.0000 0.0000 0.0000 0.0000 0.0000 21.0509
#
#
#
# Elastic Compliance Matrix: (Units=1/GPa)
#
#
# Indices 1 2 3 4 5 6 
#
# 1 0.014933 -0.004362 -0.004480 0.000000 0.000000 0.000000
# 2 -0.004362 0.012014 -0.003539 0.000000 0.000000 0.000000
# 3 -0.004480 -0.003539 0.013460 0.000000 0.000000 0.000000
# 4 0.000000 0.000000 0.000000 0.035706 0.000000 0.000000
# 5 0.000000 0.000000 0.000000 0.000000 0.039874 0.000000
# 6 0.000000 0.000000 0.000000 0.000000 0.000000 0.047504
#
#
# Mechanical properties :
#
#
# Convention : Reuss Voigt Hill
#
# Bulk Modulus (GPa) = 63.91515 64.40191 64.15853
# Shear Modulus (GPa) = 25.84433 26.31143 26.07788
#
# Velocity S-wave (km/s) = 3.84541 3.88001 3.86275
# Velocity P-wave (km/s) = 7.50241 7.54460 7.52354
#
# Compressibility (1/GPa) = 0.01564574
#
# Stress axis : x y z
#
# Youngs Moduli (GPa) = 66.96730 83.23563 74.29428
#
# Poissons Ratio (x) = 0.36305 0.33283
# Poissons Ratio (y) = 0.29209 0.26292
# Poissons Ratio (z) = 0.30000 0.29456
#
# Static dielectric constant tensor:
#      x y z
#    x 3.383860 0.000000 0.000000 
#    y 0.000000 3.152940 0.000000 
#    z 0.000000 0.000000 3.410770 
# 
# 
# High freq. dielectric constant tensor:
#      x y z
#    x 1.677690 0.000000 0.000000 
#    y 0.000000 1.653810 0.000000 
#    z 0.000000 0.000000 1.688580 
# 
# From -- ./inp_files/7046.got.cif
#   From: 2010.03.12/outbox.cif.g09.slc.cpg/sg57_4_cif.got.tgz:7046.got - 2010.04.16 15:48:40.
