data_PCOD8231794
_publ_section_title
;
Structure prediction by ZEFSAII (Michael W. Deem and Ramdas Pophale) SiO2 
 PCOD8231794
Probable space group: P B C M
;
_chemical_formula_sum "Si O2"
_cell_formula_units_Z 56
_cell_length_a 30.720979
_cell_length_b 5.119189
_cell_length_c 16.367561
_cell_angle_alpha 90.000000
_cell_angle_beta 90.000000
_cell_angle_gamma 90.000000
_cell_volume 2574.068995
_symmetry_space_group_name_H-M "P B C M"
_symmetry_group_IT_number 57
_symmetry_cell_setting 'orthorhombic'
loop_
_space_group_symop_operation_xyz
x,y,z
-x,-y,1/2+z
x,1/2-y,-z
-x,1/2+y,1/2-z
-x,-y,-z
x,y,1/2-z
-x,1/2+y,z
x,1/2-y,1/2+z
loop_
_atom_site_type_symbol
_atom_site_label
_atom_site_fract_x
_atom_site_fract_y
_atom_site_fract_z
Si Si1 0.480883 0.966342 0.908981
Si Si2 0.977953 0.786581 0.405762
Si Si3 0.114216 0.078763 0.656500
Si Si4 0.169636 0.586023 0.655822
Si Si5 0.663576 0.635372 0.343884
Si Si6 0.745943 0.005791 0.553339
Si Si7 0.379516 0.650282 0.411359
O O1 0.507109 0.734806 0.862823
O O2 0.430170 0.912745 0.908229
O O3 0.500000 0.000000 0.000000
O O4 0.989969 0.750000 0.500000
O O5 0.927365 0.853519 0.397638
O O6 0.992239 0.513170 0.364183
O O7 0.098811 0.063984 0.750000
O O8 0.150069 0.300411 0.643690
O O9 0.134865 0.804810 0.627515
O O10 0.182813 0.637317 0.750000
O O11 0.211513 0.609074 0.599334
O O12 0.668477 0.716942 0.250000
O O13 0.710351 0.561476 0.378910
O O14 0.631541 0.385098 0.349359
O O15 0.645873 0.884110 0.393193
O O16 0.728707 0.250000 0.500000
O O17 0.756358 0.750000 0.500000
O O18 0.365121 0.750000 0.500000
#
# Coordination Sequence:
#
# PCOD8231794 Si02
#       7
#     8   8   8   8   8   8   8
#     4  10  19  34  59 100 124 158 208 269 314 362
#     4  10  21  36  54  80 118 160 202 257 315 362
#     4  10  21  37  60  89 118 159 211 250 303 386
#     4  10  22  41  63  89 126 164 197 252 325 385
#     4  12  27  45  65  94 138 179 210 259 336 394
#     4  12  25  44  67  98 126 158 216 266 310 374
#     4  12  23  40  71 100 128 164 226 274 305 374
#
# _framework density 21.755438000000002
#
# number of rings (size 3 to 8) (size 9 to 14) (size 15 to 20)
#    0.000    1.143    1.429    6.000    2.000    2.286 
#    0.000    4.286    0.000    8.571    0.000    0.000 
#    0.000    0.000    0.000    0.000    0.000    0.000 
#
# Total GULP energy -694430.923616 kJ/mol
# GULP energy per Si atom -12400.552207 kJ/mol
# Density = 2.170592 g / cm^3
# Si number density = 21.755438 Si / 1000 Ang^3
#
#
#
# Elastic Constant Matrix: (Units=GPa)
#
#
# Indices 1 2 3 4 5 6 
#
# 1 124.9545 47.8638 42.9552 0.0000 0.0000 0.0000
# 2 47.8638 171.5684 31.4764 0.0000 0.0000 0.0000
# 3 42.9552 31.4764 58.3734 0.0000 0.0000 0.0000
# 4 0.0000 0.0000 0.0000 24.2516 0.0000 0.0000
# 5 0.0000 0.0000 0.0000 0.0000 14.7176 0.0000
# 6 0.0000 0.0000 0.0000 0.0000 0.0000 42.1976
#
#
#
# Elastic Compliance Matrix: (Units=1/GPa)
#
#
# Indices 1 2 3 4 5 6 
#
# 1 0.011186 -0.001787 -0.007268 0.000000 0.000000 0.000000
# 2 -0.001787 0.006754 -0.002327 0.000000 0.000000 0.000000
# 3 -0.007268 -0.002327 0.023734 0.000000 0.000000 0.000000
# 4 0.000000 0.000000 0.000000 0.041234 0.000000 0.000000
# 5 0.000000 0.000000 0.000000 0.000000 0.067946 0.000000
# 6 0.000000 0.000000 0.000000 0.000000 0.000000 0.023698
#
#
# Mechanical properties :
#
#
# Convention : Reuss Voigt Hill
#
# Bulk Modulus (GPa) = 52.88090 66.60968 59.74529
# Shear Modulus (GPa) = 24.55570 31.74009 28.14789
#
# Velocity S-wave (km/s) = 3.36328 3.82376 3.60089
# Velocity P-wave (km/s) = 6.28028 7.08370 6.69406
#
# Compressibility (1/GPa) = 0.01891042
#
# Stress axis : x y z
#
# Youngs Moduli (GPa) = 89.39829 148.05900 42.13406
#
# Poissons Ratio (x) = 0.26462 0.30621
# Poissons Ratio (y) = 0.15978 0.09804
# Poissons Ratio (z) = 0.64971 0.34450
#
# Static dielectric constant tensor:
#      x y z
#    x 3.784910 0.000000 0.000000 
#    y 0.000000 4.384120 0.000000 
#    z 0.000000 0.000000 3.694980 
# 
# 
# High freq. dielectric constant tensor:
#      x y z
#    x 1.861330 0.000000 0.000000 
#    y 0.000000 1.887940 0.000000 
#    z 0.000000 0.000000 1.827480 
# 
# From -- ./inp_files/19648.got.cif
#   From: 2010.03.12/outbox.cif.g09.slc.cpg/sg57_10_cif.got.tgz:19648.got - 2010.04.16 15:48:40.
