data_PCOD8231615
_publ_section_title
;
Structure prediction by ZEFSAII (Michael W. Deem and Ramdas Pophale) SiO2 
 PCOD8231615
Probable space group: P B C M
;
_chemical_formula_sum "Si O2"
_cell_formula_units_Z 64
_cell_length_a 14.767512
_cell_length_b 29.480761
_cell_length_c 8.845308
_cell_angle_alpha 90.000000
_cell_angle_beta 90.000000
_cell_angle_gamma 90.000000
_cell_volume 3850.871105
_symmetry_space_group_name_H-M "P B C M"
_symmetry_group_IT_number 57
_symmetry_cell_setting 'orthorhombic'
loop_
_space_group_symop_operation_xyz
x,y,z
-x,-y,1/2+z
x,1/2-y,-z
-x,1/2+y,1/2-z
-x,-y,-z
x,y,1/2-z
-x,1/2+y,z
x,1/2-y,1/2+z
loop_
_atom_site_type_symbol
_atom_site_label
_atom_site_fract_x
_atom_site_fract_y
_atom_site_fract_z
Si Si1 0.295561 0.117505 0.573630
Si Si2 0.562233 0.563188 0.077165
Si Si3 0.627775 0.026442 0.424379
Si Si4 0.188718 0.543757 0.925168
Si Si5 0.987327 0.795627 0.573087
Si Si6 0.145423 0.441434 0.924814
Si Si7 0.042007 0.894729 0.927711
Si Si8 0.218776 0.204520 0.071979
O O1 0.288111 0.126536 0.750000
O O2 0.396995 0.102274 0.529142
O O3 0.225802 0.078315 0.525731
O O4 0.278100 0.163334 0.485041
O O5 0.589897 0.572490 0.250000
O O6 0.453807 0.562537 0.057200
O O7 0.607349 0.515729 0.031512
O O8 0.635403 0.010413 0.250000
O O9 0.720162 0.049700 0.477865
O O10 0.212312 0.550359 0.750000
O O11 0.141126 0.495225 0.954118
O O12 0.121800 0.583149 0.977322
O O13 0.030275 0.750000 0.500000
O O14 0.989827 0.788042 0.750000
O O15 0.884429 0.802340 0.516581
O O16 0.040887 0.841349 0.528373
O O17 0.165412 0.429760 0.750000
O O18 0.051639 0.418677 0.975790
O O19 0.059127 0.901684 0.750000
O O20 0.225390 0.207600 0.250000
O O21 0.259605 0.250000 0.000000
#
# Coordination Sequence:
#
# PCOD8231615 Si02
#       8
#     8   8   8   8   8   8   8   8
#     4  12  22  31  50  77 103 137 175 207 251 306
#     4  10  20  34  52  73 100 131 166 209 253 297
#     4  10  20  34  52  74  98 130 169 209 253 300
#     4  11  22  33  50  73 101 138 175 214 257 297
#     4   9  18  32  51  72  96 130 165 209 257 298
#     4  10  20  35  49  67 101 141 175 212 252 293
#     4  10  20  35  51  69  99 138 175 210 254 302
#     4  10  19  34  52  73 103 134 169 211 257 303
#
# _framework density 16.619616000000001
#
# number of rings (size 3 to 8) (size 9 to 14) (size 15 to 20)
#    0.000    1.750    2.500    3.000    0.000    3.500 
#    0.000    0.000    0.000    0.000    0.000    0.875 
#    0.000    4.000    0.000    0.000    0.000    0.000 
#
# Total GULP energy -793752.317126 kJ/mol
# GULP energy per Si atom -12402.379955 kJ/mol
# Density = 1.658179 g / cm^3
# Si number density = 16.619616 Si / 1000 Ang^3
#
#
#
# Elastic Constant Matrix: (Units=GPa)
#
#
# Indices 1 2 3 4 5 6 
#
# 1 76.7397 37.4040 25.9016 0.0000 0.0000 0.0000
# 2 37.4040 105.1055 29.2014 0.0000 0.0000 0.0000
# 3 25.9016 29.2014 61.8402 0.0000 0.0000 0.0000
# 4 0.0000 0.0000 0.0000 29.8377 0.0000 0.0000
# 5 0.0000 0.0000 0.0000 0.0000 24.4711 0.0000
# 6 0.0000 0.0000 0.0000 0.0000 0.0000 7.6468
#
#
#
# Elastic Compliance Matrix: (Units=1/GPa)
#
#
# Indices 1 2 3 4 5 6 
#
# 1 0.016963 -0.004676 -0.004897 0.000000 0.000000 0.000000
# 2 -0.004676 0.012240 -0.003821 0.000000 0.000000 0.000000
# 3 -0.004897 -0.003821 0.020026 0.000000 0.000000 0.000000
# 4 0.000000 0.000000 0.000000 0.033515 0.000000 0.000000
# 5 0.000000 0.000000 0.000000 0.000000 0.040864 0.000000
# 6 0.000000 0.000000 0.000000 0.000000 0.000000 0.130774
#
#
# Mechanical properties :
#
#
# Convention : Reuss Voigt Hill
#
# Bulk Modulus (GPa) = 44.56165 47.63324 46.09745
# Shear Modulus (GPa) = 17.32197 22.46969 19.89583
#
# Velocity S-wave (km/s) = 3.23191 3.68094 3.46371
# Velocity P-wave (km/s) = 6.38732 6.84024 6.61766
#
# Compressibility (1/GPa) = 0.02244082
#
# Stress axis : x y z
#
# Youngs Moduli (GPa) = 58.95152 81.69927 49.93473
#
# Poissons Ratio (x) = 0.38204 0.24452
# Poissons Ratio (y) = 0.27567 0.19081
# Poissons Ratio (z) = 0.28867 0.31219
#
# Static dielectric constant tensor:
#      x y z
#    x 3.093240 0.000000 0.000000 
#    y 0.000000 3.425870 0.000000 
#    z 0.000000 0.000000 3.189920 
# 
# 
# High freq. dielectric constant tensor:
#      x y z
#    x 1.619210 0.000000 0.000000 
#    y 0.000000 1.627870 0.000000 
#    z 0.000000 0.000000 1.650320 
# 
# From -- ./inp_files/6000.got.cif
#   From: 2010.03.12/outbox.cif.g09.slc.cpg/sg57_3_cif.got.tgz:6000.got - 2010.04.16 15:48:40.
