data_PCOD8231734
_publ_section_title
;
Structure prediction by ZEFSAII (Michael W. Deem and Ramdas Pophale) SiO2 
 PCOD8231734
Probable space group: P B C M
;
_chemical_formula_sum "Si O2"
_cell_formula_units_Z 56
_cell_length_a 21.401669
_cell_length_b 14.696862
_cell_length_c 9.036006
_cell_angle_alpha 90.000000
_cell_angle_beta 90.000000
_cell_angle_gamma 90.000000
_cell_volume 2842.161616
_symmetry_space_group_name_H-M "P B C M"
_symmetry_group_IT_number 57
_symmetry_cell_setting 'orthorhombic'
loop_
_space_group_symop_operation_xyz
x,y,z
-x,-y,1/2+z
x,1/2-y,-z
-x,1/2+y,1/2-z
-x,-y,-z
x,y,1/2-z
-x,1/2+y,z
x,1/2-y,1/2+z
loop_
_atom_site_type_symbol
_atom_site_label
_atom_site_fract_x
_atom_site_fract_y
_atom_site_fract_z
Si Si1 0.913099 0.019403 0.421015
Si Si2 0.995263 0.848629 0.075426
Si Si3 0.699924 0.841683 0.575198
Si Si4 0.769234 0.996810 0.421173
Si Si5 0.442641 0.888050 0.083365
Si Si6 0.436410 0.396306 0.916818
Si Si7 0.318572 0.662431 0.423233
O O1 0.928266 0.039631 0.250000
O O2 0.840039 0.023287 0.454828
O O3 0.938532 0.918366 0.462940
O O4 0.942629 0.101028 0.516639
O O5 0.001506 0.831988 0.250000
O O6 0.984426 0.750000 0.000000
O O7 0.722576 0.750000 0.500000
O O8 0.701101 0.833030 0.750000
O O9 0.750607 0.914644 0.525900
O O10 0.630345 0.865875 0.517816
O O11 0.759783 0.969723 0.250000
O O12 0.724720 0.078979 0.467928
O O13 0.435266 0.850840 0.250000
O O14 0.438826 0.995798 0.080041
O O15 0.509273 0.854628 0.019387
O O16 0.388698 0.848408 0.981555
O O17 0.445760 0.360349 0.750000
O O18 0.287714 0.750000 0.500000
O O19 0.321192 0.677597 0.250000
#
# Coordination Sequence:
#
# PCOD8231734 Si02
#       7
#     8   8   8   8   8   8   8
#     4   9  20  39  61  88 121 156 197 238 284 338
#     4  10  20  36  61  91 124 158 193 237 283 334
#     4  11  23  39  59  84 115 151 194 241 290 349
#     4  10  22  41  62  85 117 155 194 240 287 337
#     4  10  19  34  57  82 109 143 187 238 293 350
#     4   9  19  35  55  80 110 146 187 235 293 350
#     4  11  23  38  58  82 112 149 191 238 291 349
#
# _framework density 19.703313000000001
#
# number of rings (size 3 to 8) (size 9 to 14) (size 15 to 20)
#    0.000    2.000    1.429    1.714    0.000    5.143 
#    0.000    4.286    0.000    0.000    0.000    0.000 
#    0.000    0.000    0.000    0.000    0.000    0.000 
#
# Total GULP energy -694489.882428 kJ/mol
# GULP energy per Si atom -12401.605043 kJ/mol
# Density = 1.965847 g / cm^3
# Si number density = 19.703313 Si / 1000 Ang^3
#
#
#
# Elastic Constant Matrix: (Units=GPa)
#
#
# Indices 1 2 3 4 5 6 
#
# 1 70.1684 20.1046 22.3336 0.0000 0.0000 0.0000
# 2 20.1046 85.8613 41.4517 0.0000 0.0000 0.0000
# 3 22.3336 41.4517 76.1608 0.0000 0.0000 0.0000
# 4 0.0000 0.0000 0.0000 35.9997 0.0000 0.0000
# 5 0.0000 0.0000 0.0000 0.0000 29.5542 0.0000
# 6 0.0000 0.0000 0.0000 0.0000 0.0000 -32.4544
#
#
#
# Elastic Compliance Matrix: (Units=1/GPa)
#
#
# Indices 1 2 3 4 5 6 
#
# 1 0.015969 -0.002005 -0.003591 0.000000 0.000000 0.000000
# 2 -0.002005 0.016049 -0.008147 0.000000 0.000000 0.000000
# 3 -0.003591 -0.008147 0.018617 0.000000 0.000000 0.000000
# 4 0.000000 0.000000 0.000000 0.027778 0.000000 0.000000
# 5 0.000000 0.000000 0.000000 0.000000 0.033836 0.000000
# 6 0.000000 0.000000 0.000000 0.000000 0.000000 -0.030813
#
#
# Mechanical properties :
#
#
# Convention : Reuss Voigt Hill
#
# Bulk Modulus (GPa) = 43.19969 44.44114 43.82042
# Shear Modulus (GPa) = 42.86640 16.50661 29.68651
#
# Velocity S-wave (km/s) = 4.66939 2.89754 3.88580
# Velocity P-wave (km/s) = 7.14448 5.81365 6.51314
#
# Compressibility (1/GPa) = 0.02314831
#
# Stress axis : x y z
#
# Youngs Moduli (GPa) = 62.62095 62.30736 53.71312
#
# Poissons Ratio (x) = 0.12495 0.19290
# Poissons Ratio (y) = 0.12558 0.43761
# Poissons Ratio (z) = 0.22489 0.50762
#
# Static dielectric constant tensor:
#      x y z
#    x 3.569160 0.000000 0.000000 
#    y 0.000000 3.726740 0.000000 
#    z 0.000000 0.000000 3.661400 
# 
# 
# High freq. dielectric constant tensor:
#      x y z
#    x 1.762870 0.000000 0.000000 
#    y 0.000000 1.772830 0.000000 
#    z 0.000000 0.000000 1.772400 
# 
# From -- ./inp_files/8063.got.cif
#   From: 2010.03.12/outbox.cif.g09.slc.cpg/sg57_5_cif.got.tgz:8063.got - 2010.04.16 15:48:40.
