data_PCOD8231869
_publ_section_title
;
Structure prediction by ZEFSAII (Michael W. Deem and Ramdas Pophale) SiO2 
 PCOD8231869
Probable space group: P B C M
;
_chemical_formula_sum "Si O2"
_cell_formula_units_Z 64
_cell_length_a 20.782172
_cell_length_b 18.371006
_cell_length_c 8.865792
_cell_angle_alpha 90.000000
_cell_angle_beta 90.000000
_cell_angle_gamma 90.000000
_cell_volume 3384.865466
_symmetry_space_group_name_H-M "P B C M"
_symmetry_group_IT_number 57
_symmetry_cell_setting 'orthorhombic'
loop_
_space_group_symop_operation_xyz
x,y,z
-x,-y,1/2+z
x,1/2-y,-z
-x,1/2+y,1/2-z
-x,-y,-z
x,y,1/2-z
-x,1/2+y,z
x,1/2-y,1/2+z
loop_
_atom_site_type_symbol
_atom_site_label
_atom_site_fract_x
_atom_site_fract_y
_atom_site_fract_z
Si Si1 0.988777 0.577616 0.427044
Si Si2 0.871126 0.413568 0.574231
Si Si3 0.751402 0.327024 0.571524
Si Si4 0.367206 0.924588 0.573661
Si Si5 0.633896 0.906975 0.424431
Si Si6 0.748884 0.828308 0.928770
Si Si7 0.861611 0.920906 0.429461
Si Si8 0.492577 0.577090 0.575838
O O1 0.974277 0.570365 0.250000
O O2 0.057050 0.618975 0.455481
O O3 0.000000 0.500000 0.500000
O O4 0.928331 0.616143 0.510046
O O5 0.857129 0.420190 0.750000
O O6 0.818445 0.358867 0.504444
O O7 0.861975 0.495621 0.511821
O O8 0.736623 0.250000 0.500000
O O9 0.753863 0.318056 0.750000
O O10 0.695797 0.382159 0.520308
O O11 0.378590 0.918762 0.750000
O O12 0.429468 0.885701 0.496911
O O13 0.359036 0.008802 0.525656
O O14 0.654857 0.897955 0.250000
O O15 0.678180 0.856957 0.528642
O O16 0.559913 0.879708 0.448129
O O17 0.755680 0.823186 0.750000
O O18 0.761126 0.750000 0.000000
O O19 0.801101 0.883000 0.995582
O O20 0.858193 0.912972 0.250000
O O21 0.500000 0.500000 0.500000
O O22 0.478995 0.564930 0.750000
#
# Coordination Sequence:
#
# PCOD8231869 Si02
#       8
#     8   8   8   8   8   8   8   8
#     4   9  16  29  51  80 108 136 173 219 268 317
#     4   8  16  32  55  77 103 139 175 213 260 311
#     4  10  20  35  51  72 103 141 179 215 258 306
#     4   9  18  33  55  79 107 141 176 214 261 313
#     4   9  18  35  57  80 104 135 172 213 260 312
#     4  12  25  39  55  77 106 140 175 216 262 316
#     4  10  19  35  58  81 105 136 173 217 267 320
#     4   9  17  30  52  80 109 136 169 213 261 309
#
# _framework density 18.907692999999998
#
# number of rings (size 3 to 8) (size 9 to 14) (size 15 to 20)
#    0.000    2.500    0.000    4.500    0.000    5.000 
#    0.000    6.250    0.000    3.000    0.000    0.000 
#    0.000    0.000    0.000    0.000    0.000    0.000 
#
# Total GULP energy -793185.945524 kJ/mol
# GULP energy per Si atom -12393.530399 kJ/mol
# Density = 1.886466 g / cm^3
# Si number density = 18.907693 Si / 1000 Ang^3
#
#
#
# Elastic Constant Matrix: (Units=GPa)
#
#
# Indices 1 2 3 4 5 6 
#
# 1 110.8042 9.1405 36.5068 0.0000 0.0000 0.0000
# 2 9.1405 37.4225 12.5358 0.0000 0.0000 0.0000
# 3 36.5068 12.5358 77.1641 0.0000 0.0000 0.0000
# 4 0.0000 0.0000 0.0000 24.4535 0.0000 0.0000
# 5 0.0000 0.0000 0.0000 0.0000 36.5029 0.0000
# 6 0.0000 0.0000 0.0000 0.0000 0.0000 4.2999
#
#
#
# Elastic Compliance Matrix: (Units=1/GPa)
#
#
# Indices 1 2 3 4 5 6 
#
# 1 0.010725 -0.000973 -0.004916 0.000000 0.000000 0.000000
# 2 -0.000973 0.028348 -0.004145 0.000000 0.000000 0.000000
# 3 -0.004916 -0.004145 0.015959 0.000000 0.000000 0.000000
# 4 0.000000 0.000000 0.000000 0.040894 0.000000 0.000000
# 5 0.000000 0.000000 0.000000 0.000000 0.027395 0.000000
# 6 0.000000 0.000000 0.000000 0.000000 0.000000 0.232562
#
#
# Mechanical properties :
#
#
# Convention : Reuss Voigt Hill
#
# Bulk Modulus (GPa) = 28.60104 37.97299 33.28702
# Shear Modulus (GPa) = 12.89972 24.19843 18.54908
#
# Velocity S-wave (km/s) = 2.61482 3.58134 3.13554
# Velocity P-wave (km/s) = 4.92706 6.10150 5.54546
#
# Compressibility (1/GPa) = 0.03496376
#
# Stress axis : x y z
#
# Youngs Moduli (GPa) = 93.24143 35.27581 62.66227
#
# Poissons Ratio (x) = 0.03432 0.30804
# Poissons Ratio (y) = 0.09071 0.25974
# Poissons Ratio (z) = 0.45837 0.14622
#
# Static dielectric constant tensor:
#      x y z
#    x 4.224790 0.000000 0.000000 
#    y 0.000000 3.179060 0.000000 
#    z 0.000000 0.000000 3.579150 
# 
# 
# High freq. dielectric constant tensor:
#      x y z
#    x 1.762380 0.000000 0.000000 
#    y 0.000000 1.690200 0.000000 
#    z 0.000000 0.000000 1.727320 
# 
# From -- ./inp_files/8615.got.cif
#   From: 2010.03.12/outbox.cif.g09.slc.cpg/sg57_5_cif.got.tgz:8615.got - 2010.04.16 15:48:40.
