data_PCOD8231580
_publ_section_title
;
Structure prediction by ZEFSAII (Michael W. Deem and Ramdas Pophale) SiO2 
 PCOD8231580
Probable space group: P B C M
;
_chemical_formula_sum "Si O2"
_cell_formula_units_Z 56
_cell_length_a 22.430699
_cell_length_b 13.924162
_cell_length_c 9.097925
_cell_angle_alpha 90.000000
_cell_angle_beta 90.000000
_cell_angle_gamma 90.000000
_cell_volume 2841.542966
_symmetry_space_group_name_H-M "P B C M"
_symmetry_group_IT_number 57
_symmetry_cell_setting 'orthorhombic'
loop_
_space_group_symop_operation_xyz
x,y,z
-x,-y,1/2+z
x,1/2-y,-z
-x,1/2+y,1/2-z
-x,-y,-z
x,y,1/2-z
-x,1/2+y,z
x,1/2-y,1/2+z
loop_
_atom_site_type_symbol
_atom_site_label
_atom_site_fract_x
_atom_site_fract_y
_atom_site_fract_z
Si Si1 0.079766 0.548491 0.919028
Si Si2 0.601455 0.158560 0.916320
Si Si3 0.649710 0.840985 0.417796
Si Si4 0.202133 0.850678 0.078244
Si Si5 0.309410 0.544275 0.419628
Si Si6 0.475416 0.089981 0.584730
Si Si7 0.975352 0.849012 0.922510
O O1 0.061368 0.566719 0.750000
O O2 0.147740 0.576512 0.949130
O O3 0.071199 0.435428 0.958090
O O4 0.039696 0.617483 0.019477
O O5 0.626093 0.155024 0.750000
O O6 0.529793 0.165572 0.916273
O O7 0.628690 0.250000 0.000000
O O8 0.626165 0.068122 0.008804
O O9 0.677924 0.750000 0.500000
O O10 0.641207 0.811243 0.250000
O O11 0.584228 0.865075 0.486720
O O12 0.695942 0.929138 0.434352
O O13 0.212708 0.831543 0.250000
O O14 0.188912 0.750000 0.000000
O O15 0.259338 0.901633 0.010637
O O16 0.306913 0.576543 0.250000
O O17 0.459286 0.056959 0.750000
O O18 0.500000 0.000000 0.500000
O O19 0.980115 0.828683 0.750000
O O20 0.954589 0.750000 0.000000
#
# Coordination Sequence:
#
# PCOD8231580 Si02
#       7
#     8   8   8   8   8   8   8
#     4   9  20  37  57  84 118 156 196 239 282 332
#     4  11  22  35  55  81 109 142 177 219 274 332
#     4  10  22  39  59  82 108 141 181 226 277 334
#     4  11  23  40  61  85 114 148 190 234 282 334
#     4  11  23  40  59  80 110 143 184 232 277 329
#     4  10  20  35  55  81 109 140 176 219 274 332
#     4  10  19  33  56  87 122 158 195 235 282 334
#
# _framework density 19.707604
#
# number of rings (size 3 to 8) (size 9 to 14) (size 15 to 20)
#    0.000    1.714    1.429    3.000    0.000    5.143 
#    0.000    0.714    0.000    3.429    0.000    0.000 
#    0.000    0.000    0.000    0.000    0.000    0.000 
#
# Total GULP energy -694343.348635 kJ/mol
# GULP energy per Si atom -12398.988368 kJ/mol
# Density = 1.966275 g / cm^3
# Si number density = 19.707604 Si / 1000 Ang^3
#
#
#
# Elastic Constant Matrix: (Units=GPa)
#
#
# Indices 1 2 3 4 5 6 
#
# 1 70.8575 27.0070 33.3693 0.0000 0.0000 0.0000
# 2 27.0070 122.9091 61.5600 0.0000 0.0000 0.0000
# 3 33.3693 61.5600 115.7327 0.0000 0.0000 0.0000
# 4 0.0000 0.0000 0.0000 38.4454 0.0000 0.0000
# 5 0.0000 0.0000 0.0000 0.0000 23.5007 0.0000
# 6 0.0000 0.0000 0.0000 0.0000 0.0000 25.3971
#
#
#
# Elastic Compliance Matrix: (Units=1/GPa)
#
#
# Indices 1 2 3 4 5 6 
#
# 1 0.016588 -0.001703 -0.003877 0.000000 0.000000 0.000000
# 2 -0.001703 0.011266 -0.005501 0.000000 0.000000 0.000000
# 3 -0.003877 -0.005501 0.012685 0.000000 0.000000 0.000000
# 4 0.000000 0.000000 0.000000 0.026011 0.000000 0.000000
# 5 0.000000 0.000000 0.000000 0.000000 0.042552 0.000000
# 6 0.000000 0.000000 0.000000 0.000000 0.000000 0.039375
#
#
# Mechanical properties :
#
#
# Convention : Reuss Voigt Hill
#
# Bulk Modulus (GPa) = 54.42027 61.48575 57.95301
# Shear Modulus (GPa) = 28.28642 29.97284 29.12963
#
# Velocity S-wave (km/s) = 3.79265 3.90407 3.84877
# Velocity P-wave (km/s) = 6.84491 7.18256 7.01576
#
# Compressibility (1/GPa) = 0.01837550
#
# Stress axis : x y z
#
# Youngs Moduli (GPa) = 60.28566 88.76489 78.83530
#
# Poissons Ratio (x) = 0.15117 0.30563
# Poissons Ratio (y) = 0.10267 0.43370
# Poissons Ratio (z) = 0.23372 0.48833
#
# Static dielectric constant tensor:
#      x y z
#    x 3.465460 0.000000 0.000000 
#    y 0.000000 3.629930 0.000000 
#    z 0.000000 0.000000 3.602890 
# 
# 
# High freq. dielectric constant tensor:
#      x y z
#    x 1.745900 0.000000 0.000000 
#    y 0.000000 1.773530 0.000000 
#    z 0.000000 0.000000 1.776100 
# 
# From -- ./inp_files/8167.got.cif
#   From: 2010.03.12/outbox.cif.g09.slc.cpg/sg57_5_cif.got.tgz:8167.got - 2010.04.16 15:48:40.
