data_PCOD8231338
_publ_section_title
;
Structure prediction by ZEFSAII (Michael W. Deem and Ramdas Pophale) SiO2 
 PCOD8231338
Probable space group: P B C M
;
_chemical_formula_sum "Si O2"
_cell_formula_units_Z 48
_cell_length_a 11.995554
_cell_length_b 26.132540
_cell_length_c 8.774390
_cell_angle_alpha 90.000000
_cell_angle_beta 90.000000
_cell_angle_gamma 90.000000
_cell_volume 2750.545717
_symmetry_space_group_name_H-M "P B C M"
_symmetry_group_IT_number 57
_symmetry_cell_setting 'orthorhombic'
loop_
_space_group_symop_operation_xyz
x,y,z
-x,-y,1/2+z
x,1/2-y,-z
-x,1/2+y,1/2-z
-x,-y,-z
x,y,1/2-z
-x,1/2+y,z
x,1/2-y,1/2+z
loop_
_atom_site_type_symbol
_atom_site_label
_atom_site_fract_x
_atom_site_fract_y
_atom_site_fract_z
Si Si1 0.860165 0.962416 0.077916
Si Si2 0.010635 0.615756 0.428671
Si Si3 0.169640 0.194269 0.431499
Si Si4 0.772652 0.068357 0.069411
Si Si5 0.525074 0.444302 0.568506
Si Si6 0.666270 0.618481 0.923110
O O1 0.904313 0.968099 0.250000
O O2 0.751045 0.927898 0.073300
O O3 0.824762 0.016076 0.003007
O O4 0.958152 0.938257 0.978094
O O5 0.000295 0.619312 0.250000
O O6 0.939519 0.663315 0.495352
O O7 0.142224 0.614796 0.478066
O O8 0.160455 0.250000 0.500000
O O9 0.173015 0.196835 0.250000
O O10 0.282319 0.167457 0.490577
O O11 0.768983 0.062592 0.250000
O O12 0.646790 0.075393 0.010939
O O13 0.500000 0.500000 0.500000
O O14 0.517615 0.448856 0.750000
O O15 0.443784 0.400140 0.509723
O O16 0.636741 0.634221 0.750000
#
# Coordination Sequence:
#
# PCOD8231338 Si02
#       6
#     8   8   8   8   8   8
#     4   9  16  28  45  67  99 134 164 199 248 295
#     4   9  18  31  48  71  97 126 166 207 249 301
#     4  10  20  35  56  80 100 126 163 210 262 310
#     4   9  17  30  46  67 100 138 169 202 247 297
#     4  11  20  32  49  71 103 143 181 213 251 302
#     4  10  19  33  51  75 104 134 170 214 256 300
#
# _framework density 17.451082
#
# number of rings (size 3 to 8) (size 9 to 14) (size 15 to 20)
#    0.000    2.333    1.667    2.000    0.000    1.333 
#    0.000    1.667    0.000    1.000    0.000    2.333 
#    0.000    0.000    0.000    0.000    0.000    0.000 
#
# Total GULP energy -594848.905693 kJ/mol
# GULP energy per Si atom -12392.685535 kJ/mol
# Density = 1.741136 g / cm^3
# Si number density = 17.451082 Si / 1000 Ang^3
#
#
#
# Elastic Constant Matrix: (Units=GPa)
#
#
# Indices 1 2 3 4 5 6 
#
# 1 149.9041 61.0696 40.0197 0.0000 0.0000 0.0000
# 2 61.0696 89.9281 35.7468 0.0000 0.0000 0.0000
# 3 40.0197 35.7468 51.1372 0.0000 0.0000 0.0000
# 4 0.0000 0.0000 0.0000 24.9184 0.0000 0.0000
# 5 0.0000 0.0000 0.0000 0.0000 21.2107 0.0000
# 6 0.0000 0.0000 0.0000 0.0000 0.0000 11.7493
#
#
#
# Elastic Compliance Matrix: (Units=1/GPa)
#
#
# Indices 1 2 3 4 5 6 
#
# 1 0.009831 -0.005010 -0.004191 0.000000 0.000000 0.000000
# 2 -0.005010 0.017952 -0.008628 0.000000 0.000000 0.000000
# 3 -0.004191 -0.008628 0.028867 0.000000 0.000000 0.000000
# 4 0.000000 0.000000 0.000000 0.040131 0.000000 0.000000
# 5 0.000000 0.000000 0.000000 0.000000 0.047146 0.000000
# 6 0.000000 0.000000 0.000000 0.000000 0.000000 0.085112
#
#
# Mechanical properties :
#
#
# Convention : Reuss Voigt Hill
#
# Bulk Modulus (GPa) = 47.64094 62.73795 55.18945
# Shear Modulus (GPa) = 18.40299 21.85124 20.12711
#
# Velocity S-wave (km/s) = 3.25090 3.54240 3.39978
# Velocity P-wave (km/s) = 6.43818 7.26363 6.86332
#
# Compressibility (1/GPa) = 0.02099035
#
# Stress axis : x y z
#
# Youngs Moduli (GPa) = 101.71949 55.70395 34.64169
#
# Poissons Ratio (x) = 0.27908 0.14520
# Poissons Ratio (y) = 0.50962 0.29890
# Poissons Ratio (z) = 0.42635 0.48063
#
# Static dielectric constant tensor:
#      x y z
#    x 3.610320 0.000000 0.000000 
#    y 0.000000 3.127030 0.000000 
#    z 0.000000 0.000000 3.212610 
# 
# 
# High freq. dielectric constant tensor:
#      x y z
#    x 1.681330 0.000000 0.000000 
#    y 0.000000 1.644290 0.000000 
#    z 0.000000 0.000000 1.666380 
# 
# From -- ./inp_files/3106.got.cif
#   From: 2010.03.12/outbox.cif.g09.slc.cpg/sg57_2_cif.got.tgz:3106.got - 2010.04.16 15:48:40.
