data_PCOD8231570
_publ_section_title
;
Structure prediction by ZEFSAII (Michael W. Deem and Ramdas Pophale) SiO2 
 PCOD8231570
Probable space group: P B C M
;
_chemical_formula_sum "Si O2"
_cell_formula_units_Z 48
_cell_length_a 19.935276
_cell_length_b 13.827696
_cell_length_c 8.986825
_cell_angle_alpha 90.000000
_cell_angle_beta 90.000000
_cell_angle_gamma 90.000000
_cell_volume 2477.298619
_symmetry_space_group_name_H-M "P B C M"
_symmetry_group_IT_number 57
_symmetry_cell_setting 'orthorhombic'
loop_
_space_group_symop_operation_xyz
x,y,z
-x,-y,1/2+z
x,1/2-y,-z
-x,1/2+y,1/2-z
-x,-y,-z
x,y,1/2-z
-x,1/2+y,z
x,1/2-y,1/2+z
loop_
_atom_site_type_symbol
_atom_site_label
_atom_site_fract_x
_atom_site_fract_y
_atom_site_fract_z
Si Si1 0.879512 0.349100 0.426303
Si Si2 0.727003 0.650433 0.423745
Si Si3 0.408876 0.452391 0.920932
Si Si4 0.158058 0.034876 0.576291
Si Si5 0.031160 0.344606 0.079331
Si Si6 0.526562 0.150700 0.924110
O O1 0.854523 0.250000 0.500000
O O2 0.869956 0.344782 0.250000
O O3 0.832785 0.432881 0.493655
O O4 0.956315 0.370407 0.476013
O O5 0.704458 0.750000 0.500000
O O6 0.741484 0.667863 0.250000
O O7 0.668747 0.571468 0.448333
O O8 0.793577 0.613214 0.503397
O O9 0.429716 0.434834 0.750000
O O10 0.421196 0.564680 0.964453
O O11 0.453104 0.380271 0.019932
O O12 0.174818 0.024409 0.750000
O O13 0.081328 0.067403 0.548830
O O14 0.027927 0.316387 0.250000
O O15 0.059953 0.250000 0.000000
O O16 0.522464 0.169936 0.750000
O O17 0.550956 0.250000 0.000000
#
# Coordination Sequence:
#
# PCOD8231570 Si02
#       6
#     8   8   8   8   8   8
#     4  10  20  36  56  78 104 137 176 222 274 325
#     4  11  23  39  57  79 109 144 181 221 266 318
#     4   9  20  37  56  80 111 147 185 223 265 315
#     4  11  22  36  54  79 108 141 181 222 267 320
#     4   9  19  33  52  78 107 137 173 219 270 323
#     4  10  19  33  56  85 114 143 178 222 269 316
#
# _framework density 19.375944
#
# number of rings (size 3 to 8) (size 9 to 14) (size 15 to 20)
#    0.000    2.000    0.000    3.500    0.000    6.667 
#    0.000    0.833    0.000    2.000    0.000    0.000 
#    0.000    0.000    0.000    0.000    0.000    0.000 
#
# Total GULP energy -595327.346298 kJ/mol
# GULP energy per Si atom -12402.653048 kJ/mol
# Density = 1.933184 g / cm^3
# Si number density = 19.375944 Si / 1000 Ang^3
#
#
#
# Elastic Constant Matrix: (Units=GPa)
#
#
# Indices 1 2 3 4 5 6 
#
# 1 48.2650 28.3560 28.0973 0.0000 0.0000 0.0000
# 2 28.3560 129.6238 59.6776 0.0000 0.0000 0.0000
# 3 28.0973 59.6776 100.9104 0.0000 0.0000 0.0000
# 4 0.0000 0.0000 0.0000 39.7259 0.0000 0.0000
# 5 0.0000 0.0000 0.0000 0.0000 24.6450 0.0000
# 6 0.0000 0.0000 0.0000 0.0000 0.0000 23.9505
#
#
#
# Elastic Compliance Matrix: (Units=1/GPa)
#
#
# Indices 1 2 3 4 5 6 
#
# 1 0.025654 -0.003193 -0.005255 0.000000 0.000000 0.000000
# 2 -0.003193 0.010998 -0.005615 0.000000 0.000000 0.000000
# 3 -0.005255 -0.005615 0.014694 0.000000 0.000000 0.000000
# 4 0.000000 0.000000 0.000000 0.025172 0.000000 0.000000
# 5 0.000000 0.000000 0.000000 0.000000 0.040576 0.000000
# 6 0.000000 0.000000 0.000000 0.000000 0.000000 0.041753
#
#
# Mechanical properties :
#
#
# Convention : Reuss Voigt Hill
#
# Bulk Modulus (GPa) = 43.06609 56.78456 49.92533
# Shear Modulus (GPa) = 25.67883 28.50885 27.09384
#
# Velocity S-wave (km/s) = 3.64441 3.83998 3.74347
# Velocity P-wave (km/s) = 6.32327 7.00221 6.67139
#
# Compressibility (1/GPa) = 0.02322012
#
# Stress axis : x y z
#
# Youngs Moduli (GPa) = 38.98071 90.92325 68.05589
#
# Poissons Ratio (x) = 0.29028 0.35763
# Poissons Ratio (y) = 0.12445 0.38216
# Poissons Ratio (z) = 0.20484 0.51057
#
# Static dielectric constant tensor:
#      x y z
#    x 3.314560 0.000000 0.000000 
#    y 0.000000 3.598950 0.000000 
#    z 0.000000 0.000000 3.615980 
# 
# 
# High freq. dielectric constant tensor:
#      x y z
#    x 1.729380 0.000000 0.000000 
#    y 0.000000 1.762600 0.000000 
#    z 0.000000 0.000000 1.764590 
# 
# From -- ./inp_files/7874.got.cif
#   From: 2010.03.12/outbox.cif.g09.slc.cpg/sg57_4_cif.got.tgz:7874.got - 2010.04.16 15:48:40.
