data_PCOD8231102
_publ_section_title
;
Structure prediction by ZEFSAII (Michael W. Deem and Ramdas Pophale) SiO2 
 PCOD8231102
Probable space group: P B C M
;
_chemical_formula_sum "Si O2"
_cell_formula_units_Z 48
_cell_length_a 17.771412
_cell_length_b 13.766472
_cell_length_c 9.174959
_cell_angle_alpha 90.000000
_cell_angle_beta 90.000000
_cell_angle_gamma 90.000000
_cell_volume 2244.650469
_symmetry_space_group_name_H-M "P B C M"
_symmetry_group_IT_number 57
_symmetry_cell_setting 'orthorhombic'
loop_
_space_group_symop_operation_xyz
x,y,z
-x,-y,1/2+z
x,1/2-y,-z
-x,1/2+y,1/2-z
-x,-y,-z
x,y,1/2-z
-x,1/2+y,z
x,1/2-y,1/2+z
loop_
_atom_site_type_symbol
_atom_site_label
_atom_site_fract_x
_atom_site_fract_y
_atom_site_fract_z
Si Si1 0.727441 0.038998 0.581855
Si Si2 0.895079 0.473361 0.416459
Si Si3 0.592393 0.098365 0.415719
Si Si4 0.707777 0.839617 0.083909
Si Si5 0.456707 0.378003 0.408877
Si Si6 0.961246 0.647858 0.578313
O O1 0.703775 0.026540 0.750000
O O2 0.725580 0.935933 0.503281
O O3 0.813072 0.076298 0.565457
O O4 0.669887 0.115353 0.505630
O O5 0.908151 0.507490 0.250000
O O6 0.901859 0.568532 0.518400
O O7 0.955272 0.391138 0.460038
O O8 0.606688 0.129040 0.250000
O O9 0.520651 0.158405 0.477472
O O10 0.571212 0.986942 0.438546
O O11 0.737729 0.848298 0.250000
O O12 0.618512 0.814360 0.083952
O O13 0.747924 0.750000 0.000000
O O14 0.494776 0.371991 0.250000
O O15 0.948215 0.750000 0.500000
O O16 0.948543 0.661122 0.750000
#
# Coordination Sequence:
#
# PCOD8231102 Si02
#       6
#     8   8   8   8   8   8
#     4  10  19  32  50  71  99 132 167 209 255 304
#     4   9  20  37  56  81 110 142 180 219 262 316
#     4   9  16  26  43  67  91 117 155 199 245 295
#     4  10  20  32  46  67  96 131 171 213 261 314
#     4   8  15  27  42  61  86 118 157 199 241 290
#     4  10  20  36  59  84 110 140 176 218 264 316
#
# _framework density 21.384176
#
# number of rings (size 3 to 8) (size 9 to 14) (size 15 to 20)
#    0.000    2.667    0.000    3.000    0.000    7.333 
#    0.000    0.000    0.000    1.000    0.000    2.333 
#    0.000    0.000    0.000    0.000    0.000    0.000 
#
# Total GULP energy -594922.014889 kJ/mol
# GULP energy per Si atom -12394.208644 kJ/mol
# Density = 2.133550 g / cm^3
# Si number density = 21.384176 Si / 1000 Ang^3
#
#
#
# Elastic Constant Matrix: (Units=GPa)
#
#
# Indices 1 2 3 4 5 6 
#
# 1 89.4906 -8.4817 36.3804 0.0000 0.0000 0.0000
# 2 -8.4817 31.6504 11.7699 0.0000 0.0000 0.0000
# 3 36.3804 11.7699 130.9614 0.0000 0.0000 0.0000
# 4 0.0000 0.0000 0.0000 21.0254 0.0000 0.0000
# 5 0.0000 0.0000 0.0000 0.0000 30.7866 0.0000
# 6 0.0000 0.0000 0.0000 0.0000 0.0000 -0.0685
#
#
#
# Elastic Compliance Matrix: (Units=1/GPa)
#
#
# Indices 1 2 3 4 5 6 
#
# 1 0.013356 0.005130 -0.004171 0.000000 0.000000 0.000000
# 2 0.005130 0.034658 -0.004540 0.000000 0.000000 0.000000
# 3 -0.004171 -0.004540 0.009203 0.000000 0.000000 0.000000
# 4 0.000000 0.000000 0.000000 0.047562 0.000000 0.000000
# 5 0.000000 0.000000 0.000000 0.000000 0.032482 0.000000
# 6 0.000000 0.000000 0.000000 0.000000 0.000000-14.601972
#
#
# Mechanical properties :
#
#
# Convention : Reuss Voigt Hill
#
# Bulk Modulus (GPa) = 19.97784 36.82661 28.40223
# Shear Modulus (GPa) = -0.34624 24.51094 12.08235
#
# Velocity S-wave (km/s) = -0.40282 3.38926 2.37958
# Velocity P-wave (km/s) = 3.02428 5.70744 4.56734
#
# Compressibility (1/GPa) = 0.05005546
#
# Stress axis : x y z
#
# Youngs Moduli (GPa) = 74.87033 28.85303 108.66405
#
# Poissons Ratio (x) = -0.14803 0.45329
# Poissons Ratio (y) = -0.38412 0.49334
# Poissons Ratio (z) = 0.31232 0.13099
#
# Static dielectric constant tensor:
#      x y z
#    x 4.150650 0.000000 0.000000 
#    y 0.000000 3.397910 0.000000 
#    z 0.000000 0.000000 3.976110 
# 
# 
# High freq. dielectric constant tensor:
#      x y z
#    x 1.839910 0.000000 0.000000 
#    y 0.000000 1.801660 0.000000 
#    z 0.000000 0.000000 1.849340 
# 
# From -- ./inp_files/6536.got.cif
#   From: 2010.03.12/outbox.cif.g09.slc.cpg/sg57_4_cif.got.tgz:6536.got - 2010.04.16 15:48:40.
