data_PCOD8231109
_publ_section_title
;
Structure prediction by ZEFSAII (Michael W. Deem and Ramdas Pophale) SiO2 
 PCOD8231109
Probable space group: P B C M
;
_chemical_formula_sum "Si O2"
_cell_formula_units_Z 48
_cell_length_a 31.406781
_cell_length_b 9.063747
_cell_length_c 9.035654
_cell_angle_alpha 90.000000
_cell_angle_beta 90.000000
_cell_angle_gamma 90.000000
_cell_volume 2572.117432
_symmetry_space_group_name_H-M "P B C M"
_symmetry_group_IT_number 57
_symmetry_cell_setting 'orthorhombic'
loop_
_space_group_symop_operation_xyz
x,y,z
-x,-y,1/2+z
x,1/2-y,-z
-x,1/2+y,1/2-z
-x,-y,-z
x,y,1/2-z
-x,1/2+y,z
x,1/2-y,1/2+z
loop_
_atom_site_type_symbol
_atom_site_label
_atom_site_fract_x
_atom_site_fract_y
_atom_site_fract_z
Si Si1 0.799591 0.906529 0.574808
Si Si2 0.879650 0.095150 0.578293
Si Si3 0.372016 0.902383 0.419776
Si Si4 0.962984 0.907945 0.924537
Si Si5 0.720032 0.092256 0.576264
Si Si6 0.536313 0.092383 0.576055
O O1 0.805976 0.750000 0.500000
O O2 0.800767 0.883622 0.750000
O O3 0.837128 0.014570 0.520882
O O4 0.755195 0.977333 0.519106
O O5 0.886288 0.250000 0.500000
O O6 0.875904 0.130088 0.750000
O O7 0.918987 0.989710 0.542654
O O8 0.373760 0.750000 0.500000
O O9 0.370627 0.859855 0.250000
O O10 0.326878 0.980204 0.461581
O O11 0.416983 0.986510 0.452194
O O12 0.971891 0.890951 0.750000
O O13 0.960591 0.750000 0.000000
O O14 0.000000 0.000000 0.000000
O O15 0.726180 0.250000 0.500000
O O16 0.725987 0.118796 0.750000
O O17 0.536241 0.250000 0.500000
O O18 0.526691 0.107911 0.750000
O O19 0.500000 0.000000 0.500000
#
# Coordination Sequence:
#
# PCOD8231109 Si02
#       6
#     8   8   8   8   8   8
#     4  10  21  36  53  76 106 138 171 208 253 305
#     4  10  22  38  57  82 109 139 177 220 263 309
#     4   8  15  28  47  70  96 126 161 204 249 296
#     4  11  23  39  59  84 114 147 184 224 268 316
#     4   9  17  31  52  76 100 127 164 207 250 299
#     4  10  19  32  50  72  99 131 168 209 255 305
#
# _framework density 18.661667000000001
#
# number of rings (size 3 to 8) (size 9 to 14) (size 15 to 20)
#    0.000    2.333    0.000    2.500    0.000    4.667 
#    0.000    0.833    0.000    2.000    0.000    0.000 
#    0.000    0.000    0.000    0.000    0.000    0.000 
#
# Total GULP energy -594768.728056 kJ/mol
# GULP energy per Si atom -12391.015168 kJ/mol
# Density = 1.861919 g / cm^3
# Si number density = 18.661667 Si / 1000 Ang^3
#
#
#
# Elastic Constant Matrix: (Units=GPa)
#
#
# Indices 1 2 3 4 5 6 
#
# 1 177.6499 70.1071 63.3620 0.0000 0.0000 0.0000
# 2 70.1071 117.6150 52.2675 0.0000 0.0000 0.0000
# 3 63.3620 52.2675 67.3821 0.0000 0.0000 0.0000
# 4 0.0000 0.0000 0.0000 34.4367 0.0000 0.0000
# 5 0.0000 0.0000 0.0000 0.0000 28.6147 0.0000
# 6 0.0000 0.0000 0.0000 0.0000 0.0000 25.9111
#
#
#
# Elastic Compliance Matrix: (Units=1/GPa)
#
#
# Indices 1 2 3 4 5 6 
#
# 1 0.008899 -0.002420 -0.006491 0.000000 0.000000 0.000000
# 2 -0.002420 0.013633 -0.008299 0.000000 0.000000 0.000000
# 3 -0.006491 -0.008299 0.027382 0.000000 0.000000 0.000000
# 4 0.000000 0.000000 0.000000 0.029039 0.000000 0.000000
# 5 0.000000 0.000000 0.000000 0.000000 0.034947 0.000000
# 6 0.000000 0.000000 0.000000 0.000000 0.000000 0.038594
#
#
# Mechanical properties :
#
#
# Convention : Reuss Voigt Hill
#
# Bulk Modulus (GPa) = 64.54277 81.56892 73.05585
# Shear Modulus (GPa) = 26.03087 29.58650 27.80868
#
# Velocity S-wave (km/s) = 3.73887 3.98605 3.86443
# Velocity P-wave (km/s) = 7.30066 8.06158 7.69054
#
# Compressibility (1/GPa) = 0.01549360
#
# Stress axis : x y z
#
# Youngs Moduli (GPa) = 112.36902 73.35151 36.51981
#
# Poissons Ratio (x) = 0.17751 0.23706
# Poissons Ratio (y) = 0.27193 0.30309
# Poissons Ratio (z) = 0.72941 0.60877
#
# Static dielectric constant tensor:
#      x y z
#    x 4.373230 0.000000 0.000000 
#    y 0.000000 3.088710 0.000000 
#    z 0.000000 0.000000 3.479080 
# 
# 
# High freq. dielectric constant tensor:
#      x y z
#    x 1.757770 0.000000 0.000000 
#    y 0.000000 1.697210 0.000000 
#    z 0.000000 0.000000 1.726510 
# 
# From -- ./inp_files/9944.got.cif
#   From: 2010.03.12/outbox.cif.g09.slc.cpg/sg57_5_cif.got.tgz:9944.got - 2010.04.16 15:48:40.
