data_PCOD8231985
_publ_section_title
;
Structure prediction by ZEFSAII (Michael W. Deem and Ramdas Pophale) SiO2 
 PCOD8231985
Probable space group: P B C M
;
_chemical_formula_sum "Si O2"
_cell_formula_units_Z 56
_cell_length_a 20.110062
_cell_length_b 8.814588
_cell_length_c 15.631345
_cell_angle_alpha 90.000000
_cell_angle_beta 90.000000
_cell_angle_gamma 90.000000
_cell_volume 2770.842089
_symmetry_space_group_name_H-M "P B C M"
_symmetry_group_IT_number 57
_symmetry_cell_setting 'orthorhombic'
loop_
_space_group_symop_operation_xyz
x,y,z
-x,-y,1/2+z
x,1/2-y,-z
-x,1/2+y,1/2-z
-x,-y,-z
x,y,1/2-z
-x,1/2+y,z
x,1/2-y,1/2+z
loop_
_atom_site_type_symbol
_atom_site_label
_atom_site_fract_x
_atom_site_fract_y
_atom_site_fract_z
Si Si1 0.692973 0.816146 0.408484
Si Si2 0.072504 0.677817 0.250000
Si Si3 0.928101 0.682098 0.750000
Si Si4 0.298468 0.647510 0.349720
Si Si5 0.159854 0.821090 0.909693
Si Si6 0.840103 0.682691 0.591815
Si Si7 0.437422 0.817116 0.593068
Si Si8 0.440994 0.139921 0.843732
O O1 0.676141 0.750000 0.500000
O O2 0.766295 0.757935 0.380029
O O3 0.629167 0.767286 0.351672
O O4 0.695723 0.998070 0.407689
O O5 0.067505 0.497781 0.250000
O O6 0.110016 0.734952 0.164548
O O7 0.000252 0.747973 0.250000
O O8 0.890163 0.740052 0.664960
O O9 0.288393 0.605918 0.250000
O O10 0.233899 0.738271 0.383877
O O11 0.367350 0.738322 0.364740
O O12 0.158812 0.001940 0.915785
O O13 0.137597 0.750000 0.000000
O O14 0.861480 0.750000 0.500000
O O15 0.443250 0.750000 0.500000
O O16 0.498442 0.754582 0.647822
O O17 0.443805 0.000154 0.589649
O O18 0.442669 0.065346 0.750000
#
# Coordination Sequence:
#
# PCOD8231985 Si02
#       8
#     8   4   4   8   8   8   8   8
#     4   9  18  32  55  83 109 140 188 235 278 334
#     4  10  22  40  58  92 113 160 186 240 275 356
#     4  10  22  38  64  82 123 152 196 224 295 336
#     4  10  19  36  60  84 111 150 196 237 287 345
#     4  10  20  37  62  88 116 151 196 239 287 338
#     4   9  20  37  59  87 115 152 194 239 283 343
#     4  11  22  36  55  81 111 150 190 239 292 342
#     4  11  22  37  56  79 110 151 193 238 290 345
#
# _framework density 20.210463000000001
#
# number of rings (size 3 to 8) (size 9 to 14) (size 15 to 20)
#    0.000    2.000    0.714    3.857    4.000    2.857 
#    0.000    4.286    0.000    0.000    0.000    0.000 
#    0.000    0.000    0.000    0.000    0.000    0.000 
#
# Total GULP energy -694006.987854 kJ/mol
# GULP energy per Si atom -12392.981926 kJ/mol
# Density = 2.016446 g / cm^3
# Si number density = 20.210463 Si / 1000 Ang^3
#
#
#
# Elastic Constant Matrix: (Units=GPa)
#
#
# Indices 1 2 3 4 5 6 
#
# 1 191.4415 29.8948 77.1711 0.0000 0.0000 0.0000
# 2 29.8948 29.6905 35.4872 0.0000 0.0000 0.0000
# 3 77.1711 35.4872 153.1362 0.0000 0.0000 0.0000
# 4 0.0000 0.0000 0.0000 25.8816 0.0000 0.0000
# 5 0.0000 0.0000 0.0000 0.0000 35.1443 0.0000
# 6 0.0000 0.0000 0.0000 0.0000 0.0000 29.9201
#
#
#
# Elastic Compliance Matrix: (Units=1/GPa)
#
#
# Indices 1 2 3 4 5 6 
#
# 1 0.006857 -0.003837 -0.002566 0.000000 0.000000 0.000000
# 2 -0.003837 0.048730 -0.009359 0.000000 0.000000 0.000000
# 3 -0.002566 -0.009359 0.009992 0.000000 0.000000 0.000000
# 4 0.000000 0.000000 0.000000 0.038638 0.000000 0.000000
# 5 0.000000 0.000000 0.000000 0.000000 0.028454 0.000000
# 6 0.000000 0.000000 0.000000 0.000000 0.000000 0.033422
#
#
# Mechanical properties :
#
#
# Convention : Reuss Voigt Hill
#
# Bulk Modulus (GPa) = 29.36419 73.26383 51.31401
# Shear Modulus (GPa) = 23.92684 33.63687 28.78185
#
# Velocity S-wave (km/s) = 3.44449 4.08405 3.77783
# Velocity P-wave (km/s) = 5.51182 7.65300 6.66890
#
# Compressibility (1/GPa) = 0.03405508
#
# Stress axis : x y z
#
# Youngs Moduli (GPa) = 145.83125 20.52111 100.07708
#
# Poissons Ratio (x) = 0.07874 0.25685
# Poissons Ratio (y) = 0.55954 0.93662
# Poissons Ratio (z) = 0.37427 0.19206
#
# Static dielectric constant tensor:
#      x y z
#    x 4.195070 0.000000 0.000000 
#    y 0.000000 3.263630 0.000000 
#    z 0.000000 0.000000 3.733370 
# 
# 
# High freq. dielectric constant tensor:
#      x y z
#    x 1.810570 0.000000 0.000000 
#    y 0.000000 1.746840 0.000000 
#    z 0.000000 0.000000 1.794000 
# 
# From -- ./inp_files/19412.got.cif
#   From: 2010.03.12/outbox.cif.g09.slc.cpg/sg57_10_cif.got.tgz:19412.got - 2010.04.16 15:48:40.
