data_PCOD8231376
_publ_section_title
;
Structure prediction by ZEFSAII (Michael W. Deem and Ramdas Pophale) SiO2 
 PCOD8231376
Probable space group: P B C M
;
_chemical_formula_sum "Si O2"
_cell_formula_units_Z 48
_cell_length_a 31.214779
_cell_length_b 9.484881
_cell_length_c 8.536257
_cell_angle_alpha 90.000000
_cell_angle_beta 90.000000
_cell_angle_gamma 90.000000
_cell_volume 2527.316500
_symmetry_space_group_name_H-M "P B C M"
_symmetry_group_IT_number 57
_symmetry_cell_setting 'orthorhombic'
loop_
_space_group_symop_operation_xyz
x,y,z
-x,-y,1/2+z
x,1/2-y,-z
-x,1/2+y,1/2-z
-x,-y,-z
x,y,1/2-z
-x,1/2+y,z
x,1/2-y,1/2+z
loop_
_atom_site_type_symbol
_atom_site_label
_atom_site_fract_x
_atom_site_fract_y
_atom_site_fract_z
Si Si1 0.462609 0.905941 0.565459
Si Si2 0.128031 0.903507 0.935106
Si Si3 0.370477 0.902838 0.567657
Si Si4 0.037035 0.903377 0.064522
Si Si5 0.202346 0.406520 0.565210
Si Si6 0.277365 0.591486 0.064047
O O1 0.467662 0.750000 0.500000
O O2 0.467188 0.899943 0.750000
O O3 0.415826 0.973096 0.513711
O O4 0.500000 0.000000 0.500000
O O5 0.124242 0.891581 0.750000
O O6 0.141101 0.750000 0.000000
O O7 0.083010 0.956916 0.004350
O O8 0.162857 0.017979 0.981727
O O9 0.368388 0.750000 0.500000
O O10 0.372916 0.883140 0.750000
O O11 0.324875 0.974923 0.524608
O O12 0.036955 0.902947 0.250000
O O13 0.027394 0.750000 0.000000
O O14 0.000000 0.000000 0.000000
O O15 0.206582 0.250000 0.500000
O O16 0.194743 0.403627 0.750000
O O17 0.245327 0.490326 0.526094
O O18 0.268056 0.591447 0.250000
O O19 0.272279 0.750000 0.000000
#
# Coordination Sequence:
#
# PCOD8231376 Si02
#       6
#     8   8   8   8   8   8
#     4  10  19  33  52  77 106 140 178 222 269 321
#     4  11  22  40  63  88 115 150 191 233 275 325
#     4   8  16  30  51  76 104 135 175 220 266 316
#     4  11  22  39  61  89 120 154 192 235 281 330
#     4  12  25  41  58  82 113 147 183 227 278 331
#     4  10  19  35  58  84 109 140 179 223 269 323
#
# _framework density 18.992477000000001
#
# number of rings (size 3 to 8) (size 9 to 14) (size 15 to 20)
#    0.000    1.667    0.000    7.000    0.000    2.000 
#    0.000    4.167    0.000    0.000    0.000    0.000 
#    0.000    0.000    0.000    0.000    0.000    0.000 
#
# Total GULP energy -594823.182499 kJ/mol
# GULP energy per Si atom -12392.149635 kJ/mol
# Density = 1.894925 g / cm^3
# Si number density = 18.992477 Si / 1000 Ang^3
#
#
#
# Elastic Constant Matrix: (Units=GPa)
#
#
# Indices 1 2 3 4 5 6 
#
# 1 167.5628 72.0833 52.6801 0.0000 0.0000 0.0000
# 2 72.0833 84.1935 33.3174 0.0000 0.0000 0.0000
# 3 52.6801 33.3174 122.4330 0.0000 0.0000 0.0000
# 4 0.0000 0.0000 0.0000 32.5594 0.0000 0.0000
# 5 0.0000 0.0000 0.0000 0.0000 32.2491 0.0000
# 6 0.0000 0.0000 0.0000 0.0000 0.0000 36.1481
#
#
#
# Elastic Compliance Matrix: (Units=1/GPa)
#
#
# Indices 1 2 3 4 5 6 
#
# 1 0.009950 -0.007648 -0.002200 0.000000 0.000000 0.000000
# 2 -0.007648 0.019189 -0.001931 0.000000 0.000000 0.000000
# 3 -0.002200 -0.001931 0.009640 0.000000 0.000000 0.000000
# 4 0.000000 0.000000 0.000000 0.030713 0.000000 0.000000
# 5 0.000000 0.000000 0.000000 0.000000 0.031009 0.000000
# 6 0.000000 0.000000 0.000000 0.000000 0.000000 0.027664
#
#
# Mechanical properties :
#
#
# Convention : Reuss Voigt Hill
#
# Bulk Modulus (GPa) = 65.69953 76.70567 71.20260
# Shear Modulus (GPa) = 31.88854 34.59856 33.24355
#
# Velocity S-wave (km/s) = 4.10202 4.27277 4.18826
# Velocity P-wave (km/s) = 7.55664 8.05091 7.80769
#
# Compressibility (1/GPa) = 0.01522081
#
# Stress axis : x y z
#
# Youngs Moduli (GPa) = 100.50713 52.11190 103.73619
#
# Poissons Ratio (x) = 0.39855 0.22821
# Poissons Ratio (y) = 0.76867 0.20034
# Poissons Ratio (z) = 0.22110 0.10064
#
# Static dielectric constant tensor:
#      x y z
#    x 4.290110 0.000000 0.000000 
#    y 0.000000 3.220510 0.000000 
#    z 0.000000 0.000000 3.721220 
# 
# 
# High freq. dielectric constant tensor:
#      x y z
#    x 1.768750 0.000000 0.000000 
#    y 0.000000 1.707890 0.000000 
#    z 0.000000 0.000000 1.758700 
# 
# From -- ./inp_files/10048.got.cif
#   From: 2010.03.12/outbox.cif.g09.slc.cpg/sg57_6_cif.got.tgz:10048.got - 2010.04.16 15:48:40.
