data_PCOD8231137
_publ_section_title
;
Structure prediction by ZEFSAII (Michael W. Deem and Ramdas Pophale) SiO2 
 PCOD8231137
Probable space group: P B C M
;
_chemical_formula_sum "Si O2"
_cell_formula_units_Z 48
_cell_length_a 9.510358
_cell_length_b 30.577754
_cell_length_c 9.182788
_cell_angle_alpha 90.000000
_cell_angle_beta 90.000000
_cell_angle_gamma 90.000000
_cell_volume 2670.404222
_symmetry_space_group_name_H-M "P B C M"
_symmetry_group_IT_number 57
_symmetry_cell_setting 'orthorhombic'
loop_
_space_group_symop_operation_xyz
x,y,z
-x,-y,1/2+z
x,1/2-y,-z
-x,1/2+y,1/2-z
-x,-y,-z
x,y,1/2-z
-x,1/2+y,z
x,1/2-y,1/2+z
loop_
_atom_site_type_symbol
_atom_site_label
_atom_site_fract_x
_atom_site_fract_y
_atom_site_fract_z
Si Si1 0.230893 0.573041 0.582813
Si Si2 0.286989 0.110414 0.082144
Si Si3 0.788246 0.204940 0.920476
Si Si4 0.407746 0.858606 0.580473
Si Si5 0.016883 0.132196 0.584036
Si Si6 0.362997 0.484267 0.581935
O O1 0.263534 0.587269 0.750000
O O2 0.344106 0.596065 0.478776
O O3 0.241269 0.520837 0.563060
O O4 0.073977 0.589034 0.542120
O O5 0.248968 0.105929 0.250000
O O6 0.424917 0.139797 0.057301
O O7 0.307944 0.061553 0.016185
O O8 0.157672 0.134954 0.008514
O O9 0.759834 0.212491 0.750000
O O10 0.923276 0.174705 0.948293
O O11 0.819855 0.250000 0.000000
O O12 0.650920 0.182597 0.991045
O O13 0.368355 0.853742 0.750000
O O14 0.064797 0.130482 0.750000
O O15 0.500000 0.500000 0.500000
O O16 0.404952 0.477687 0.750000
#
# Coordination Sequence:
#
# PCOD8231137 Si02
#       6
#     8   8   8   8   8   8
#     4   9  18  33  52  74 104 143 186 229 267 310
#     4  10  21  34  50  78 112 144 181 224 268 315
#     4  10  21  39  62  86 107 133 173 216 264 324
#     4  10  19  33  54  80 109 139 176 218 263 315
#     4   9  20  36  53  77 108 143 179 216 268 326
#     4  10  19  32  50  75 107 143 187 233 271 311
#
# _framework density 17.974806999999998
#
# number of rings (size 3 to 8) (size 9 to 14) (size 15 to 20)
#    0.000    2.333    1.667    2.000    0.000    6.000 
#    0.000    0.833    0.000    2.000    0.000    0.000 
#    0.000    0.000    0.000    0.000    0.000    0.000 
#
# Total GULP energy -595219.507695 kJ/mol
# GULP energy per Si atom -12400.406410 kJ/mol
# Density = 1.793390 g / cm^3
# Si number density = 17.974807 Si / 1000 Ang^3
#
#
#
# Elastic Constant Matrix: (Units=GPa)
#
#
# Indices 1 2 3 4 5 6 
#
# 1 113.3828 43.9511 60.9304 0.0000 0.0000 0.0000
# 2 43.9511 96.1664 45.1673 0.0000 0.0000 0.0000
# 3 60.9304 45.1673 90.4886 0.0000 0.0000 0.0000
# 4 0.0000 0.0000 0.0000 28.8807 0.0000 0.0000
# 5 0.0000 0.0000 0.0000 0.0000 33.5409 0.0000
# 6 0.0000 0.0000 0.0000 0.0000 0.0000 16.2286
#
#
#
# Elastic Compliance Matrix: (Units=1/GPa)
#
#
# Indices 1 2 3 4 5 6 
#
# 1 0.014313 -0.002632 -0.008324 0.000000 0.000000 0.000000
# 2 -0.002632 0.014067 -0.005249 0.000000 0.000000 0.000000
# 3 -0.008324 -0.005249 0.019276 0.000000 0.000000 0.000000
# 4 0.000000 0.000000 0.000000 0.034625 0.000000 0.000000
# 5 0.000000 0.000000 0.000000 0.000000 0.029814 0.000000
# 6 0.000000 0.000000 0.000000 0.000000 0.000000 0.061620
#
#
# Mechanical properties :
#
#
# Convention : Reuss Voigt Hill
#
# Bulk Modulus (GPa) = 65.59146 66.68169 66.13657
# Shear Modulus (GPa) = 23.67333 25.72930 24.70131
#
# Velocity S-wave (km/s) = 3.63303 3.78750 3.71107
# Velocity P-wave (km/s) = 7.35992 7.50365 7.43213
#
# Compressibility (1/GPa) = 0.01524589
#
# Stress axis : x y z
#
# Youngs Moduli (GPa) = 69.86597 71.08824 51.87724
#
# Poissons Ratio (x) = 0.18710 0.43183
# Poissons Ratio (y) = 0.18388 0.27232
# Poissons Ratio (z) = 0.58156 0.37317
#
# Static dielectric constant tensor:
#      x y z
#    x 3.155770 0.000000 0.000000 
#    y 0.000000 3.386160 0.000000 
#    z 0.000000 0.000000 3.355960 
# 
# 
# High freq. dielectric constant tensor:
#      x y z
#    x 1.685290 0.000000 0.000000 
#    y 0.000000 1.689320 0.000000 
#    z 0.000000 0.000000 1.699600 
# 
# From -- ./inp_files/1978.got.cif
#   From: 2010.03.12/outbox.cif.g09.slc.cpg/sg57_1_cif.got.tgz:1978.got - 2010.04.16 15:48:40.
