data_PCOD8231901
_publ_section_title
;
Structure prediction by ZEFSAII (Michael W. Deem and Ramdas Pophale) SiO2 
 PCOD8231901
Probable space group: P B C M
;
_chemical_formula_sum "Si O2"
_cell_formula_units_Z 48
_cell_length_a 16.474339
_cell_length_b 17.815350
_cell_length_c 8.907309
_cell_angle_alpha 90.000000
_cell_angle_beta 90.000000
_cell_angle_gamma 90.000000
_cell_volume 2614.260589
_symmetry_space_group_name_H-M "P B C M"
_symmetry_group_IT_number 57
_symmetry_cell_setting 'orthorhombic'
loop_
_space_group_symop_operation_xyz
x,y,z
-x,-y,1/2+z
x,1/2-y,-z
-x,1/2+y,1/2-z
-x,-y,-z
x,y,1/2-z
-x,1/2+y,z
x,1/2-y,1/2+z
loop_
_atom_site_type_symbol
_atom_site_label
_atom_site_fract_x
_atom_site_fract_y
_atom_site_fract_z
Si Si1 0.313929 0.607335 0.422176
Si Si2 0.236306 0.051176 0.924818
Si Si3 0.492664 0.580137 0.074067
Si Si4 0.085233 0.519237 0.571972
Si Si5 0.834605 0.325476 0.074784
Si Si6 0.650262 0.830750 0.571702
O O1 0.297935 0.629568 0.250000
O O2 0.293959 0.520194 0.449723
O O3 0.407438 0.619616 0.469737
O O4 0.257878 0.660281 0.523246
O O5 0.224118 0.069683 0.750000
O O6 0.275642 0.121112 0.008610
O O7 0.149431 0.037737 0.000533
O O8 0.496514 0.565865 0.250000
O O9 0.564908 0.633648 0.019065
O O10 0.500000 0.500000 0.000000
O O11 0.083086 0.508149 0.750000
O O12 0.108753 0.604625 0.528115
O O13 0.000000 0.500000 0.500000
O O14 0.834362 0.312797 0.250000
O O15 0.869737 0.250000 0.000000
O O16 0.657070 0.750000 0.500000
O O17 0.656768 0.825772 0.750000
#
# Coordination Sequence:
#
# PCOD8231901 Si02
#       6
#     8   8   8   8   8   8
#     4   9  18  33  54  80 109 144 186 227 274 331
#     4  10  19  35  59  82 109 144 183 227 278 335
#     4  10  20  34  54  80 110 147 192 237 282 331
#     4  10  21  38  61  89 116 145 186 228 276 336
#     4  10  21  36  56  83 115 148 182 226 278 331
#     4  11  23  37  54  78 112 150 192 239 285 333
#
# _framework density 18.360831999999998
#
# number of rings (size 3 to 8) (size 9 to 14) (size 15 to 20)
#    0.000    2.000    1.667    2.000    0.000    4.667 
#    0.000    2.500    0.000    2.000    0.000    0.000 
#    0.000    0.000    0.000    0.000    0.000    0.000 
#
# Total GULP energy -595344.320677 kJ/mol
# GULP energy per Si atom -12403.006681 kJ/mol
# Density = 1.831904 g / cm^3
# Si number density = 18.360832 Si / 1000 Ang^3
#
#
#
# Elastic Constant Matrix: (Units=GPa)
#
#
# Indices 1 2 3 4 5 6 
#
# 1 152.0515 70.2751 57.8556 0.0000 0.0000 0.0000
# 2 70.2751 122.4826 56.3803 0.0000 0.0000 0.0000
# 3 57.8556 56.3803 84.6699 0.0000 0.0000 0.0000
# 4 0.0000 0.0000 0.0000 34.3434 0.0000 0.0000
# 5 0.0000 0.0000 0.0000 0.0000 32.0315 0.0000
# 6 0.0000 0.0000 0.0000 0.0000 0.0000 25.3574
#
#
#
# Elastic Compliance Matrix: (Units=1/GPa)
#
#
# Indices 1 2 3 4 5 6 
#
# 1 0.009935 -0.003714 -0.004316 0.000000 0.000000 0.000000
# 2 -0.003714 0.013161 -0.006226 0.000000 0.000000 0.000000
# 3 -0.004316 -0.006226 0.018906 0.000000 0.000000 0.000000
# 4 0.000000 0.000000 0.000000 0.029118 0.000000 0.000000
# 5 0.000000 0.000000 0.000000 0.000000 0.031219 0.000000
# 6 0.000000 0.000000 0.000000 0.000000 0.000000 0.039436
#
#
# Mechanical properties :
#
#
# Convention : Reuss Voigt Hill
#
# Bulk Modulus (GPa) = 74.12708 80.91399 77.52053
# Shear Modulus (GPa) = 28.60675 29.99268 29.29971
#
# Velocity S-wave (km/s) = 3.95147 4.04606 3.99905
# Velocity P-wave (km/s) = 7.82808 8.12354 7.97718
#
# Compressibility (1/GPa) = 0.01349035
#
# Stress axis : x y z
#
# Youngs Moduli (GPa) = 100.65037 75.98087 52.89429
#
# Poissons Ratio (x) = 0.28218 0.22829
# Poissons Ratio (y) = 0.37379 0.32933
# Poissons Ratio (z) = 0.43441 0.47307
#
# Static dielectric constant tensor:
#      x y z
#    x 3.460860 0.000000 0.000000 
#    y 0.000000 3.065870 0.000000 
#    z 0.000000 0.000000 3.499460 
# 
# 
# High freq. dielectric constant tensor:
#      x y z
#    x 1.710300 0.000000 0.000000 
#    y 0.000000 1.705160 0.000000 
#    z 0.000000 0.000000 1.721680 
# 
# From -- ./inp_files/4718.got.cif
#   From: 2010.03.12/outbox.cif.g09.slc.cpg/sg57_3_cif.got.tgz:4718.got - 2010.04.16 15:48:40.
