data_PCOD8231154
_publ_section_title
;
Structure prediction by ZEFSAII (Michael W. Deem and Ramdas Pophale) SiO2 
 PCOD8231154
Probable space group: P B C M
;
_chemical_formula_sum "Si O2"
_cell_formula_units_Z 40
_cell_length_a 11.442934
_cell_length_b 20.998530
_cell_length_c 9.194280
_cell_angle_alpha 90.000000
_cell_angle_beta 90.000000
_cell_angle_gamma 90.000000
_cell_volume 2209.245666
_symmetry_space_group_name_H-M "P B C M"
_symmetry_group_IT_number 57
_symmetry_cell_setting 'orthorhombic'
loop_
_space_group_symop_operation_xyz
x,y,z
-x,-y,1/2+z
x,1/2-y,-z
-x,1/2+y,1/2-z
-x,-y,-z
x,y,1/2-z
-x,1/2+y,z
x,1/2-y,1/2+z
loop_
_atom_site_type_symbol
_atom_site_label
_atom_site_fract_x
_atom_site_fract_y
_atom_site_fract_z
Si Si1 0.076882 0.553095 0.078115
Si Si2 0.548882 0.590457 0.912618
Si Si3 0.342861 0.548294 0.412245
Si Si4 0.297288 0.187433 0.080081
Si Si5 0.973712 0.687159 0.081069
O O1 0.058764 0.544756 0.250000
O O2 0.210724 0.543279 0.029894
O O3 0.039868 0.623865 0.026980
O O4 0.000000 0.500000 0.000000
O O5 0.544906 0.619842 0.750000
O O6 0.598741 0.520118 0.906101
O O7 0.418053 0.592268 0.979025
O O8 0.633851 0.627955 0.018448
O O9 0.343237 0.578591 0.250000
O O10 0.321500 0.194185 0.250000
O O11 0.161824 0.176534 0.044585
O O12 0.344576 0.250000 0.000000
O O13 0.995269 0.699135 0.250000
O O14 0.022240 0.750000 0.000000
#
# Coordination Sequence:
#
# PCOD8231154 Si02
#       5
#     8   8   8   8   8
#     4  10  20  34  53  78 105 134 171 213 258 307
#     4  10  19  32  51  74  99 129 167 207 250 298
#     4   9  19  34  51  72 101 135 166 203 252 303
#     4  10  19  32  51  74 100 129 163 204 248 295
#     4   9  19  34  52  75 103 135 169 206 251 303
#
# _framework density 18.105729
#
# number of rings (size 3 to 8) (size 9 to 14) (size 15 to 20)
#    0.000    2.400    0.000    2.400    0.000    3.200 
#    0.000    1.000    0.000    2.400    0.000    0.000 
#    0.000    0.000    0.000    0.000    0.000    0.000 
#
# Total GULP energy -496016.451387 kJ/mol
# GULP energy per Si atom -12400.411285 kJ/mol
# Density = 1.806452 g / cm^3
# Si number density = 18.105729 Si / 1000 Ang^3
#
#
#
# Elastic Constant Matrix: (Units=GPa)
#
#
# Indices 1 2 3 4 5 6 
#
# 1 103.6628 34.6594 47.8999 0.0000 0.0000 0.0000
# 2 34.6594 69.0800 33.2527 0.0000 0.0000 0.0000
# 3 47.8999 33.2527 80.7911 0.0000 0.0000 0.0000
# 4 0.0000 0.0000 0.0000 33.6799 0.0000 0.0000
# 5 0.0000 0.0000 0.0000 0.0000 27.5366 0.0000
# 6 0.0000 0.0000 0.0000 0.0000 0.0000 25.0172
#
#
#
# Elastic Compliance Matrix: (Units=1/GPa)
#
#
# Indices 1 2 3 4 5 6 
#
# 1 0.014039 -0.003787 -0.006764 0.000000 0.000000 0.000000
# 2 -0.003787 0.019074 -0.005605 0.000000 0.000000 0.000000
# 3 -0.006764 -0.005605 0.018695 0.000000 0.000000 0.000000
# 4 0.000000 0.000000 0.000000 0.029691 0.000000 0.000000
# 5 0.000000 0.000000 0.000000 0.000000 0.036315 0.000000
# 6 0.000000 0.000000 0.000000 0.000000 0.000000 0.039973
#
#
# Mechanical properties :
#
#
# Convention : Reuss Voigt Hill
#
# Bulk Modulus (GPa) = 51.29800 53.90643 52.60221
# Shear Modulus (GPa) = 25.43237 26.42819 25.93028
#
# Velocity S-wave (km/s) = 3.75194 3.82469 3.78849
# Velocity P-wave (km/s) = 6.86756 7.02440 6.94642
#
# Compressibility (1/GPa) = 0.01949394
#
# Stress axis : x y z
#
# Youngs Moduli (GPa) = 71.23189 52.42628 53.48958
#
# Poissons Ratio (x) = 0.19856 0.36183
# Poissons Ratio (y) = 0.26978 0.29982
# Poissons Ratio (z) = 0.48185 0.29386
#
# Static dielectric constant tensor:
#      x y z
#    x 3.358980 0.000000 0.000000 
#    y 0.000000 3.335690 0.000000 
#    z 0.000000 0.000000 3.576370 
# 
# 
# High freq. dielectric constant tensor:
#      x y z
#    x 1.697570 0.000000 0.000000 
#    y 0.000000 1.691690 0.000000 
#    z 0.000000 0.000000 1.706510 
# 
# From -- ./inp_files/2622.got.cif
#   From: 2010.03.12/outbox.cif.g09.slc.cpg/sg57_2_cif.got.tgz:2622.got - 2010.04.16 15:48:40.
