data_PCOD8231502
_publ_section_title
;
Structure prediction by ZEFSAII (Michael W. Deem and Ramdas Pophale) SiO2 
 PCOD8231502
Probable space group: P B C M
;
_chemical_formula_sum "Si O2"
_cell_formula_units_Z 56
_cell_length_a 21.851922
_cell_length_b 14.133419
_cell_length_c 9.017522
_cell_angle_alpha 90.000000
_cell_angle_beta 90.000000
_cell_angle_gamma 90.000000
_cell_volume 2784.992862
_symmetry_space_group_name_H-M "P B C M"
_symmetry_group_IT_number 57
_symmetry_cell_setting 'orthorhombic'
loop_
_space_group_symop_operation_xyz
x,y,z
-x,-y,1/2+z
x,1/2-y,-z
-x,1/2+y,1/2-z
-x,-y,-z
x,y,1/2-z
-x,1/2+y,z
x,1/2-y,1/2+z
loop_
_atom_site_type_symbol
_atom_site_label
_atom_site_fract_x
_atom_site_fract_y
_atom_site_fract_z
Si Si1 0.869033 0.332990 0.585938
Si Si2 0.584230 0.527665 0.080899
Si Si3 0.732059 0.340954 0.575531
Si Si4 0.718394 0.971840 0.581616
Si Si5 0.062228 0.026919 0.919735
Si Si6 0.164100 0.148656 0.072837
Si Si7 0.469142 0.647796 0.425511
O O1 0.905750 0.250000 0.500000
O O2 0.863746 0.293932 0.750000
O O3 0.801928 0.345015 0.517755
O O4 0.900750 0.431731 0.577403
O O5 0.570870 0.497035 0.250000
O O6 0.651640 0.577473 0.069237
O O7 0.536555 0.608676 0.031098
O O8 0.578779 0.431395 0.983756
O O9 0.699454 0.250000 0.500000
O O10 0.724158 0.333780 0.750000
O O11 0.704410 0.437600 0.518390
O O12 0.733463 0.001727 0.750000
O O13 0.775037 0.908760 0.522617
O O14 0.050952 0.061372 0.750000
O O15 0.101369 0.104017 0.009482
O O16 0.000000 0.000000 0.000000
O O17 0.158862 0.156455 0.250000
O O18 0.171810 0.250000 0.000000
O O19 0.458409 0.750000 0.500000
O O20 0.459913 0.659643 0.250000
#
# Coordination Sequence:
#
# PCOD8231502 Si02
#       7
#     8   8   8   8   8   8   8
#     4   9  19  34  55  81 110 141 179 225 278 336
#     4   9  20  38  58  84 117 153 198 246 291 346
#     4  10  19  33  54  82 113 147 185 229 284 346
#     4  10  21  38  60  86 118 155 196 243 294 349
#     4  11  23  41  62  88 119 154 197 245 294 348
#     4  11  24  42  64  89 119 158 200 244 297 353
#     4  10  20  36  59  85 116 155 197 244 296 348
#
# _framework density 20.107771
#
# number of rings (size 3 to 8) (size 9 to 14) (size 15 to 20)
#    0.000    2.000    1.429    1.714    0.000    5.143 
#    0.000    1.429    0.000    0.000    0.000    0.000 
#    0.000    0.000    0.000    0.000    0.000    0.000 
#
# Total GULP energy -693996.379532 kJ/mol
# GULP energy per Si atom -12392.792492 kJ/mol
# Density = 2.006200 g / cm^3
# Si number density = 20.107771 Si / 1000 Ang^3
#
#
#
# Elastic Constant Matrix: (Units=GPa)
#
#
# Indices 1 2 3 4 5 6 
#
# 1 103.0446 40.8090 32.8325 0.0000 0.0000 0.0000
# 2 40.8090 95.2705 47.3988 0.0000 0.0000 0.0000
# 3 32.8325 47.3988 93.5592 0.0000 0.0000 0.0000
# 4 0.0000 0.0000 0.0000 37.6096 0.0000 0.0000
# 5 0.0000 0.0000 0.0000 0.0000 23.5526 0.0000
# 6 0.0000 0.0000 0.0000 0.0000 0.0000 5.4314
#
#
#
# Elastic Compliance Matrix: (Units=1/GPa)
#
#
# Indices 1 2 3 4 5 6 
#
# 1 0.012002 -0.004072 -0.002149 0.000000 0.000000 0.000000
# 2 -0.004072 0.015415 -0.006381 0.000000 0.000000 0.000000
# 3 -0.002149 -0.006381 0.014675 0.000000 0.000000 0.000000
# 4 0.000000 0.000000 0.000000 0.026589 0.000000 0.000000
# 5 0.000000 0.000000 0.000000 0.000000 0.042458 0.000000
# 6 0.000000 0.000000 0.000000 0.000000 0.000000 0.184114
#
#
# Mechanical properties :
#
#
# Convention : Reuss Voigt Hill
#
# Bulk Modulus (GPa) = 59.20942 59.32833 59.26888
# Shear Modulus (GPa) = 15.33339 24.70766 20.02052
#
# Velocity S-wave (km/s) = 2.76445 3.50917 3.15883
# Velocity P-wave (km/s) = 6.30075 6.78147 6.54552
#
# Compressibility (1/GPa) = 0.01688920
#
# Stress axis : x y z
#
# Youngs Moduli (GPa) = 83.32082 64.87150 68.14273
#
# Poissons Ratio (x) = 0.26415 0.14643
# Poissons Ratio (y) = 0.33927 0.43479
# Poissons Ratio (z) = 0.17905 0.41392
#
# Static dielectric constant tensor:
#      x y z
#    x 3.364890 0.000000 0.000000 
#    y 0.000000 3.779700 0.000000 
#    z 0.000000 0.000000 3.832350 
# 
# 
# High freq. dielectric constant tensor:
#      x y z
#    x 1.788390 0.000000 0.000000 
#    y 0.000000 1.777840 0.000000 
#    z 0.000000 0.000000 1.790880 
# 
# From -- ./inp_files/8169.got.cif
#   From: 2010.03.12/outbox.cif.g09.slc.cpg/sg57_5_cif.got.tgz:8169.got - 2010.04.16 15:48:40.
