data_PCOD8231693
_publ_section_title
;
Structure prediction by ZEFSAII (Michael W. Deem and Ramdas Pophale) SiO2 
 PCOD8231693
Probable space group: P B C M
;
_chemical_formula_sum "Si O2"
_cell_formula_units_Z 60
_cell_length_a 21.076347
_cell_length_b 4.929878
_cell_length_c 29.880269
_cell_angle_alpha 90.000000
_cell_angle_beta 90.000000
_cell_angle_gamma 90.000000
_cell_volume 3104.674074
_symmetry_space_group_name_H-M "P B C M"
_symmetry_group_IT_number 57
_symmetry_cell_setting 'orthorhombic'
loop_
_space_group_symop_operation_xyz
x,y,z
-x,-y,1/2+z
x,1/2-y,-z
-x,1/2+y,1/2-z
-x,-y,-z
x,y,1/2-z
-x,1/2+y,z
x,1/2-y,1/2+z
loop_
_atom_site_type_symbol
_atom_site_label
_atom_site_fract_x
_atom_site_fract_y
_atom_site_fract_z
Si Si1 0.786519 0.716709 0.903563
Si Si2 0.957898 0.400086 0.387013
Si Si3 0.454926 0.250000 0.500000
Si Si4 0.284678 0.800415 0.801216
Si Si5 0.331600 0.207450 0.147614
Si Si6 0.831550 0.285709 0.354113
Si Si7 0.126996 0.008030 0.471105
Si Si8 0.455561 0.288281 0.403736
O O1 0.710236 0.722146 0.896932
O O2 0.813517 0.412459 0.896045
O O3 0.810340 0.844644 0.950236
O O4 0.813318 0.904181 0.863864
O O5 0.908085 0.300678 0.348569
O O6 0.922059 0.391128 0.434676
O O7 0.981108 0.708607 0.382548
O O8 0.500000 0.500000 0.500000
O O9 0.418320 0.253977 0.452103
O O10 0.296893 0.723411 0.750000
O O11 0.319545 0.595396 0.834897
O O12 0.208190 0.806744 0.810503
O O13 0.313713 0.093701 0.811602
O O14 0.405100 0.237638 0.135299
O O15 0.093774 0.250000 0.500000
O O16 0.149357 0.750000 0.500000
O O17 0.484848 0.586688 0.398842
#
# Coordination Sequence:
#
# PCOD8231693 Si02
#       8
#     8   8   4   8   8   8   8   8
#     4   9  18  34  51  70  98 135 174 217 265 308
#     4  11  21  33  50  71  98 138 179 211 257 319
#     4   8  16  30  50  72 102 140 182 222 244 284
#     4  10  20  36  61  86 106 134 174 226 273 322
#     4  10  20  35  58  83 110 138 181 221 266 334
#     4   9  18  34  54  73  99 131 168 213 261 315
#     4  11  21  33  48  68 103 138 175 227 271 309
#     4  10  19  34  56  80 112 150 185 220 264 311
#
# _framework density 19.325702
#
# number of rings (size 3 to 8) (size 9 to 14) (size 15 to 20)
#    0.000    2.133    0.000    5.200    0.000    1.600 
#    1.200    0.000    5.867    8.800    0.000    0.000 
#    0.000    0.000    0.000    0.000    0.000    0.000 
#
# Total GULP energy -743317.257200 kJ/mol
# GULP energy per Si atom -12388.620953 kJ/mol
# Density = 1.928172 g / cm^3
# Si number density = 19.325702 Si / 1000 Ang^3
#
#
#
# Elastic Constant Matrix: (Units=GPa)
#
#
# Indices 1 2 3 4 5 6 
#
# 1 81.1075 10.0633 33.7354 0.0000 0.0000 0.0000
# 2 10.0633 86.0617 9.7616 0.0000 0.0000 0.0000
# 3 33.7354 9.7616 66.6144 0.0000 0.0000 0.0000
# 4 0.0000 0.0000 0.0000 21.8409 0.0000 0.0000
# 5 0.0000 0.0000 0.0000 0.0000 16.1808 0.0000
# 6 0.0000 0.0000 0.0000 0.0000 0.0000 25.0102
#
#
#
# Elastic Compliance Matrix: (Units=1/GPa)
#
#
# Indices 1 2 3 4 5 6 
#
# 1 0.015695 -0.000949 -0.007809 0.000000 0.000000 0.000000
# 2 -0.000949 0.011873 -0.001259 0.000000 0.000000 0.000000
# 3 -0.007809 -0.001259 0.019151 0.000000 0.000000 0.000000
# 4 0.000000 0.000000 0.000000 0.045786 0.000000 0.000000
# 5 0.000000 0.000000 0.000000 0.000000 0.061801 0.000000
# 6 0.000000 0.000000 0.000000 0.000000 0.000000 0.039984
#
#
# Mechanical properties :
#
#
# Convention : Reuss Voigt Hill
#
# Bulk Modulus (GPa) = 37.47566 37.87822 37.67694
# Shear Modulus (GPa) = 22.39929 24.62128 23.51029
#
# Velocity S-wave (km/s) = 3.40816 3.57321 3.49166
# Velocity P-wave (km/s) = 5.90941 6.05527 5.98278
#
# Compressibility (1/GPa) = 0.02668398
#
# Stress axis : x y z
#
# Youngs Moduli (GPa) = 63.71321 84.22187 52.21611
#
# Poissons Ratio (x) = 0.07997 0.40778
# Poissons Ratio (y) = 0.06049 0.06574
# Poissons Ratio (z) = 0.49756 0.10604
#
# Static dielectric constant tensor:
#      x y z
#    x 3.407870 0.000000 0.000000 
#    y 0.000000 3.685830 0.000000 
#    z 0.000000 0.000000 3.327400 
# 
# 
# High freq. dielectric constant tensor:
#      x y z
#    x 1.728620 0.000000 0.000000 
#    y 0.000000 1.780820 0.000000 
#    z 0.000000 0.000000 1.712310 
# 
# From -- ./inp_files/29973.got.cif
#   From: 2010.03.12/outbox.cif.g09.slc.cpg/sg57_15_cif.got.tgz:29973.got - 2010.04.16 15:48:40.
