data_PCOD8231128
_publ_section_title
;
Structure prediction by ZEFSAII (Michael W. Deem and Ramdas Pophale) SiO2 
 PCOD8231128
Probable space group: P B C M
;
_chemical_formula_sum "Si O2"
_cell_formula_units_Z 64
_cell_length_a 15.474293
_cell_length_b 28.407316
_cell_length_c 8.594445
_cell_angle_alpha 90.000000
_cell_angle_beta 90.000000
_cell_angle_gamma 90.000000
_cell_volume 3777.973043
_symmetry_space_group_name_H-M "P B C M"
_symmetry_group_IT_number 57
_symmetry_cell_setting 'orthorhombic'
loop_
_space_group_symop_operation_xyz
x,y,z
-x,-y,1/2+z
x,1/2-y,-z
-x,1/2+y,1/2-z
-x,-y,-z
x,y,1/2-z
-x,1/2+y,z
x,1/2-y,1/2+z
loop_
_atom_site_type_symbol
_atom_site_label
_atom_site_fract_x
_atom_site_fract_y
_atom_site_fract_z
Si Si1 0.922595 0.702363 0.931037
Si Si2 0.500069 0.948285 0.067342
Si Si3 0.005740 0.051813 0.067392
Si Si4 0.110100 0.700613 0.433195
Si Si5 0.673517 0.562798 0.433511
Si Si6 0.838356 0.605086 0.570029
Si Si7 0.688047 0.044124 0.567366
Si Si8 0.844640 0.105713 0.934510
O O1 0.944353 0.709102 0.750000
O O2 0.856859 0.659952 0.961099
O O3 0.880146 0.750000 0.000000
O O4 0.011268 0.691706 0.019656
O O5 0.518765 0.948928 0.250000
O O6 0.403047 0.929022 0.031291
O O7 0.576797 0.919774 0.981498
O O8 0.500000 0.000000 0.000000
O O9 0.988818 0.050598 0.250000
O O10 0.935954 0.085042 0.986663
O O11 0.100444 0.072103 0.033413
O O12 0.000000 0.000000 0.000000
O O13 0.144974 0.750000 0.500000
O O14 0.118764 0.701174 0.250000
O O15 0.167807 0.658342 0.501140
O O16 0.685082 0.567078 0.250000
O O17 0.740211 0.596834 0.519485
O O18 0.688774 0.509455 0.496509
O O19 0.852878 0.592260 0.750000
O O20 0.701479 0.040189 0.750000
O O21 0.766984 0.073882 0.495062
O O22 0.841733 0.107190 0.750000
#
# Coordination Sequence:
#
# PCOD8231128 Si02
#       8
#     8   8   8   8   8   8   8   8
#     4  10  20  34  53  73  97 127 165 210 256 300
#     4   9  16  30  49  71  98 130 168 210 254 297
#     4  12  24  36  49  68  99 139 175 208 245 293
#     4  11  21  34  52  73  97 128 166 209 257 301
#     4  10  19  32  50  74 102 135 171 208 250 298
#     4  11  22  35  51  73 100 133 170 209 252 300
#     4   8  17  31  49  71  98 132 167 204 247 293
#     4  11  20  34  52  73 100 132 170 210 251 300
#
# _framework density 16.940301999999999
#
# number of rings (size 3 to 8) (size 9 to 14) (size 15 to 20)
#    0.000    1.750    1.250    6.375    0.000    2.500 
#    0.000    6.875    0.000    0.000    0.000    0.875 
#    0.000    4.000    0.000    0.000    0.000    0.000 
#
# Total GULP energy -793516.734886 kJ/mol
# GULP energy per Si atom -12398.698983 kJ/mol
# Density = 1.690174 g / cm^3
# Si number density = 16.940302 Si / 1000 Ang^3
#
#
#
# Elastic Constant Matrix: (Units=GPa)
#
#
# Indices 1 2 3 4 5 6 
#
# 1 75.5795 23.9875 17.5940 0.0000 0.0000 0.0000
# 2 23.9875 83.9419 32.8444 0.0000 0.0000 0.0000
# 3 17.5940 32.8444 85.3264 0.0000 0.0000 0.0000
# 4 0.0000 0.0000 0.0000 26.6807 0.0000 0.0000
# 5 0.0000 0.0000 0.0000 0.0000 23.8560 0.0000
# 6 0.0000 0.0000 0.0000 0.0000 0.0000 13.3316
#
#
#
# Elastic Compliance Matrix: (Units=1/GPa)
#
#
# Indices 1 2 3 4 5 6 
#
# 1 0.014750 -0.003561 -0.001671 0.000000 0.000000 0.000000
# 2 -0.003561 0.014885 -0.004995 0.000000 0.000000 0.000000
# 3 -0.001671 -0.004995 0.013987 0.000000 0.000000 0.000000
# 4 0.000000 0.000000 0.000000 0.037480 0.000000 0.000000
# 5 0.000000 0.000000 0.000000 0.000000 0.041918 0.000000
# 6 0.000000 0.000000 0.000000 0.000000 0.000000 0.075010
#
#
# Mechanical properties :
#
#
# Convention : Reuss Voigt Hill
#
# Bulk Modulus (GPa) = 43.16326 43.74439 43.45382
# Shear Modulus (GPa) = 22.10350 24.13512 23.11931
#
# Velocity S-wave (km/s) = 3.61610 3.77864 3.69826
# Velocity P-wave (km/s) = 6.55514 6.70195 6.62895
#
# Compressibility (1/GPa) = 0.02316785
#
# Stress axis : x y z
#
# Youngs Moduli (GPa) = 67.79512 67.18032 71.49477
#
# Poissons Ratio (x) = 0.23926 0.11944
# Poissons Ratio (y) = 0.24145 0.35715
# Poissons Ratio (z) = 0.11326 0.33559
#
# Static dielectric constant tensor:
#      x y z
#    x 3.433160 0.000000 0.000000 
#    y 0.000000 4.261020 0.000000 
#    z 0.000000 0.000000 3.040580 
# 
# 
# High freq. dielectric constant tensor:
#      x y z
#    x 1.641940 0.000000 0.000000 
#    y 0.000000 1.632820 0.000000 
#    z 0.000000 0.000000 1.663660 
# 
# From -- ./inp_files/6028.got.cif
#   From: 2010.03.12/outbox.cif.g09.slc.cpg/sg57_4_cif.got.tgz:6028.got - 2010.04.16 15:48:40.
