data_PCOD8231569
_publ_section_title
;
Structure prediction by ZEFSAII (Michael W. Deem and Ramdas Pophale) SiO2 
 PCOD8231569
Probable space group: P B C M
;
_chemical_formula_sum "Si O2"
_cell_formula_units_Z 48
_cell_length_a 10.161870
_cell_length_b 27.997059
_cell_length_c 8.968348
_cell_angle_alpha 90.000000
_cell_angle_beta 90.000000
_cell_angle_gamma 90.000000
_cell_volume 2551.517193
_symmetry_space_group_name_H-M "P B C M"
_symmetry_group_IT_number 57
_symmetry_cell_setting 'orthorhombic'
loop_
_space_group_symop_operation_xyz
x,y,z
-x,-y,1/2+z
x,1/2-y,-z
-x,1/2+y,1/2-z
-x,-y,-z
x,y,1/2-z
-x,1/2+y,z
x,1/2-y,1/2+z
loop_
_atom_site_type_symbol
_atom_site_label
_atom_site_fract_x
_atom_site_fract_y
_atom_site_fract_z
Si Si1 0.861282 0.297541 0.924507
Si Si2 0.979222 0.450152 0.076891
Si Si3 0.245390 0.397502 0.420989
Si Si4 0.253690 0.602718 0.421844
Si Si5 0.518455 0.949093 0.924237
Si Si6 0.860254 0.797619 0.075026
O O1 0.883754 0.288473 0.750000
O O2 0.760023 0.340787 0.953356
O O3 0.800611 0.250000 0.000000
O O4 0.000679 0.309990 0.999236
O O5 0.964779 0.459643 0.250000
O O6 0.100744 0.416067 0.039079
O O7 0.000000 0.500000 0.000000
O O8 0.846034 0.426599 0.021596
O O9 0.281982 0.408819 0.250000
O O10 0.348572 0.423604 0.525503
O O11 0.242743 0.340621 0.451659
O O12 0.222522 0.590969 0.250000
O O13 0.399707 0.586392 0.466384
O O14 0.526385 0.958573 0.750000
O O15 0.500000 0.000000 0.000000
O O16 0.884682 0.789486 0.250000
O O17 0.799542 0.750000 0.000000
#
# Coordination Sequence:
#
# PCOD8231569 Si02
#       6
#     8   8   8   8   8   8
#     4  10  19  33  56  84 115 147 183 229 282 337
#     4  11  22  36  56  83 113 144 186 238 286 337
#     4  10  22  39  57  82 116 149 188 235 282 336
#     4  10  22  39  57  82 114 148 188 234 282 337
#     4  11  24  41  60  82 113 153 195 236 286 343
#     4  10  19  34  56  85 117 148 185 231 283 337
#
# _framework density 18.812336999999999
#
# number of rings (size 3 to 8) (size 9 to 14) (size 15 to 20)
#    0.000    1.667    1.667    4.000    0.000    8.667 
#    0.000    0.833    0.000    4.000    0.000    0.000 
#    0.000    0.000    0.000    0.000    0.000    0.000 
#
# Total GULP energy -595296.810876 kJ/mol
# GULP energy per Si atom -12402.016893 kJ/mol
# Density = 1.876952 g / cm^3
# Si number density = 18.812337 Si / 1000 Ang^3
#
#
#
# Elastic Constant Matrix: (Units=GPa)
#
#
# Indices 1 2 3 4 5 6 
#
# 1 36.4731 15.6528 39.3584 0.0000 0.0000 0.0000
# 2 15.6528 123.9568 56.3929 0.0000 0.0000 0.0000
# 3 39.3584 56.3929 104.1311 0.0000 0.0000 0.0000
# 4 0.0000 0.0000 0.0000 35.8216 0.0000 0.0000
# 5 0.0000 0.0000 0.0000 0.0000 28.8736 0.0000
# 6 0.0000 0.0000 0.0000 0.0000 0.0000 32.5104
#
#
#
# Elastic Compliance Matrix: (Units=1/GPa)
#
#
# Indices 1 2 3 4 5 6 
#
# 1 0.047051 0.002852 -0.019328 0.000000 0.000000 0.000000
# 2 0.002852 0.010878 -0.006969 0.000000 0.000000 0.000000
# 3 -0.019328 -0.006969 0.020683 0.000000 0.000000 0.000000
# 4 0.000000 0.000000 0.000000 0.027916 0.000000 0.000000
# 5 0.000000 0.000000 0.000000 0.000000 0.034634 0.000000
# 6 0.000000 0.000000 0.000000 0.000000 0.000000 0.030759
#
#
# Mechanical properties :
#
#
# Convention : Reuss Voigt Hill
#
# Bulk Modulus (GPa) = 31.52498 54.15213 42.83856
# Shear Modulus (GPa) = 21.79747 29.65156 25.72451
#
# Velocity S-wave (km/s) = 3.40763 3.97442 3.70189
# Velocity P-wave (km/s) = 5.68125 7.06465 6.41038
#
# Compressibility (1/GPa) = 0.03172087
#
# Stress axis : x y z
#
# Youngs Moduli (GPa) = 21.25357 91.93249 48.34955
#
# Poissons Ratio (x) = -0.26217 0.93451
# Poissons Ratio (y) = -0.06061 0.33693
# Poissons Ratio (z) = 0.41079 0.64065
#
# Static dielectric constant tensor:
#      x y z
#    x 3.262190 0.000000 0.000000 
#    y 0.000000 3.460680 0.000000 
#    z 0.000000 0.000000 3.567610 
# 
# 
# High freq. dielectric constant tensor:
#      x y z
#    x 1.708630 0.000000 0.000000 
#    y 0.000000 1.750370 0.000000 
#    z 0.000000 0.000000 1.743150 
# 
# From -- ./inp_files/2084.got.cif
#   From: 2010.03.12/outbox.cif.g09.slc.cpg/sg57_2_cif.got.tgz:2084.got - 2010.04.16 15:48:40.
