data_PCOD8231399
_publ_section_title
;
Structure prediction by ZEFSAII (Michael W. Deem and Ramdas Pophale) SiO2 
 PCOD8231399
Probable space group: P B C M
;
_chemical_formula_sum "Si O2"
_cell_formula_units_Z 64
_cell_length_a 11.465480
_cell_length_b 33.237487
_cell_length_c 8.907548
_cell_angle_alpha 90.000000
_cell_angle_beta 90.000000
_cell_angle_gamma 90.000000
_cell_volume 3394.521728
_symmetry_space_group_name_H-M "P B C M"
_symmetry_group_IT_number 57
_symmetry_cell_setting 'orthorhombic'
loop_
_space_group_symop_operation_xyz
x,y,z
-x,-y,1/2+z
x,1/2-y,-z
-x,1/2+y,1/2-z
-x,-y,-z
x,y,1/2-z
-x,1/2+y,z
x,1/2-y,1/2+z
loop_
_atom_site_type_symbol
_atom_site_label
_atom_site_fract_x
_atom_site_fract_y
_atom_site_fract_z
Si Si1 0.478161 0.056154 0.421190
Si Si2 0.726608 0.057339 0.927405
Si Si3 0.647820 0.640748 0.418857
Si Si4 0.787719 0.291831 0.927637
Si Si5 0.144985 0.395850 0.426689
Si Si6 0.521937 0.291068 0.572448
Si Si7 0.890670 0.369341 0.426888
Si Si8 0.260959 0.477769 0.071827
O O1 0.496836 0.041125 0.250000
O O2 0.598905 0.061073 0.505445
O O3 0.419544 0.099272 0.423800
O O4 0.394047 0.025418 0.510278
O O5 0.722376 0.051630 0.750000
O O6 0.796215 0.097319 0.973083
O O7 0.791489 0.018578 0.000346
O O8 0.681381 0.652753 0.250000
O O9 0.767423 0.638021 0.511318
O O10 0.562789 0.674240 0.490198
O O11 0.801230 0.288659 0.750000
O O12 0.654432 0.300495 0.977348
O O13 0.831117 0.250000 0.000000
O O14 0.866720 0.327928 0.987986
O O15 0.154217 0.394771 0.250000
O O16 0.182192 0.440351 0.484122
O O17 0.015481 0.385934 0.481997
O O18 0.477195 0.250000 0.500000
O O19 0.514982 0.287570 0.750000
O O20 0.889449 0.361002 0.250000
O O21 0.263766 0.480889 0.250000
#
# Coordination Sequence:
#
# PCOD8231399 Si02
#       8
#     8   8   8   8   8   8   8   8
#     4  10  19  33  53  76 104 136 173 218 267 320
#     4  11  22  34  51  77 108 140 175 218 266 315
#     4   9  18  33  53  76 102 133 170 213 259 309
#     4  10  20  36  59  85 112 141 172 210 259 313
#     4   9  20  38  56  74 100 137 179 221 262 306
#     4   9  18  32  51  79 111 136 163 203 254 311
#     4  10  22  39  56  77 107 141 180 223 263 307
#     4  10  20  35  54  76 104 138 176 218 267 319
#
# _framework density 18.853909000000002
#
# number of rings (size 3 to 8) (size 9 to 14) (size 15 to 20)
#    0.000    2.250    0.000    2.625    0.000    5.000 
#    0.000    0.625    0.000    1.500    0.000    0.000 
#    0.000    0.000    0.000    0.000    0.000    0.000 
#
# Total GULP energy -793689.541178 kJ/mol
# GULP energy per Si atom -12401.399081 kJ/mol
# Density = 1.881100 g / cm^3
# Si number density = 18.853909 Si / 1000 Ang^3
#
#
#
# Elastic Constant Matrix: (Units=GPa)
#
#
# Indices 1 2 3 4 5 6 
#
# 1 102.6519 61.2921 38.7136 0.0000 0.0000 0.0000
# 2 61.2921 101.6098 45.5284 0.0000 0.0000 0.0000
# 3 38.7136 45.5284 58.0592 0.0000 0.0000 0.0000
# 4 0.0000 0.0000 0.0000 34.8488 0.0000 0.0000
# 5 0.0000 0.0000 0.0000 0.0000 26.4074 0.0000
# 6 0.0000 0.0000 0.0000 0.0000 0.0000 25.2283
#
#
#
# Elastic Compliance Matrix: (Units=1/GPa)
#
#
# Indices 1 2 3 4 5 6 
#
# 1 0.016046 -0.007531 -0.004794 0.000000 0.000000 0.000000
# 2 -0.007531 0.018708 -0.009648 0.000000 0.000000 0.000000
# 3 -0.004794 -0.009648 0.027986 0.000000 0.000000 0.000000
# 4 0.000000 0.000000 0.000000 0.028695 0.000000 0.000000
# 5 0.000000 0.000000 0.000000 0.000000 0.037868 0.000000
# 6 0.000000 0.000000 0.000000 0.000000 0.000000 0.039638
#
#
# Mechanical properties :
#
#
# Convention : Reuss Voigt Hill
#
# Bulk Modulus (GPa) = 53.20974 61.48766 57.34870
# Shear Modulus (GPa) = 22.81513 25.08270 23.94892
#
# Velocity S-wave (km/s) = 3.48242 3.65138 3.56790
# Velocity P-wave (km/s) = 6.66732 7.10354 6.88888
#
# Compressibility (1/GPa) = 0.01879355
#
# Stress axis : x y z
#
# Youngs Moduli (GPa) = 62.31897 53.45405 35.73217
#
# Poissons Ratio (x) = 0.40259 0.17129
# Poissons Ratio (y) = 0.46935 0.34475
# Poissons Ratio (z) = 0.29874 0.51573
#
# Static dielectric constant tensor:
#      x y z
#    x 3.481790 0.000000 0.000000 
#    y 0.000000 3.632330 0.000000 
#    z 0.000000 0.000000 3.464010 
# 
# 
# High freq. dielectric constant tensor:
#      x y z
#    x 1.720940 0.000000 0.000000 
#    y 0.000000 1.739990 0.000000 
#    z 0.000000 0.000000 1.732660 
# 
# From -- ./inp_files/3793.got.cif
#   From: 2010.03.12/outbox.cif.g09.slc.cpg/sg57_2_cif.got.tgz:3793.got - 2010.04.16 15:48:40.
