data_PCOD8231409
_publ_section_title
;
Structure prediction by ZEFSAII (Michael W. Deem and Ramdas Pophale) SiO2 
 PCOD8231409
Probable space group: P B C M
;
_chemical_formula_sum "Si O2"
_cell_formula_units_Z 48
_cell_length_a 18.316020
_cell_length_b 15.309064
_cell_length_c 8.857717
_cell_angle_alpha 90.000000
_cell_angle_beta 90.000000
_cell_angle_gamma 90.000000
_cell_volume 2483.713789
_symmetry_space_group_name_H-M "P B C M"
_symmetry_group_IT_number 57
_symmetry_cell_setting 'orthorhombic'
loop_
_space_group_symop_operation_xyz
x,y,z
-x,-y,1/2+z
x,1/2-y,-z
-x,1/2+y,1/2-z
-x,-y,-z
x,y,1/2-z
-x,1/2+y,z
x,1/2-y,1/2+z
loop_
_atom_site_type_symbol
_atom_site_label
_atom_site_fract_x
_atom_site_fract_y
_atom_site_fract_z
Si Si1 0.032543 0.582366 0.922661
Si Si2 0.329732 0.509053 0.428938
Si Si3 0.437280 0.660508 0.427130
Si Si4 0.395809 0.340655 0.928494
Si Si5 0.821248 0.011987 0.928399
Si Si6 0.887879 0.661328 0.927598
O O1 0.030080 0.557699 0.750000
O O2 0.118579 0.588730 0.967292
O O3 0.976717 0.661846 0.956533
O O4 0.000000 0.500000 0.000000
O O5 0.330959 0.498291 0.250000
O O6 0.388670 0.580023 0.485053
O O7 0.346111 0.416632 0.504959
O O8 0.251128 0.541660 0.484829
O O9 0.408377 0.750000 0.500000
O O10 0.430224 0.672207 0.250000
O O11 0.520435 0.641527 0.476223
O O12 0.386008 0.336382 0.750000
O O13 0.368535 0.250000 0.000000
O O14 0.806052 0.004335 0.750000
O O15 0.848591 0.918757 0.989924
O O16 0.869511 0.657768 0.750000
O O17 0.856856 0.750000 0.000000
#
# Coordination Sequence:
#
# PCOD8231409 Si02
#       6
#     8   8   8   8   8   8
#     4   8  16  31  51  71  94 124 162 202 243 291
#     4  11  22  36  54  81 113 146 181 222 271 326
#     4   9  20  37  58  81 107 139 181 228 274 321
#     4  10  20  36  57  82 109 142 181 225 272 323
#     4  10  20  35  53  75 103 138 174 212 259 314
#     4  10  19  33  53  78 104 133 169 213 260 311
#
# _framework density 19.325897000000001
#
# number of rings (size 3 to 8) (size 9 to 14) (size 15 to 20)
#    0.000    2.333    0.000    2.500    0.000    4.000 
#    0.000    4.167    0.000    4.000    0.000    0.000 
#    0.000    0.000    0.000    0.000    0.000    0.000 
#
# Total GULP energy -594845.880577 kJ/mol
# GULP energy per Si atom -12392.622512 kJ/mol
# Density = 1.928191 g / cm^3
# Si number density = 19.325897 Si / 1000 Ang^3
#
#
#
# Elastic Constant Matrix: (Units=GPa)
#
#
# Indices 1 2 3 4 5 6 
#
# 1 72.6806 6.7254 21.3613 0.0000 0.0000 0.0000
# 2 6.7254 44.5460 17.1062 0.0000 0.0000 0.0000
# 3 21.3613 17.1062 58.9969 0.0000 0.0000 0.0000
# 4 0.0000 0.0000 0.0000 27.4964 0.0000 0.0000
# 5 0.0000 0.0000 0.0000 0.0000 31.1484 0.0000
# 6 0.0000 0.0000 0.0000 0.0000 0.0000 19.8762
#
#
#
# Elastic Compliance Matrix: (Units=1/GPa)
#
#
# Indices 1 2 3 4 5 6 
#
# 1 0.015399 -0.000207 -0.005516 0.000000 0.000000 0.000000
# 2 -0.000207 0.025264 -0.007251 0.000000 0.000000 0.000000
# 3 -0.005516 -0.007251 0.021049 0.000000 0.000000 0.000000
# 4 0.000000 0.000000 0.000000 0.036368 0.000000 0.000000
# 5 0.000000 0.000000 0.000000 0.000000 0.032104 0.000000
# 6 0.000000 0.000000 0.000000 0.000000 0.000000 0.050312
#
#
# Mechanical properties :
#
#
# Convention : Reuss Voigt Hill
#
# Bulk Modulus (GPa) = 27.95894 29.62327 28.79111
# Shear Modulus (GPa) = 22.89742 24.43956 23.66849
#
# Velocity S-wave (km/s) = 3.44583 3.55998 3.50337
# Velocity P-wave (km/s) = 5.50729 5.67975 5.59418
#
# Compressibility (1/GPa) = 0.03576673
#
# Stress axis : x y z
#
# Youngs Moduli (GPa) = 64.93909 39.58168 47.50723
#
# Poissons Ratio (x) = 0.00819 0.26203
# Poissons Ratio (y) = 0.01343 0.34445
# Poissons Ratio (z) = 0.35818 0.28699
#
# Static dielectric constant tensor:
#      x y z
#    x 3.640240 0.000000 0.000000 
#    y 0.000000 3.818430 0.000000 
#    z 0.000000 0.000000 3.528350 
# 
# 
# High freq. dielectric constant tensor:
#      x y z
#    x 1.757460 0.000000 0.000000 
#    y 0.000000 1.731870 0.000000 
#    z 0.000000 0.000000 1.761100 
# 
# From -- ./inp_files/6481.got.cif
#   From: 2010.03.12/outbox.cif.g09.slc.cpg/sg57_4_cif.got.tgz:6481.got - 2010.04.16 15:48:40.
