data_PCOD8231446
_publ_section_title
;
Structure prediction by ZEFSAII (Michael W. Deem and Ramdas Pophale) SiO2 
 PCOD8231446
Probable space group: P B C M
;
_chemical_formula_sum "Si O2"
_cell_formula_units_Z 56
_cell_length_a 18.940542
_cell_length_b 17.225179
_cell_length_c 8.661834
_cell_angle_alpha 90.000000
_cell_angle_beta 90.000000
_cell_angle_gamma 90.000000
_cell_volume 2825.959950
_symmetry_space_group_name_H-M "P B C M"
_symmetry_group_IT_number 57
_symmetry_cell_setting 'orthorhombic'
loop_
_space_group_symop_operation_xyz
x,y,z
-x,-y,1/2+z
x,1/2-y,-z
-x,1/2+y,1/2-z
-x,-y,-z
x,y,1/2-z
-x,1/2+y,z
x,1/2-y,1/2+z
loop_
_atom_site_type_symbol
_atom_site_label
_atom_site_fract_x
_atom_site_fract_y
_atom_site_fract_z
Si Si1 0.287675 0.437333 0.428360
Si Si2 0.034051 0.077990 0.068160
Si Si3 0.835795 0.664853 0.934136
Si Si4 0.776804 0.421125 0.076748
Si Si5 0.640314 0.167859 0.572646
Si Si6 0.424355 0.982502 0.567127
Si Si7 0.085404 0.671238 0.928752
O O1 0.299574 0.424925 0.250000
O O2 0.243332 0.362618 0.489444
O O3 0.239100 0.512627 0.453760
O O4 0.365697 0.455246 0.500155
O O5 0.042493 0.067339 0.250000
O O6 0.110010 0.100130 0.997852
O O7 0.983289 0.149360 0.026591
O O8 0.000000 0.000000 0.000000
O O9 0.842004 0.666970 0.750000
O O10 0.851528 0.750000 0.000000
O O11 0.767685 0.454942 0.250000
O O12 0.723797 0.348646 0.054596
O O13 0.856338 0.394749 0.048876
O O14 0.621605 0.250000 0.500000
O O15 0.616363 0.167292 0.750000
O O16 0.596034 0.103717 0.481968
O O17 0.427013 0.987310 0.750000
O O18 0.500000 0.000000 0.500000
O O19 0.065216 0.681665 0.750000
O O20 0.116101 0.750000 0.000000
#
# Coordination Sequence:
#
# PCOD8231446 Si02
#       7
#     8   8   8   8   8   8   8
#     4   9  20  37  59  83 110 143 184 228 276 332
#     4  12  25  41  59  81 109 145 188 238 289 343
#     4  11  23  41  62  86 114 150 193 243 296 348
#     4   9  19  33  53  80 111 144 182 224 272 328
#     4  10  19  33  53  81 113 147 184 226 274 331
#     4  10  20  37  59  85 115 150 187 230 280 336
#     4  11  22  36  53  78 110 145 182 225 274 326
#
# _framework density 19.816275999999998
#
# number of rings (size 3 to 8) (size 9 to 14) (size 15 to 20)
#    0.000    1.714    0.000    4.714    0.000    5.714 
#    0.000    0.714    0.000    1.714    0.000    0.000 
#    0.000    0.000    0.000    0.000    0.000    0.000 
#
# Total GULP energy -694197.390117 kJ/mol
# GULP energy per Si atom -12396.381966 kJ/mol
# Density = 1.977117 g / cm^3
# Si number density = 19.816276 Si / 1000 Ang^3
#
#
#
# Elastic Constant Matrix: (Units=GPa)
#
#
# Indices 1 2 3 4 5 6 
#
# 1 132.3199 43.1965 43.5801 0.0000 0.0000 0.0000
# 2 43.1965 85.3664 29.9668 0.0000 0.0000 0.0000
# 3 43.5801 29.9668 85.2848 0.0000 0.0000 0.0000
# 4 0.0000 0.0000 0.0000 34.4332 0.0000 0.0000
# 5 0.0000 0.0000 0.0000 0.0000 27.4229 0.0000
# 6 0.0000 0.0000 0.0000 0.0000 0.0000 23.2210
#
#
#
# Elastic Compliance Matrix: (Units=1/GPa)
#
#
# Indices 1 2 3 4 5 6 
#
# 1 0.010034 -0.003739 -0.003814 0.000000 0.000000 0.000000
# 2 -0.003739 0.014755 -0.003274 0.000000 0.000000 0.000000
# 3 -0.003814 -0.003274 0.014825 0.000000 0.000000 0.000000
# 4 0.000000 0.000000 0.000000 0.029042 0.000000 0.000000
# 5 0.000000 0.000000 0.000000 0.000000 0.036466 0.000000
# 6 0.000000 0.000000 0.000000 0.000000 0.000000 0.043064
#
#
# Mechanical properties :
#
#
# Convention : Reuss Voigt Hill
#
# Bulk Modulus (GPa) = 55.67617 59.60645 57.64131
# Shear Modulus (GPa) = 28.43718 29.43059 28.93388
#
# Velocity S-wave (km/s) = 3.79230 3.85797 3.82528
# Velocity P-wave (km/s) = 6.87987 7.07037 6.97577
#
# Compressibility (1/GPa) = 0.01796101
#
# Stress axis : x y z
#
# Youngs Moduli (GPa) = 99.66149 67.77193 67.45517
#
# Poissons Ratio (x) = 0.25337 0.25725
# Poissons Ratio (y) = 0.37259 0.22087
# Poissons Ratio (z) = 0.38008 0.22190
#
# Static dielectric constant tensor:
#      x y z
#    x 3.814940 0.000000 0.000000 
#    y 0.000000 3.598660 0.000000 
#    z 0.000000 0.000000 3.823690 
# 
# 
# High freq. dielectric constant tensor:
#      x y z
#    x 1.773820 0.000000 0.000000 
#    y 0.000000 1.766300 0.000000 
#    z 0.000000 0.000000 1.776300 
# 
# From -- ./inp_files/8075.got.cif
#   From: 2010.03.12/outbox.cif.g09.slc.cpg/sg57_5_cif.got.tgz:8075.got - 2010.04.16 15:48:40.
