data_PCOD8231974
_publ_section_title
;
Structure prediction by ZEFSAII (Michael W. Deem and Ramdas Pophale) SiO2 
 PCOD8231974
Probable space group: P B C M
;
_chemical_formula_sum "Si O2"
_cell_formula_units_Z 64
_cell_length_a 21.578583
_cell_length_b 17.977341
_cell_length_c 8.770767
_cell_angle_alpha 90.000000
_cell_angle_beta 90.000000
_cell_angle_gamma 90.000000
_cell_volume 3402.404568
_symmetry_space_group_name_H-M "P B C M"
_symmetry_group_IT_number 57
_symmetry_cell_setting 'orthorhombic'
loop_
_space_group_symop_operation_xyz
x,y,z
-x,-y,1/2+z
x,1/2-y,-z
-x,1/2+y,1/2-z
-x,-y,-z
x,y,1/2-z
-x,1/2+y,z
x,1/2-y,1/2+z
loop_
_atom_site_type_symbol
_atom_site_label
_atom_site_fract_x
_atom_site_fract_y
_atom_site_fract_z
Si Si1 0.756998 0.088702 0.425980
Si Si2 0.506602 0.170725 0.570326
Si Si3 0.875881 0.173252 0.426564
Si Si4 0.382317 0.911967 0.573196
Si Si5 0.934495 0.479833 0.931182
Si Si6 0.268945 0.331628 0.431854
Si Si7 0.816180 0.949961 0.569708
Si Si8 0.610781 0.920344 0.069319
O O1 0.767303 0.063893 0.250000
O O2 0.804367 0.154731 0.469392
O O3 0.687504 0.117735 0.452032
O O4 0.769331 0.016630 0.528511
O O5 0.492695 0.250000 0.500000
O O6 0.504756 0.178363 0.750000
O O7 0.573459 0.141487 0.521149
O O8 0.452996 0.115752 0.509963
O O9 0.897791 0.250000 0.500000
O O10 0.884079 0.185476 0.250000
O O11 0.918475 0.104671 0.481578
O O12 0.401475 0.908722 0.750000
O O13 0.387029 0.995530 0.507327
O O14 0.934683 0.488172 0.750000
O O15 0.883851 0.535633 0.999941
O O16 0.000000 0.500000 0.000000
O O17 0.270161 0.250000 0.500000
O O18 0.265586 0.328443 0.250000
O O19 0.209086 0.373860 0.497269
O O20 0.330681 0.373744 0.491306
O O21 0.821483 0.941502 0.750000
O O22 0.613725 0.921980 0.250000
#
# Coordination Sequence:
#
# PCOD8231974 Si02
#       8
#     8   8   8   8   8   8   8   8
#     4   9  18  35  57  80 111 148 183 228 285 336
#     4  11  23  38  53  76 107 144 188 236 287 347
#     4   9  19  34  55  84 116 150 186 227 277 330
#     4  10  19  36  59  81 107 145 184 232 292 345
#     4  10  21  39  62  88 117 155 198 240 285 334
#     4  11  21  37  58  84 115 149 187 236 291 345
#     4  11  21  35  57  86 116 149 189 230 275 337
#     4   9  19  36  59  80 106 144 187 232 289 348
#
# _framework density 18.810226
#
# number of rings (size 3 to 8) (size 9 to 14) (size 15 to 20)
#    0.000    2.000    1.250    3.750    0.000    3.500 
#    0.000    4.375    0.000    1.500    0.000    0.000 
#    0.000    0.000    0.000    0.000    0.000    0.000 
#
# Total GULP energy -793706.037955 kJ/mol
# GULP energy per Si atom -12401.656843 kJ/mol
# Density = 1.876741 g / cm^3
# Si number density = 18.810226 Si / 1000 Ang^3
#
#
#
# Elastic Constant Matrix: (Units=GPa)
#
#
# Indices 1 2 3 4 5 6 
#
# 1 122.0869 35.8834 37.4842 0.0000 0.0000 0.0000
# 2 35.8834 76.2156 24.0745 0.0000 0.0000 0.0000
# 3 37.4842 24.0745 74.0439 0.0000 0.0000 0.0000
# 4 0.0000 0.0000 0.0000 32.7872 0.0000 0.0000
# 5 0.0000 0.0000 0.0000 0.0000 27.2643 0.0000
# 6 0.0000 0.0000 0.0000 0.0000 0.0000 24.0334
#
#
#
# Elastic Compliance Matrix: (Units=1/GPa)
#
#
# Indices 1 2 3 4 5 6 
#
# 1 0.010537 -0.003651 -0.004147 0.000000 0.000000 0.000000
# 2 -0.003651 0.015888 -0.003317 0.000000 0.000000 0.000000
# 3 -0.004147 -0.003317 0.016684 0.000000 0.000000 0.000000
# 4 0.000000 0.000000 0.000000 0.030500 0.000000 0.000000
# 5 0.000000 0.000000 0.000000 0.000000 0.036678 0.000000
# 6 0.000000 0.000000 0.000000 0.000000 0.000000 0.041609
#
#
# Mechanical properties :
#
#
# Convention : Reuss Voigt Hill
#
# Bulk Modulus (GPa) = 47.89953 51.91451 49.90702
# Shear Modulus (GPa) = 27.61125 28.47725 28.04425
#
# Velocity S-wave (km/s) = 3.83546 3.89514 3.86541
# Velocity P-wave (km/s) = 6.71820 6.92015 6.81992
#
# Compressibility (1/GPa) = 0.02087703
#
# Stress axis : x y z
#
# Youngs Moduli (GPa) = 94.90032 62.94250 59.93887
#
# Poissons Ratio (x) = 0.22981 0.24859
# Poissons Ratio (y) = 0.34649 0.19883
# Poissons Ratio (z) = 0.39359 0.20880
#
# Static dielectric constant tensor:
#      x y z
#    x 3.484820 0.000000 0.000000 
#    y 0.000000 3.522890 0.000000 
#    z 0.000000 0.000000 3.333020 
# 
# 
# High freq. dielectric constant tensor:
#      x y z
#    x 1.733590 0.000000 0.000000 
#    y 0.000000 1.728280 0.000000 
#    z 0.000000 0.000000 1.722190 
# 
# From -- ./inp_files/8412.got.cif
#   From: 2010.03.12/outbox.cif.g09.slc.cpg/sg57_5_cif.got.tgz:8412.got - 2010.04.16 15:48:40.
