data_PCOD8231827
_publ_section_title
;
Structure prediction by ZEFSAII (Michael W. Deem and Ramdas Pophale) SiO2 
 PCOD8231827
Probable space group: P B C M
;
_chemical_formula_sum "Si O2"
_cell_formula_units_Z 64
_cell_length_a 12.076532
_cell_length_b 31.244075
_cell_length_c 9.078436
_cell_angle_alpha 90.000000
_cell_angle_beta 90.000000
_cell_angle_gamma 90.000000
_cell_volume 3425.476121
_symmetry_space_group_name_H-M "P B C M"
_symmetry_group_IT_number 57
_symmetry_cell_setting 'orthorhombic'
loop_
_space_group_symop_operation_xyz
x,y,z
-x,-y,1/2+z
x,1/2-y,-z
-x,1/2+y,1/2-z
-x,-y,-z
x,y,1/2-z
-x,1/2+y,z
x,1/2-y,1/2+z
loop_
_atom_site_type_symbol
_atom_site_label
_atom_site_fract_x
_atom_site_fract_y
_atom_site_fract_z
Si Si1 0.006662 0.205152 0.576647
Si Si2 0.987670 0.954152 0.576154
Si Si3 0.119668 0.870952 0.579951
Si Si4 0.363873 0.894663 0.917158
Si Si5 0.397677 0.136297 0.078513
Si Si6 0.740196 0.793467 0.078199
Si Si7 0.605825 0.019036 0.922448
Si Si8 0.254745 0.058439 0.422627
O O1 0.973722 0.250000 0.500000
O O2 0.986062 0.210426 0.750000
O O3 0.133788 0.193038 0.540792
O O4 0.932605 0.166492 0.516816
O O5 0.990263 0.962753 0.750000
O O6 0.078627 0.918506 0.529786
O O7 0.870416 0.934122 0.523038
O O8 0.000000 0.000000 0.500000
O O9 0.085834 0.863628 0.750000
O O10 0.251880 0.867820 0.557465
O O11 0.368862 0.912474 0.750000
O O12 0.470261 0.864937 0.947718
O O13 0.364520 0.933757 0.028273
O O14 0.369731 0.143974 0.250000
O O15 0.340894 0.093164 0.014020
O O16 0.348105 0.173365 0.980943
O O17 0.723258 0.787407 0.250000
O O18 0.709154 0.750000 0.000000
O O19 0.583047 0.018555 0.750000
O O20 0.708981 0.989214 0.968637
O O21 0.500000 0.000000 0.000000
O O22 0.260771 0.063619 0.250000
#
# Coordination Sequence:
#
# PCOD8231827 Si02
#       8
#     8   8   8   8   8   8   8   8
#     4  10  21  38  62  89 116 144 181 230 282 339
#     4  10  20  34  52  76 108 146 186 229 278 332
#     4  10  21  37  58  83 114 151 192 235 283 340
#     4  10  21  37  55  79 111 148 189 231 277 327
#     4  10  19  35  56  77 107 142 177 222 273 323
#     4  10  21  37  58  86 113 138 173 218 272 330
#     4  11  20  33  52  75 106 146 190 234 278 328
#     4   9  18  32  51  74 102 140 180 219 271 326
#
# _framework density 18.683534999999999
#
# number of rings (size 3 to 8) (size 9 to 14) (size 15 to 20)
#    0.000    2.000    1.250    2.625    0.000    4.000 
#    0.000    1.875    0.000    0.000    0.000    0.000 
#    0.000    0.000    0.000    0.000    0.000    0.000 
#
# Total GULP energy -793513.956593 kJ/mol
# GULP energy per Si atom -12398.655572 kJ/mol
# Density = 1.864101 g / cm^3
# Si number density = 18.683535 Si / 1000 Ang^3
#
#
#
# Elastic Constant Matrix: (Units=GPa)
#
#
# Indices 1 2 3 4 5 6 
#
# 1 124.9144 61.9253 41.2005 0.0000 0.0000 0.0000
# 2 61.9253 124.8937 56.9578 0.0000 0.0000 0.0000
# 3 41.2005 56.9578 75.5424 0.0000 0.0000 0.0000
# 4 0.0000 0.0000 0.0000 38.0074 0.0000 0.0000
# 5 0.0000 0.0000 0.0000 0.0000 24.5556 0.0000
# 6 0.0000 0.0000 0.0000 0.0000 0.0000 47.2485
#
#
#
# Elastic Compliance Matrix: (Units=1/GPa)
#
#
# Indices 1 2 3 4 5 6 
#
# 1 0.011011 -0.004146 -0.002879 0.000000 0.000000 0.000000
# 2 -0.004146 0.013764 -0.008117 0.000000 0.000000 0.000000
# 3 -0.002879 -0.008117 0.020927 0.000000 0.000000 0.000000
# 4 0.000000 0.000000 0.000000 0.026311 0.000000 0.000000
# 5 0.000000 0.000000 0.000000 0.000000 0.040724 0.000000
# 6 0.000000 0.000000 0.000000 0.000000 0.000000 0.021165
#
#
# Mechanical properties :
#
#
# Convention : Reuss Voigt Hill
#
# Bulk Modulus (GPa) = 64.85638 71.72419 68.29028
# Shear Modulus (GPa) = 29.52905 32.98008 31.25456
#
# Velocity S-wave (km/s) = 3.97984 4.20598 4.09447
# Velocity P-wave (km/s) = 7.47712 7.87778 7.68006
#
# Compressibility (1/GPa) = 0.01541868
#
# Stress axis : x y z
#
# Youngs Moduli (GPa) = 90.82208 72.65178 47.78410
#
# Poissons Ratio (x) = 0.30125 0.13756
# Poissons Ratio (y) = 0.37659 0.38784
# Poissons Ratio (z) = 0.26146 0.58969
#
# Static dielectric constant tensor:
#      x y z
#    x 3.645570 0.000000 0.000000 
#    y 0.000000 2.784370 0.000000 
#    z 0.000000 0.000000 3.589210 
# 
# 
# High freq. dielectric constant tensor:
#      x y z
#    x 1.733230 0.000000 0.000000 
#    y 0.000000 1.719190 0.000000 
#    z 0.000000 0.000000 1.715220 
# 
# From -- ./inp_files/3863.got.cif
#   From: 2010.03.12/outbox.cif.g09.slc.cpg/sg57_2_cif.got.tgz:3863.got - 2010.04.16 15:48:40.
