data_PCOD8231068
_publ_section_title
;
Structure prediction by ZEFSAII (Michael W. Deem and Ramdas Pophale) SiO2 
 PCOD8231068
Probable space group: P B C M
;
_chemical_formula_sum "Si O2"
_cell_formula_units_Z 64
_cell_length_a 21.508089
_cell_length_b 19.552162
_cell_length_c 8.910814
_cell_angle_alpha 90.000000
_cell_angle_beta 90.000000
_cell_angle_gamma 90.000000
_cell_volume 3747.261407
_symmetry_space_group_name_H-M "P B C M"
_symmetry_group_IT_number 57
_symmetry_cell_setting 'orthorhombic'
loop_
_space_group_symop_operation_xyz
x,y,z
-x,-y,1/2+z
x,1/2-y,-z
-x,1/2+y,1/2-z
-x,-y,-z
x,y,1/2-z
-x,1/2+y,z
x,1/2-y,1/2+z
loop_
_atom_site_type_symbol
_atom_site_label
_atom_site_fract_x
_atom_site_fract_y
_atom_site_fract_z
Si Si1 0.558436 0.036112 0.426195
Si Si2 0.012566 0.393927 0.081594
Si Si3 0.621058 0.819029 0.572895
Si Si4 0.122108 0.320836 0.927193
Si Si5 0.195675 0.457154 0.573898
Si Si6 0.479026 0.817946 0.575001
Si Si7 0.089021 0.532332 0.418353
Si Si8 0.675816 0.550963 0.572607
O O1 0.548085 0.029215 0.250000
O O2 0.560700 0.115934 0.473852
O O3 0.500000 0.000000 0.500000
O O4 0.623109 0.002990 0.478229
O O5 0.999384 0.366778 0.250000
O O6 0.045585 0.466607 0.090131
O O7 0.054724 0.338976 0.994765
O O8 0.947903 0.403997 0.992117
O O9 0.646894 0.750000 0.500000
O O10 0.628851 0.815804 0.750000
O O11 0.549877 0.830921 0.522462
O O12 0.663640 0.878044 0.508504
O O13 0.115393 0.311862 0.750000
O O14 0.170922 0.381076 0.966890
O O15 0.146287 0.250000 0.000000
O O16 0.207646 0.464040 0.750000
O O17 0.147564 0.515256 0.522906
O O18 0.257870 0.474922 0.483393
O O19 0.450717 0.750000 0.500000
O O20 0.476610 0.804898 0.750000
O O21 0.110291 0.552777 0.250000
O O22 0.675894 0.561239 0.750000
#
# Coordination Sequence:
#
# PCOD8231068 Si02
#       8
#     8   8   8   8   8   8   8   8
#     4  10  20  34  52  75 101 129 163 209 262 313
#     4   9  16  27  46  71  97 125 157 196 240 285
#     4  10  19  32  49  68  95 128 164 205 248 300
#     4  10  20  33  49  70  98 134 172 209 245 286
#     4  10  21  35  49  67  96 133 172 210 251 300
#     4   9  18  32  50  73  98 124 156 197 247 304
#     4   9  16  28  47  70  95 122 157 200 244 286
#     4  11  22  34  50  72  99 132 172 213 260 314
#
# _framework density 17.079139000000001
#
# number of rings (size 3 to 8) (size 9 to 14) (size 15 to 20)
#    0.000    2.250    1.250    2.250    0.000    6.500 
#    0.000    1.250    0.000    0.000    0.000    0.875 
#    0.000    2.000    0.000    0.000    0.000    0.000 
#
# Total GULP energy -793612.483425 kJ/mol
# GULP energy per Si atom -12400.195054 kJ/mol
# Density = 1.704027 g / cm^3
# Si number density = 17.079139 Si / 1000 Ang^3
#
#
#
# Elastic Constant Matrix: (Units=GPa)
#
#
# Indices 1 2 3 4 5 6 
#
# 1 87.8462 42.9520 33.4780 0.0000 0.0000 0.0000
# 2 42.9520 62.8708 26.2222 0.0000 0.0000 0.0000
# 3 33.4780 26.2222 77.9416 0.0000 0.0000 0.0000
# 4 0.0000 0.0000 0.0000 26.6828 0.0000 0.0000
# 5 0.0000 0.0000 0.0000 0.0000 26.9632 0.0000
# 6 0.0000 0.0000 0.0000 0.0000 0.0000 20.5985
#
#
#
# Elastic Compliance Matrix: (Units=1/GPa)
#
#
# Indices 1 2 3 4 5 6 
#
# 1 0.018219 -0.010682 -0.004232 0.000000 0.000000 0.000000
# 2 -0.010682 0.024765 -0.003743 0.000000 0.000000 0.000000
# 3 -0.004232 -0.003743 0.015907 0.000000 0.000000 0.000000
# 4 0.000000 0.000000 0.000000 0.037477 0.000000 0.000000
# 5 0.000000 0.000000 0.000000 0.000000 0.037088 0.000000
# 6 0.000000 0.000000 0.000000 0.000000 0.000000 0.048547
#
#
# Mechanical properties :
#
#
# Convention : Reuss Voigt Hill
#
# Bulk Modulus (GPa) = 46.34669 48.21811 47.28240
# Shear Modulus (GPa) = 22.07408 23.24932 22.66170
#
# Velocity S-wave (km/s) = 3.59898 3.69354 3.64657
# Velocity P-wave (km/s) = 6.66825 6.81785 6.74347
#
# Compressibility (1/GPa) = 0.02157651
#
# Stress axis : x y z
#
# Youngs Moduli (GPa) = 54.88719 40.38016 62.86436
#
# Poissons Ratio (x) = 0.43134 0.26603
# Poissons Ratio (y) = 0.58630 0.23533
# Poissons Ratio (z) = 0.23228 0.15116
#
# Static dielectric constant tensor:
#      x y z
#    x 3.099690 0.000000 0.000000 
#    y 0.000000 3.150290 0.000000 
#    z 0.000000 0.000000 3.373690 
# 
# 
# High freq. dielectric constant tensor:
#      x y z
#    x 1.637230 0.000000 0.000000 
#    y 0.000000 1.637290 0.000000 
#    z 0.000000 0.000000 1.673790 
# 
# From -- ./inp_files/8463.got.cif
#   From: 2010.03.12/outbox.cif.g09.slc.cpg/sg57_5_cif.got.tgz:8463.got - 2010.04.16 15:48:40.
