data_PCOD8231355
_publ_section_title
;
Structure prediction by ZEFSAII (Michael W. Deem and Ramdas Pophale) SiO2 
 PCOD8231355
Probable space group: P B C M
;
_chemical_formula_sum "Si O2"
_cell_formula_units_Z 40
_cell_length_a 25.297716
_cell_length_b 9.977679
_cell_length_c 8.929905
_cell_angle_alpha 90.000000
_cell_angle_beta 90.000000
_cell_angle_gamma 90.000000
_cell_volume 2254.019554
_symmetry_space_group_name_H-M "P B C M"
_symmetry_group_IT_number 57
_symmetry_cell_setting 'orthorhombic'
loop_
_space_group_symop_operation_xyz
x,y,z
-x,-y,1/2+z
x,1/2-y,-z
-x,1/2+y,1/2-z
-x,-y,-z
x,y,1/2-z
-x,1/2+y,z
x,1/2-y,1/2+z
loop_
_atom_site_type_symbol
_atom_site_label
_atom_site_fract_x
_atom_site_fract_y
_atom_site_fract_z
Si Si1 0.960149 0.396618 0.427143
Si Si2 0.342799 0.388816 0.076093
Si Si3 0.154811 0.888908 0.078599
Si Si4 0.269240 0.895938 0.073538
Si Si5 0.534295 0.612398 0.923567
O O1 0.967082 0.250000 0.500000
O O2 0.970815 0.385168 0.250000
O O3 0.901213 0.458987 0.462535
O O4 0.000000 0.500000 0.500000
O O5 0.328191 0.379932 0.250000
O O6 0.404289 0.418828 0.050162
O O7 0.325763 0.250000 0.000000
O O8 0.312165 0.509552 0.000087
O O9 0.153229 0.851108 0.250000
O O10 0.210604 0.963036 0.042463
O O11 0.157240 0.750000 0.000000
O O12 0.280406 0.883227 0.250000
O O13 0.273919 0.750000 0.000000
O O14 0.520001 0.621091 0.750000
O O15 0.517667 0.750000 0.000000
O O16 0.500000 0.500000 0.000000
#
# Coordination Sequence:
#
# PCOD8231355 Si02
#       5
#     8   8   8   8   8
#     4  10  19  33  52  75 102 133 169 210 255 304
#     4  10  21  37  55  77 105 138 171 208 255 305
#     4   8  16  30  49  72  99 130 166 207 252 299
#     4  10  19  33  54  79 104 133 170 212 253 299
#     4  10  21  37  57  79 105 136 172 211 254 301
#
# _framework density 17.746075000000001
#
# number of rings (size 3 to 8) (size 9 to 14) (size 15 to 20)
#    0.000    2.400    0.000    2.400    0.000    4.800 
#    0.000    1.000    0.000    0.000    0.000    0.000 
#    0.000    0.000    0.000    0.000    0.000    0.000 
#
# Total GULP energy -495595.892775 kJ/mol
# GULP energy per Si atom -12389.897319 kJ/mol
# Density = 1.770568 g / cm^3
# Si number density = 17.746075 Si / 1000 Ang^3
#
#
#
# Elastic Constant Matrix: (Units=GPa)
#
#
# Indices 1 2 3 4 5 6 
#
# 1 107.5103 81.5230 72.0564 0.0000 0.0000 0.0000
# 2 81.5230 114.2634 70.7241 0.0000 0.0000 0.0000
# 3 72.0564 70.7241 118.5332 0.0000 0.0000 0.0000
# 4 0.0000 0.0000 0.0000 35.3206 0.0000 0.0000
# 5 0.0000 0.0000 0.0000 0.0000 27.8937 0.0000
# 6 0.0000 0.0000 0.0000 0.0000 0.0000 32.0557
#
#
#
# Elastic Compliance Matrix: (Units=1/GPa)
#
#
# Indices 1 2 3 4 5 6 
#
# 1 0.023198 -0.012403 -0.006702 0.000000 0.000000 0.000000
# 2 -0.012403 0.020508 -0.004696 0.000000 0.000000 0.000000
# 3 -0.006702 -0.004696 0.015313 0.000000 0.000000 0.000000
# 4 0.000000 0.000000 0.000000 0.028312 0.000000 0.000000
# 5 0.000000 0.000000 0.000000 0.000000 0.035850 0.000000
# 6 0.000000 0.000000 0.000000 0.000000 0.000000 0.031196
#
#
# Mechanical properties :
#
#
# Convention : Reuss Voigt Hill
#
# Bulk Modulus (GPa) = 87.59497 87.65710 87.62603
# Shear Modulus (GPa) = 24.29734 26.78754 25.54244
#
# Velocity S-wave (km/s) = 3.70424 3.88943 3.79796
# Velocity P-wave (km/s) = 8.23180 8.34702 8.28961
#
# Compressibility (1/GPa) = 0.01141618
#
# Stress axis : x y z
#
# Youngs Moduli (GPa) = 43.10712 48.76243 65.30568
#
# Poissons Ratio (x) = 0.60479 0.43766
# Poissons Ratio (y) = 0.53465 0.30670
# Poissons Ratio (z) = 0.28889 0.22901
#
# Static dielectric constant tensor:
#      x y z
#    x 4.079600 0.000000 0.000000 
#    y 0.000000 3.001600 0.000000 
#    z 0.000000 0.000000 3.800300 
# 
# 
# High freq. dielectric constant tensor:
#      x y z
#    x 1.704090 0.000000 0.000000 
#    y 0.000000 1.658710 0.000000 
#    z 0.000000 0.000000 1.707110 
# 
# From -- ./inp_files/7805.got.cif
#   From: 2010.03.12/outbox.cif.g09.slc.cpg/sg57_4_cif.got.tgz:7805.got - 2010.04.16 15:48:40.
