data_PCOD8231059
_publ_section_title
;
Structure prediction by ZEFSAII (Michael W. Deem and Ramdas Pophale) SiO2 
 PCOD8231059
Probable space group: P B C M
;
_chemical_formula_sum "Si O2"
_cell_formula_units_Z 64
_cell_length_a 18.872628
_cell_length_b 24.904324
_cell_length_c 9.049561
_cell_angle_alpha 90.000000
_cell_angle_beta 90.000000
_cell_angle_gamma 90.000000
_cell_volume 4253.384550
_symmetry_space_group_name_H-M "P B C M"
_symmetry_group_IT_number 57
_symmetry_cell_setting 'orthorhombic'
loop_
_space_group_symop_operation_xyz
x,y,z
-x,-y,1/2+z
x,1/2-y,-z
-x,1/2+y,1/2-z
-x,-y,-z
x,y,1/2-z
-x,1/2+y,z
x,1/2-y,1/2+z
loop_
_atom_site_type_symbol
_atom_site_label
_atom_site_fract_x
_atom_site_fract_y
_atom_site_fract_z
Si Si1 0.073940 0.805158 0.074138
Si Si2 0.465573 0.925261 0.087018
Si Si3 0.893750 0.984523 0.924688
Si Si4 0.008278 0.918088 0.077745
Si Si5 0.736334 0.504828 0.075089
Si Si6 0.777387 0.304220 0.925749
Si Si7 0.592747 0.954509 0.914211
Si Si8 0.316527 0.888420 0.075755
O O1 0.082742 0.796717 0.250000
O O2 0.023743 0.855939 0.038873
O O3 0.043901 0.750000 0.000000
O O4 0.148604 0.820173 0.001394
O O5 0.486333 0.907253 0.250000
O O6 0.399717 0.889297 0.031949
O O7 0.439650 0.986272 0.085913
O O8 0.537713 0.915439 0.996249
O O9 0.893497 0.978170 0.750000
O O10 0.927133 0.042377 0.969955
O O11 0.813650 0.979838 0.988390
O O12 0.937694 0.935282 0.991994
O O13 0.993521 0.925091 0.250000
O O14 0.734719 0.510919 0.250000
O O15 0.671999 0.542569 0.012496
O O16 0.721255 0.443737 0.033644
O O17 0.786900 0.298602 0.750000
O O18 0.749907 0.250000 0.000000
O O19 0.717884 0.346607 0.965462
O O20 0.599148 0.931479 0.750000
O O21 0.305944 0.875064 0.250000
#
# Coordination Sequence:
#
# PCOD8231059 Si02
#       8
#     8   8   8   8   8   8   8   8
#     4  10  19  32  48  63  82 108 138 172 210 250
#     4   8  14  23  36  54  76 104 133 160 193 228
#     4   9  16  27  43  60  81 111 144 172 201 246
#     4   9  18  30  43  60  83 110 137 170 211 249
#     4   8  14  25  41  59  79 109 142 168 202 243
#     4  11  21  31  43  60  81 104 134 170 206 241
#     4   8  13  22  36  53  76 104 133 163 191 226
#     4   9  16  28  43  57  79 110 140 168 201 242
#
# _framework density 15.046841000000001
#
# number of rings (size 3 to 8) (size 9 to 14) (size 15 to 20)
#    0.000    3.000    0.000    4.500    0.000    3.500 
#    0.000    5.625    0.000    0.000    0.000    0.000 
#    0.000    1.000    0.000    6.500    0.000    5.375 
#
# Total GULP energy -792935.343717 kJ/mol
# GULP energy per Si atom -12389.614746 kJ/mol
# Density = 1.501259 g / cm^3
# Si number density = 15.046841 Si / 1000 Ang^3
#
#
#
# Elastic Constant Matrix: (Units=GPa)
#
#
# Indices 1 2 3 4 5 6 
#
# 1 134.9777 51.1440 43.4367 0.0000 0.0000 0.0000
# 2 51.1440 69.4494 33.3175 0.0000 0.0000 0.0000
# 3 43.4367 33.3175 60.2703 0.0000 0.0000 0.0000
# 4 0.0000 0.0000 0.0000 20.2425 0.0000 0.0000
# 5 0.0000 0.0000 0.0000 0.0000 24.3192 0.0000
# 6 0.0000 0.0000 0.0000 0.0000 0.0000 20.5008
#
#
#
# Elastic Compliance Matrix: (Units=1/GPa)
#
#
# Indices 1 2 3 4 5 6 
#
# 1 0.011205 -0.005957 -0.004782 0.000000 0.000000 0.000000
# 2 -0.005957 0.022763 -0.008290 0.000000 0.000000 0.000000
# 3 -0.004782 -0.008290 0.024621 0.000000 0.000000 0.000000
# 4 0.000000 0.000000 0.000000 0.049401 0.000000 0.000000
# 5 0.000000 0.000000 0.000000 0.000000 0.041120 0.000000
# 6 0.000000 0.000000 0.000000 0.000000 0.000000 0.048779
#
#
# Mechanical properties :
#
#
# Convention : Reuss Voigt Hill
#
# Bulk Modulus (GPa) = 48.70888 57.83266 53.27077
# Shear Modulus (GPa) = 20.59389 22.13246 21.36317
#
# Velocity S-wave (km/s) = 3.70354 3.83940 3.77208
# Velocity P-wave (km/s) = 7.12251 7.62713 7.37913
#
# Compressibility (1/GPa) = 0.02053014
#
# Stress axis : x y z
#
# Youngs Moduli (GPa) = 89.24744 43.93071 40.61558
#
# Poissons Ratio (x) = 0.26171 0.19423
# Poissons Ratio (y) = 0.53167 0.33671
# Poissons Ratio (z) = 0.42679 0.36419
#
# Static dielectric constant tensor:
#      x y z
#    x 3.148900 0.000000 0.000000 
#    y 0.000000 2.689450 0.000000 
#    z 0.000000 0.000000 2.874590 
# 
# 
# High freq. dielectric constant tensor:
#      x y z
#    x 1.575620 0.000000 0.000000 
#    y 0.000000 1.535710 0.000000 
#    z 0.000000 0.000000 1.568620 
# 
# From -- ./inp_files/7469.got.cif
#   From: 2010.03.12/outbox.cif.g09.slc.cpg/sg57_4_cif.got.tgz:7469.got - 2010.04.16 15:48:40.
