data_PCOD8231609
_publ_section_title
;
Structure prediction by ZEFSAII (Michael W. Deem and Ramdas Pophale) SiO2 
 PCOD8231609
Probable space group: P B C M
;
_chemical_formula_sum "Si O2"
_cell_formula_units_Z 48
_cell_length_a 9.744981
_cell_length_b 17.295064
_cell_length_c 14.542006
_cell_angle_alpha 90.000000
_cell_angle_beta 90.000000
_cell_angle_gamma 90.000000
_cell_volume 2450.910710
_symmetry_space_group_name_H-M "P B C M"
_symmetry_group_IT_number 57
_symmetry_cell_setting 'orthorhombic'
loop_
_space_group_symop_operation_xyz
x,y,z
-x,-y,1/2+z
x,1/2-y,-z
-x,1/2+y,1/2-z
-x,-y,-z
x,y,1/2-z
-x,1/2+y,z
x,1/2-y,1/2+z
loop_
_atom_site_type_symbol
_atom_site_label
_atom_site_fract_x
_atom_site_fract_y
_atom_site_fract_z
Si Si1 0.326721 0.839114 0.485330
Si Si2 0.795216 0.571404 0.149876
Si Si3 0.929963 0.437365 0.434330
Si Si4 0.486798 0.363076 0.648611
Si Si5 0.571788 0.687198 0.643154
Si Si6 0.839014 0.664108 0.529585
O O1 0.287035 0.750000 0.500000
O O2 0.190550 0.888542 0.480399
O O3 0.397895 0.877421 0.573863
O O4 0.427803 0.844701 0.396828
O O5 0.832854 0.607728 0.250000
O O6 0.858115 0.484656 0.148496
O O7 0.629369 0.570856 0.140186
O O8 0.854328 0.620632 0.067075
O O9 0.000000 0.500000 0.500000
O O10 0.045701 0.374762 0.403607
O O11 0.554974 0.364482 0.750000
O O12 0.416011 0.279517 0.631124
O O13 0.584984 0.662260 0.750000
O O14 0.694410 0.652722 0.581151
O O15 0.875739 0.750000 0.500000
#
# Coordination Sequence:
#
# PCOD8231609 Si02
#       6
#     8   8   8   8   8   8
#     4  10  19  38  61  87 115 149 193 251 293 344
#     4  10  20  37  57  83 120 160 192 233 296 361
#     4  10  24  38  55  81 121 162 195 232 293 357
#     4   9  17  33  60  89 112 145 192 243 295 346
#     4  10  19  33  60  91 116 145 195 253 302 342
#     4  11  19  37  60  90 115 155 204 252 294 348
#
# _framework density 19.584557
#
# number of rings (size 3 to 8) (size 9 to 14) (size 15 to 20)
#    0.000    2.000    3.333    1.000    0.000    2.000 
#    0.000    3.333    0.000    6.000    0.000    0.000 
#    0.000    0.000    0.000    0.000    0.000    0.000 
#
# Total GULP energy -594696.509890 kJ/mol
# GULP energy per Si atom -12389.510623 kJ/mol
# Density = 1.953998 g / cm^3
# Si number density = 19.584557 Si / 1000 Ang^3
#
#
#
# Elastic Constant Matrix: (Units=GPa)
#
#
# Indices 1 2 3 4 5 6 
#
# 1 125.5673 57.4471 43.1277 0.0000 0.0000 0.0000
# 2 57.4471 76.3687 35.3994 0.0000 0.0000 0.0000
# 3 43.1277 35.3994 106.7000 0.0000 0.0000 0.0000
# 4 0.0000 0.0000 0.0000 20.7151 0.0000 0.0000
# 5 0.0000 0.0000 0.0000 0.0000 11.1342 0.0000
# 6 0.0000 0.0000 0.0000 0.0000 0.0000 41.2222
#
#
#
# Elastic Compliance Matrix: (Units=1/GPa)
#
#
# Indices 1 2 3 4 5 6 
#
# 1 0.012604 -0.008414 -0.002303 0.000000 0.000000 0.000000
# 2 -0.008414 0.021090 -0.003596 0.000000 0.000000 0.000000
# 3 -0.002303 -0.003596 0.011496 0.000000 0.000000 0.000000
# 4 0.000000 0.000000 0.000000 0.048274 0.000000 0.000000
# 5 0.000000 0.000000 0.000000 0.000000 0.089813 0.000000
# 6 0.000000 0.000000 0.000000 0.000000 0.000000 0.024259
#
#
# Mechanical properties :
#
#
# Convention : Reuss Voigt Hill
#
# Bulk Modulus (GPa) = 60.37045 64.50938 62.43992
# Shear Modulus (GPa) = 20.68812 26.12509 23.40660
#
# Velocity S-wave (km/s) = 3.25368 3.65631 3.46085
# Velocity P-wave (km/s) = 6.70878 7.12988 6.92253
#
# Compressibility (1/GPa) = 0.01656439
#
# Stress axis : x y z
#
# Youngs Moduli (GPa) = 79.33872 47.41483 86.98574
#
# Poissons Ratio (x) = 0.39893 0.20034
# Poissons Ratio (y) = 0.66753 0.31283
# Poissons Ratio (z) = 0.18273 0.17052
#
# Static dielectric constant tensor:
#      x y z
#    x 3.600050 0.000000 0.000000 
#    y 0.000000 3.805090 0.000000 
#    z 0.000000 0.000000 3.659050 
# 
# 
# High freq. dielectric constant tensor:
#      x y z
#    x 1.757650 0.000000 0.000000 
#    y 0.000000 1.752430 0.000000 
#    z 0.000000 0.000000 1.758040 
# 
# From -- ./inp_files/16549.got.cif
#   From: 2010.03.12/outbox.cif.g09.slc.cpg/sg57_9_cif.got.tgz:16549.got - 2010.04.16 15:48:40.
