data_PCOD8231633
_publ_section_title
;
Structure prediction by ZEFSAII (Michael W. Deem and Ramdas Pophale) SiO2 
 PCOD8231633
Probable space group: P B C M
;
_chemical_formula_sum "Si O2"
_cell_formula_units_Z 64
_cell_length_a 20.788144
_cell_length_b 8.963684
_cell_length_c 16.779550
_cell_angle_alpha 90.000000
_cell_angle_beta 90.000000
_cell_angle_gamma 90.000000
_cell_volume 3126.673724
_symmetry_space_group_name_H-M "P B C M"
_symmetry_group_IT_number 57
_symmetry_cell_setting 'orthorhombic'
loop_
_space_group_symop_operation_xyz
x,y,z
-x,-y,1/2+z
x,1/2-y,-z
-x,1/2+y,1/2-z
-x,-y,-z
x,y,1/2-z
-x,1/2+y,z
x,1/2-y,1/2+z
loop_
_atom_site_type_symbol
_atom_site_label
_atom_site_fract_x
_atom_site_fract_y
_atom_site_fract_z
Si Si1 0.444066 0.797698 0.155477
Si Si2 0.189186 0.042947 0.655694
Si Si3 0.690708 0.786117 0.408074
Si Si4 0.680590 0.038038 0.656816
Si Si5 0.067252 0.537892 0.654718
Si Si6 0.940899 0.797723 0.344405
Si Si7 0.428558 0.458720 0.155399
Si Si8 0.194000 0.702216 0.655126
O O1 0.444084 0.812038 0.250000
O O2 0.439016 0.627897 0.127728
O O3 0.384006 0.890268 0.119272
O O4 0.510868 0.864576 0.123122
O O5 0.200545 0.057203 0.750000
O O6 0.240903 0.142536 0.610737
O O7 0.119573 0.102703 0.629785
O O8 0.194885 0.872891 0.626322
O O9 0.686221 0.750000 0.500000
O O10 0.681565 0.637368 0.357104
O O11 0.635771 0.902677 0.385810
O O12 0.680577 0.070159 0.750000
O O13 0.743457 0.118141 0.619624
O O14 0.067162 0.537074 0.750000
O O15 0.065973 0.369312 0.621036
O O16 0.130823 0.619598 0.621482
O O17 0.005236 0.625765 0.621362
O O18 0.945585 0.789384 0.250000
O O19 0.420314 0.445815 0.250000
O O20 0.193121 0.695248 0.750000
#
# Coordination Sequence:
#
# PCOD8231633 Si02
#       8
#     8   8   8   8   8   8   8   8
#     4   9  18  33  60  90 111 135 174 217 258 304
#     4  10  19  34  54  76 101 137 179 221 265 314
#     4  12  25  38  52  76 107 142 179 220 266 314
#     4  10  19  35  57  81 106 137 175 217 260 310
#     4   9  15  24  39  71 111 139 164 207 262 314
#     4   9  16  25  43  71 107 142 172 209 260 312
#     4  10  19  36  59  83 109 139 174 215 259 310
#     4   9  17  29  51  80 108 135 172 218 266 314
#
# _framework density 20.469035999999999
#
# number of rings (size 3 to 8) (size 9 to 14) (size 15 to 20)
#    0.000    2.250    0.000    4.125    0.000    9.000 
#    0.000    5.000    0.000    0.000    0.000    7.875 
#    0.000    0.000    0.000    0.000    0.000    0.000 
#
# Total GULP energy -793707.661530 kJ/mol
# GULP energy per Si atom -12401.682211 kJ/mol
# Density = 2.042245 g / cm^3
# Si number density = 20.469036 Si / 1000 Ang^3
#
#
#
# Elastic Constant Matrix: (Units=GPa)
#
#
# Indices 1 2 3 4 5 6 
#
# 1 113.7887 20.4101 10.1873 0.0000 0.0000 0.0000
# 2 20.4101 109.3783 -1.4715 0.0000 0.0000 0.0000
# 3 10.1873 -1.4715 7.8956 0.0000 0.0000 0.0000
# 4 0.0000 0.0000 0.0000 3.5324 0.0000 0.0000
# 5 0.0000 0.0000 0.0000 0.0000 4.6658 0.0000
# 6 0.0000 0.0000 0.0000 0.0000 0.0000 49.3013
#
#
#
# Elastic Compliance Matrix: (Units=1/GPa)
#
#
# Indices 1 2 3 4 5 6 
#
# 1 0.010408 -0.002128 -0.013825 0.000000 0.000000 0.000000
# 2 -0.002128 0.009601 0.004535 0.000000 0.000000 0.000000
# 3 -0.013825 0.004535 0.145336 0.000000 0.000000 0.000000
# 4 0.000000 0.000000 0.000000 0.283096 0.000000 0.000000
# 5 0.000000 0.000000 0.000000 0.000000 0.214324 0.000000
# 6 0.000000 0.000000 0.000000 0.000000 0.000000 0.020283
#
#
# Mechanical properties :
#
#
# Convention : Reuss Voigt Hill
#
# Bulk Modulus (GPa) = 7.01717 32.14604 19.58160
# Shear Modulus (GPa) = 6.63670 24.96236 15.79953
#
# Velocity S-wave (km/s) = 1.80260 3.49595 2.78128
# Velocity P-wave (km/s) = 2.78713 5.65989 4.46108
#
# Compressibility (1/GPa) = 0.14250761
#
# Stress axis : x y z
#
# Youngs Moduli (GPa) = 96.08313 104.15923 6.88063
#
# Poissons Ratio (x) = 0.22166 0.09512
# Poissons Ratio (y) = 0.20447 -0.03120
# Poissons Ratio (z) = 1.32835 -0.47236
#
# Static dielectric constant tensor:
#      x y z
#    x 4.034510 0.000000 0.000000 
#    y 0.000000 3.975810 0.000000 
#    z 0.000000 0.000000 3.030380 
# 
# 
# High freq. dielectric constant tensor:
#      x y z
#    x 1.822590 0.000000 0.000000 
#    y 0.000000 1.819390 0.000000 
#    z 0.000000 0.000000 1.728830 
# 
# From -- ./inp_files/23033.got.cif
#   From: 2010.03.12/outbox.cif.g09.slc.cpg/sg57_12_cif.got.tgz:23033.got - 2010.04.16 15:48:40.
