data_PCOD8231046
_publ_section_title
;
Structure prediction by ZEFSAII (Michael W. Deem and Ramdas Pophale) SiO2 
 PCOD8231046
Probable space group: P B C M
;
_chemical_formula_sum "Si O2"
_cell_formula_units_Z 64
_cell_length_a 10.093620
_cell_length_b 22.371335
_cell_length_c 15.010623
_cell_angle_alpha 90.000000
_cell_angle_beta 90.000000
_cell_angle_gamma 90.000000
_cell_volume 3389.515072
_symmetry_space_group_name_H-M "P B C M"
_symmetry_group_IT_number 57
_symmetry_cell_setting 'orthorhombic'
loop_
_space_group_symop_operation_xyz
x,y,z
-x,-y,1/2+z
x,1/2-y,-z
-x,1/2+y,1/2-z
-x,-y,-z
x,y,1/2-z
-x,1/2+y,z
x,1/2-y,1/2+z
loop_
_atom_site_type_symbol
_atom_site_label
_atom_site_fract_x
_atom_site_fract_y
_atom_site_fract_z
Si Si1 0.143557 0.808862 0.536351
Si Si2 0.632951 0.365427 0.650295
Si Si3 0.216431 0.440268 0.523108
Si Si4 0.264191 0.507642 0.149680
Si Si5 0.965408 0.865899 0.409514
Si Si6 0.030028 0.992144 0.152752
Si Si7 0.104041 0.237489 0.351770
Si Si8 0.340901 0.348601 0.645986
O O1 0.216242 0.750000 0.500000
O O2 0.245874 0.843978 0.593554
O O3 0.106824 0.847082 0.449363
O O4 0.009000 0.791404 0.587954
O O5 0.663359 0.344918 0.750000
O O6 0.634280 0.437343 0.642407
O O7 0.494027 0.335666 0.620167
O O8 0.294762 0.464444 0.435067
O O9 0.121630 0.387140 0.492610
O O10 0.131140 0.491796 0.573464
O O11 0.312170 0.410172 0.594345
O O12 0.281957 0.478450 0.250000
O O13 0.109271 0.527494 0.139136
O O14 0.891554 0.809567 0.362826
O O15 0.992685 0.921571 0.344453
O O16 0.090358 0.008569 0.250000
O O17 0.071159 0.221799 0.250000
O O18 0.246256 0.207710 0.378503
O O19 0.329701 0.363995 0.750000
#
# Coordination Sequence:
#
# PCOD8231046 Si02
#       8
#     8   8   8   8   8   8   8   8
#     4  10  19  33  53  81 102 139 185 227 276 330
#     4  10  20  37  54  76 110 145 185 231 274 329
#     4  11  19  33  54  80 113 145 179 231 278 335
#     4   9  19  32  52  78 106 143 183 222 272 333
#     4  10  19  33  53  78 113 140 180 231 282 335
#     4  10  19  31  52  84 113 144 180 225 287 334
#     4  10  20  35  55  80 109 141 185 232 280 332
#     4  10  22  36  54  82 111 147 188 230 282 332
#
# _framework density 18.881757
#
# number of rings (size 3 to 8) (size 9 to 14) (size 15 to 20)
#    0.000    2.000    1.250    4.125    0.000    1.000 
#    2.250    0.000    0.000    0.000    0.000    0.875 
#    0.000    0.000    0.000    0.000    0.000    0.000 
#
# Total GULP energy -792882.955429 kJ/mol
# GULP energy per Si atom -12388.796179 kJ/mol
# Density = 1.883878 g / cm^3
# Si number density = 18.881757 Si / 1000 Ang^3
#
#
#
# Elastic Constant Matrix: (Units=GPa)
#
#
# Indices 1 2 3 4 5 6 
#
# 1 69.5247 35.4083 28.1871 0.0000 0.0000 0.0000
# 2 35.4083 75.0517 28.5323 0.0000 0.0000 0.0000
# 3 28.1871 28.5323 76.4900 0.0000 0.0000 0.0000
# 4 0.0000 0.0000 0.0000 30.9304 0.0000 0.0000
# 5 0.0000 0.0000 0.0000 0.0000 14.0829 0.0000
# 6 0.0000 0.0000 0.0000 0.0000 0.0000 15.8027
#
#
#
# Elastic Compliance Matrix: (Units=1/GPa)
#
#
# Indices 1 2 3 4 5 6 
#
# 1 0.020195 -0.007806 -0.004531 0.000000 0.000000 0.000000
# 2 -0.007806 0.018543 -0.004040 0.000000 0.000000 0.000000
# 3 -0.004531 -0.004040 0.016250 0.000000 0.000000 0.000000
# 4 0.000000 0.000000 0.000000 0.032331 0.000000 0.000000
# 5 0.000000 0.000000 0.000000 0.000000 0.071008 0.000000
# 6 0.000000 0.000000 0.000000 0.000000 0.000000 0.063280
#
#
# Mechanical properties :
#
#
# Convention : Reuss Voigt Hill
#
# Bulk Modulus (GPa) = 44.97317 45.03575 45.00446
# Shear Modulus (GPa) = 19.10056 20.75912 19.92984
#
# Velocity S-wave (km/s) = 3.18400 3.31936 3.25238
# Velocity P-wave (km/s) = 6.11450 6.21241 6.16365
#
# Compressibility (1/GPa) = 0.02223548
#
# Stress axis : x y z
#
# Youngs Moduli (GPa) = 49.51603 53.92948 61.53732
#
# Poissons Ratio (x) = 0.42095 0.27880
# Poissons Ratio (y) = 0.38650 0.24864
# Poissons Ratio (z) = 0.22434 0.21790
#
# Static dielectric constant tensor:
#      x y z
#    x 3.261640 0.000000 0.000000 
#    y 0.000000 3.504790 0.000000 
#    z 0.000000 0.000000 3.605530 
# 
# 
# High freq. dielectric constant tensor:
#      x y z
#    x 1.700900 0.000000 0.000000 
#    y 0.000000 1.726420 0.000000 
#    z 0.000000 0.000000 1.749230 
# 
# From -- ./inp_files/16964.got.cif
#   From: 2010.03.12/outbox.cif.g09.slc.cpg/sg57_9_cif.got.tgz:16964.got - 2010.04.16 15:48:40.
