data_PCOD8231932
_publ_section_title
;
Structure prediction by ZEFSAII (Michael W. Deem and Ramdas Pophale) SiO2 
 PCOD8231932
Probable space group: P B C M
;
_chemical_formula_sum "Si O2"
_cell_formula_units_Z 64
_cell_length_a 12.080809
_cell_length_b 15.245742
_cell_length_c 17.806020
_cell_angle_alpha 90.000000
_cell_angle_beta 90.000000
_cell_angle_gamma 90.000000
_cell_volume 3279.528739
_symmetry_space_group_name_H-M "P B C M"
_symmetry_group_IT_number 57
_symmetry_cell_setting 'orthorhombic'
loop_
_space_group_symop_operation_xyz
x,y,z
-x,-y,1/2+z
x,1/2-y,-z
-x,1/2+y,1/2-z
-x,-y,-z
x,y,1/2-z
-x,1/2+y,z
x,1/2-y,1/2+z
loop_
_atom_site_type_symbol
_atom_site_label
_atom_site_fract_x
_atom_site_fract_y
_atom_site_fract_z
Si Si1 0.526079 0.475738 0.585048
Si Si2 0.262301 0.467576 0.165711
Si Si3 0.013715 0.284438 0.839429
Si Si4 0.608206 0.375311 0.161258
Si Si5 0.254846 0.263766 0.333863
Si Si6 0.140774 0.869987 0.339579
Si Si7 0.020480 0.520454 0.160767
Si Si8 0.468967 0.222977 0.085683
O O1 0.500000 0.500000 0.500000
O O2 0.653105 0.493667 0.605569
O O3 0.445532 0.532701 0.637389
O O4 0.514403 0.373351 0.599721
O O5 0.279001 0.507675 0.250000
O O6 0.283311 0.365164 0.170079
O O7 0.140004 0.486538 0.134633
O O8 0.010014 0.284181 0.750000
O O9 0.133018 0.251382 0.867593
O O10 0.919434 0.218219 0.869878
O O11 0.995294 0.381866 0.872054
O O12 0.607517 0.370859 0.250000
O O13 0.733811 0.371529 0.129735
O O14 0.540394 0.292025 0.132470
O O15 0.263598 0.222803 0.250000
O O16 0.342146 0.218210 0.388291
O O17 0.139371 0.870907 0.250000
O O18 0.074577 0.955283 0.370474
O O19 0.014143 0.521152 0.250000
O O20 0.475044 0.250000 0.000000
#
# Coordination Sequence:
#
# PCOD8231932 Si02
#       8
#     8   8   8   8   8   8   8   8
#     4  12  25  43  63  86 121 168 205 249 313 369
#     4  10  19  35  60  88 119 154 201 255 296 352
#     4   9  17  30  51  83 118 153 191 239 301 355
#     4  11  24  41  63  95 127 158 206 258 301 364
#     4  10  19  35  60  88 119 153 200 255 297 351
#     4   9  18  33  53  83 124 156 187 245 307 352
#     4   9  17  30  51  83 118 153 193 241 300 355
#     4  12  25  43  63  86 121 169 207 250 312 368
#
# _framework density 19.515000000000001
#
# number of rings (size 3 to 8) (size 9 to 14) (size 15 to 20)
#    0.000    1.750    3.750    0.750    3.500    2.000 
#    0.000    0.000    0.000    3.000    0.000    0.000 
#    0.000    0.000    0.000    0.000    0.000    0.000 
#
# Total GULP energy -793577.006557 kJ/mol
# GULP energy per Si atom -12399.640727 kJ/mol
# Density = 1.947058 g / cm^3
# Si number density = 19.515000 Si / 1000 Ang^3
#
#
#
# Elastic Constant Matrix: (Units=GPa)
#
#
# Indices 1 2 3 4 5 6 
#
# 1 131.5952 31.4479 30.9342 0.0000 0.0000 0.0000
# 2 31.4479 107.8343 17.6668 0.0000 0.0000 0.0000
# 3 30.9342 17.6668 53.5106 0.0000 0.0000 0.0000
# 4 0.0000 0.0000 0.0000 18.7605 0.0000 0.0000
# 5 0.0000 0.0000 0.0000 0.0000 -96.2591 0.0000
# 6 0.0000 0.0000 0.0000 0.0000 0.0000 35.5384
#
#
#
# Elastic Compliance Matrix: (Units=1/GPa)
#
#
# Indices 1 2 3 4 5 6 
#
# 1 0.009150 -0.001905 -0.004661 0.000000 0.000000 0.000000
# 2 -0.001905 0.010200 -0.002267 0.000000 0.000000 0.000000
# 3 -0.004661 -0.002267 0.022130 0.000000 0.000000 0.000000
# 4 0.000000 0.000000 0.000000 0.053303 0.000000 0.000000
# 5 0.000000 0.000000 0.000000 0.000000 -0.010389 0.000000
# 6 0.000000 0.000000 0.000000 0.000000 0.000000 0.028139
#
#
# Mechanical properties :
#
#
# Convention : Reuss Voigt Hill
#
# Bulk Modulus (GPa) = 41.98725 50.33753 46.16239
# Shear Modulus (GPa) = 36.19601 5.80070 20.99836
#
# Velocity S-wave (km/s) = 4.31139 1.72594 3.28382
# Velocity P-wave (km/s) = 6.80780 5.46096 6.17123
#
# Compressibility (1/GPa) = 0.02381676
#
# Stress axis : x y z
#
# Youngs Moduli (GPa) = 109.29167 98.03611 45.18662
#
# Poissons Ratio (x) = 0.18674 0.21060
# Poissons Ratio (y) = 0.20818 0.10242
# Poissons Ratio (z) = 0.50936 0.22220
#
# Static dielectric constant tensor:
#      x y z
#    x 3.869150 0.000000 0.000000 
#    y 0.000000 3.705590 0.000000 
#    z 0.000000 0.000000 2.404730 
# 
# 
# High freq. dielectric constant tensor:
#      x y z
#    x 1.776600 0.000000 0.000000 
#    y 0.000000 1.769980 0.000000 
#    z 0.000000 0.000000 1.714330 
# 
# From -- ./inp_files/22052.got.cif
#   From: 2010.03.12/outbox.cif.g09.slc.cpg/sg57_12_cif.got.tgz:22052.got - 2010.04.16 15:48:40.
