data_PCOD8231070
_publ_section_title
;
Structure prediction by ZEFSAII (Michael W. Deem and Ramdas Pophale) SiO2 
 PCOD8231070
Probable space group: P B C M
;
_chemical_formula_sum "Si O2"
_cell_formula_units_Z 64
_cell_length_a 14.919687
_cell_length_b 29.662490
_cell_length_c 8.893368
_cell_angle_alpha 90.000000
_cell_angle_beta 90.000000
_cell_angle_gamma 90.000000
_cell_volume 3935.805066
_symmetry_space_group_name_H-M "P B C M"
_symmetry_group_IT_number 57
_symmetry_cell_setting 'orthorhombic'
loop_
_space_group_symop_operation_xyz
x,y,z
-x,-y,1/2+z
x,1/2-y,-z
-x,1/2+y,1/2-z
-x,-y,-z
x,y,1/2-z
-x,1/2+y,z
x,1/2-y,1/2+z
loop_
_atom_site_type_symbol
_atom_site_label
_atom_site_fract_x
_atom_site_fract_y
_atom_site_fract_z
Si Si1 0.782732 0.883124 0.077787
Si Si2 0.486402 0.295731 0.924793
Si Si3 0.534579 0.392450 0.573007
Si Si4 0.131362 0.531419 0.923254
Si Si5 0.315223 0.960962 0.926920
Si Si6 0.061436 0.054424 0.919761
Si Si7 0.361468 0.445979 0.929294
Si Si8 0.722504 0.704541 0.425180
O O1 0.750747 0.879103 0.250000
O O2 0.886366 0.898471 0.066715
O O3 0.723306 0.919949 0.993866
O O4 0.778438 0.835524 0.997152
O O5 0.504838 0.289868 0.750000
O O6 0.534419 0.340928 0.990318
O O7 0.381885 0.302510 0.960617
O O8 0.523969 0.250000 0.000000
O O9 0.520761 0.388865 0.750000
O O10 0.627264 0.416694 0.530099
O O11 0.451425 0.421742 0.510030
O O12 0.161171 0.532568 0.750000
O O13 0.043950 0.562545 0.955231
O O14 0.213876 0.549009 0.022456
O O15 0.105558 0.480466 0.965021
O O16 0.318168 0.970806 0.750000
O O17 0.359302 0.003100 0.011520
O O18 0.070869 0.034723 0.750000
O O19 0.356345 0.446266 0.750000
O O20 0.758377 0.750000 0.500000
O O21 0.742216 0.706237 0.250000
#
# Coordination Sequence:
#
# PCOD8231070 Si02
#       8
#     8   8   8   8   8   8   8   8
#     4  11  20  31  49  73  99 128 163 199 243 295
#     4   9  17  32  49  68  92 122 157 197 239 283
#     4   9  19  34  49  66  96 132 164 198 243 288
#     4  10  19  32  49  69  94 125 160 202 243 283
#     4  11  21  33  48  68  96 132 167 205 244 286
#     4   9  19  33  49  69  95 125 159 199 243 288
#     4  11  20  33  48  67  96 133 169 203 237 282
#     4  10  19  32  50  71  99 129 162 199 240 289
#
# _framework density 16.260967999999998
#
# number of rings (size 3 to 8) (size 9 to 14) (size 15 to 20)
#    0.000    2.000    2.500    2.250    0.000    1.500 
#    0.000    3.125    0.000    0.000    0.000    0.875 
#    0.000    4.000    0.000    0.000    0.000    0.000 
#
# Total GULP energy -793528.483408 kJ/mol
# GULP energy per Si atom -12398.882553 kJ/mol
# Density = 1.622396 g / cm^3
# Si number density = 16.260968 Si / 1000 Ang^3
#
#
#
# Elastic Constant Matrix: (Units=GPa)
#
#
# Indices 1 2 3 4 5 6 
#
# 1 90.4898 55.8623 28.4891 0.0000 0.0000 0.0000
# 2 55.8623 131.4276 44.0811 0.0000 0.0000 0.0000
# 3 28.4891 44.0811 64.1786 0.0000 0.0000 0.0000
# 4 0.0000 0.0000 0.0000 25.7530 0.0000 0.0000
# 5 0.0000 0.0000 0.0000 0.0000 19.5259 0.0000
# 6 0.0000 0.0000 0.0000 0.0000 0.0000 21.7449
#
#
#
# Elastic Compliance Matrix: (Units=1/GPa)
#
#
# Indices 1 2 3 4 5 6 
#
# 1 0.015427 -0.005536 -0.003046 0.000000 0.000000 0.000000
# 2 -0.005536 0.011873 -0.005697 0.000000 0.000000 0.000000
# 3 -0.003046 -0.005697 0.020847 0.000000 0.000000 0.000000
# 4 0.000000 0.000000 0.000000 0.038830 0.000000 0.000000
# 5 0.000000 0.000000 0.000000 0.000000 0.051214 0.000000
# 6 0.000000 0.000000 0.000000 0.000000 0.000000 0.045988
#
#
# Mechanical properties :
#
#
# Convention : Reuss Voigt Hill
#
# Bulk Modulus (GPa) = 51.05009 60.32899 55.68954
# Shear Modulus (GPa) = 22.80328 23.91566 23.35947
#
# Velocity S-wave (km/s) = 3.74884 3.83918 3.79428
# Velocity P-wave (km/s) = 7.08525 7.53880 7.31554
#
# Compressibility (1/GPa) = 0.01958860
#
# Stress axis : x y z
#
# Youngs Moduli (GPa) = 64.82033 84.22816 47.96864
#
# Poissons Ratio (x) = 0.46625 0.14612
# Poissons Ratio (y) = 0.35882 0.27330
# Poissons Ratio (z) = 0.19745 0.47988
#
# Static dielectric constant tensor:
#      x y z
#    x 3.081860 0.000000 0.000000 
#    y 0.000000 3.100560 0.000000 
#    z 0.000000 0.000000 3.125080 
# 
# 
# High freq. dielectric constant tensor:
#      x y z
#    x 1.607150 0.000000 0.000000 
#    y 0.000000 1.612230 0.000000 
#    z 0.000000 0.000000 1.630370 
# 
# From -- ./inp_files/6018.got.cif
#   From: 2010.03.12/outbox.cif.g09.slc.cpg/sg57_4_cif.got.tgz:6018.got - 2010.04.16 15:48:40.
