data_PCOD8231149
_publ_section_title
;
Structure prediction by ZEFSAII (Michael W. Deem and Ramdas Pophale) SiO2 
 PCOD8231149
Probable space group: P B C M
;
_chemical_formula_sum "Si O2"
_cell_formula_units_Z 48
_cell_length_a 10.188624
_cell_length_b 29.845278
_cell_length_c 9.361783
_cell_angle_alpha 90.000000
_cell_angle_beta 90.000000
_cell_angle_gamma 90.000000
_cell_volume 2846.752654
_symmetry_space_group_name_H-M "P B C M"
_symmetry_group_IT_number 57
_symmetry_cell_setting 'orthorhombic'
loop_
_space_group_symop_operation_xyz
x,y,z
-x,-y,1/2+z
x,1/2-y,-z
-x,1/2+y,1/2-z
-x,-y,-z
x,y,1/2-z
-x,1/2+y,z
x,1/2-y,1/2+z
loop_
_atom_site_type_symbol
_atom_site_label
_atom_site_fract_x
_atom_site_fract_y
_atom_site_fract_z
Si Si1 0.214958 0.608821 0.080013
Si Si2 0.474498 0.290220 0.591660
Si Si3 0.885423 0.025886 0.579500
Si Si4 0.490381 0.113916 0.417012
Si Si5 0.616694 0.521912 0.415149
Si Si6 0.786902 0.290535 0.907336
O O1 0.198016 0.600076 0.250000
O O2 0.364797 0.600262 0.027199
O O3 0.173005 0.659685 0.038549
O O4 0.124158 0.575393 0.988468
O O5 0.412525 0.250000 0.500000
O O6 0.414794 0.285524 0.750000
O O7 0.438876 0.338578 0.519586
O O8 0.630812 0.286878 0.596081
O O9 0.909295 0.028663 0.750000
O O10 0.755376 0.998024 0.540126
O O11 0.000000 0.000000 0.500000
O O12 0.509134 0.123413 0.250000
O O13 0.385049 0.075175 0.450268
O O14 0.500000 0.500000 0.500000
O O15 0.586619 0.513462 0.250000
O O16 0.845066 0.283704 0.750000
O O17 0.847806 0.250000 0.000000
#
# Coordination Sequence:
#
# PCOD8231149 Si02
#       6
#     8   8   8   8   8   8
#     4   9  16  29  48  67  93 128 159 193 242 289
#     4   8  13  22  36  57  87 121 149 177 222 275
#     4  11  23  35  49  71  97 129 167 204 247 295
#     4   8  14  26  45  66  91 122 152 188 236 283
#     4  10  19  32  51  73  94 122 161 199 238 287
#     4   8  14  23  38  62  90 122 154 185 230 283
#
# _framework density 16.861317
#
# number of rings (size 3 to 8) (size 9 to 14) (size 15 to 20)
#    0.000    3.000    1.667    2.500    0.000    1.333 
#    0.000    3.333    0.000    0.000    0.000    1.167 
#    0.000    2.667    0.000    0.000    0.000    0.000 
#
# Total GULP energy -594755.401989 kJ/mol
# GULP energy per Si atom -12390.737541 kJ/mol
# Density = 1.682294 g / cm^3
# Si number density = 16.861317 Si / 1000 Ang^3
#
#
#
# Elastic Constant Matrix: (Units=GPa)
#
#
# Indices 1 2 3 4 5 6 
#
# 1 55.3346 47.4606 34.8180 0.0000 0.0000 0.0000
# 2 47.4606 160.6885 63.9599 0.0000 0.0000 0.0000
# 3 34.8180 63.9599 69.9127 0.0000 0.0000 0.0000
# 4 0.0000 0.0000 0.0000 31.6852 0.0000 0.0000
# 5 0.0000 0.0000 0.0000 0.0000 15.2061 0.0000
# 6 0.0000 0.0000 0.0000 0.0000 0.0000 16.4569
#
#
#
# Elastic Compliance Matrix: (Units=1/GPa)
#
#
# Indices 1 2 3 4 5 6 
#
# 1 0.028082 -0.004289 -0.010061 0.000000 0.000000 0.000000
# 2 -0.004289 0.010442 -0.007417 0.000000 0.000000 0.000000
# 3 -0.010061 -0.007417 0.026100 0.000000 0.000000 0.000000
# 4 0.000000 0.000000 0.000000 0.031560 0.000000 0.000000
# 5 0.000000 0.000000 0.000000 0.000000 0.065763 0.000000
# 6 0.000000 0.000000 0.000000 0.000000 0.000000 0.060765
#
#
# Mechanical properties :
#
#
# Convention : Reuss Voigt Hill
#
# Bulk Modulus (GPa) = 47.41885 64.26809 55.84347
# Shear Modulus (GPa) = 18.29650 21.98280 20.13965
#
# Velocity S-wave (km/s) = 3.29768 3.61465 3.45980
# Velocity P-wave (km/s) = 6.53326 7.45784 7.01081
#
# Compressibility (1/GPa) = 0.02108866
#
# Stress axis : x y z
#
# Youngs Moduli (GPa) = 35.61055 95.76354 38.31479
#
# Poissons Ratio (x) = 0.41078 0.38548
# Poissons Ratio (y) = 0.15275 0.28418
# Poissons Ratio (z) = 0.35828 0.71028
#
# Static dielectric constant tensor:
#      x y z
#    x 2.712400 0.000000 0.000000 
#    y 0.000000 3.956700 0.000000 
#    z 0.000000 0.000000 3.160930 
# 
# 
# High freq. dielectric constant tensor:
#      x y z
#    x 1.585870 0.000000 0.000000 
#    y 0.000000 1.674100 0.000000 
#    z 0.000000 0.000000 1.634790 
# 
# From -- ./inp_files/3514.got.cif
#   From: 2010.03.12/outbox.cif.g09.slc.cpg/sg57_2_cif.got.tgz:3514.got - 2010.04.16 15:48:40.
