data_PCOD8231233
_publ_section_title
;
Structure prediction by ZEFSAII (Michael W. Deem and Ramdas Pophale) SiO2 
 PCOD8231233
Probable space group: P B C M
;
_chemical_formula_sum "Si O2"
_cell_formula_units_Z 64
_cell_length_a 20.631141
_cell_length_b 19.306963
_cell_length_c 8.961070
_cell_angle_alpha 90.000000
_cell_angle_beta 90.000000
_cell_angle_gamma 90.000000
_cell_volume 3569.415304
_symmetry_space_group_name_H-M "P B C M"
_symmetry_group_IT_number 57
_symmetry_cell_setting 'orthorhombic'
loop_
_space_group_symop_operation_xyz
x,y,z
-x,-y,1/2+z
x,1/2-y,-z
-x,1/2+y,1/2-z
-x,-y,-z
x,y,1/2-z
-x,1/2+y,z
x,1/2-y,1/2+z
loop_
_atom_site_type_symbol
_atom_site_label
_atom_site_fract_x
_atom_site_fract_y
_atom_site_fract_z
Si Si1 0.138895 0.820332 0.576311
Si Si2 0.508076 0.181505 0.423324
Si Si3 0.815116 0.466171 0.926801
Si Si4 0.559063 0.037480 0.075394
Si Si5 0.640162 0.821692 0.927118
Si Si6 0.943637 0.955721 0.072266
Si Si7 0.987906 0.679033 0.425339
Si Si8 0.686390 0.541834 0.572472
O O1 0.164017 0.750000 0.500000
O O2 0.150984 0.810230 0.750000
O O3 0.178074 0.887025 0.513132
O O4 0.063517 0.834350 0.542320
O O5 0.535946 0.250000 0.500000
O O6 0.508233 0.196589 0.250000
O O7 0.555481 0.118591 0.467477
O O8 0.434498 0.164973 0.474898
O O9 0.813814 0.462328 0.750000
O O10 0.875699 0.511812 0.979309
O O11 0.749958 0.502042 0.986880
O O12 0.550249 0.027263 0.250000
O O13 0.626527 0.005843 0.019906
O O14 0.500000 0.000000 0.000000
O O15 0.649311 0.818353 0.750000
O O16 0.664665 0.750000 0.000000
O O17 0.683057 0.883724 0.993727
O O18 0.951805 0.955275 0.250000
O O19 0.945523 0.878928 0.006533
O O20 0.000000 0.000000 0.000000
O O21 0.965080 0.750000 0.500000
O O22 0.973000 0.679813 0.250000
O O23 0.687521 0.552660 0.750000
#
# Coordination Sequence:
#
# PCOD8231233 Si02
#       8
#     8   8   8   8   8   8   8   8
#     4   9  17  32  52  75 104 137 172 214 259 309
#     4   9  18  31  48  74 105 135 168 212 260 306
#     4   9  19  36  54  76 108 143 177 217 264 316
#     4  10  19  32  52  78 104 133 172 215 260 310
#     4  10  19  33  53  77 107 136 173 219 264 314
#     4  11  20  34  55  79 107 139 177 222 269 317
#     4  10  19  33  53  81 110 139 177 221 272 320
#     4  10  20  35  56  78 104 142 181 214 262 317
#
# _framework density 17.930108000000001
#
# number of rings (size 3 to 8) (size 9 to 14) (size 15 to 20)
#    0.000    2.250    2.500    1.125    0.000    1.500 
#    0.000    3.125    0.000    0.000    0.000    0.000 
#    0.000    0.000    0.000    0.000    0.000    0.000 
#
# Total GULP energy -793594.504177 kJ/mol
# GULP energy per Si atom -12399.914128 kJ/mol
# Density = 1.788930 g / cm^3
# Si number density = 17.930108 Si / 1000 Ang^3
#
#
#
# Elastic Constant Matrix: (Units=GPa)
#
#
# Indices 1 2 3 4 5 6 
#
# 1 111.4313 81.4793 34.8936 0.0000 0.0000 0.0000
# 2 81.4793 187.9520 53.4189 0.0000 0.0000 0.0000
# 3 34.8936 53.4189 51.7625 0.0000 0.0000 0.0000
# 4 0.0000 0.0000 0.0000 36.2913 0.0000 0.0000
# 5 0.0000 0.0000 0.0000 0.0000 16.6717 0.0000
# 6 0.0000 0.0000 0.0000 0.0000 0.0000 29.0716
#
#
#
# Elastic Compliance Matrix: (Units=1/GPa)
#
#
# Indices 1 2 3 4 5 6 
#
# 1 0.013823 -0.004732 -0.004435 0.000000 0.000000 0.000000
# 2 -0.004732 0.009149 -0.006252 0.000000 0.000000 0.000000
# 3 -0.004435 -0.006252 0.028760 0.000000 0.000000 0.000000
# 4 0.000000 0.000000 0.000000 0.027555 0.000000 0.000000
# 5 0.000000 0.000000 0.000000 0.000000 0.059982 0.000000
# 6 0.000000 0.000000 0.000000 0.000000 0.000000 0.034398
#
#
# Mechanical properties :
#
#
# Convention : Reuss Voigt Hill
#
# Bulk Modulus (GPa) = 47.85810 76.74771 62.30291
# Shear Modulus (GPa) = 23.64426 28.49718 26.07072
#
# Velocity S-wave (km/s) = 3.63532 3.99099 3.81730
# Velocity P-wave (km/s) = 6.66109 8.00837 7.36560
#
# Compressibility (1/GPa) = 0.02089510
#
# Stress axis : x y z
#
# Youngs Moduli (GPa) = 72.34394 109.30591 34.77038
#
# Poissons Ratio (x) = 0.51723 0.15420
# Poissons Ratio (y) = 0.34233 0.21737
# Poissons Ratio (z) = 0.32083 0.68333
#
# Static dielectric constant tensor:
#      x y z
#    x 3.285960 0.000000 0.000000 
#    y 0.000000 3.945500 0.000000 
#    z 0.000000 0.000000 3.206280 
# 
# 
# High freq. dielectric constant tensor:
#      x y z
#    x 1.665100 0.000000 0.000000 
#    y 0.000000 1.713320 0.000000 
#    z 0.000000 0.000000 1.684070 
# 
# From -- ./inp_files/8621.got.cif
#   From: 2010.03.12/outbox.cif.g09.slc.cpg/sg57_5_cif.got.tgz:8621.got - 2010.04.16 15:48:40.
