data_PCOD8231499
_publ_section_title
;
Structure prediction by ZEFSAII (Michael W. Deem and Ramdas Pophale) SiO2 
 PCOD8231499
Probable space group: P B C M
;
_chemical_formula_sum "Si O2"
_cell_formula_units_Z 56
_cell_length_a 20.958185
_cell_length_b 15.448173
_cell_length_c 8.988965
_cell_angle_alpha 90.000000
_cell_angle_beta 90.000000
_cell_angle_gamma 90.000000
_cell_volume 2910.318255
_symmetry_space_group_name_H-M "P B C M"
_symmetry_group_IT_number 57
_symmetry_cell_setting 'orthorhombic'
loop_
_space_group_symop_operation_xyz
x,y,z
-x,-y,1/2+z
x,1/2-y,-z
-x,1/2+y,1/2-z
-x,-y,-z
x,y,1/2-z
-x,1/2+y,z
x,1/2-y,1/2+z
loop_
_atom_site_type_symbol
_atom_site_label
_atom_site_fract_x
_atom_site_fract_y
_atom_site_fract_z
Si Si1 0.904901 0.836373 0.075534
Si Si2 0.380673 0.664708 0.074458
Si Si3 0.285705 0.509533 0.423774
Si Si4 0.497066 0.406662 0.426737
Si Si5 0.641348 0.661116 0.924288
Si Si6 0.154871 0.503969 0.924693
Si Si7 0.028924 0.580207 0.920133
O O1 0.889740 0.833992 0.250000
O O2 0.982237 0.839098 0.042921
O O3 0.877943 0.750000 0.000000
O O4 0.867945 0.917073 0.005799
O O5 0.389705 0.677608 0.250000
O O6 0.337652 0.582013 0.038127
O O7 0.349073 0.750000 0.000000
O O8 0.448772 0.653279 0.996290
O O9 0.269663 0.508984 0.250000
O O10 0.312357 0.416609 0.476715
O O11 0.222537 0.533995 0.513595
O O12 0.500000 0.500000 0.500000
O O13 0.505078 0.415981 0.250000
O O14 0.430490 0.362281 0.470008
O O15 0.647233 0.674154 0.750000
O O16 0.663645 0.750000 0.000000
O O17 0.159987 0.485238 0.750000
O O18 0.104743 0.583837 0.958944
O O19 0.021592 0.556845 0.750000
O O20 0.000000 0.500000 0.000000
#
# Coordination Sequence:
#
# PCOD8231499 Si02
#       7
#     8   8   8   8   8   8   8
#     4  10  19  33  54  81 112 145 179 223 277 329
#     4  11  23  41  62  86 115 150 194 245 296 351
#     4  10  22  41  58  78 116 157 194 238 288 343
#     4  11  21  37  61  88 117 150 188 239 297 351
#     4  10  22  39  57  82 114 149 188 233 286 343
#     4  10  20  35  56  81 108 143 187 229 275 333
#     4   8  16  31  51  75 103 133 170 216 262 315
#
# _framework density 19.241882
#
# number of rings (size 3 to 8) (size 9 to 14) (size 15 to 20)
#    0.000    2.000    1.429    2.143    0.000    5.714 
#    0.000    2.143    0.000    3.429    0.000    0.000 
#    0.000    0.000    0.000    0.000    0.000    0.000 
#
# Total GULP energy -694061.098502 kJ/mol
# GULP energy per Si atom -12393.948188 kJ/mol
# Density = 1.919809 g / cm^3
# Si number density = 19.241882 Si / 1000 Ang^3
#
#
#
# Elastic Constant Matrix: (Units=GPa)
#
#
# Indices 1 2 3 4 5 6 
#
# 1 87.5823 4.7957 31.3628 0.0000 0.0000 0.0000
# 2 4.7957 73.6449 23.3307 0.0000 0.0000 0.0000
# 3 31.3628 23.3307 67.1135 0.0000 0.0000 0.0000
# 4 0.0000 0.0000 0.0000 32.0305 0.0000 0.0000
# 5 0.0000 0.0000 0.0000 0.0000 32.8716 0.0000
# 6 0.0000 0.0000 0.0000 0.0000 0.0000 16.6026
#
#
#
# Elastic Compliance Matrix: (Units=1/GPa)
#
#
# Indices 1 2 3 4 5 6 
#
# 1 0.013820 0.001288 -0.006906 0.000000 0.000000 0.000000
# 2 0.001288 0.015379 -0.005948 0.000000 0.000000 0.000000
# 3 -0.006906 -0.005948 0.020195 0.000000 0.000000 0.000000
# 4 0.000000 0.000000 0.000000 0.031220 0.000000 0.000000
# 5 0.000000 0.000000 0.000000 0.000000 0.030421 0.000000
# 6 0.000000 0.000000 0.000000 0.000000 0.000000 0.060231
#
#
# Mechanical properties :
#
#
# Convention : Reuss Voigt Hill
#
# Bulk Modulus (GPa) = 38.07776 38.59100 38.33438
# Shear Modulus (GPa) = 24.61184 27.55774 26.08479
#
# Velocity S-wave (km/s) = 3.58030 3.78851 3.68588
# Velocity P-wave (km/s) = 6.07646 6.26390 6.17089
#
# Compressibility (1/GPa) = 0.02626205
#
# Stress axis : x y z
#
# Youngs Moduli (GPa) = 72.35705 65.02308 49.51687
#
# Poissons Ratio (x) = -0.08374 0.34197
# Poissons Ratio (y) = -0.09319 0.29453
# Poissons Ratio (z) = 0.49970 0.38676
#
# Static dielectric constant tensor:
#      x y z
#    x 4.096410 0.000000 0.000000 
#    y 0.000000 3.542160 0.000000 
#    z 0.000000 0.000000 3.510450 
# 
# 
# High freq. dielectric constant tensor:
#      x y z
#    x 1.750540 0.000000 0.000000 
#    y 0.000000 1.738920 0.000000 
#    z 0.000000 0.000000 1.755810 
# 
# From -- ./inp_files/8155.got.cif
#   From: 2010.03.12/outbox.cif.g09.slc.cpg/sg57_5_cif.got.tgz:8155.got - 2010.04.16 15:48:40.
