data_PCOD8231670
_publ_section_title
;
Structure prediction by ZEFSAII (Michael W. Deem and Ramdas Pophale) SiO2 
 PCOD8231670
Probable space group: P B C M
;
_chemical_formula_sum "Si O2"
_cell_formula_units_Z 56
_cell_length_a 16.387472
_cell_length_b 21.197903
_cell_length_c 9.042599
_cell_angle_alpha 90.000000
_cell_angle_beta 90.000000
_cell_angle_gamma 90.000000
_cell_volume 3141.218419
_symmetry_space_group_name_H-M "P B C M"
_symmetry_group_IT_number 57
_symmetry_cell_setting 'orthorhombic'
loop_
_space_group_symop_operation_xyz
x,y,z
-x,-y,1/2+z
x,1/2-y,-z
-x,1/2+y,1/2-z
-x,-y,-z
x,y,1/2-z
-x,1/2+y,z
x,1/2-y,1/2+z
loop_
_atom_site_type_symbol
_atom_site_label
_atom_site_fract_x
_atom_site_fract_y
_atom_site_fract_z
Si Si1 0.194362 0.627656 0.418085
Si Si2 0.950697 0.185600 0.924765
Si Si3 0.379527 0.030446 0.421991
Si Si4 0.634046 0.313748 0.919950
Si Si5 0.521569 0.094920 0.922205
Si Si6 0.960230 0.940434 0.078909
Si Si7 0.213326 0.485616 0.080233
O O1 0.166542 0.641605 0.250000
O O2 0.142312 0.672130 0.526078
O O3 0.289884 0.639774 0.438741
O O4 0.180305 0.555012 0.461387
O O5 0.954393 0.194554 0.750000
O O6 0.005514 0.126494 0.980111
O O7 0.982812 0.250000 0.000000
O O8 0.383896 0.047218 0.250000
O O9 0.432789 0.080965 0.511375
O O10 0.286687 0.035425 0.475288
O O11 0.415289 0.961411 0.454573
O O12 0.612915 0.300742 0.750000
O O13 0.658543 0.250000 0.000000
O O14 0.555076 0.343239 0.997546
O O15 0.511923 0.108657 0.750000
O O16 0.982340 0.948246 0.250000
O O17 0.862557 0.938716 0.054125
O O18 0.000000 0.000000 0.000000
O O19 0.243994 0.484822 0.250000
#
# Coordination Sequence:
#
# PCOD8231670 Si02
#       7
#     8   8   8   8   8   8   8
#     4  10  20  34  54  79 110 147 181 221 272 327
#     4  11  23  37  55  79 109 147 188 229 274 331
#     4  10  20  33  53  80 107 136 174 219 265 317
#     4  11  22  35  51  75 108 145 182 217 262 319
#     4  10  20  34  53  76 105 140 176 216 263 313
#     4  10  21  36  56  81 109 143 184 229 279 332
#     4  10  19  34  55  80 111 142 176 224 279 327
#
# _framework density 17.827479
#
# number of rings (size 3 to 8) (size 9 to 14) (size 15 to 20)
#    0.000    1.714    2.857    2.143    0.000    5.143 
#    0.000    0.000    0.000    0.857    0.000    4.000 
#    0.000    0.000    0.000    0.000    0.000    0.000 
#
# Total GULP energy -694602.297456 kJ/mol
# GULP energy per Si atom -12403.612455 kJ/mol
# Density = 1.778690 g / cm^3
# Si number density = 17.827479 Si / 1000 Ang^3
#
#
#
# Elastic Constant Matrix: (Units=GPa)
#
#
# Indices 1 2 3 4 5 6 
#
# 1 83.5251 40.5967 43.8606 0.0000 0.0000 0.0000
# 2 40.5967 93.4666 45.9671 0.0000 0.0000 0.0000
# 3 43.8606 45.9671 91.7211 0.0000 0.0000 0.0000
# 4 0.0000 0.0000 0.0000 29.8833 0.0000 0.0000
# 5 0.0000 0.0000 0.0000 0.0000 30.1238 0.0000
# 6 0.0000 0.0000 0.0000 0.0000 0.0000 25.3257
#
#
#
# Elastic Compliance Matrix: (Units=1/GPa)
#
#
# Indices 1 2 3 4 5 6 
#
# 1 0.017352 -0.004586 -0.005999 0.000000 0.000000 0.000000
# 2 -0.004586 0.015411 -0.005530 0.000000 0.000000 0.000000
# 3 -0.005999 -0.005530 0.016543 0.000000 0.000000 0.000000
# 4 0.000000 0.000000 0.000000 0.033464 0.000000 0.000000
# 5 0.000000 0.000000 0.000000 0.000000 0.033196 0.000000
# 6 0.000000 0.000000 0.000000 0.000000 0.000000 0.039486
#
#
# Mechanical properties :
#
#
# Convention : Reuss Voigt Hill
#
# Bulk Modulus (GPa) = 58.56722 58.84016 58.70369
# Shear Modulus (GPa) = 25.85672 26.28579 26.07125
#
# Velocity S-wave (km/s) = 3.81252 3.84403 3.82831
# Velocity P-wave (km/s) = 7.23215 7.26492 7.24855
#
# Compressibility (1/GPa) = 0.01707440
#
# Stress axis : x y z
#
# Youngs Moduli (GPa) = 57.63087 64.88958 60.44910
#
# Poissons Ratio (x) = 0.29760 0.36264
# Poissons Ratio (y) = 0.26431 0.33429
# Poissons Ratio (z) = 0.34573 0.35885
#
# Static dielectric constant tensor:
#      x y z
#    x 3.222180 0.000000 0.000000 
#    y 0.000000 3.245370 0.000000 
#    z 0.000000 0.000000 3.327150 
# 
# 
# High freq. dielectric constant tensor:
#      x y z
#    x 1.682410 0.000000 0.000000 
#    y 0.000000 1.672830 0.000000 
#    z 0.000000 0.000000 1.698210 
# 
# From -- ./inp_files/5184.got.cif
#   From: 2010.03.12/outbox.cif.g09.slc.cpg/sg57_3_cif.got.tgz:5184.got - 2010.04.16 15:48:40.
