data_PCOD8231095
_publ_section_title
;
Structure prediction by ZEFSAII (Michael W. Deem and Ramdas Pophale) SiO2 
 PCOD8231095
Probable space group: P B C M
;
_chemical_formula_sum "Si O2"
_cell_formula_units_Z 64
_cell_length_a 19.673718
_cell_length_b 20.849648
_cell_length_c 8.850651
_cell_angle_alpha 90.000000
_cell_angle_beta 90.000000
_cell_angle_gamma 90.000000
_cell_volume 3630.449376
_symmetry_space_group_name_H-M "P B C M"
_symmetry_group_IT_number 57
_symmetry_cell_setting 'orthorhombic'
loop_
_space_group_symop_operation_xyz
x,y,z
-x,-y,1/2+z
x,1/2-y,-z
-x,1/2+y,1/2-z
-x,-y,-z
x,y,1/2-z
-x,1/2+y,z
x,1/2-y,1/2+z
loop_
_atom_site_type_symbol
_atom_site_label
_atom_site_fract_x
_atom_site_fract_y
_atom_site_fract_z
Si Si1 0.176006 0.986075 0.927480
Si Si2 0.822890 0.868503 0.428962
Si Si3 0.534785 0.060663 0.074027
Si Si4 0.045785 0.184708 0.429229
Si Si5 0.541344 0.684245 0.426000
Si Si6 0.963914 0.439056 0.929292
Si Si7 0.324127 0.991849 0.573883
Si Si8 0.316281 0.373789 0.573744
O O1 0.170304 0.989072 0.750000
O O2 0.115077 0.940415 0.986293
O O3 0.251154 0.960857 0.975195
O O4 0.165933 0.058671 0.986976
O O5 0.830035 0.860599 0.250000
O O6 0.877945 0.824356 0.510594
O O7 0.747790 0.846590 0.480443
O O8 0.517653 0.056811 0.250000
O O9 0.504349 0.126314 0.005832
O O10 0.616048 0.059119 0.043350
O O11 0.500000 0.000000 0.000000
O O12 0.015843 0.250000 0.500000
O O13 0.046315 0.189936 0.250000
O O14 0.997975 0.126574 0.486754
O O15 0.516916 0.750000 0.500000
O O16 0.527330 0.689857 0.250000
O O17 0.620532 0.672464 0.461217
O O18 0.970051 0.444443 0.750000
O O19 0.000000 0.500000 0.000000
O O20 0.321310 0.012226 0.750000
O O21 0.338119 0.055262 0.477595
O O22 0.298086 0.375319 0.750000
#
# Coordination Sequence:
#
# PCOD8231095 Si02
#       8
#     8   8   8   8   8   8   8   8
#     4   8  15  29  50  77 103 128 161 206 255 305
#     4  10  19  33  53  75 104 139 174 212 256 309
#     4  10  19  33  53  78 103 132 172 216 262 311
#     4  11  23  36  52  75 104 141 178 215 262 312
#     4  10  22  36  50  72 103 139 175 214 258 305
#     4  10  19  33  54  78 103 132 171 214 261 308
#     4   9  17  30  52  78 103 132 168 208 261 315
#     4  10  19  32  49  73 107 138 172 214 253 304
#
# _framework density 17.628672000000002
#
# number of rings (size 3 to 8) (size 9 to 14) (size 15 to 20)
#    0.000    2.250    2.500    1.875    0.000    2.500 
#    0.000    1.250    0.000    0.750    0.000    0.000 
#    0.000    0.000    0.000    0.000    0.000    0.000 
#
# Total GULP energy -793389.786078 kJ/mol
# GULP energy per Si atom -12396.715407 kJ/mol
# Density = 1.758855 g / cm^3
# Si number density = 17.628672 Si / 1000 Ang^3
#
#
#
# Elastic Constant Matrix: (Units=GPa)
#
#
# Indices 1 2 3 4 5 6 
#
# 1 114.5390 68.9951 28.5996 0.0000 0.0000 0.0000
# 2 68.9951 124.8811 32.0715 0.0000 0.0000 0.0000
# 3 28.5996 32.0715 42.3803 0.0000 0.0000 0.0000
# 4 0.0000 0.0000 0.0000 24.5131 0.0000 0.0000
# 5 0.0000 0.0000 0.0000 0.0000 19.7669 0.0000
# 6 0.0000 0.0000 0.0000 0.0000 0.0000 25.0273
#
#
#
# Elastic Compliance Matrix: (Units=1/GPa)
#
#
# Indices 1 2 3 4 5 6 
#
# 1 0.013707 -0.006451 -0.004368 0.000000 0.000000 0.000000
# 2 -0.006451 0.012976 -0.005466 0.000000 0.000000 0.000000
# 3 -0.004368 -0.005466 0.030680 0.000000 0.000000 0.000000
# 4 0.000000 0.000000 0.000000 0.040795 0.000000 0.000000
# 5 0.000000 0.000000 0.000000 0.000000 0.050590 0.000000
# 6 0.000000 0.000000 0.000000 0.000000 0.000000 0.039956
#
#
# Mechanical properties :
#
#
# Convention : Reuss Voigt Hill
#
# Bulk Modulus (GPa) = 40.33491 60.12588 50.23039
# Shear Modulus (GPa) = 21.78285 24.00373 22.89329
#
# Velocity S-wave (km/s) = 3.51899 3.69403 3.60757
# Velocity P-wave (km/s) = 6.28021 7.23708 6.77556
#
# Compressibility (1/GPa) = 0.02479242
#
# Stress axis : x y z
#
# Youngs Moduli (GPa) = 72.95290 77.06759 32.59462
#
# Poissons Ratio (x) = 0.49719 0.14238
# Poissons Ratio (y) = 0.47065 0.17815
# Poissons Ratio (z) = 0.31867 0.42123
#
# Static dielectric constant tensor:
#      x y z
#    x 3.833530 0.000000 0.000000 
#    y 0.000000 3.234610 0.000000 
#    z 0.000000 0.000000 3.182690 
# 
# 
# High freq. dielectric constant tensor:
#      x y z
#    x 1.690180 0.000000 0.000000 
#    y 0.000000 1.655100 0.000000 
#    z 0.000000 0.000000 1.672200 
# 
# From -- ./inp_files/8698.got.cif
#   From: 2010.03.12/outbox.cif.g09.slc.cpg/sg57_5_cif.got.tgz:8698.got - 2010.04.16 15:48:40.
