data_PCOD8231426
_publ_section_title
;
Structure prediction by ZEFSAII (Michael W. Deem and Ramdas Pophale) SiO2 
 PCOD8231426
Probable space group: P B C M
;
_chemical_formula_sum "Si O2"
_cell_formula_units_Z 48
_cell_length_a 18.382497
_cell_length_b 15.313371
_cell_length_c 8.433652
_cell_angle_alpha 90.000000
_cell_angle_beta 90.000000
_cell_angle_gamma 90.000000
_cell_volume 2374.056141
_symmetry_space_group_name_H-M "P B C M"
_symmetry_group_IT_number 57
_symmetry_cell_setting 'orthorhombic'
loop_
_space_group_symop_operation_xyz
x,y,z
-x,-y,1/2+z
x,1/2-y,-z
-x,1/2+y,1/2-z
-x,-y,-z
x,y,1/2-z
-x,1/2+y,z
x,1/2-y,1/2+z
loop_
_atom_site_type_symbol
_atom_site_label
_atom_site_fract_x
_atom_site_fract_y
_atom_site_fract_z
Si Si1 0.934799 0.655560 0.063844
Si Si2 0.535348 0.914736 0.934293
Si Si3 0.093118 0.658876 0.935312
Si Si4 0.319792 0.015175 0.435916
Si Si5 0.610162 0.159129 0.063228
Si Si6 0.834323 0.505619 0.932916
O O1 0.920300 0.649602 0.250000
O O2 0.910654 0.750000 0.000000
O O3 0.888584 0.582790 0.975718
O O4 0.019041 0.637398 0.028051
O O5 0.542154 0.927682 0.750000
O O6 0.477683 0.838461 0.976295
O O7 0.619606 0.911971 0.994171
O O8 0.500000 0.000000 0.000000
O O9 0.075838 0.667760 0.750000
O O10 0.126254 0.750000 0.000000
O O11 0.149852 0.581338 0.965414
O O12 0.302648 0.022283 0.250000
O O13 0.348560 0.918041 0.473195
O O14 0.247316 0.036932 0.532122
O O15 0.624020 0.148571 0.250000
O O16 0.642708 0.250000 0.000000
O O17 0.843410 0.481731 0.750000
#
# Coordination Sequence:
#
# PCOD8231426 Si02
#       6
#     8   8   8   8   8   8
#     4  11  22  40  63  88 115 149 192 241 289 341
#     4   8  16  31  52  73  98 130 170 213 258 310
#     4  11  22  39  61  88 118 152 192 239 288 342
#     4  10  20  36  55  78 107 143 181 226 278 333
#     4  10  19  33  53  80 108 140 178 222 271 328
#     4  12  24  39  58  85 118 156 195 237 288 346
#
# _framework density 20.218561000000001
#
# number of rings (size 3 to 8) (size 9 to 14) (size 15 to 20)
#    0.000    1.667    0.000    7.000    0.000    2.000 
#    0.000    4.167    0.000    2.000    0.000    0.000 
#    0.000    0.000    0.000    0.000    0.000    0.000 
#
# Total GULP energy -594892.560995 kJ/mol
# GULP energy per Si atom -12393.595021 kJ/mol
# Density = 2.017254 g / cm^3
# Si number density = 20.218561 Si / 1000 Ang^3
#
#
#
# Elastic Constant Matrix: (Units=GPa)
#
#
# Indices 1 2 3 4 5 6 
#
# 1 64.9246 7.9797 10.3126 0.0000 0.0000 0.0000
# 2 7.9797 49.1827 13.3279 0.0000 0.0000 0.0000
# 3 10.3126 13.3279 65.1198 0.0000 0.0000 0.0000
# 4 0.0000 0.0000 0.0000 28.0719 0.0000 0.0000
# 5 0.0000 0.0000 0.0000 0.0000 30.2120 0.0000
# 6 0.0000 0.0000 0.0000 0.0000 0.0000 16.1019
#
#
#
# Elastic Compliance Matrix: (Units=1/GPa)
#
#
# Indices 1 2 3 4 5 6 
#
# 1 0.015987 -0.002020 -0.002118 0.000000 0.000000 0.000000
# 2 -0.002020 0.021781 -0.004138 0.000000 0.000000 0.000000
# 3 -0.002118 -0.004138 0.016539 0.000000 0.000000 0.000000
# 4 0.000000 0.000000 0.000000 0.035623 0.000000 0.000000
# 5 0.000000 0.000000 0.000000 0.000000 0.033099 0.000000
# 6 0.000000 0.000000 0.000000 0.000000 0.000000 0.062104
#
#
# Mechanical properties :
#
#
# Convention : Reuss Voigt Hill
#
# Bulk Modulus (GPa) = 26.48674 26.94086 26.71380
# Shear Modulus (GPa) = 23.33489 24.71763 24.02626
#
# Velocity S-wave (km/s) = 3.40094 3.50025 3.45095
# Velocity P-wave (km/s) = 5.34327 5.44880 5.39629
#
# Compressibility (1/GPa) = 0.03775474
#
# Stress axis : x y z
#
# Youngs Moduli (GPa) = 62.54999 45.91070 60.46419
#
# Poissons Ratio (x) = 0.09273 0.12809
# Poissons Ratio (y) = 0.12634 0.25021
# Poissons Ratio (z) = 0.13251 0.18998
#
# Static dielectric constant tensor:
#      x y z
#    x 3.934780 0.000000 0.000000 
#    y 0.000000 3.732680 0.000000 
#    z 0.000000 0.000000 3.691700 
# 
# 
# High freq. dielectric constant tensor:
#      x y z
#    x 1.791100 0.000000 0.000000 
#    y 0.000000 1.773500 0.000000 
#    z 0.000000 0.000000 1.801740 
# 
# From -- ./inp_files/6548.got.cif
#   From: 2010.03.12/outbox.cif.g09.slc.cpg/sg57_4_cif.got.tgz:6548.got - 2010.04.16 15:48:40.
