data_PCOD8231955
_publ_section_title
;
Structure prediction by ZEFSAII (Michael W. Deem and Ramdas Pophale) SiO2 
 PCOD8231955
Probable space group: P B C M
;
_chemical_formula_sum "Si O2"
_cell_formula_units_Z 56
_cell_length_a 10.059986
_cell_length_b 21.241649
_cell_length_c 13.973671
_cell_angle_alpha 90.000000
_cell_angle_beta 90.000000
_cell_angle_gamma 90.000000
_cell_volume 2986.043420
_symmetry_space_group_name_H-M "P B C M"
_symmetry_group_IT_number 57
_symmetry_cell_setting 'orthorhombic'
loop_
_space_group_symop_operation_xyz
x,y,z
-x,-y,1/2+z
x,1/2-y,-z
-x,1/2+y,1/2-z
-x,-y,-z
x,y,1/2-z
-x,1/2+y,z
x,1/2-y,1/2+z
loop_
_atom_site_type_symbol
_atom_site_label
_atom_site_fract_x
_atom_site_fract_y
_atom_site_fract_z
Si Si1 0.184261 0.023819 0.642989
Si Si2 0.266048 0.209490 0.362302
Si Si3 0.062911 0.902753 0.358717
Si Si4 0.520642 0.180040 0.021315
Si Si5 0.774568 0.100374 0.467847
Si Si6 0.665511 0.650610 0.639089
Si Si7 0.015673 0.320302 0.517052
O O1 0.228149 0.006350 0.750000
O O2 0.250039 0.089598 0.611683
O O3 0.023888 0.032781 0.637916
O O4 0.234285 0.968620 0.575954
O O5 0.249501 0.195915 0.250000
O O6 0.406809 0.181780 0.397317
O O7 0.256718 0.284137 0.386916
O O8 0.149925 0.174763 0.421072
O O9 0.092856 0.882048 0.250000
O O10 0.201342 0.909674 0.417247
O O11 0.969940 0.849983 0.410294
O O12 0.640673 0.137017 0.057706
O O13 0.574897 0.250000 0.000000
O O14 0.467741 0.148933 0.923546
O O15 0.900072 0.140398 0.426680
O O16 0.624693 0.651811 0.750000
O O17 0.965056 0.250000 0.500000
#
# Coordination Sequence:
#
# PCOD8231955 Si02
#       7
#     8   8   8   8   8   8   8
#     4  10  19  36  57  81 111 149 196 239 282 336
#     4  10  20  36  59  84 113 151 195 235 279 339
#     4   9  20  37  57  79 112 154 192 230 278 337
#     4  10  20  38  58  83 119 151 183 232 290 342
#     4  10  23  34  58  85 119 150 186 231 298 340
#     4   9  19  35  61  84 106 151 201 237 274 336
#     4  10  20  35  57  87 115 147 190 241 281 338
#
# _framework density 18.753913000000001
#
# number of rings (size 3 to 8) (size 9 to 14) (size 15 to 20)
#    0.857    1.429    0.000    3.857    0.000    4.000 
#    0.000    0.000    0.000    0.000    0.000    0.000 
#    0.000    0.000    0.000    0.000    0.000    0.000 
#
# Total GULP energy -693944.522461 kJ/mol
# GULP energy per Si atom -12391.866473 kJ/mol
# Density = 1.871123 g / cm^3
# Si number density = 18.753913 Si / 1000 Ang^3
#
#
#
# Elastic Constant Matrix: (Units=GPa)
#
#
# Indices 1 2 3 4 5 6 
#
# 1 103.5945 53.6168 48.4341 0.0000 0.0000 0.0000
# 2 53.6168 102.0922 61.5339 0.0000 0.0000 0.0000
# 3 48.4341 61.5339 108.5135 0.0000 0.0000 0.0000
# 4 0.0000 0.0000 0.0000 27.0813 0.0000 0.0000
# 5 0.0000 0.0000 0.0000 0.0000 18.3596 0.0000
# 6 0.0000 0.0000 0.0000 0.0000 0.0000 19.5666
#
#
#
# Elastic Compliance Matrix: (Units=1/GPa)
#
#
# Indices 1 2 3 4 5 6 
#
# 1 0.013928 -0.005420 -0.003143 0.000000 0.000000 0.000000
# 2 -0.005420 0.016991 -0.007215 0.000000 0.000000 0.000000
# 3 -0.003143 -0.007215 0.014710 0.000000 0.000000 0.000000
# 4 0.000000 0.000000 0.000000 0.036926 0.000000 0.000000
# 5 0.000000 0.000000 0.000000 0.000000 0.054468 0.000000
# 6 0.000000 0.000000 0.000000 0.000000 0.000000 0.051108
#
#
# Mechanical properties :
#
#
# Convention : Reuss Voigt Hill
#
# Bulk Modulus (GPa) = 71.06813 71.26332 71.16573
# Shear Modulus (GPa) = 22.28393 23.04251 22.66322
#
# Velocity S-wave (km/s) = 3.45081 3.50905 3.48005
# Velocity P-wave (km/s) = 7.33858 7.38238 7.36052
#
# Compressibility (1/GPa) = 0.01407100
#
# Stress axis : x y z
#
# Youngs Moduli (GPa) = 71.79898 58.85585 67.98146
#
# Poissons Ratio (x) = 0.31901 0.21366
# Poissons Ratio (y) = 0.38917 0.49052
# Poissons Ratio (z) = 0.22566 0.42467
#
# Static dielectric constant tensor:
#      x y z
#    x 3.185900 0.000000 0.000000 
#    y 0.000000 3.290240 0.000000 
#    z 0.000000 0.000000 3.405680 
# 
# 
# High freq. dielectric constant tensor:
#      x y z
#    x 1.712980 0.000000 0.000000 
#    y 0.000000 1.718810 0.000000 
#    z 0.000000 0.000000 1.724580 
# 
# From -- ./inp_files/16766.got.cif
#   From: 2010.03.12/outbox.cif.g09.slc.cpg/sg57_9_cif.got.tgz:16766.got - 2010.04.16 15:48:40.
