data_PCOD8231252
_publ_section_title
;
Structure prediction by ZEFSAII (Michael W. Deem and Ramdas Pophale) SiO2 
 PCOD8231252
Probable space group: P B C M
;
_chemical_formula_sum "Si O2"
_cell_formula_units_Z 64
_cell_length_a 15.103442
_cell_length_b 23.688097
_cell_length_c 8.875314
_cell_angle_alpha 90.000000
_cell_angle_beta 90.000000
_cell_angle_gamma 90.000000
_cell_volume 3175.337058
_symmetry_space_group_name_H-M "P B C M"
_symmetry_group_IT_number 57
_symmetry_cell_setting 'orthorhombic'
loop_
_space_group_symop_operation_xyz
x,y,z
-x,-y,1/2+z
x,1/2-y,-z
-x,1/2+y,1/2-z
-x,-y,-z
x,y,1/2-z
-x,1/2+y,z
x,1/2-y,1/2+z
loop_
_atom_site_type_symbol
_atom_site_label
_atom_site_fract_x
_atom_site_fract_y
_atom_site_fract_z
Si Si1 0.115253 0.110783 0.573693
Si Si2 0.612381 0.401323 0.926460
Si Si3 0.047651 0.809279 0.073367
Si Si4 0.728326 0.690838 0.927270
Si Si5 0.629165 0.517768 0.423048
Si Si6 0.834985 0.999183 0.577733
Si Si7 0.186777 0.615472 0.073354
Si Si8 0.555164 0.627210 0.573025
O O1 0.123061 0.098216 0.750000
O O2 0.201844 0.144217 0.514837
O O3 0.105486 0.051070 0.489188
O O4 0.029325 0.146909 0.533100
O O5 0.603244 0.412404 0.750000
O O6 0.709368 0.377875 0.966413
O O7 0.592280 0.458918 0.015053
O O8 0.536450 0.358152 0.985172
O O9 0.058753 0.800571 0.250000
O O10 0.022397 0.750000 0.000000
O O11 0.139447 0.832063 0.005940
O O12 0.738081 0.697468 0.750000
O O13 0.629169 0.672877 0.974535
O O14 0.752998 0.750000 0.000000
O O15 0.599403 0.525684 0.250000
O O16 0.734181 0.519616 0.439733
O O17 0.589394 0.565973 0.526548
O O18 0.861964 0.010154 0.750000
O O19 0.852560 0.056751 0.487843
O O20 0.169476 0.617875 0.250000
O O21 0.537495 0.628689 0.750000
#
# Coordination Sequence:
#
# PCOD8231252 Si02
#       8
#     8   8   8   8   8   8   8   8
#     4  10  21  39  61  88 121 155 191 236 293 355
#     4  10  21  36  56  82 113 150 191 238 289 342
#     4  11  24  42  66  91 117 151 196 247 295 350
#     4  10  22  38  57  81 114 154 195 238 289 346
#     4  10  19  32  52  82 117 153 191 234 281 339
#     4  10  20  34  58  91 123 157 196 239 291 351
#     4  10  22  41  63  86 119 158 196 245 301 353
#     4  11  21  34  54  80 113 153 193 237 285 340
#
# _framework density 20.155342000000001
#
# number of rings (size 3 to 8) (size 9 to 14) (size 15 to 20)
#    0.000    1.750    1.250    3.000    0.000    5.500 
#    0.000    0.625    0.000    1.500    0.000    0.000 
#    0.000    0.000    0.000    0.000    0.000    0.000 
#
# Total GULP energy -793849.481955 kJ/mol
# GULP energy per Si atom -12403.898156 kJ/mol
# Density = 2.010947 g / cm^3
# Si number density = 20.155342 Si / 1000 Ang^3
#
#
#
# Elastic Constant Matrix: (Units=GPa)
#
#
# Indices 1 2 3 4 5 6 
#
# 1 63.4647 24.8306 36.4196 0.0000 0.0000 0.0000
# 2 24.8306 47.6906 22.9539 0.0000 0.0000 0.0000
# 3 36.4196 22.9539 67.8472 0.0000 0.0000 0.0000
# 4 0.0000 0.0000 0.0000 36.4831 0.0000 0.0000
# 5 0.0000 0.0000 0.0000 0.0000 30.4291 0.0000
# 6 0.0000 0.0000 0.0000 0.0000 0.0000 20.3975
#
#
#
# Elastic Compliance Matrix: (Units=1/GPa)
#
#
# Indices 1 2 3 4 5 6 
#
# 1 0.025003 -0.007834 -0.010771 0.000000 0.000000 0.000000
# 2 -0.007834 0.027501 -0.005099 0.000000 0.000000 0.000000
# 3 -0.010771 -0.005099 0.022246 0.000000 0.000000 0.000000
# 4 0.000000 0.000000 0.000000 0.027410 0.000000 0.000000
# 5 0.000000 0.000000 0.000000 0.000000 0.032863 0.000000
# 6 0.000000 0.000000 0.000000 0.000000 0.000000 0.049026
#
#
# Mechanical properties :
#
#
# Convention : Reuss Voigt Hill
#
# Bulk Modulus (GPa) = 36.57323 38.60118 37.58721
# Shear Modulus (GPa) = 20.78392 23.78183 22.28287
#
# Velocity S-wave (km/s) = 3.21469 3.43873 3.32860
# Velocity P-wave (km/s) = 5.65368 5.91269 5.78463
#
# Compressibility (1/GPa) = 0.02734240
#
# Stress axis : x y z
#
# Youngs Moduli (GPa) = 39.99566 36.36166 44.95236
#
# Poissons Ratio (x) = 0.28485 0.48417
# Poissons Ratio (y) = 0.31332 0.22922
# Poissons Ratio (z) = 0.43079 0.18541
#
# Static dielectric constant tensor:
#      x y z
#    x 3.875690 0.000000 0.000000 
#    y 0.000000 3.484820 0.000000 
#    z 0.000000 0.000000 3.658220 
# 
# 
# High freq. dielectric constant tensor:
#      x y z
#    x 1.797110 0.000000 0.000000 
#    y 0.000000 1.768940 0.000000 
#    z 0.000000 0.000000 1.792420 
# 
# From -- ./inp_files/5607.got.cif
#   From: 2010.03.12/outbox.cif.g09.slc.cpg/sg57_3_cif.got.tgz:5607.got - 2010.04.16 15:48:40.
