data_PCOD8231582
_publ_section_title
;
Structure prediction by ZEFSAII (Michael W. Deem and Ramdas Pophale) SiO2 
 PCOD8231582
Probable space group: P B C M
;
_chemical_formula_sum "Si O2"
_cell_formula_units_Z 56
_cell_length_a 22.416837
_cell_length_b 14.075950
_cell_length_c 8.763663
_cell_angle_alpha 90.000000
_cell_angle_beta 90.000000
_cell_angle_gamma 90.000000
_cell_volume 2765.271121
_symmetry_space_group_name_H-M "P B C M"
_symmetry_group_IT_number 57
_symmetry_cell_setting 'orthorhombic'
loop_
_space_group_symop_operation_xyz
x,y,z
-x,-y,1/2+z
x,1/2-y,-z
-x,1/2+y,1/2-z
-x,-y,-z
x,y,1/2-z
-x,1/2+y,z
x,1/2-y,1/2+z
loop_
_atom_site_type_symbol
_atom_site_label
_atom_site_fract_x
_atom_site_fract_y
_atom_site_fract_z
Si Si1 0.852425 0.847672 0.430549
Si Si2 0.526564 0.850638 0.071225
Si Si3 0.804803 0.025822 0.924744
Si Si4 0.296964 0.647938 0.428364
Si Si5 0.418893 0.547124 0.073123
Si Si6 0.978034 0.597248 0.070515
Si Si7 0.909058 0.336624 0.424267
O O1 0.827656 0.750000 0.500000
O O2 0.854801 0.841662 0.250000
O O3 0.918150 0.865936 0.493588
O O4 0.805196 0.928222 0.481079
O O5 0.526450 0.835000 0.250000
O O6 0.571322 0.936846 0.022988
O O7 0.546871 0.750000 0.000000
O O8 0.460440 0.880373 0.019511
O O9 0.786941 0.006392 0.750000
O O10 0.871968 0.066394 0.936074
O O11 0.760590 0.102171 0.995380
O O12 0.311143 0.750000 0.500000
O O13 0.285234 0.661570 0.250000
O O14 0.351214 0.575939 0.460725
O O15 0.435654 0.559208 0.250000
O O16 0.966980 0.587652 0.250000
O O17 0.000000 0.500000 0.000000
O O18 0.032119 0.666617 0.030269
O O19 0.870711 0.250000 0.500000
O O20 0.926135 0.316582 0.250000
#
# Coordination Sequence:
#
# PCOD8231582 Si02
#       7
#     8   8   8   8   8   8   8
#     4  12  25  43  66  89 118 154 195 242 296 356
#     4  10  19  33  56  87 123 161 202 248 301 356
#     4  11  24  42  63  87 117 151 197 245 293 350
#     4  11  23  40  62  88 120 157 200 247 298 353
#     4   9  20  37  57  85 121 162 206 251 298 353
#     4  12  23  38  60  87 118 151 191 236 292 354
#     4  11  23  38  58  84 116 149 187 234 289 350
#
# _framework density 20.251180000000002
#
# number of rings (size 3 to 8) (size 9 to 14) (size 15 to 20)
#    0.000    1.143    1.429    5.571    0.000    5.714 
#    0.000    0.714    0.000    1.714    0.000    0.000 
#    0.000    0.000    0.000    0.000    0.000    0.000 
#
# Total GULP energy -694422.582477 kJ/mol
# GULP energy per Si atom -12400.403259 kJ/mol
# Density = 2.020509 g / cm^3
# Si number density = 20.251180 Si / 1000 Ang^3
#
#
#
# Elastic Constant Matrix: (Units=GPa)
#
#
# Indices 1 2 3 4 5 6 
#
# 1 65.3422 27.6106 35.8515 0.0000 0.0000 0.0000
# 2 27.6106 145.1394 59.6641 0.0000 0.0000 0.0000
# 3 35.8515 59.6641 148.1900 0.0000 0.0000 0.0000
# 4 0.0000 0.0000 0.0000 40.2408 0.0000 0.0000
# 5 0.0000 0.0000 0.0000 0.0000 26.9469 0.0000
# 6 0.0000 0.0000 0.0000 0.0000 0.0000 21.8227
#
#
#
# Elastic Compliance Matrix: (Units=1/GPa)
#
#
# Indices 1 2 3 4 5 6 
#
# 1 0.018104 -0.001970 -0.003587 0.000000 0.000000 0.000000
# 2 -0.001970 0.008471 -0.002934 0.000000 0.000000 0.000000
# 3 -0.003587 -0.002934 0.008797 0.000000 0.000000 0.000000
# 4 0.000000 0.000000 0.000000 0.024850 0.000000 0.000000
# 5 0.000000 0.000000 0.000000 0.000000 0.037110 0.000000
# 6 0.000000 0.000000 0.000000 0.000000 0.000000 0.045824
#
#
# Mechanical properties :
#
#
# Convention : Reuss Voigt Hill
#
# Bulk Modulus (GPa) = 54.37379 67.21377 60.79378
# Shear Modulus (GPa) = 30.07196 33.50511 31.78854
#
# Velocity S-wave (km/s) = 3.85768 4.07194 3.96626
# Velocity P-wave (km/s) = 6.83742 7.44108 7.14563
#
# Compressibility (1/GPa) = 0.01839122
#
# Stress axis : x y z
#
# Youngs Moduli (GPa) = 55.23525 118.05390 113.67290
#
# Poissons Ratio (x) = 0.23251 0.40775
# Poissons Ratio (y) = 0.10879 0.33351
# Poissons Ratio (z) = 0.19813 0.34637
#
# Static dielectric constant tensor:
#      x y z
#    x 3.490610 0.000000 0.000000 
#    y 0.000000 4.119290 0.000000 
#    z 0.000000 0.000000 -4.012340 
# 
# 
# High freq. dielectric constant tensor:
#      x y z
#    x 1.764450 0.000000 0.000000 
#    y 0.000000 1.813840 0.000000 
#    z 0.000000 0.000000 1.804900 
# 
# From -- ./inp_files/8115.got.cif
#   From: 2010.03.12/outbox.cif.g09.slc.cpg/sg57_5_cif.got.tgz:8115.got - 2010.04.16 15:48:40.
