data_PCOD8231451
_publ_section_title
;
Structure prediction by ZEFSAII (Michael W. Deem and Ramdas Pophale) SiO2 
 PCOD8231451
Probable space group: P B C M
;
_chemical_formula_sum "Si O2"
_cell_formula_units_Z 64
_cell_length_a 22.777610
_cell_length_b 17.677886
_cell_length_c 8.608852
_cell_angle_alpha 90.000000
_cell_angle_beta 90.000000
_cell_angle_gamma 90.000000
_cell_volume 3466.440285
_symmetry_space_group_name_H-M "P B C M"
_symmetry_group_IT_number 57
_symmetry_cell_setting 'orthorhombic'
loop_
_space_group_symop_operation_xyz
x,y,z
-x,-y,1/2+z
x,1/2-y,-z
-x,1/2+y,1/2-z
-x,-y,-z
x,y,1/2-z
-x,1/2+y,z
x,1/2-y,1/2+z
loop_
_atom_site_type_symbol
_atom_site_label
_atom_site_fract_x
_atom_site_fract_y
_atom_site_fract_z
Si Si1 0.702114 0.329120 0.934929
Si Si2 0.037157 0.934222 0.930466
Si Si3 0.453877 0.328957 0.567514
Si Si4 0.260297 0.517650 0.932843
Si Si5 0.577390 0.117097 0.432626
Si Si6 0.377575 0.043024 0.932033
Si Si7 0.859609 0.531202 0.933942
Si Si8 0.937040 0.667345 0.434217
O O1 0.706450 0.331931 0.750000
O O2 0.634856 0.338908 0.995340
O O3 0.726705 0.250000 0.000000
O O4 0.741672 0.396557 0.003100
O O5 0.031143 0.943667 0.750000
O O6 0.005484 0.854947 0.978290
O O7 0.104609 0.952828 0.976989
O O8 0.000000 0.000000 0.000000
O O9 0.432810 0.250000 0.500000
O O10 0.459976 0.323644 0.750000
O O11 0.517319 0.351122 0.492336
O O12 0.403521 0.387431 0.525447
O O13 0.271040 0.518553 0.750000
O O14 0.311161 0.470398 0.016316
O O15 0.200693 0.474432 0.973329
O O16 0.575321 0.127366 0.250000
O O17 0.582736 0.029144 0.476301
O O18 0.378989 0.060201 0.750000
O O19 0.848170 0.536805 0.750000
O O20 0.893057 0.606782 0.989102
O O21 0.923488 0.750000 0.500000
O O22 0.927085 0.667384 0.250000
#
# Coordination Sequence:
#
# PCOD8231451 Si02
#       8
#     8   8   8   8   8   8   8   8
#     4  10  19  34  54  79 108 139 174 218 267 318
#     4   8  16  30  51  76 104 135 169 206 251 301
#     4  11  21  34  51  76 106 137 171 213 264 321
#     4  11  22  37  56  79 105 141 183 223 264 315
#     4   8  17  32  53  78 104 132 168 211 262 321
#     4  10  20  37  56  76 102 136 175 220 267 317
#     4  10  19  35  57  80 106 142 182 223 264 310
#     4  10  19  33  53  82 114 144 177 218 262 309
#
# _framework density 18.462745000000002
#
# number of rings (size 3 to 8) (size 9 to 14) (size 15 to 20)
#    0.000    2.250    0.000    4.500    0.000    1.000 
#    0.000    7.500    0.000    1.500    0.000    0.000 
#    0.000    0.000    0.000    0.000    0.000    0.000 
#
# Total GULP energy -793158.106612 kJ/mol
# GULP energy per Si atom -12393.095416 kJ/mol
# Density = 1.842072 g / cm^3
# Si number density = 18.462745 Si / 1000 Ang^3
#
#
#
# Elastic Constant Matrix: (Units=GPa)
#
#
# Indices 1 2 3 4 5 6 
#
# 1 71.9485 36.7512 10.5316 0.0000 0.0000 0.0000
# 2 36.7512 105.1077 20.9550 0.0000 0.0000 0.0000
# 3 10.5316 20.9550 45.6861 0.0000 0.0000 0.0000
# 4 0.0000 0.0000 0.0000 27.6474 0.0000 0.0000
# 5 0.0000 0.0000 0.0000 0.0000 24.7835 0.0000
# 6 0.0000 0.0000 0.0000 0.0000 0.0000 27.9971
#
#
#
# Elastic Compliance Matrix: (Units=1/GPa)
#
#
# Indices 1 2 3 4 5 6 
#
# 1 0.016992 -0.005680 -0.001312 0.000000 0.000000 0.000000
# 2 -0.005680 0.012370 -0.004365 0.000000 0.000000 0.000000
# 3 -0.001312 -0.004365 0.024193 0.000000 0.000000 0.000000
# 4 0.000000 0.000000 0.000000 0.036170 0.000000 0.000000
# 5 0.000000 0.000000 0.000000 0.000000 0.040349 0.000000
# 6 0.000000 0.000000 0.000000 0.000000 0.000000 0.035718
#
#
# Mechanical properties :
#
#
# Convention : Reuss Voigt Hill
#
# Bulk Modulus (GPa) = 32.42266 39.91310 36.16788
# Shear Modulus (GPa) = 25.15273 26.38588 25.76930
#
# Velocity S-wave (km/s) = 3.69501 3.78450 3.74002
# Velocity P-wave (km/s) = 5.98359 6.38449 6.18729
#
# Compressibility (1/GPa) = 0.03084263
#
# Stress axis : x y z
#
# Youngs Moduli (GPa) = 58.85096 80.83976 41.33461
#
# Poissons Ratio (x) = 0.45915 0.05423
# Poissons Ratio (y) = 0.33426 0.18041
# Poissons Ratio (z) = 0.07720 0.35283
#
# Static dielectric constant tensor:
#      x y z
#    x 3.941460 0.000000 0.000000 
#    y 0.000000 3.612300 0.000000 
#    z 0.000000 0.000000 3.349610 
# 
# 
# High freq. dielectric constant tensor:
#      x y z
#    x 1.707550 0.000000 0.000000 
#    y 0.000000 1.709910 0.000000 
#    z 0.000000 0.000000 1.719200 
# 
# From -- ./inp_files/8490.got.cif
#   From: 2010.03.12/outbox.cif.g09.slc.cpg/sg57_5_cif.got.tgz:8490.got - 2010.04.16 15:48:40.
