data_PCOD8231405
_publ_section_title
;
Structure prediction by ZEFSAII (Michael W. Deem and Ramdas Pophale) SiO2 
 PCOD8231405
Probable space group: P B C M
;
_chemical_formula_sum "Si O2"
_cell_formula_units_Z 64
_cell_length_a 20.869390
_cell_length_b 8.841412
_cell_length_c 17.622924
_cell_angle_alpha 90.000000
_cell_angle_beta 90.000000
_cell_angle_gamma 90.000000
_cell_volume 3251.691622
_symmetry_space_group_name_H-M "P B C M"
_symmetry_group_IT_number 57
_symmetry_cell_setting 'orthorhombic'
loop_
_space_group_symop_operation_xyz
x,y,z
-x,-y,1/2+z
x,1/2-y,-z
-x,1/2+y,1/2-z
-x,-y,-z
x,y,1/2-z
-x,1/2+y,z
x,1/2-y,1/2+z
loop_
_atom_site_type_symbol
_atom_site_label
_atom_site_fract_x
_atom_site_fract_y
_atom_site_fract_z
Si Si1 0.552227 0.363294 0.163116
Si Si2 0.426504 0.213420 0.163041
Si Si3 0.057949 0.711137 0.088630
Si Si4 0.950429 0.897350 0.161216
Si Si5 0.198540 0.828032 0.580125
Si Si6 0.826359 0.682033 0.581733
Si Si7 0.700232 0.674146 0.081266
Si Si8 0.321240 0.683012 0.582010
O O1 0.551693 0.312397 0.250000
O O2 0.485191 0.307564 0.126041
O O3 0.555513 0.540452 0.151719
O O4 0.614071 0.283442 0.127686
O O5 0.416308 0.257486 0.250000
O O6 0.359731 0.251415 0.122722
O O7 0.043241 0.536493 0.103604
O O8 0.132082 0.739370 0.112913
O O9 0.014269 0.802740 0.146536
O O10 0.045718 0.750000 0.000000
O O11 0.946631 0.942934 0.250000
O O12 0.886986 0.803113 0.138114
O O13 0.211016 0.750000 0.500000
O O14 0.262180 0.771267 0.625184
O O15 0.195587 0.008118 0.572553
O O16 0.846575 0.750000 0.500000
O O17 0.768039 0.777556 0.619806
O O18 0.694759 0.494495 0.078267
O O19 0.704321 0.750000 0.000000
O O20 0.335252 0.750000 0.500000
#
# Coordination Sequence:
#
# PCOD8231405 Si02
#       8
#     8   8   8   8   8   8   8   8
#     4   9  19  35  52  73  99 134 174 212 256 313
#     4   9  19  35  53  72 100 135 174 215 258 310
#     4  10  21  38  60  82 108 148 190 224 267 332
#     4  11  23  38  56  84 117 144 179 232 280 321
#     4   9  18  33  54  79 103 132 175 219 257 306
#     4  10  20  35  55  78 106 141 180 217 260 324
#     4  10  20  33  53  79 106 135 174 218 260 313
#     4  10  19  33  53  77 105 133 168 217 264 307
#
# _framework density 19.682062999999999
#
# number of rings (size 3 to 8) (size 9 to 14) (size 15 to 20)
#    0.000    2.250    0.000    4.125    0.000    6.000 
#    0.000    5.625    0.000    0.000    0.000    0.000 
#    0.000    0.000    0.000    0.000    0.000    0.000 
#
# Total GULP energy -793164.481003 kJ/mol
# GULP energy per Si atom -12393.195016 kJ/mol
# Density = 1.963727 g / cm^3
# Si number density = 19.682063 Si / 1000 Ang^3
#
#
#
# Elastic Constant Matrix: (Units=GPa)
#
#
# Indices 1 2 3 4 5 6 
#
# 1 137.5704 40.5947 47.4260 0.0000 0.0000 0.0000
# 2 40.5947 62.3792 27.2383 0.0000 0.0000 0.0000
# 3 47.4260 27.2383 59.6722 0.0000 0.0000 0.0000
# 4 0.0000 0.0000 0.0000 22.3255 0.0000 0.0000
# 5 0.0000 0.0000 0.0000 0.0000 1.5801 0.0000
# 6 0.0000 0.0000 0.0000 0.0000 0.0000 39.2676
#
#
#
# Elastic Compliance Matrix: (Units=1/GPa)
#
#
# Indices 1 2 3 4 5 6 
#
# 1 0.010789 -0.004093 -0.006706 0.000000 0.000000 0.000000
# 2 -0.004093 0.021574 -0.006595 0.000000 0.000000 0.000000
# 3 -0.006706 -0.006595 0.025099 0.000000 0.000000 0.000000
# 4 0.000000 0.000000 0.000000 0.044792 0.000000 0.000000
# 5 0.000000 0.000000 0.000000 0.000000 0.632867 0.000000
# 6 0.000000 0.000000 0.000000 0.000000 0.000000 0.025466
#
#
# Mechanical properties :
#
#
# Convention : Reuss Voigt Hill
#
# Bulk Modulus (GPa) = 44.10485 54.45996 49.28241
# Shear Modulus (GPa) = 6.22717 22.25882 14.24300
#
# Velocity S-wave (km/s) = 1.78066 3.36656 2.69300
# Velocity P-wave (km/s) = 5.16575 6.54535 5.89604
#
# Compressibility (1/GPa) = 0.02267324
#
# Stress axis : x y z
#
# Youngs Moduli (GPa) = 92.69026 46.35178 39.84248
#
# Poissons Ratio (x) = 0.18970 0.26720
# Poissons Ratio (y) = 0.37934 0.26277
# Poissons Ratio (z) = 0.62162 0.30570
#
# Static dielectric constant tensor:
#      x y z
#    x 4.426570 0.000000 0.000000 
#    y 0.000000 3.590890 0.000000 
#    z 0.000000 0.000000 3.349230 
# 
# 
# High freq. dielectric constant tensor:
#      x y z
#    x 1.797940 0.000000 0.000000 
#    y 0.000000 1.767080 0.000000 
#    z 0.000000 0.000000 1.730670 
# 
# From -- ./inp_files/25787.got.cif
#   From: 2010.03.12/outbox.cif.g09.slc.cpg/sg57_13_cif.got.tgz:25787.got - 2010.04.16 15:48:40.
