data_PCOD8231660
_publ_section_title
;
Structure prediction by ZEFSAII (Michael W. Deem and Ramdas Pophale) SiO2 
 PCOD8231660
Probable space group: P B C M
;
_chemical_formula_sum "Si O2"
_cell_formula_units_Z 56
_cell_length_a 16.563462
_cell_length_b 21.363876
_cell_length_c 8.725809
_cell_angle_alpha 90.000000
_cell_angle_beta 90.000000
_cell_angle_gamma 90.000000
_cell_volume 3087.712576
_symmetry_space_group_name_H-M "P B C M"
_symmetry_group_IT_number 57
_symmetry_cell_setting 'orthorhombic'
loop_
_space_group_symop_operation_xyz
x,y,z
-x,-y,1/2+z
x,1/2-y,-z
-x,1/2+y,1/2-z
-x,-y,-z
x,y,1/2-z
-x,1/2+y,z
x,1/2-y,1/2+z
loop_
_atom_site_type_symbol
_atom_site_label
_atom_site_fract_x
_atom_site_fract_y
_atom_site_fract_z
Si Si1 0.955389 0.560727 0.931541
Si Si2 0.643669 0.183670 0.073230
Si Si3 0.799786 0.985247 0.570174
Si Si4 0.372517 0.028261 0.928295
Si Si5 0.800556 0.116313 0.426896
Si Si6 0.514982 0.413732 0.573691
Si Si7 0.963477 0.317364 0.572786
O O1 0.963326 0.557360 0.750000
O O2 0.861956 0.560020 0.982676
O O3 0.990256 0.626513 0.989326
O O4 0.000000 0.500000 0.000000
O O5 0.663248 0.191716 0.250000
O O6 0.716867 0.142811 0.004724
O O7 0.556836 0.152607 0.043853
O O8 0.640232 0.250000 0.000000
O O9 0.810124 0.975792 0.750000
O O10 0.822945 0.056188 0.526949
O O11 0.709603 0.966570 0.522119
O O12 0.351242 0.030087 0.750000
O O13 0.419020 0.965189 0.976673
O O14 0.433431 0.084525 0.973149
O O15 0.791484 0.094562 0.250000
O O16 0.868084 0.169644 0.444706
O O17 0.491126 0.424130 0.750000
O O18 0.984387 0.250000 0.500000
O O19 0.989513 0.316203 0.750000
#
# Coordination Sequence:
#
# PCOD8231660 Si02
#       7
#     8   8   8   8   8   8   8
#     4  12  24  40  61  87 118 153 196 244 297 351
#     4  10  20  34  51  76 112 152 188 227 273 328
#     4  12  23  35  57  86 116 150 190 235 290 348
#     4  10  19  34  55  78 108 141 179 228 281 330
#     4  10  20  36  55  79 116 156 191 234 283 335
#     4   9  18  33  52  76 108 143 182 225 273 326
#     4  11  23  39  61  86 119 159 200 243 290 348
#
# _framework density 18.136403999999999
#
# number of rings (size 3 to 8) (size 9 to 14) (size 15 to 20)
#    0.000    1.429    2.857    3.857    0.000    2.286 
#    0.000    0.000    0.000    0.857    0.000    4.000 
#    0.000    0.000    0.000    0.000    0.000    0.000 
#
# Total GULP energy -694464.749313 kJ/mol
# GULP energy per Si atom -12401.156238 kJ/mol
# Density = 1.809513 g / cm^3
# Si number density = 18.136404 Si / 1000 Ang^3
#
#
#
# Elastic Constant Matrix: (Units=GPa)
#
#
# Indices 1 2 3 4 5 6 
#
# 1 98.3381 47.5498 45.8361 0.0000 0.0000 0.0000
# 2 47.5498 102.7546 49.4561 0.0000 0.0000 0.0000
# 3 45.8361 49.4561 108.9107 0.0000 0.0000 0.0000
# 4 0.0000 0.0000 0.0000 31.8788 0.0000 0.0000
# 5 0.0000 0.0000 0.0000 0.0000 30.7080 0.0000
# 6 0.0000 0.0000 0.0000 0.0000 0.0000 25.6243
#
#
#
# Elastic Compliance Matrix: (Units=1/GPa)
#
#
# Indices 1 2 3 4 5 6 
#
# 1 0.014256 -0.004747 -0.003844 0.000000 0.000000 0.000000
# 2 -0.004747 0.014034 -0.004375 0.000000 0.000000 0.000000
# 3 -0.003844 -0.004375 0.012787 0.000000 0.000000 0.000000
# 4 0.000000 0.000000 0.000000 0.031369 0.000000 0.000000
# 5 0.000000 0.000000 0.000000 0.000000 0.032565 0.000000
# 6 0.000000 0.000000 0.000000 0.000000 0.000000 0.039025
#
#
# Mechanical properties :
#
#
# Convention : Reuss Voigt Hill
#
# Bulk Modulus (GPa) = 66.03132 66.18748 66.10940
# Shear Modulus (GPa) = 28.56871 28.78631 28.67751
#
# Velocity S-wave (km/s) = 3.97320 3.98830 3.98076
# Velocity P-wave (km/s) = 7.58523 7.60146 7.59335
#
# Compressibility (1/GPa) = 0.01514433
#
# Stress axis : x y z
#
# Youngs Moduli (GPa) = 70.14560 71.25407 78.20719
#
# Poissons Ratio (x) = 0.33822 0.30065
# Poissons Ratio (y) = 0.33296 0.34217
# Poissons Ratio (z) = 0.26966 0.31175
#
# Static dielectric constant tensor:
#      x y z
#    x 3.743160 0.000000 0.000000 
#    y 0.000000 3.222240 0.000000 
#    z 0.000000 0.000000 2.840280 
# 
# 
# High freq. dielectric constant tensor:
#      x y z
#    x 1.707370 0.000000 0.000000 
#    y 0.000000 1.680670 0.000000 
#    z 0.000000 0.000000 1.708280 
# 
# From -- ./inp_files/5143.got.cif
#   From: 2010.03.12/outbox.cif.g09.slc.cpg/sg57_3_cif.got.tgz:5143.got - 2010.04.16 15:48:40.
