data_PCOD8231183
_publ_section_title
;
Structure prediction by ZEFSAII (Michael W. Deem and Ramdas Pophale) SiO2 
 PCOD8231183
Probable space group: P B C M
;
_chemical_formula_sum "Si O2"
_cell_formula_units_Z 64
_cell_length_a 19.103943
_cell_length_b 9.614211
_cell_length_c 18.493883
_cell_angle_alpha 90.000000
_cell_angle_beta 90.000000
_cell_angle_gamma 90.000000
_cell_volume 3396.759265
_symmetry_space_group_name_H-M "P B C M"
_symmetry_group_IT_number 57
_symmetry_cell_setting 'orthorhombic'
loop_
_space_group_symop_operation_xyz
x,y,z
-x,-y,1/2+z
x,1/2-y,-z
-x,1/2+y,1/2-z
-x,-y,-z
x,y,1/2-z
-x,1/2+y,z
x,1/2-y,1/2+z
loop_
_atom_site_type_symbol
_atom_site_label
_atom_site_fract_x
_atom_site_fract_y
_atom_site_fract_z
Si Si1 0.333617 0.750626 0.418355
Si Si2 0.807792 0.670664 0.835289
Si Si3 0.581672 0.515338 0.411858
Si Si4 0.331082 0.231317 0.914195
Si Si5 0.939998 0.646791 0.164305
Si Si6 0.570542 0.495108 0.920834
Si Si7 0.800149 0.351697 0.835332
Si Si8 0.069502 0.671107 0.836165
O O1 0.303909 0.750000 0.500000
O O2 0.404995 0.662883 0.413334
O O3 0.273814 0.694747 0.366717
O O4 0.359735 0.901258 0.394194
O O5 0.795320 0.680757 0.750000
O O6 0.743318 0.740266 0.876101
O O7 0.873435 0.763106 0.860112
O O8 0.819108 0.509614 0.858899
O O9 0.616550 0.654105 0.381163
O O10 0.503997 0.485977 0.379036
O O11 0.565295 0.539623 0.495943
O O12 0.367367 0.088656 0.888436
O O13 0.319443 0.250000 0.000000
O O14 0.944661 0.637903 0.250000
O O15 0.936431 0.487807 0.133582
O O16 0.007067 0.730894 0.134016
O O17 0.793974 0.343138 0.750000
O O18 0.859006 0.243918 0.863448
O O19 0.066895 0.666968 0.750000
#
# Coordination Sequence:
#
# PCOD8231183 Si02
#       8
#     8   8   8   8   8   8   8   8
#     4  10  19  32  51  76 102 132 171 214 257 302
#     4  10  20  34  52  74 105 141 171 204 250 304
#     4   9  18  28  51  75  98 129 168 222 259 295
#     4  10  19  32  51  76 102 132 171 214 257 302
#     4   9  17  30  50  76 103 132 170 211 249 292
#     4   9  16  32  49  73 100 129 172 214 259 299
#     4  10  20  34  52  74 105 141 171 204 250 304
#     4   9  17  30  50  76 103 132 170 211 249 292
#
# _framework density 18.841488999999999
#
# number of rings (size 3 to 8) (size 9 to 14) (size 15 to 20)
#    0.000    2.500    1.250    1.500    1.750    6.000 
#    0.000    0.000    0.000    5.250    0.000    3.500 
#    0.000    0.000    0.000    0.000    0.000    0.000 
#
# Total GULP energy -793195.773858 kJ/mol
# GULP energy per Si atom -12393.683967 kJ/mol
# Density = 1.879860 g / cm^3
# Si number density = 18.841489 Si / 1000 Ang^3
#
#
#
# Elastic Constant Matrix: (Units=GPa)
#
#
# Indices 1 2 3 4 5 6 
#
# 1 134.7416 53.3040 22.4612 0.0000 0.0000 0.0000
# 2 53.3040 119.4220 14.0547 0.0000 0.0000 0.0000
# 3 22.4612 14.0547 10.8772 0.0000 0.0000 0.0000
# 4 0.0000 0.0000 0.0000 14.7255 0.0000 0.0000
# 5 0.0000 0.0000 0.0000 0.0000 14.1348 0.0000
# 6 0.0000 0.0000 0.0000 0.0000 0.0000 -245.5512
#
#
#
# Elastic Compliance Matrix: (Units=1/GPa)
#
#
# Indices 1 2 3 4 5 6 
#
# 1 0.012116 -0.002905 -0.021265 0.000000 0.000000 0.000000
# 2 -0.002905 0.010572 -0.007661 0.000000 0.000000 0.000000
# 3 -0.021265 -0.007661 0.145746 0.000000 0.000000 0.000000
# 4 0.000000 0.000000 0.000000 0.067909 0.000000 0.000000
# 5 0.000000 0.000000 0.000000 0.000000 0.070748 0.000000
# 6 0.000000 0.000000 0.000000 0.000000 0.000000 -0.004072
#
#
# Mechanical properties :
#
#
# Convention : Reuss Voigt Hill
#
# Bulk Modulus (GPa) = 9.54459 49.40895 29.47677
# Shear Modulus (GPa) = 12.45005 -31.65680 -9.60338
#
# Velocity S-wave (km/s) = 2.57335 -4.10343 -2.26009
# Velocity P-wave (km/s) = 3.72911 1.95693 2.97790
#
# Compressibility (1/GPa) = 0.10477138
#
# Stress axis : x y z
#
# Youngs Moduli (GPa) = 82.53736 94.58896 6.86125
#
# Poissons Ratio (x) = 0.27480 0.14590
# Poissons Ratio (y) = 0.23979 0.05257
# Poissons Ratio (z) = 1.75514 0.72467
#
# Static dielectric constant tensor:
#      x y z
#    x 3.577620 0.000000 0.000000 
#    y 0.000000 3.745260 0.000000 
#    z 0.000000 0.000000 2.885900 
# 
# 
# High freq. dielectric constant tensor:
#      x y z
#    x 1.747100 0.000000 0.000000 
#    y 0.000000 1.752540 0.000000 
#    z 0.000000 0.000000 1.658770 
# 
# From -- ./inp_files/27591.got.cif
#   From: 2010.03.12/outbox.cif.g09.slc.cpg/sg57_14_cif.got.tgz:27591.got - 2010.04.16 15:48:40.
