data_PCOD8231155
_publ_section_title
;
Structure prediction by ZEFSAII (Michael W. Deem and Ramdas Pophale) SiO2 
 PCOD8231155
Probable space group: P B C M
;
_chemical_formula_sum "Si O2"
_cell_formula_units_Z 40
_cell_length_a 11.714508
_cell_length_b 21.425286
_cell_length_c 8.885779
_cell_angle_alpha 90.000000
_cell_angle_beta 90.000000
_cell_angle_gamma 90.000000
_cell_volume 2230.212208
_symmetry_space_group_name_H-M "P B C M"
_symmetry_group_IT_number 57
_symmetry_cell_setting 'orthorhombic'
loop_
_space_group_symop_operation_xyz
x,y,z
-x,-y,1/2+z
x,1/2-y,-z
-x,1/2+y,1/2-z
-x,-y,-z
x,y,1/2-z
-x,1/2+y,z
x,1/2-y,1/2+z
loop_
_atom_site_type_symbol
_atom_site_label
_atom_site_fract_x
_atom_site_fract_y
_atom_site_fract_z
Si Si1 0.221495 0.812975 0.574267
Si Si2 0.832352 0.959949 0.072583
Si Si3 0.424274 0.445307 0.428091
Si Si4 0.041262 0.583177 0.423660
Si Si5 0.458493 0.683571 0.571751
O O1 0.178772 0.750000 0.500000
O O2 0.250104 0.805641 0.750000
O O3 0.115993 0.857079 0.543539
O O4 0.335099 0.836144 0.490813
O O5 0.827777 0.954189 0.250000
O O6 0.704636 0.951929 0.009087
O O7 0.883126 0.025618 0.015525
O O8 0.920383 0.908279 0.008939
O O9 0.500000 0.500000 0.500000
O O10 0.431052 0.454868 0.250000
O O11 0.461591 0.374896 0.472943
O O12 0.013193 0.573506 0.250000
O O13 0.499573 0.750000 0.500000
O O14 0.453388 0.693073 0.750000
#
# Coordination Sequence:
#
# PCOD8231155 Si02
#       5
#     8   8   8   8   8
#     4  10  19  32  51  74 100 129 164 204 246 292
#     4   9  18  33  51  71  98 129 160 198 245 293
#     4  10  21  35  53  78 104 133 170 211 255 303
#     4   9  18  32  50  72  97 126 160 199 244 291
#     4  10  20  34  52  75 103 135 171 207 250 302
#
# _framework density 17.935514000000001
#
# number of rings (size 3 to 8) (size 9 to 14) (size 15 to 20)
#    0.000    2.400    0.000    3.600    0.000    5.600 
#    0.000    5.000    0.000    4.800    0.000    0.000 
#    0.000    0.000    0.000    0.000    0.000    0.000 
#
# Total GULP energy -495799.137867 kJ/mol
# GULP energy per Si atom -12394.978447 kJ/mol
# Density = 1.789469 g / cm^3
# Si number density = 17.935514 Si / 1000 Ang^3
#
#
#
# Elastic Constant Matrix: (Units=GPa)
#
#
# Indices 1 2 3 4 5 6 
#
# 1 158.4050 79.7091 48.4080 0.0000 0.0000 0.0000
# 2 79.7091 102.6089 46.3443 0.0000 0.0000 0.0000
# 3 48.4080 46.3443 56.5719 0.0000 0.0000 0.0000
# 4 0.0000 0.0000 0.0000 27.2923 0.0000 0.0000
# 5 0.0000 0.0000 0.0000 0.0000 29.1691 0.0000
# 6 0.0000 0.0000 0.0000 0.0000 0.0000 31.3648
#
#
#
# Elastic Compliance Matrix: (Units=1/GPa)
#
#
# Indices 1 2 3 4 5 6 
#
# 1 0.010850 -0.006723 -0.003777 0.000000 0.000000 0.000000
# 2 -0.006723 0.019635 -0.010333 0.000000 0.000000 0.000000
# 3 -0.003777 -0.010333 0.029373 0.000000 0.000000 0.000000
# 4 0.000000 0.000000 0.000000 0.036640 0.000000 0.000000
# 5 0.000000 0.000000 0.000000 0.000000 0.034283 0.000000
# 6 0.000000 0.000000 0.000000 0.000000 0.000000 0.031883
#
#
# Mechanical properties :
#
#
# Convention : Reuss Voigt Hill
#
# Bulk Modulus (GPa) = 54.96454 74.05651 64.51053
# Shear Modulus (GPa) = 23.76508 27.10690 25.43599
#
# Velocity S-wave (km/s) = 3.64404 3.89183 3.76997
# Velocity P-wave (km/s) = 6.95827 7.84699 7.41596
#
# Compressibility (1/GPa) = 0.01819355
#
# Stress axis : x y z
#
# Youngs Moduli (GPa) = 92.16627 50.92985 34.04476
#
# Poissons Ratio (x) = 0.34238 0.12859
# Poissons Ratio (y) = 0.61960 0.35177
# Poissons Ratio (z) = 0.34811 0.52624
#
# Static dielectric constant tensor:
#      x y z
#    x 3.460590 0.000000 0.000000 
#    y 0.000000 3.394290 0.000000 
#    z 0.000000 0.000000 3.342840 
# 
# 
# High freq. dielectric constant tensor:
#      x y z
#    x 1.695780 0.000000 0.000000 
#    y 0.000000 1.691400 0.000000 
#    z 0.000000 0.000000 1.694680 
# 
# From -- ./inp_files/2868.got.cif
#   From: 2010.03.12/outbox.cif.g09.slc.cpg/sg57_2_cif.got.tgz:2868.got - 2010.04.16 15:48:40.
