data_PCOD8231034
_publ_section_title
;
Structure prediction by ZEFSAII (Michael W. Deem and Ramdas Pophale) SiO2 
 PCOD8231034
Probable space group: P B C M
;
_chemical_formula_sum "Si O2"
_cell_formula_units_Z 56
_cell_length_a 21.983028
_cell_length_b 14.322498
_cell_length_c 9.103753
_cell_angle_alpha 90.000000
_cell_angle_beta 90.000000
_cell_angle_gamma 90.000000
_cell_volume 2866.333698
_symmetry_space_group_name_H-M "P B C M"
_symmetry_group_IT_number 57
_symmetry_cell_setting 'orthorhombic'
loop_
_space_group_symop_operation_xyz
x,y,z
-x,-y,1/2+z
x,1/2-y,-z
-x,1/2+y,1/2-z
-x,-y,-z
x,y,1/2-z
-x,1/2+y,z
x,1/2-y,1/2+z
loop_
_atom_site_type_symbol
_atom_site_label
_atom_site_fract_x
_atom_site_fract_y
_atom_site_fract_z
Si Si1 0.104997 0.660157 0.581369
Si Si2 0.487307 0.095114 0.580092
Si Si3 0.747376 0.650625 0.076973
Si Si4 0.644128 0.957011 0.417429
Si Si5 0.965559 0.843014 0.077180
Si Si6 0.596773 0.162427 0.423072
Si Si7 0.868657 0.957233 0.920887
O O1 0.133168 0.750000 0.500000
O O2 0.107272 0.687114 0.750000
O O3 0.143907 0.567055 0.546931
O O4 0.035508 0.641014 0.532484
O O5 0.507238 0.090130 0.750000
O O6 0.414642 0.111136 0.567426
O O7 0.528800 0.169084 0.493860
O O8 0.500000 0.000000 0.500000
O O9 0.742385 0.665609 0.250000
O O10 0.810650 0.602861 0.031405
O O11 0.741349 0.750000 0.000000
O O12 0.694640 0.580913 0.026869
O O13 0.668062 0.954014 0.250000
O O14 0.629227 0.064404 0.461147
O O15 0.956000 0.834028 0.250000
O O16 0.940016 0.750000 0.000000
O O17 0.926697 0.928964 0.016667
O O18 0.632319 0.250000 0.500000
O O19 0.591890 0.177429 0.250000
O O20 0.884749 0.943225 0.750000
#
# Coordination Sequence:
#
# PCOD8231034 Si02
#       7
#     8   8   8   8   8   8   8
#     4   9  19  35  54  79 111 141 175 217 263 318
#     4   9  17  31  52  78 108 141 176 218 266 316
#     4  11  24  40  59  79 103 138 179 223 270 317
#     4   9  20  38  57  79 109 143 182 225 268 315
#     4  10  19  31  52  81 110 143 177 215 265 319
#     4  10  20  34  55  84 115 147 181 220 267 322
#     4  10  21  37  55  78 108 141 179 224 267 313
#
# _framework density 19.537153
#
# number of rings (size 3 to 8) (size 9 to 14) (size 15 to 20)
#    0.000    2.286    0.000    3.429    0.000    7.429 
#    0.000    0.714    0.000    3.429    0.000    0.000 
#    0.000    0.000    0.000    0.000    0.000    0.000 
#
# Total GULP energy -694183.284203 kJ/mol
# GULP energy per Si atom -12396.130075 kJ/mol
# Density = 1.949269 g / cm^3
# Si number density = 19.537153 Si / 1000 Ang^3
#
#
#
# Elastic Constant Matrix: (Units=GPa)
#
#
# Indices 1 2 3 4 5 6 
#
# 1 54.4666 38.2918 36.4569 0.0000 0.0000 0.0000
# 2 38.2918 126.9232 51.2617 0.0000 0.0000 0.0000
# 3 36.4569 51.2617 89.0442 0.0000 0.0000 0.0000
# 4 0.0000 0.0000 0.0000 38.0870 0.0000 0.0000
# 5 0.0000 0.0000 0.0000 0.0000 23.0211 0.0000
# 6 0.0000 0.0000 0.0000 0.0000 0.0000 24.4732
#
#
#
# Elastic Compliance Matrix: (Units=1/GPa)
#
#
# Indices 1 2 3 4 5 6 
#
# 1 0.027423 -0.004871 -0.008423 0.000000 0.000000 0.000000
# 2 -0.004871 0.011131 -0.004414 0.000000 0.000000 0.000000
# 3 -0.008423 -0.004414 0.017220 0.000000 0.000000 0.000000
# 4 0.000000 0.000000 0.000000 0.026256 0.000000 0.000000
# 5 0.000000 0.000000 0.000000 0.000000 0.043438 0.000000
# 6 0.000000 0.000000 0.000000 0.000000 0.000000 0.040861
#
#
# Mechanical properties :
#
#
# Convention : Reuss Voigt Hill
#
# Bulk Modulus (GPa) = 49.12207 58.05053 53.58630
# Shear Modulus (GPa) = 23.97734 26.74449 25.36092
#
# Velocity S-wave (km/s) = 3.50704 3.70388 3.60681
# Velocity P-wave (km/s) = 6.44954 6.93319 6.69573
#
# Compressibility (1/GPa) = 0.02035745
#
# Stress axis : x y z
#
# Youngs Moduli (GPa) = 36.46636 89.83968 58.07244
#
# Poissons Ratio (x) = 0.43763 0.48915
# Poissons Ratio (y) = 0.17764 0.25631
# Poissons Ratio (z) = 0.30716 0.39651
#
# Static dielectric constant tensor:
#      x y z
#    x 3.474680 0.000000 0.000000 
#    y 0.000000 3.756080 0.000000 
#    z 0.000000 0.000000 4.696620 
# 
# 
# High freq. dielectric constant tensor:
#      x y z
#    x 1.733350 0.000000 0.000000 
#    y 0.000000 1.771170 0.000000 
#    z 0.000000 0.000000 1.766850 
# 
# From -- ./inp_files/8128.got.cif
#   From: 2010.03.12/outbox.cif.g09.slc.cpg/sg57_5_cif.got.tgz:8128.got - 2010.04.16 15:48:40.
