data_PCOD8231735
_publ_section_title
;
Structure prediction by ZEFSAII (Michael W. Deem and Ramdas Pophale) SiO2 
 PCOD8231735
Probable space group: P B C M
;
_chemical_formula_sum "Si O2"
_cell_formula_units_Z 56
_cell_length_a 21.394303
_cell_length_b 14.745434
_cell_length_c 9.011350
_cell_angle_alpha 90.000000
_cell_angle_beta 90.000000
_cell_angle_gamma 90.000000
_cell_volume 2842.795111
_symmetry_space_group_name_H-M "P B C M"
_symmetry_group_IT_number 57
_symmetry_cell_setting 'orthorhombic'
loop_
_space_group_symop_operation_xyz
x,y,z
-x,-y,1/2+z
x,1/2-y,-z
-x,1/2+y,1/2-z
-x,-y,-z
x,y,1/2-z
-x,1/2+y,z
x,1/2-y,1/2+z
loop_
_atom_site_type_symbol
_atom_site_label
_atom_site_fract_x
_atom_site_fract_y
_atom_site_fract_z
Si Si1 0.912596 0.998453 0.421150
Si Si2 0.989481 0.849536 0.925520
Si Si3 0.699425 0.841378 0.574768
Si Si4 0.768782 0.996575 0.421402
Si Si5 0.441799 0.888729 0.082766
Si Si6 0.436725 0.396286 0.917502
Si Si7 0.317461 0.662085 0.424118
O O1 0.926127 0.974984 0.250000
O O2 0.931117 0.909085 0.515245
O O3 0.840534 0.021073 0.450490
O O4 0.949575 0.090075 0.467258
O O5 0.982581 0.835109 0.750000
O O6 0.993104 0.750000 0.000000
O O7 0.722578 0.750000 0.500000
O O8 0.700294 0.832978 0.750000
O O9 0.749860 0.914464 0.525649
O O10 0.629751 0.864738 0.516821
O O11 0.756511 0.971379 0.250000
O O12 0.726272 0.079901 0.472555
O O13 0.434057 0.852115 0.250000
O O14 0.438100 0.996120 0.078145
O O15 0.508536 0.855157 0.019574
O O16 0.387898 0.848977 0.980656
O O17 0.446332 0.361164 0.750000
O O18 0.287199 0.750000 0.500000
O O19 0.319002 0.675418 0.250000
#
# Coordination Sequence:
#
# PCOD8231735 Si02
#       7
#     8   8   8   8   8   8   8
#     4   9  20  39  61  87 119 155 196 236 280 332
#     4  10  20  36  61  92 124 156 191 234 281 330
#     4  11  23  39  59  84 114 149 192 239 290 348
#     4  10  22  41  62  84 115 154 194 239 284 333
#     4  10  19  34  57  82 109 144 187 237 292 347
#     4   9  19  35  55  80 110 145 186 235 292 349
#     4  11  23  38  58  83 113 149 191 237 290 347
#
# _framework density 19.698922
#
# number of rings (size 3 to 8) (size 9 to 14) (size 15 to 20)
#    0.000    2.000    1.429    1.714    0.000    5.143 
#    0.000    1.429    0.000    0.000    0.000    0.000 
#    0.000    0.000    0.000    0.000    0.000    0.000 
#
# Total GULP energy -694490.484107 kJ/mol
# GULP energy per Si atom -12401.615788 kJ/mol
# Density = 1.965409 g / cm^3
# Si number density = 19.698922 Si / 1000 Ang^3
#
#
#
# Elastic Constant Matrix: (Units=GPa)
#
#
# Indices 1 2 3 4 5 6 
#
# 1 86.6864 36.0028 26.4653 0.0000 0.0000 0.0000
# 2 36.0028 106.4691 46.5947 0.0000 0.0000 0.0000
# 3 26.4653 46.5947 76.1760 0.0000 0.0000 0.0000
# 4 0.0000 0.0000 0.0000 34.1523 0.0000 0.0000
# 5 0.0000 0.0000 0.0000 0.0000 29.3466 0.0000
# 6 0.0000 0.0000 0.0000 0.0000 0.0000 -31.5644
#
#
#
# Elastic Compliance Matrix: (Units=1/GPa)
#
#
# Indices 1 2 3 4 5 6 
#
# 1 0.013801 -0.003507 -0.002650 0.000000 0.000000 0.000000
# 2 -0.003507 0.013717 -0.007172 0.000000 0.000000 0.000000
# 3 -0.002650 -0.007172 0.018435 0.000000 0.000000 0.000000
# 4 0.000000 0.000000 0.000000 0.029281 0.000000 0.000000
# 5 0.000000 0.000000 0.000000 0.000000 0.034075 0.000000
# 6 0.000000 0.000000 0.000000 0.000000 0.000000 -0.031681
#
#
# Mechanical properties :
#
#
# Convention : Reuss Voigt Hill
#
# Bulk Modulus (GPa) = 51.82480 54.16189 52.99335
# Shear Modulus (GPa) = 45.16000 17.07151 31.11575
#
# Velocity S-wave (km/s) = 4.79321 2.94704 3.97869
# Velocity P-wave (km/s) = 7.54975 6.25576 6.93301
#
# Compressibility (1/GPa) = 0.01929578
#
# Stress axis : x y z
#
# Youngs Moduli (GPa) = 72.45613 72.90183 54.24531
#
# Poissons Ratio (x) = 0.25570 0.14372
# Poissons Ratio (y) = 0.25414 0.38903
# Poissons Ratio (z) = 0.19197 0.52284
#
# Static dielectric constant tensor:
#      x y z
#    x 3.595590 0.000000 0.000000 
#    y 0.000000 3.721230 0.000000 
#    z 0.000000 0.000000 3.656390 
# 
# 
# High freq. dielectric constant tensor:
#      x y z
#    x 1.763710 0.000000 0.000000 
#    y 0.000000 1.771590 0.000000 
#    z 0.000000 0.000000 1.771650 
# 
# From -- ./inp_files/8176.got.cif
#   From: 2010.03.12/outbox.cif.g09.slc.cpg/sg57_5_cif.got.tgz:8176.got - 2010.04.16 15:48:40.
