data_PCOD8231624
_publ_section_title
;
Structure prediction by ZEFSAII (Michael W. Deem and Ramdas Pophale) SiO2 
 PCOD8231624
Probable space group: P B C M
;
_chemical_formula_sum "Si O2"
_cell_formula_units_Z 64
_cell_length_a 21.504618
_cell_length_b 19.451007
_cell_length_c 8.942254
_cell_angle_alpha 90.000000
_cell_angle_beta 90.000000
_cell_angle_gamma 90.000000
_cell_volume 3740.423906
_symmetry_space_group_name_H-M "P B C M"
_symmetry_group_IT_number 57
_symmetry_cell_setting 'orthorhombic'
loop_
_space_group_symop_operation_xyz
x,y,z
-x,-y,1/2+z
x,1/2-y,-z
-x,1/2+y,1/2-z
-x,-y,-z
x,y,1/2-z
-x,1/2+y,z
x,1/2-y,1/2+z
loop_
_atom_site_type_symbol
_atom_site_label
_atom_site_fract_x
_atom_site_fract_y
_atom_site_fract_z
Si Si1 0.624242 0.178600 0.072764
Si Si2 0.944503 0.957446 0.574406
Si Si3 0.177581 0.543835 0.576148
Si Si4 0.514721 0.106310 0.581762
Si Si5 0.693959 0.459268 0.925657
Si Si6 0.411667 0.035123 0.417696
Si Si7 0.116106 0.682579 0.924469
Si Si8 0.973285 0.680120 0.572870
O O1 0.620537 0.187214 0.250000
O O2 0.671926 0.117554 0.026137
O O3 0.647832 0.250000 0.000000
O O4 0.555778 0.160687 0.010692
O O5 0.958778 0.952306 0.750000
O O6 0.936952 0.882998 0.500407
O O7 0.878629 0.992573 0.543476
O O8 0.000000 0.000000 0.500000
O O9 0.195987 0.543618 0.750000
O O10 0.236681 0.524245 0.478292
O O11 0.156681 0.618918 0.521773
O O12 0.505101 0.134437 0.750000
O O13 0.448003 0.096668 0.501848
O O14 0.547228 0.032895 0.585655
O O15 0.688610 0.467309 0.750000
O O16 0.652008 0.518681 0.997497
O O17 0.396614 0.059956 0.250000
O O18 0.119851 0.693381 0.750000
O O19 0.045092 0.670493 0.973071
O O20 0.144693 0.750000 0.000000
O O21 0.946979 0.750000 0.500000
O O22 0.962980 0.681221 0.750000
#
# Coordination Sequence:
#
# PCOD8231624 Si02
#       8
#     8   8   8   8   8   8   8   8
#     4  10  20  33  48  69 100 136 174 211 247 292
#     4  11  21  35  54  77 104 135 170 218 273 324
#     4  10  21  36  50  69 100 135 174 216 264 317
#     4   9  16  27  46  71  96 123 158 200 242 283
#     4  10  21  34  48  69  96 130 173 213 251 299
#     4   9  16  28  47  69  94 124 156 196 246 289
#     4   9  18  32  47  67  95 128 165 206 250 304
#     4  10  19  34  53  77 103 130 164 205 258 318
#
# _framework density 17.110361000000001
#
# number of rings (size 3 to 8) (size 9 to 14) (size 15 to 20)
#    0.000    2.250    1.250    2.250    0.000    7.000 
#    0.000    2.500    0.000    0.000    0.000    0.875 
#    0.000    4.000    0.000    0.000    0.000    0.000 
#
# Total GULP energy -793632.407140 kJ/mol
# GULP energy per Si atom -12400.506362 kJ/mol
# Density = 1.707142 g / cm^3
# Si number density = 17.110361 Si / 1000 Ang^3
#
#
#
# Elastic Constant Matrix: (Units=GPa)
#
#
# Indices 1 2 3 4 5 6 
#
# 1 87.5439 39.5533 47.3230 0.0000 0.0000 0.0000
# 2 39.5533 68.1823 36.1764 0.0000 0.0000 0.0000
# 3 47.3230 36.1764 95.0289 0.0000 0.0000 0.0000
# 4 0.0000 0.0000 0.0000 30.2235 0.0000 0.0000
# 5 0.0000 0.0000 0.0000 0.0000 28.1906 0.0000
# 6 0.0000 0.0000 0.0000 0.0000 0.0000 -97.3000
#
#
#
# Elastic Compliance Matrix: (Units=1/GPa)
#
#
# Indices 1 2 3 4 5 6 
#
# 1 0.018034 -0.007138 -0.006263 0.000000 0.000000 0.000000
# 2 -0.007138 0.021205 -0.004517 0.000000 0.000000 0.000000
# 3 -0.006263 -0.004517 0.015362 0.000000 0.000000 0.000000
# 4 0.000000 0.000000 0.000000 0.033087 0.000000 0.000000
# 5 0.000000 0.000000 0.000000 0.000000 0.035473 0.000000
# 6 0.000000 0.000000 0.000000 0.000000 0.000000 -0.010277
#
#
# Mechanical properties :
#
#
# Convention : Reuss Voigt Hill
#
# Bulk Modulus (GPa) = 53.29889 55.20671 54.25280
# Shear Modulus (GPa) = 32.26353 0.73632 16.49992
#
# Velocity S-wave (km/s) = 4.34708 0.65671 3.10872
# Velocity P-wave (km/s) = 7.51091 5.73674 6.68296
#
# Compressibility (1/GPa) = 0.01876212
#
# Stress axis : x y z
#
# Youngs Moduli (GPa) = 55.45209 47.15963 65.09697
#
# Poissons Ratio (x) = 0.33665 0.40770
# Poissons Ratio (y) = 0.39584 0.29407
# Poissons Ratio (z) = 0.34729 0.21304
#
# Static dielectric constant tensor:
#      x y z
#    x 3.041420 0.000000 0.000000 
#    y 0.000000 3.196480 0.000000 
#    z 0.000000 0.000000 3.310930 
# 
# 
# High freq. dielectric constant tensor:
#      x y z
#    x 1.637680 0.000000 0.000000 
#    y 0.000000 1.640380 0.000000 
#    z 0.000000 0.000000 1.675090 
# 
# From -- ./inp_files/8777.got.cif
#   From: 2010.03.12/outbox.cif.g09.slc.cpg/sg57_5_cif.got.tgz:8777.got - 2010.04.16 15:48:40.
