data_PCOD8231198
_publ_section_title
;
Structure prediction by ZEFSAII (Michael W. Deem and Ramdas Pophale) SiO2 
 PCOD8231198
Probable space group: P B C M
;
_chemical_formula_sum "Si O2"
_cell_formula_units_Z 48
_cell_length_a 29.212922
_cell_length_b 9.167515
_cell_length_c 9.563379
_cell_angle_alpha 90.000000
_cell_angle_beta 90.000000
_cell_angle_gamma 90.000000
_cell_volume 2561.167580
_symmetry_space_group_name_H-M "P B C M"
_symmetry_group_IT_number 57
_symmetry_cell_setting 'orthorhombic'
loop_
_space_group_symop_operation_xyz
x,y,z
-x,-y,1/2+z
x,1/2-y,-z
-x,1/2+y,1/2-z
-x,-y,-z
x,y,1/2-z
-x,1/2+y,z
x,1/2-y,1/2+z
loop_
_atom_site_type_symbol
_atom_site_label
_atom_site_fract_x
_atom_site_fract_y
_atom_site_fract_z
Si Si1 0.034732 0.599076 0.915980
Si Si2 0.766768 0.398737 0.413239
Si Si3 0.604201 0.085218 0.523434
Si Si4 0.532602 0.351099 0.250000
Si Si5 0.312147 0.390887 0.907334
Si Si6 0.866197 0.388823 0.406578
Si Si7 0.442426 0.522480 0.250000
O O1 0.021607 0.617549 0.750000
O O2 0.085791 0.524204 0.928649
O O3 0.034542 0.750000 0.000000
O O4 0.000000 0.500000 0.000000
O O5 0.761104 0.250000 0.500000
O O6 0.757475 0.363338 0.250000
O O7 0.730715 0.517845 0.468573
O O8 0.817808 0.470858 0.435684
O O9 0.622375 0.250000 0.500000
O O10 0.558157 0.087528 0.614531
O O11 0.591180 0.004784 0.380704
O O12 0.643669 0.994238 0.597034
O O13 0.479894 0.396068 0.250000
O O14 0.531893 0.176781 0.250000
O O15 0.301687 0.339014 0.750000
O O16 0.321064 0.250000 0.000000
O O17 0.867623 0.250000 0.500000
O O18 0.865307 0.327958 0.250000
#
# Coordination Sequence:
#
# PCOD8231198 Si02
#       7
#     8   8   8   4   8   8   4
#     4  10  19  32  51  77 108 145 185 230 276 328
#     4   9  18  35  58  83 107 137 176 222 270 323
#     4  10  21  39  59  82 109 144 182 220 260 309
#     4  10  20  38  56  84 114 140 178 216 261 308
#     4  11  24  39  56  80 111 142 177 221 268 318
#     4   8  15  29  51  76 104 136 177 223 269 318
#     4  10  22  34  60  84 110 144 174 216 261 314
#
# _framework density 18.741453
#
# number of rings (size 3 to 8) (size 9 to 14) (size 15 to 20)
#    0.000    2.333    0.833    1.500    1.167    2.667 
#    0.000    0.833    0.000    2.000    0.000    0.000 
#    0.000    0.000    0.000    0.000    0.000    0.000 
#
# Total GULP energy -594740.983509 kJ/mol
# GULP energy per Si atom -12390.437156 kJ/mol
# Density = 1.869880 g / cm^3
# Si number density = 18.741453 Si / 1000 Ang^3
#
#
#
# Elastic Constant Matrix: (Units=GPa)
#
#
# Indices 1 2 3 4 5 6 
#
# 1 103.4378 36.4735 20.2633 0.0000 0.0000 0.0000
# 2 36.4735 60.0405 19.4273 0.0000 0.0000 0.0000
# 3 20.2633 19.4273 84.2076 0.0000 0.0000 0.0000
# 4 0.0000 0.0000 0.0000 25.3083 0.0000 0.0000
# 5 0.0000 0.0000 0.0000 0.0000 95.1158 0.0000
# 6 0.0000 0.0000 0.0000 0.0000 0.0000 25.8998
#
#
#
# Elastic Compliance Matrix: (Units=1/GPa)
#
#
# Indices 1 2 3 4 5 6 
#
# 1 0.012444 -0.007122 -0.001351 0.000000 0.000000 0.000000
# 2 -0.007122 0.022075 -0.003379 0.000000 0.000000 0.000000
# 3 -0.001351 -0.003379 0.012980 0.000000 0.000000 0.000000
# 4 0.000000 0.000000 0.000000 0.039513 0.000000 0.000000
# 5 0.000000 0.000000 0.000000 0.000000 0.010513 0.000000
# 6 0.000000 0.000000 0.000000 0.000000 0.000000 0.038610
#
#
# Mechanical properties :
#
#
# Convention : Reuss Voigt Hill
#
# Bulk Modulus (GPa) = 42.02696 44.44601 43.23649
# Shear Modulus (GPa) = 29.80233 40.69957 35.25095
#
# Velocity S-wave (km/s) = 3.99204 4.66513 4.34165
# Velocity P-wave (km/s) = 6.61224 7.26532 6.94646
#
# Compressibility (1/GPa) = 0.02379425
#
# Stress axis : x y z
#
# Youngs Moduli (GPa) = 80.36192 45.29941 77.04060
#
# Poissons Ratio (x) = 0.32263 0.10410
# Poissons Ratio (y) = 0.57234 0.26033
# Poissons Ratio (z) = 0.10859 0.15307
#
# Static dielectric constant tensor:
#      x y z
#    x 3.977480 0.000000 0.000000 
#    y 0.000000 1.934260 0.000000 
#    z 0.000000 0.000000 3.637100 
# 
# 
# High freq. dielectric constant tensor:
#      x y z
#    x 1.745520 0.000000 0.000000 
#    y 0.000000 1.685870 0.000000 
#    z 0.000000 0.000000 1.743470 
# 
# From -- ./inp_files/10120.got.cif
#   From: 2010.03.12/outbox.cif.g09.slc.cpg/sg57_6_cif.got.tgz:10120.got - 2010.04.16 15:48:40.
