data_PCOD8231025
_publ_section_title
;
Structure prediction by ZEFSAII (Michael W. Deem and Ramdas Pophale) SiO2 
 PCOD8231025
Probable space group: P B C M
;
_chemical_formula_sum "Si O2"
_cell_formula_units_Z 64
_cell_length_a 17.603626
_cell_length_b 22.667546
_cell_length_c 8.923435
_cell_angle_alpha 90.000000
_cell_angle_beta 90.000000
_cell_angle_gamma 90.000000
_cell_volume 3560.727210
_symmetry_space_group_name_H-M "P B C M"
_symmetry_group_IT_number 57
_symmetry_cell_setting 'orthorhombic'
loop_
_space_group_symop_operation_xyz
x,y,z
-x,-y,1/2+z
x,1/2-y,-z
-x,1/2+y,1/2-z
-x,-y,-z
x,y,1/2-z
-x,1/2+y,z
x,1/2-y,1/2+z
loop_
_atom_site_type_symbol
_atom_site_label
_atom_site_fract_x
_atom_site_fract_y
_atom_site_fract_z
Si Si1 0.511397 0.939523 0.578550
Si Si2 0.074345 0.188992 0.071296
Si Si3 0.749223 0.309304 0.927584
Si Si4 0.348122 0.579569 0.426191
Si Si5 0.923675 0.480939 0.576186
Si Si6 0.821910 0.909599 0.074517
Si Si7 0.909864 0.350649 0.572484
Si Si8 0.675513 0.952389 0.573224
O O1 0.511724 0.956079 0.750000
O O2 0.436523 0.900111 0.542328
O O3 0.596172 0.916756 0.537206
O O4 0.500000 0.000000 0.500000
O O5 0.078070 0.192058 0.250000
O O6 0.988650 0.176569 0.011631
O O7 0.102388 0.250000 0.000000
O O8 0.130114 0.138490 0.014485
O O9 0.742766 0.304443 0.750000
O O10 0.703036 0.366431 0.984953
O O11 0.836649 0.314552 0.983917
O O12 0.714735 0.250000 0.000000
O O13 0.333525 0.568068 0.250000
O O14 0.326503 0.519530 0.512203
O O15 0.942059 0.476885 0.750000
O O16 0.856698 0.526265 0.541839
O O17 0.899520 0.417313 0.512615
O O18 0.000000 0.500000 0.500000
O O19 0.821678 0.893822 0.250000
O O20 0.737056 0.912249 0.010836
O O21 0.911594 0.350640 0.750000
O O22 0.693099 0.954577 0.750000
#
# Coordination Sequence:
#
# PCOD8231025 Si02
#       8
#     8   8   8   8   8   8   8   8
#     4   8  15  28  48  75 103 133 164 199 247 306
#     4  11  22  37  55  72  97 132 175 220 260 302
#     4  10  20  34  51  72 101 138 176 214 253 300
#     4   9  17  32  53  75 105 140 171 207 260 315
#     4  10  19  33  52  75 102 131 165 207 254 307
#     4  11  22  35  53  77 106 138 173 209 258 313
#     4   9  18  33  52  73 101 133 166 207 254 301
#     4  10  19  31  51  80 109 134 169 214 262 312
#
# _framework density 17.973856999999999
#
# number of rings (size 3 to 8) (size 9 to 14) (size 15 to 20)
#    0.000    2.250    1.250    2.250    0.000    3.500 
#    0.000    1.250    0.000    0.750    0.000    1.750 
#    0.000    0.000    0.000    0.000    0.000    0.000 
#
# Total GULP energy -793095.058311 kJ/mol
# GULP energy per Si atom -12392.110286 kJ/mol
# Density = 1.793295 g / cm^3
# Si number density = 17.973857 Si / 1000 Ang^3
#
#
#
# Elastic Constant Matrix: (Units=GPa)
#
#
# Indices 1 2 3 4 5 6 
#
# 1 130.2085 34.1643 37.4003 0.0000 0.0000 0.0000
# 2 34.1643 83.6385 28.7741 0.0000 0.0000 0.0000
# 3 37.4003 28.7741 50.7518 0.0000 0.0000 0.0000
# 4 0.0000 0.0000 0.0000 25.9660 0.0000 0.0000
# 5 0.0000 0.0000 0.0000 0.0000 23.9491 0.0000
# 6 0.0000 0.0000 0.0000 0.0000 0.0000 15.4169
#
#
#
# Elastic Compliance Matrix: (Units=1/GPa)
#
#
# Indices 1 2 3 4 5 6 
#
# 1 0.009985 -0.001922 -0.006268 0.000000 0.000000 0.000000
# 2 -0.001922 0.015223 -0.007215 0.000000 0.000000 0.000000
# 3 -0.006268 -0.007215 0.028413 0.000000 0.000000 0.000000
# 4 0.000000 0.000000 0.000000 0.038512 0.000000 0.000000
# 5 0.000000 0.000000 0.000000 0.000000 0.041755 0.000000
# 6 0.000000 0.000000 0.000000 0.000000 0.000000 0.064864
#
#
# Mechanical properties :
#
#
# Convention : Reuss Voigt Hill
#
# Bulk Modulus (GPa) = 43.83732 51.69735 47.76734
# Shear Modulus (GPa) = 21.08225 24.01706 22.54966
#
# Velocity S-wave (km/s) = 3.42854 3.65940 3.54585
# Velocity P-wave (km/s) = 6.33369 6.83227 6.58770
#
# Compressibility (1/GPa) = 0.02281161
#
# Stress axis : x y z
#
# Youngs Moduli (GPa) = 100.15241 65.68851 35.19463
#
# Poissons Ratio (x) = 0.12626 0.22061
# Poissons Ratio (y) = 0.19250 0.25391
# Poissons Ratio (z) = 0.62779 0.47392
#
# Static dielectric constant tensor:
#      x y z
#    x 3.627780 0.000000 0.000000 
#    y 0.000000 3.109970 0.000000 
#    z 0.000000 0.000000 3.196880 
# 
# 
# High freq. dielectric constant tensor:
#      x y z
#    x 1.708310 0.000000 0.000000 
#    y 0.000000 1.672320 0.000000 
#    z 0.000000 0.000000 1.688110 
# 
# From -- ./inp_files/7230.got.cif
#   From: 2010.03.12/outbox.cif.g09.slc.cpg/sg57_4_cif.got.tgz:7230.got - 2010.04.16 15:48:40.
