data_PCOD8231148
_publ_section_title
;
Structure prediction by ZEFSAII (Michael W. Deem and Ramdas Pophale) SiO2 
 PCOD8231148
Probable space group: P B C M
;
_chemical_formula_sum "Si O2"
_cell_formula_units_Z 64
_cell_length_a 20.483850
_cell_length_b 20.510542
_cell_length_c 9.060768
_cell_angle_alpha 90.000000
_cell_angle_beta 90.000000
_cell_angle_gamma 90.000000
_cell_volume 3806.744547
_symmetry_space_group_name_H-M "P B C M"
_symmetry_group_IT_number 57
_symmetry_cell_setting 'orthorhombic'
loop_
_space_group_symop_operation_xyz
x,y,z
-x,-y,1/2+z
x,1/2-y,-z
-x,1/2+y,1/2-z
-x,-y,-z
x,y,1/2-z
-x,1/2+y,z
x,1/2-y,1/2+z
loop_
_atom_site_type_symbol
_atom_site_label
_atom_site_fract_x
_atom_site_fract_y
_atom_site_fract_z
Si Si1 0.442700 0.460107 0.075220
Si Si2 0.684904 0.513504 0.413774
Si Si3 0.706533 0.834729 0.589012
Si Si4 0.175814 0.002683 0.075618
Si Si5 0.043123 0.554451 0.576239
Si Si6 0.581573 0.812807 0.078143
Si Si7 0.022502 0.187145 0.575879
Si Si8 0.849800 0.852989 0.922457
O O1 0.448138 0.465798 0.250000
O O2 0.446006 0.383552 0.025163
O O3 0.500000 0.500000 0.000000
O O4 0.375634 0.494782 0.024522
O O5 0.665753 0.486476 0.250000
O O6 0.704564 0.588075 0.399618
O O7 0.751455 0.479650 0.479223
O O8 0.685110 0.806348 0.750000
O O9 0.658491 0.808890 0.461862
O O10 0.780984 0.815547 0.551668
O O11 0.182684 0.008968 0.250000
O O12 0.154558 0.073319 0.014660
O O13 0.119406 0.951752 0.029073
O O14 0.034940 0.544579 0.750000
O O15 0.000000 0.500000 0.500000
O O16 0.019237 0.624997 0.524274
O O17 0.570842 0.804998 0.250000
O O18 0.546565 0.750000 0.000000
O O19 0.989225 0.250000 0.500000
O O20 0.022458 0.195740 0.750000
O O21 0.096516 0.183196 0.519191
O O22 0.869682 0.851718 0.750000
#
# Coordination Sequence:
#
# PCOD8231148 Si02
#       8
#     8   8   8   8   8   8   8   8
#     4  10  20  33  50  74 102 132 163 198 238 282
#     4   8  14  27  47  70  95 124 155 190 236 287
#     4   8  15  27  44  65  89 122 160 193 231 276
#     4   8  14  27  49  72  94 119 151 197 247 290
#     4  10  19  32  51  73  93 119 159 203 248 294
#     4  10  20  32  47  68  95 128 164 200 236 275
#     4  11  23  34  45  64  91 125 161 199 246 296
#     4   9  16  29  48  66  89 123 158 196 240 283
#
# _framework density 16.812266000000001
#
# number of rings (size 3 to 8) (size 9 to 14) (size 15 to 20)
#    0.000    2.750    1.250    2.625    0.000    3.000 
#    0.000    2.500    0.000    0.000    0.000    0.875 
#    0.000    2.000    0.000    0.000    0.000    0.000 
#
# Total GULP energy -793023.679141 kJ/mol
# GULP energy per Si atom -12390.994987 kJ/mol
# Density = 1.677400 g / cm^3
# Si number density = 16.812266 Si / 1000 Ang^3
#
#
#
# Elastic Constant Matrix: (Units=GPa)
#
#
# Indices 1 2 3 4 5 6 
#
# 1 107.5961 54.4193 35.1596 0.0000 0.0000 0.0000
# 2 54.4193 94.7894 38.3622 0.0000 0.0000 0.0000
# 3 35.1596 38.3622 57.6456 0.0000 0.0000 0.0000
# 4 0.0000 0.0000 0.0000 21.6699 0.0000 0.0000
# 5 0.0000 0.0000 0.0000 0.0000 21.7500 0.0000
# 6 0.0000 0.0000 0.0000 0.0000 0.0000 15.8291
#
#
#
# Elastic Compliance Matrix: (Units=1/GPa)
#
#
# Indices 1 2 3 4 5 6 
#
# 1 0.013839 -0.006199 -0.004316 0.000000 0.000000 0.000000
# 2 -0.006199 0.017215 -0.007675 0.000000 0.000000 0.000000
# 3 -0.004316 -0.007675 0.025088 0.000000 0.000000 0.000000
# 4 0.000000 0.000000 0.000000 0.046147 0.000000 0.000000
# 5 0.000000 0.000000 0.000000 0.000000 0.045977 0.000000
# 6 0.000000 0.000000 0.000000 0.000000 0.000000 0.063175
#
#
# Mechanical properties :
#
#
# Convention : Reuss Voigt Hill
#
# Bulk Modulus (GPa) = 50.60261 57.32373 53.96317
# Shear Modulus (GPa) = 19.65349 20.65580 20.15464
#
# Velocity S-wave (km/s) = 3.42277 3.50896 3.46613
# Velocity P-wave (km/s) = 6.76642 7.11249 6.94161
#
# Compressibility (1/GPa) = 0.01976183
#
# Stress axis : x y z
#
# Youngs Moduli (GPa) = 72.25710 58.08996 39.86020
#
# Poissons Ratio (x) = 0.36008 0.17204
# Poissons Ratio (y) = 0.44789 0.30594
# Poissons Ratio (z) = 0.31186 0.44586
#
# Static dielectric constant tensor:
#      x y z
#    x 3.316130 0.000000 0.000000 
#    y 0.000000 3.194610 0.000000 
#    z 0.000000 0.000000 3.086210 
# 
# 
# High freq. dielectric constant tensor:
#      x y z
#    x 1.633050 0.000000 0.000000 
#    y 0.000000 1.624390 0.000000 
#    z 0.000000 0.000000 1.639070 
# 
# From -- ./inp_files/8672.got.cif
#   From: 2010.03.12/outbox.cif.g09.slc.cpg/sg57_5_cif.got.tgz:8672.got - 2010.04.16 15:48:40.
