data_PCOD8231009
_publ_section_title
;
Structure prediction by ZEFSAII (Michael W. Deem and Ramdas Pophale) SiO2 
 PCOD8231009
Probable space group: P B C M
;
_chemical_formula_sum "Si O2"
_cell_formula_units_Z 56
_cell_length_a 21.092717
_cell_length_b 15.414325
_cell_length_c 8.750254
_cell_angle_alpha 90.000000
_cell_angle_beta 90.000000
_cell_angle_gamma 90.000000
_cell_volume 2844.970039
_symmetry_space_group_name_H-M "P B C M"
_symmetry_group_IT_number 57
_symmetry_cell_setting 'orthorhombic'
loop_
_space_group_symop_operation_xyz
x,y,z
-x,-y,1/2+z
x,1/2-y,-z
-x,1/2+y,1/2-z
-x,-y,-z
x,y,1/2-z
-x,1/2+y,z
x,1/2-y,1/2+z
loop_
_atom_site_type_symbol
_atom_site_label
_atom_site_fract_x
_atom_site_fract_y
_atom_site_fract_z
Si Si1 0.593900 0.663233 0.071070
Si Si2 0.135337 0.339191 0.429026
Si Si3 0.119138 0.662193 0.930790
Si Si4 0.993695 0.904840 0.931721
Si Si5 0.203674 0.983677 0.927590
Si Si6 0.470334 0.583288 0.427904
Si Si7 0.346152 0.505883 0.070473
O O1 0.603554 0.666738 0.250000
O O2 0.517999 0.660968 0.024752
O O3 0.623145 0.750000 0.000000
O O4 0.632785 0.581887 0.010461
O O5 0.163266 0.250000 0.500000
O O6 0.121624 0.327348 0.250000
O O7 0.185478 0.416262 0.458159
O O8 0.070764 0.360643 0.515791
O O9 0.112709 0.669512 0.750000
O O10 0.150298 0.750000 0.000000
O O11 0.050497 0.653881 0.007077
O O12 0.161152 0.578870 0.970505
O O13 0.996395 0.911003 0.750000
O O14 0.000000 0.000000 0.000000
O O15 0.193490 0.959947 0.750000
O O16 0.275887 0.968078 0.981868
O O17 0.500000 0.500000 0.500000
O O18 0.475184 0.569560 0.250000
O O19 0.395240 0.585415 0.473561
O O20 0.346346 0.487069 0.250000
#
# Coordination Sequence:
#
# PCOD8231009 Si02
#       7
#     8   8   8   8   8   8   8
#     4  10  19  31  50  79 111 144 182 230 279 335
#     4  11  23  39  59  85 119 156 196 242 293 351
#     4  12  25  42  65  89 117 154 196 245 297 351
#     4  12  23  39  63  91 120 151 191 241 299 355
#     4  10  22  40  61  85 118 157 198 243 292 349
#     4   8  15  29  50  74 101 134 175 218 268 321
#     4   9  18  35  57  79 107 146 185 230 282 337
#
# _framework density 19.683862999999999
#
# number of rings (size 3 to 8) (size 9 to 14) (size 15 to 20)
#    0.000    1.714    1.429    3.857    0.000    2.286 
#    0.000    2.143    0.000    1.714    0.000    0.000 
#    0.000    0.000    0.000    0.000    0.000    0.000 
#
# Total GULP energy -694019.350885 kJ/mol
# GULP energy per Si atom -12393.202694 kJ/mol
# Density = 1.963906 g / cm^3
# Si number density = 19.683863 Si / 1000 Ang^3
#
#
#
# Elastic Constant Matrix: (Units=GPa)
#
#
# Indices 1 2 3 4 5 6 
#
# 1 90.8401 3.6940 32.4215 0.0000 0.0000 0.0000
# 2 3.6940 73.1070 32.2212 0.0000 0.0000 0.0000
# 3 32.4215 32.2212 99.1447 0.0000 0.0000 0.0000
# 4 0.0000 0.0000 0.0000 29.9517 0.0000 0.0000
# 5 0.0000 0.0000 0.0000 0.0000 21.9802 0.0000
# 6 0.0000 0.0000 0.0000 0.0000 0.0000 14.1752
#
#
#
# Elastic Compliance Matrix: (Units=1/GPa)
#
#
# Indices 1 2 3 4 5 6 
#
# 1 0.012580 0.001374 -0.004561 0.000000 0.000000 0.000000
# 2 0.001374 0.016116 -0.005687 0.000000 0.000000 0.000000
# 3 -0.004561 -0.005687 0.013426 0.000000 0.000000 0.000000
# 4 0.000000 0.000000 0.000000 0.033387 0.000000 0.000000
# 5 0.000000 0.000000 0.000000 0.000000 0.045495 0.000000
# 6 0.000000 0.000000 0.000000 0.000000 0.000000 0.070546
#
#
# Mechanical properties :
#
#
# Convention : Reuss Voigt Hill
#
# Bulk Modulus (GPa) = 41.02487 44.41837 42.72162
# Shear Modulus (GPa) = 22.99685 26.20510 24.60098
#
# Velocity S-wave (km/s) = 3.42176 3.65266 3.53909
# Velocity P-wave (km/s) = 6.04139 6.35642 6.20091
#
# Compressibility (1/GPa) = 0.02437546
#
# Stress axis : x y z
#
# Youngs Moduli (GPa) = 79.49034 62.05187 74.48356
#
# Poissons Ratio (x) = -0.08528 0.33968
# Poissons Ratio (y) = -0.10925 0.42358
# Poissons Ratio (z) = 0.36252 0.35288
#
# Static dielectric constant tensor:
#      x y z
#    x 3.994240 0.000000 0.000000 
#    y 0.000000 3.899680 0.000000 
#    z 0.000000 0.000000 3.597660 
# 
# 
# High freq. dielectric constant tensor:
#      x y z
#    x 1.767230 0.000000 0.000000 
#    y 0.000000 1.759920 0.000000 
#    z 0.000000 0.000000 1.773340 
# 
# From -- ./inp_files/8130.got.cif
#   From: 2010.03.12/outbox.cif.g09.slc.cpg/sg57_5_cif.got.tgz:8130.got - 2010.04.16 15:48:40.
