data_PCOD8231201
_publ_section_title
;
Structure prediction by ZEFSAII (Michael W. Deem and Ramdas Pophale) SiO2 
 PCOD8231201
Probable space group: P B C M
;
_chemical_formula_sum "Si O2"
_cell_formula_units_Z 40
_cell_length_a 13.556326
_cell_length_b 18.192521
_cell_length_c 9.014514
_cell_angle_alpha 90.000000
_cell_angle_beta 90.000000
_cell_angle_gamma 90.000000
_cell_volume 2223.193206
_symmetry_space_group_name_H-M "P B C M"
_symmetry_group_IT_number 57
_symmetry_cell_setting 'orthorhombic'
loop_
_space_group_symop_operation_xyz
x,y,z
-x,-y,1/2+z
x,1/2-y,-z
-x,1/2+y,1/2-z
-x,-y,-z
x,y,1/2-z
-x,1/2+y,z
x,1/2-y,1/2+z
loop_
_atom_site_type_symbol
_atom_site_label
_atom_site_fract_x
_atom_site_fract_y
_atom_site_fract_z
Si Si1 0.177893 0.673830 0.075221
Si Si2 0.698205 0.969658 0.922090
Si Si3 0.587949 0.825727 0.575779
Si Si4 0.385410 0.605496 0.077231
Si Si5 0.905605 0.465126 0.425409
O O1 0.156484 0.676207 0.250000
O O2 0.291790 0.656267 0.040410
O O3 0.149585 0.750000 0.000000
O O4 0.108271 0.614132 0.998661
O O5 0.679659 0.983537 0.750000
O O6 0.670005 0.886567 0.966518
O O7 0.812022 0.983374 0.964435
O O8 0.625485 0.025983 0.003451
O O9 0.619359 0.750000 0.500000
O O10 0.583105 0.811784 0.750000
O O11 0.481777 0.853046 0.515115
O O12 0.397088 0.590397 0.250000
O O13 0.920706 0.456794 0.250000
O O14 0.000000 0.500000 0.500000
#
# Coordination Sequence:
#
# PCOD8231201 Si02
#       5
#     8   8   8   8   8
#     4  10  19  32  51  78 107 133 164 206 252 300
#     4   9  19  34  52  73  99 130 168 210 251 296
#     4  10  20  33  48  72 104 137 169 202 240 289
#     4   9  18  31  50  75 103 133 167 203 243 293
#     4  10  20  36  56  76  99 131 169 213 261 308
#
# _framework density 17.992139999999999
#
# number of rings (size 3 to 8) (size 9 to 14) (size 15 to 20)
#    0.000    2.400    0.000    2.400    0.000    3.200 
#    0.000    1.000    0.000    2.400    0.000    0.000 
#    0.000    0.000    0.000    0.000    0.000    0.000 
#
# Total GULP energy -496085.249264 kJ/mol
# GULP energy per Si atom -12402.131232 kJ/mol
# Density = 1.795119 g / cm^3
# Si number density = 17.992140 Si / 1000 Ang^3
#
#
#
# Elastic Constant Matrix: (Units=GPa)
#
#
# Indices 1 2 3 4 5 6 
#
# 1 96.0453 75.6264 42.1604 0.0000 0.0000 0.0000
# 2 75.6264 171.6525 65.1164 0.0000 0.0000 0.0000
# 3 42.1604 65.1164 69.8908 0.0000 0.0000 0.0000
# 4 0.0000 0.0000 0.0000 36.8166 0.0000 0.0000
# 5 0.0000 0.0000 0.0000 0.0000 24.5771 0.0000
# 6 0.0000 0.0000 0.0000 0.0000 0.0000 23.5233
#
#
#
# Elastic Compliance Matrix: (Units=1/GPa)
#
#
# Indices 1 2 3 4 5 6 
#
# 1 0.017033 -0.005578 -0.005078 0.000000 0.000000 0.000000
# 2 -0.005578 0.010837 -0.006732 0.000000 0.000000 0.000000
# 3 -0.005078 -0.006732 0.023643 0.000000 0.000000 0.000000
# 4 0.000000 0.000000 0.000000 0.027162 0.000000 0.000000
# 5 0.000000 0.000000 0.000000 0.000000 0.040688 0.000000
# 6 0.000000 0.000000 0.000000 0.000000 0.000000 0.042511
#
#
# Mechanical properties :
#
#
# Convention : Reuss Voigt Hill
#
# Bulk Modulus (GPa) = 59.74562 78.15498 68.95030
# Shear Modulus (GPa) = 24.72448 27.29575 26.01011
#
# Velocity S-wave (km/s) = 3.71102 3.89921 3.80628
# Velocity P-wave (km/s) = 7.18615 7.98777 7.59754
#
# Compressibility (1/GPa) = 0.01673763
#
# Stress axis : x y z
#
# Youngs Moduli (GPa) = 58.70984 92.27620 42.29566
#
# Poissons Ratio (x) = 0.51472 0.21477
# Poissons Ratio (y) = 0.32749 0.28473
# Poissons Ratio (z) = 0.29812 0.62119
#
# Static dielectric constant tensor:
#      x y z
#    x 3.365540 0.000000 0.000000 
#    y 0.000000 3.341080 0.000000 
#    z 0.000000 0.000000 4.130970 
# 
# 
# High freq. dielectric constant tensor:
#      x y z
#    x 1.685460 0.000000 0.000000 
#    y 0.000000 1.699870 0.000000 
#    z 0.000000 0.000000 1.699130 
# 
# From -- ./inp_files/2669.got.cif
#   From: 2010.03.12/outbox.cif.g09.slc.cpg/sg57_2_cif.got.tgz:2669.got - 2010.04.16 15:48:40.
