data_PCOD8231713
_publ_section_title
;
Structure prediction by ZEFSAII (Michael W. Deem and Ramdas Pophale) SiO2 
 PCOD8231713
Probable space group: P B C M
;
_chemical_formula_sum "Si O2"
_cell_formula_units_Z 64
_cell_length_a 20.878805
_cell_length_b 18.602357
_cell_length_c 8.793302
_cell_angle_alpha 90.000000
_cell_angle_beta 90.000000
_cell_angle_gamma 90.000000
_cell_volume 3415.274393
_symmetry_space_group_name_H-M "P B C M"
_symmetry_group_IT_number 57
_symmetry_cell_setting 'orthorhombic'
loop_
_space_group_symop_operation_xyz
x,y,z
-x,-y,1/2+z
x,1/2-y,-z
-x,1/2+y,1/2-z
-x,-y,-z
x,y,1/2-z
-x,1/2+y,z
x,1/2-y,1/2+z
loop_
_atom_site_type_symbol
_atom_site_label
_atom_site_fract_x
_atom_site_fract_y
_atom_site_fract_z
Si Si1 0.805216 0.029128 0.927842
Si Si2 0.509152 0.576522 0.073917
Si Si3 0.391159 0.678137 0.425343
Si Si4 0.255892 0.675454 0.929615
Si Si5 0.117206 0.326263 0.069873
Si Si6 0.061121 0.462602 0.929727
Si Si7 0.617560 0.672680 0.569577
Si Si8 0.749999 0.894500 0.428935
O O1 0.795062 0.019971 0.750000
O O2 0.790808 0.110615 0.980004
O O3 0.877548 0.010548 0.976256
O O4 0.755061 0.974667 0.004805
O O5 0.528773 0.570297 0.250000
O O6 0.441517 0.615212 0.054101
O O7 0.500000 0.500000 0.000000
O O8 0.563992 0.617712 0.984056
O O9 0.420553 0.750000 0.500000
O O10 0.375225 0.693450 0.250000
O O11 0.326315 0.656359 0.510435
O O12 0.258170 0.684054 0.750000
O O13 0.229892 0.750000 0.000000
O O14 0.109835 0.323957 0.250000
O O15 0.189260 0.346977 0.018996
O O16 0.098979 0.250000 0.000000
O O17 0.067611 0.383691 0.001866
O O18 0.053601 0.455532 0.750000
O O19 0.000000 0.500000 0.000000
O O20 0.603035 0.750000 0.500000
O O21 0.615964 0.678964 0.750000
O O22 0.686224 0.644268 0.509907
O O23 0.747375 0.902533 0.250000
#
# Coordination Sequence:
#
# PCOD8231713 Si02
#       8
#     8   8   8   8   8   8   8   8
#     4   9  20  36  56  82 112 145 183 228 276 327
#     4  11  25  41  57  79 108 144 185 232 282 333
#     4  10  21  37  57  79 103 137 179 225 275 328
#     4  10  20  35  56  83 109 140 179 225 278 329
#     4  10  19  34  56  84 115 149 188 230 277 329
#     4  10  20  37  58  82 114 151 190 231 275 327
#     4  11  23  39  58  83 113 147 185 228 279 335
#     4   9  20  35  55  83 114 146 183 227 276 332
#
# _framework density 18.739343000000002
#
# number of rings (size 3 to 8) (size 9 to 14) (size 15 to 20)
#    0.000    2.000    0.000    3.750    1.750    6.000 
#    0.000    0.625    0.000    1.500    0.000    0.000 
#    0.000    0.000    0.000    0.000    0.000    0.000 
#
# Total GULP energy -793800.236128 kJ/mol
# GULP energy per Si atom -12403.128689 kJ/mol
# Density = 1.869669 g / cm^3
# Si number density = 18.739343 Si / 1000 Ang^3
#
#
#
# Elastic Constant Matrix: (Units=GPa)
#
#
# Indices 1 2 3 4 5 6 
#
# 1 90.1803 75.5923 39.6894 0.0000 0.0000 0.0000
# 2 75.5923 171.9770 59.9871 0.0000 0.0000 0.0000
# 3 39.6894 59.9871 84.2005 0.0000 0.0000 0.0000
# 4 0.0000 0.0000 0.0000 35.2511 0.0000 0.0000
# 5 0.0000 0.0000 0.0000 0.0000 26.1669 0.0000
# 6 0.0000 0.0000 0.0000 0.0000 0.0000 29.9197
#
#
#
# Elastic Compliance Matrix: (Units=1/GPa)
#
#
# Indices 1 2 3 4 5 6 
#
# 1 0.018468 -0.006761 -0.003888 0.000000 0.000000 0.000000
# 2 -0.006761 0.010213 -0.004089 0.000000 0.000000 0.000000
# 3 -0.003888 -0.004089 0.016622 0.000000 0.000000 0.000000
# 4 0.000000 0.000000 0.000000 0.028368 0.000000 0.000000
# 5 0.000000 0.000000 0.000000 0.000000 0.038216 0.000000
# 6 0.000000 0.000000 0.000000 0.000000 0.000000 0.033423
#
#
# Mechanical properties :
#
#
# Convention : Reuss Voigt Hill
#
# Bulk Modulus (GPa) = 63.18659 77.43281 70.30970
# Shear Modulus (GPa) = 27.76827 29.67348 28.72087
#
# Velocity S-wave (km/s) = 3.85361 3.98362 3.91916
# Velocity P-wave (km/s) = 7.32068 7.91010 7.62109
#
# Compressibility (1/GPa) = 0.01582614
#
# Stress axis : x y z
#
# Youngs Moduli (GPa) = 54.14893 97.91568 60.16025
#
# Poissons Ratio (x) = 0.66203 0.23391
# Poissons Ratio (y) = 0.36611 0.24599
# Poissons Ratio (z) = 0.21054 0.40037
#
# Static dielectric constant tensor:
#      x y z
#    x 3.453180 0.000000 0.000000 
#    y 0.000000 3.472270 0.000000 
#    z 0.000000 0.000000 3.534760 
# 
# 
# High freq. dielectric constant tensor:
#      x y z
#    x 1.718570 0.000000 0.000000 
#    y 0.000000 1.738260 0.000000 
#    z 0.000000 0.000000 1.739130 
# 
# From -- ./inp_files/8565.got.cif
#   From: 2010.03.12/outbox.cif.g09.slc.cpg/sg57_5_cif.got.tgz:8565.got - 2010.04.16 15:48:40.
