data_PCOD8231227
_publ_section_title
;
Structure prediction by ZEFSAII (Michael W. Deem and Ramdas Pophale) SiO2 
 PCOD8231227
Probable space group: P B C M
;
_chemical_formula_sum "Si O2"
_cell_formula_units_Z 64
_cell_length_a 20.434157
_cell_length_b 20.477611
_cell_length_c 8.793971
_cell_angle_alpha 90.000000
_cell_angle_beta 90.000000
_cell_angle_gamma 90.000000
_cell_volume 3679.773129
_symmetry_space_group_name_H-M "P B C M"
_symmetry_group_IT_number 57
_symmetry_cell_setting 'orthorhombic'
loop_
_space_group_symop_operation_xyz
x,y,z
-x,-y,1/2+z
x,1/2-y,-z
-x,1/2+y,1/2-z
-x,-y,-z
x,y,1/2-z
-x,1/2+y,z
x,1/2-y,1/2+z
loop_
_atom_site_type_symbol
_atom_site_label
_atom_site_fract_x
_atom_site_fract_y
_atom_site_fract_z
Si Si1 0.785108 0.335398 0.418910
Si Si2 0.917243 0.314025 0.571952
Si Si3 0.057986 0.959300 0.571501
Si Si4 0.344548 0.643124 0.069993
Si Si5 0.670806 0.497579 0.069562
Si Si6 0.476846 0.685908 0.572180
Si Si7 0.548761 0.947637 0.427806
Si Si8 0.812464 0.486612 0.416841
O O1 0.790755 0.304336 0.250000
O O2 0.841386 0.307969 0.527842
O O3 0.716270 0.317858 0.495915
O O4 0.790376 0.412474 0.405282
O O5 0.953659 0.250000 0.500000
O O6 0.926685 0.310505 0.750000
O O7 0.944750 0.383992 0.510720
O O8 0.050142 0.960318 0.750000
O O9 0.126706 0.994582 0.530875
O O10 0.000000 0.000000 0.500000
O O11 0.337049 0.644130 0.250000
O O12 0.348000 0.569052 0.013471
O O13 0.409320 0.679421 0.018078
O O14 0.663560 0.487382 0.250000
O O15 0.745208 0.522394 0.029297
O O16 0.619661 0.550775 0.008295
O O17 0.511585 0.750000 0.500000
O O18 0.462614 0.694529 0.750000
O O19 0.523033 0.624642 0.540980
O O20 0.555286 0.963056 0.250000
O O21 0.500000 0.000000 0.500000
O O22 0.834816 0.511936 0.250000
#
# Coordination Sequence:
#
# PCOD8231227 Si02
#       8
#     8   8   8   8   8   8   8   8
#     4   9  17  30  47  67  96 132 169 209 248 291
#     4  10  20  33  49  72 100 134 175 213 250 297
#     4  10  20  33  52  77 106 139 174 211 252 304
#     4  11  20  31  49  71  98 133 171 211 255 301
#     4  10  19  32  52  77 104 133 170 214 258 304
#     4  11  24  39  52  70  98 131 170 215 264 318
#     4  11  22  35  55  78 102 132 171 216 263 314
#     4   8  16  30  48  72 102 133 165 206 252 297
#
# _framework density 17.392377
#
# number of rings (size 3 to 8) (size 9 to 14) (size 15 to 20)
#    0.000    2.000    1.250    4.125    0.000    7.000 
#    0.000    2.500    0.000    0.000    0.000    0.875 
#    0.000    6.000    0.000    0.000    0.000    0.000 
#
# Total GULP energy -793318.827416 kJ/mol
# GULP energy per Si atom -12395.606678 kJ/mol
# Density = 1.735279 g / cm^3
# Si number density = 17.392377 Si / 1000 Ang^3
#
#
#
# Elastic Constant Matrix: (Units=GPa)
#
#
# Indices 1 2 3 4 5 6 
#
# 1 105.6778 49.2357 41.4770 0.0000 0.0000 0.0000
# 2 49.2357 80.3194 35.9931 0.0000 0.0000 0.0000
# 3 41.4770 35.9931 86.6283 0.0000 0.0000 0.0000
# 4 0.0000 0.0000 0.0000 25.8417 0.0000 0.0000
# 5 0.0000 0.0000 0.0000 0.0000 30.3726 0.0000
# 6 0.0000 0.0000 0.0000 0.0000 0.0000 10.2455
#
#
#
# Elastic Compliance Matrix: (Units=1/GPa)
#
#
# Indices 1 2 3 4 5 6 
#
# 1 0.014255 -0.006979 -0.003925 0.000000 0.000000 0.000000
# 2 -0.006979 0.018716 -0.004435 0.000000 0.000000 0.000000
# 3 -0.003925 -0.004435 0.015266 0.000000 0.000000 0.000000
# 4 0.000000 0.000000 0.000000 0.038697 0.000000 0.000000
# 5 0.000000 0.000000 0.000000 0.000000 0.032924 0.000000
# 6 0.000000 0.000000 0.000000 0.000000 0.000000 0.097604
#
#
# Mechanical properties :
#
#
# Convention : Reuss Voigt Hill
#
# Bulk Modulus (GPa) = 56.95445 58.44858 57.70152
# Shear Modulus (GPa) = 19.68560 23.01993 21.35277
#
# Velocity S-wave (km/s) = 3.36795 3.64203 3.50767
# Velocity P-wave (km/s) = 6.92402 7.16691 7.04651
#
# Compressibility (1/GPa) = 0.01755789
#
# Stress axis : x y z
#
# Youngs Moduli (GPa) = 70.15055 53.43071 65.50691
#
# Poissons Ratio (x) = 0.37291 0.25714
# Poissons Ratio (y) = 0.48960 0.29050
# Poissons Ratio (z) = 0.27537 0.23694
#
# Static dielectric constant tensor:
#      x y z
#    x 3.304610 0.000000 0.000000 
#    y 0.000000 3.331960 0.000000 
#    z 0.000000 0.000000 3.371730 
# 
# 
# High freq. dielectric constant tensor:
#      x y z
#    x 1.654040 0.000000 0.000000 
#    y 0.000000 1.646870 0.000000 
#    z 0.000000 0.000000 1.687460 
# 
# From -- ./inp_files/8591.got.cif
#   From: 2010.03.12/outbox.cif.g09.slc.cpg/sg57_5_cif.got.tgz:8591.got - 2010.04.16 15:48:40.
