data_PCOD8231389
_publ_section_title
;
Structure prediction by ZEFSAII (Michael W. Deem and Ramdas Pophale) SiO2 
 PCOD8231389
Probable space group: P B C M
;
_chemical_formula_sum "Si O2"
_cell_formula_units_Z 64
_cell_length_a 25.454231
_cell_length_b 13.778807
_cell_length_c 8.821252
_cell_angle_alpha 90.000000
_cell_angle_beta 90.000000
_cell_angle_gamma 90.000000
_cell_volume 3093.868331
_symmetry_space_group_name_H-M "P B C M"
_symmetry_group_IT_number 57
_symmetry_cell_setting 'orthorhombic'
loop_
_space_group_symop_operation_xyz
x,y,z
-x,-y,1/2+z
x,1/2-y,-z
-x,1/2+y,1/2-z
-x,-y,-z
x,y,1/2-z
-x,1/2+y,z
x,1/2-y,1/2+z
loop_
_atom_site_type_symbol
_atom_site_label
_atom_site_fract_x
_atom_site_fract_y
_atom_site_fract_z
Si Si1 0.325861 0.355145 0.929501
Si Si2 0.810721 0.344224 0.926739
Si Si3 0.008619 0.348465 0.930474
Si Si4 0.122860 0.391381 0.585310
Si Si5 0.577129 0.952435 0.072176
Si Si6 0.520345 0.149328 0.072077
Si Si7 0.776838 0.559666 0.927270
Si Si8 0.911170 0.396818 0.085258
O O1 0.330167 0.346945 0.750000
O O2 0.336498 0.250000 0.000000
O O3 0.367848 0.432088 0.991876
O O4 0.269301 0.395493 0.974337
O O5 0.809493 0.329756 0.750000
O O6 0.782763 0.445788 0.970536
O O7 0.781353 0.250000 0.000000
O O8 0.871417 0.337423 0.979625
O O9 0.008231 0.356592 0.750000
O O10 0.068409 0.355126 0.991291
O O11 0.984236 0.250000 0.000000
O O12 0.966588 0.423477 0.001804
O O13 0.133371 0.340465 0.750000
O O14 0.171162 0.377182 0.469489
O O15 0.117490 0.503581 0.618222
O O16 0.581658 0.932251 0.250000
O O17 0.562558 0.064614 0.038980
O O18 0.534482 0.878992 0.004497
O O19 0.511120 0.163119 0.250000
O O20 0.541122 0.250000 0.000000
O O21 0.765426 0.573361 0.750000
O O22 0.920506 0.346018 0.250000
#
# Coordination Sequence:
#
# PCOD8231389 Si02
#       8
#     8   8   8   8   8   8   8   8
#     4  12  25  42  65  89 117 153 196 245 294 343
#     4  10  20  35  57  83 111 143 179 223 276 337
#     4  11  22  34  48  70 100 131 166 209 261 324
#     4   9  20  37  55  74  99 134 173 216 269 328
#     4  10  21  38  60  89 126 165 209 255 297 346
#     4  10  20  35  59  91 129 171 210 251 298 349
#     4  10  22  40  61  85 112 143 185 235 285 338
#     4  10  19  33  53  75 100 131 170 215 265 325
#
# _framework density 20.686077999999998
#
# number of rings (size 3 to 8) (size 9 to 14) (size 15 to 20)
#    0.000    1.750    0.000    4.500    0.000    5.000 
#    0.000    1.875    0.000    0.000    0.000    0.000 
#    0.000    0.000    0.000    0.000    0.000    0.000 
#
# Total GULP energy -793250.671868 kJ/mol
# GULP energy per Si atom -12394.541748 kJ/mol
# Density = 2.063900 g / cm^3
# Si number density = 20.686078 Si / 1000 Ang^3
#
#
#
# Elastic Constant Matrix: (Units=GPa)
#
#
# Indices 1 2 3 4 5 6 
#
# 1 110.2419 30.4946 52.4503 0.0000 0.0000 0.0000
# 2 30.4946 78.9857 45.3017 0.0000 0.0000 0.0000
# 3 52.4503 45.3017 128.3318 0.0000 0.0000 0.0000
# 4 0.0000 0.0000 0.0000 33.1070 0.0000 0.0000
# 5 0.0000 0.0000 0.0000 0.0000 49.3625 0.0000
# 6 0.0000 0.0000 0.0000 0.0000 0.0000 20.6303
#
#
#
# Elastic Compliance Matrix: (Units=1/GPa)
#
#
# Indices 1 2 3 4 5 6 
#
# 1 0.011557 -0.002198 -0.003948 0.000000 0.000000 0.000000
# 2 -0.002198 0.016292 -0.004853 0.000000 0.000000 0.000000
# 3 -0.003948 -0.004853 0.011119 0.000000 0.000000 0.000000
# 4 0.000000 0.000000 0.000000 0.030205 0.000000 0.000000
# 5 0.000000 0.000000 0.000000 0.000000 0.020258 0.000000
# 6 0.000000 0.000000 0.000000 0.000000 0.000000 0.048472
#
#
# Mechanical properties :
#
#
# Convention : Reuss Voigt Hill
#
# Bulk Modulus (GPa) = 58.92246 63.78363 61.35305
# Shear Modulus (GPa) = 30.20082 33.24081 31.72081
#
# Velocity S-wave (km/s) = 3.82509 4.01299 3.92016
# Velocity P-wave (km/s) = 6.93212 7.23693 7.08616
#
# Compressibility (1/GPa) = 0.01697146
#
# Stress axis : x y z
#
# Youngs Moduli (GPa) = 86.52687 61.37804 89.93699
#
# Poissons Ratio (x) = 0.13490 0.35504
# Poissons Ratio (y) = 0.19017 0.43647
# Poissons Ratio (z) = 0.34158 0.29787
#
# Static dielectric constant tensor:
#      x y z
#    x 3.618760 0.000000 0.000000 
#    y 0.000000 3.792490 0.000000 
#    z 0.000000 0.000000 3.976580 
# 
# 
# High freq. dielectric constant tensor:
#      x y z
#    x 1.789970 0.000000 0.000000 
#    y 0.000000 1.813980 0.000000 
#    z 0.000000 0.000000 1.821690 
# 
# From -- ./inp_files/9504.got.cif
#   From: 2010.03.12/outbox.cif.g09.slc.cpg/sg57_5_cif.got.tgz:9504.got - 2010.04.16 15:48:40.
