data_PCOD8231972
_publ_section_title
;
Structure prediction by ZEFSAII (Michael W. Deem and Ramdas Pophale) SiO2 
 PCOD8231972
Probable space group: P B C M
;
_chemical_formula_sum "Si O2"
_cell_formula_units_Z 64
_cell_length_a 15.820053
_cell_length_b 11.024365
_cell_length_c 19.403861
_cell_angle_alpha 90.000000
_cell_angle_beta 90.000000
_cell_angle_gamma 90.000000
_cell_volume 3384.150530
_symmetry_space_group_name_H-M "P B C M"
_symmetry_group_IT_number 57
_symmetry_cell_setting 'orthorhombic'
loop_
_space_group_symop_operation_xyz
x,y,z
-x,-y,1/2+z
x,1/2-y,-z
-x,1/2+y,1/2-z
-x,-y,-z
x,y,1/2-z
-x,1/2+y,z
x,1/2-y,1/2+z
loop_
_atom_site_type_symbol
_atom_site_label
_atom_site_fract_x
_atom_site_fract_y
_atom_site_fract_z
Si Si1 0.337484 0.737520 0.579744
Si Si2 0.648477 0.911131 0.093924
Si Si3 0.054627 0.250422 0.832055
Si Si4 0.792028 0.716612 0.071810
Si Si5 0.242995 0.910341 0.829804
Si Si6 0.523341 0.722450 0.419715
Si Si7 0.943567 0.477357 0.668906
Si Si8 0.344355 0.029775 0.441669
O O1 0.313421 0.750000 0.500000
O O2 0.262015 0.790705 0.625867
O O3 0.426431 0.801491 0.601603
O O4 0.345997 0.596860 0.597634
O O5 0.714276 0.807206 0.075596
O O6 0.562219 0.843095 0.117287
O O7 0.683161 0.992454 0.156093
O O8 0.636812 0.990049 0.023718
O O9 0.063988 0.255554 0.750000
O O10 0.146549 0.273615 0.863462
O O11 0.023477 0.112912 0.853951
O O12 0.995314 0.360497 0.860670
O O13 0.749505 0.583893 0.070014
O O14 0.840719 0.750000 0.000000
O O15 0.241141 0.875146 0.750000
O O16 0.153544 0.964744 0.854926
O O17 0.528410 0.750000 0.500000
O O18 0.580695 0.605358 0.404667
O O19 0.950182 0.468044 0.750000
#
# Coordination Sequence:
#
# PCOD8231972 Si02
#       8
#     8   8   8   8   8   8   8   8
#     4  11  21  32  55  80 109 145 184 225 274 324
#     4   9  16  33  56  77 105 138 180 218 261 320
#     4  10  19  36  59  81 103 141 188 228 269 328
#     4   9  18  33  56  81 111 138 171 224 275 317
#     4  11  22  36  54  79 109 143 179 223 274 326
#     4   8  18  30  53  83 104 136 181 230 262 307
#     4   9  20  36  57  80 106 140 188 230 268 327
#     4   9  18  33  51  83 110 135 180 228 268 315
#
# _framework density 18.911688999999999
#
# number of rings (size 3 to 8) (size 9 to 14) (size 15 to 20)
#    0.000    2.500    2.500    1.500    1.750    2.500 
#    0.000    3.750    0.000    1.500    0.000    0.000 
#    0.000    0.000    0.000    0.000    0.000    0.000 
#
# Total GULP energy -793077.339201 kJ/mol
# GULP energy per Si atom -12391.833425 kJ/mol
# Density = 1.886865 g / cm^3
# Si number density = 18.911689 Si / 1000 Ang^3
#
#
#
# Elastic Constant Matrix: (Units=GPa)
#
#
# Indices 1 2 3 4 5 6 
#
# 1 65.4881 36.5849 22.0615 0.0000 0.0000 0.0000
# 2 36.5849 119.2006 22.2452 0.0000 0.0000 0.0000
# 3 22.0615 22.2452 42.9270 0.0000 0.0000 0.0000
# 4 0.0000 0.0000 0.0000 22.1940 0.0000 0.0000
# 5 0.0000 0.0000 0.0000 0.0000 22.8894 0.0000
# 6 0.0000 0.0000 0.0000 0.0000 0.0000 24.0874
#
#
#
# Elastic Compliance Matrix: (Units=1/GPa)
#
#
# Indices 1 2 3 4 5 6 
#
# 1 0.020715 -0.004839 -0.008138 0.000000 0.000000 0.000000
# 2 -0.004839 0.010418 -0.002912 0.000000 0.000000 0.000000
# 3 -0.008138 -0.002912 0.028987 0.000000 0.000000 0.000000
# 4 0.000000 0.000000 0.000000 0.045057 0.000000 0.000000
# 5 0.000000 0.000000 0.000000 0.000000 0.043688 0.000000
# 6 0.000000 0.000000 0.000000 0.000000 0.000000 0.041515
#
#
# Mechanical properties :
#
#
# Convention : Reuss Voigt Hill
#
# Bulk Modulus (GPa) = 35.28419 43.26653 39.27536
# Shear Modulus (GPa) = 21.58840 23.61577 22.60209
#
# Velocity S-wave (km/s) = 3.38233 3.53758 3.46083
# Velocity P-wave (km/s) = 5.82678 6.29395 6.06487
#
# Compressibility (1/GPa) = 0.02834131
#
# Stress axis : x y z
#
# Youngs Moduli (GPa) = 48.27435 95.98970 34.49842
#
# Poissons Ratio (x) = 0.46450 0.28076
# Poissons Ratio (y) = 0.23360 0.10045
# Poissons Ratio (z) = 0.39288 0.27949
#
# Static dielectric constant tensor:
#      x y z
#    x 3.588600 0.000000 0.000000 
#    y 0.000000 3.809110 0.000000 
#    z 0.000000 0.000000 3.026130 
# 
# 
# High freq. dielectric constant tensor:
#      x y z
#    x 1.724020 0.000000 0.000000 
#    y 0.000000 1.753290 0.000000 
#    z 0.000000 0.000000 1.682440 
# 
# From -- ./inp_files/22687.got.cif
#   From: 2010.03.12/outbox.cif.g09.slc.cpg/sg57_12_cif.got.tgz:22687.got - 2010.04.16 15:48:40.
