data_PCOD8231067
_publ_section_title
;
Structure prediction by ZEFSAII (Michael W. Deem and Ramdas Pophale) SiO2 
 PCOD8231067
Probable space group: P B C M
;
_chemical_formula_sum "Si O2"
_cell_formula_units_Z 64
_cell_length_a 21.738324
_cell_length_b 19.507011
_cell_length_c 9.011527
_cell_angle_alpha 90.000000
_cell_angle_beta 90.000000
_cell_angle_gamma 90.000000
_cell_volume 3821.335550
_symmetry_space_group_name_H-M "P B C M"
_symmetry_group_IT_number 57
_symmetry_cell_setting 'orthorhombic'
loop_
_space_group_symop_operation_xyz
x,y,z
-x,-y,1/2+z
x,1/2-y,-z
-x,1/2+y,1/2-z
-x,-y,-z
x,y,1/2-z
-x,1/2+y,z
x,1/2-y,1/2+z
loop_
_atom_site_type_symbol
_atom_site_label
_atom_site_fract_x
_atom_site_fract_y
_atom_site_fract_z
Si Si1 0.020101 0.182531 0.077662
Si Si2 0.700028 0.040122 0.424446
Si Si3 0.405620 0.475810 0.919028
Si Si4 0.878981 0.319052 0.574741
Si Si5 0.631868 0.180106 0.080729
Si Si6 0.174101 0.550814 0.574361
Si Si7 0.942941 0.963953 0.923723
Si Si8 0.523848 0.409869 0.919985
O O1 0.023911 0.197461 0.250000
O O2 0.949778 0.168637 0.029282
O O3 0.059491 0.116175 0.030349
O O4 0.047465 0.250000 0.000000
O O5 0.712509 0.035854 0.250000
O O6 0.652868 0.979293 0.471696
O O7 0.672511 0.114476 0.471929
O O8 0.761497 0.023063 0.514610
O O9 0.382232 0.481787 0.750000
O O10 0.449048 0.407417 0.939333
O O11 0.450255 0.538978 0.956383
O O12 0.854385 0.250000 0.500000
O O13 0.869325 0.315764 0.750000
O O14 0.837719 0.378239 0.507403
O O15 0.646975 0.194692 0.250000
O O16 0.559033 0.162691 0.055625
O O17 0.650610 0.250000 0.000000
O O18 0.175937 0.561784 0.750000
O O19 0.121328 0.497020 0.527496
O O20 0.954790 0.971310 0.750000
O O21 0.000000 0.000000 0.000000
O O22 0.539479 0.434628 0.750000
#
# Coordination Sequence:
#
# PCOD8231067 Si02
#       8
#     8   8   8   8   8   8   8   8
#     4   9  18  32  50  73  98 124 154 192 242 300
#     4  10  21  35  47  63  94 130 164 202 244 289
#     4   9  15  26  46  68  89 115 151 192 233 278
#     4  10  19  32  49  68  95 128 163 201 244 295
#     4   9  18  31  46  66  94 129 163 195 230 272
#     4  11  22  34  50  72  97 128 170 211 253 306
#     4  10  20  34  52  75 101 127 159 205 258 308
#     4   8  15  27  43  66  94 120 148 188 237 278
#
# _framework density 16.748069999999998
#
# number of rings (size 3 to 8) (size 9 to 14) (size 15 to 20)
#    0.000    2.500    1.250    2.250    0.000    5.000 
#    0.000    1.250    0.000    0.000    0.000    0.875 
#    0.000    0.000    0.000    0.000    0.000    0.000 
#
# Total GULP energy -793143.308204 kJ/mol
# GULP energy per Si atom -12392.864191 kJ/mol
# Density = 1.670995 g / cm^3
# Si number density = 16.748070 Si / 1000 Ang^3
#
#
#
# Elastic Constant Matrix: (Units=GPa)
#
#
# Indices 1 2 3 4 5 6 
#
# 1 101.4909 42.6057 34.8150 0.0000 0.0000 0.0000
# 2 42.6057 56.5847 23.0649 0.0000 0.0000 0.0000
# 3 34.8150 23.0649 55.3403 0.0000 0.0000 0.0000
# 4 0.0000 0.0000 0.0000 23.5788 0.0000 0.0000
# 5 0.0000 0.0000 0.0000 0.0000 25.0650 0.0000
# 6 0.0000 0.0000 0.0000 0.0000 0.0000 13.8133
#
#
#
# Elastic Compliance Matrix: (Units=1/GPa)
#
#
# Indices 1 2 3 4 5 6 
#
# 1 0.015928 -0.009527 -0.006050 0.000000 0.000000 0.000000
# 2 -0.009527 0.026988 -0.005255 0.000000 0.000000 0.000000
# 3 -0.006050 -0.005255 0.024066 0.000000 0.000000 0.000000
# 4 0.000000 0.000000 0.000000 0.042411 0.000000 0.000000
# 5 0.000000 0.000000 0.000000 0.000000 0.039896 0.000000
# 6 0.000000 0.000000 0.000000 0.000000 0.000000 0.072394
#
#
# Mechanical properties :
#
#
# Convention : Reuss Voigt Hill
#
# Bulk Modulus (GPa) = 39.49575 46.04302 42.76939
# Shear Modulus (GPa) = 18.39692 20.02011 19.20851
#
# Velocity S-wave (km/s) = 3.31788 3.46116 3.39028
# Velocity P-wave (km/s) = 6.18961 6.59728 6.39669
#
# Compressibility (1/GPa) = 0.02531918
#
# Stress axis : x y z
#
# Youngs Moduli (GPa) = 62.78375 37.05378 41.55258
#
# Poissons Ratio (x) = 0.35301 0.25138
# Poissons Ratio (y) = 0.59813 0.21834
# Poissons Ratio (z) = 0.37982 0.19470
#
# Static dielectric constant tensor:
#      x y z
#    x 3.218800 0.000000 0.000000 
#    y 0.000000 3.064720 0.000000 
#    z 0.000000 0.000000 3.175960 
# 
# 
# High freq. dielectric constant tensor:
#      x y z
#    x 1.633380 0.000000 0.000000 
#    y 0.000000 1.614330 0.000000 
#    z 0.000000 0.000000 1.654260 
# 
# From -- ./inp_files/8684.got.cif
#   From: 2010.03.12/outbox.cif.g09.slc.cpg/sg57_5_cif.got.tgz:8684.got - 2010.04.16 15:48:40.
