data_PCOD8231865
_publ_section_title
;
Structure prediction by ZEFSAII (Michael W. Deem and Ramdas Pophale) SiO2 
 PCOD8231865
Probable space group: P B C M
;
_chemical_formula_sum "Si O2"
_cell_formula_units_Z 56
_cell_length_a 21.564065
_cell_length_b 14.286119
_cell_length_c 8.813203
_cell_angle_alpha 90.000000
_cell_angle_beta 90.000000
_cell_angle_gamma 90.000000
_cell_volume 2715.055235
_symmetry_space_group_name_H-M "P B C M"
_symmetry_group_IT_number 57
_symmetry_cell_setting 'orthorhombic'
loop_
_space_group_symop_operation_xyz
x,y,z
-x,-y,1/2+z
x,1/2-y,-z
-x,1/2+y,1/2-z
-x,-y,-z
x,y,1/2-z
-x,1/2+y,z
x,1/2-y,1/2+z
loop_
_atom_site_type_symbol
_atom_site_label
_atom_site_fract_x
_atom_site_fract_y
_atom_site_fract_z
Si Si1 0.870556 0.163085 0.415084
Si Si2 0.589062 0.542821 0.928058
Si Si3 0.725077 0.341019 0.579735
Si Si4 0.715992 0.964625 0.571023
Si Si5 0.933703 0.982909 0.428929
Si Si6 0.171957 0.350834 0.069993
Si Si7 0.475032 0.649192 0.071463
O O1 0.901537 0.250000 0.500000
O O2 0.901115 0.164633 0.250000
O O3 0.797702 0.174857 0.404255
O O4 0.889664 0.065831 0.492153
O O5 0.592993 0.561845 0.750000
O O6 0.576925 0.431436 0.959823
O O7 0.652175 0.577895 0.007219
O O8 0.537368 0.610568 0.996453
O O9 0.694632 0.250000 0.500000
O O10 0.696703 0.356354 0.750000
O O11 0.712938 0.426492 0.469130
O O12 0.720985 0.949441 0.750000
O O13 0.774489 0.918229 0.490299
O O14 0.941578 0.983166 0.250000
O O15 0.896509 0.889132 0.477964
O O16 0.000000 0.000000 0.500000
O O17 0.178480 0.346874 0.250000
O O18 0.181317 0.250000 0.000000
O O19 0.485553 0.662733 0.250000
O O20 0.455820 0.750000 0.000000
#
# Coordination Sequence:
#
# PCOD8231865 Si02
#       7
#     8   8   8   8   8   8   8
#     4   9  18  34  55  81 111 145 184 231 288 348
#     4  10  22  40  62  90 125 165 208 257 307 361
#     4  10  19  35  57  84 118 154 194 242 299 362
#     4  12  24  39  62  92 125 164 208 255 310 371
#     4  10  22  40  61  86 119 156 197 249 304 362
#     4  11  24  45  66  89 123 162 206 258 311 369
#     4  10  21  39  64  92 124 163 207 255 307 362
#
# _framework density 20.625731999999999
#
# number of rings (size 3 to 8) (size 9 to 14) (size 15 to 20)
#    0.000    1.714    1.429    3.000    0.000    5.714 
#    0.000    7.143    0.000    0.000    0.000    0.000 
#    0.000    0.000    0.000    0.000    0.000    0.000 
#
# Total GULP energy -694111.085092 kJ/mol
# GULP energy per Si atom -12394.840805 kJ/mol
# Density = 2.057879 g / cm^3
# Si number density = 20.625732 Si / 1000 Ang^3
#
#
#
# Elastic Constant Matrix: (Units=GPa)
#
#
# Indices 1 2 3 4 5 6 
#
# 1 96.6276 20.3830 41.5616 0.0000 0.0000 0.0000
# 2 20.3830 84.4811 30.9108 0.0000 0.0000 0.0000
# 3 41.5616 30.9108 108.5525 0.0000 0.0000 0.0000
# 4 0.0000 0.0000 0.0000 39.1878 0.0000 0.0000
# 5 0.0000 0.0000 0.0000 0.0000 28.2994 0.0000
# 6 0.0000 0.0000 0.0000 0.0000 0.0000 11.4576
#
#
#
# Elastic Compliance Matrix: (Units=1/GPa)
#
#
# Indices 1 2 3 4 5 6 
#
# 1 0.012539 -0.001416 -0.004398 0.000000 0.000000 0.000000
# 2 -0.001416 0.013374 -0.003266 0.000000 0.000000 0.000000
# 3 -0.004398 -0.003266 0.011826 0.000000 0.000000 0.000000
# 4 0.000000 0.000000 0.000000 0.025518 0.000000 0.000000
# 5 0.000000 0.000000 0.000000 0.000000 0.035336 0.000000
# 6 0.000000 0.000000 0.000000 0.000000 0.000000 0.087278
#
#
# Mechanical properties :
#
#
# Convention : Reuss Voigt Hill
#
# Bulk Modulus (GPa) = 51.07512 52.81911 51.94712
# Shear Modulus (GPa) = 23.74646 28.90935 26.32790
#
# Velocity S-wave (km/s) = 3.39677 3.74788 3.57663
# Velocity P-wave (km/s) = 6.34039 6.66279 6.50359
#
# Compressibility (1/GPa) = 0.01957900
#
# Stress axis : x y z
#
# Youngs Moduli (GPa) = 79.74929 74.77388 84.56062
#
# Poissons Ratio (x) = 0.10591 0.37187
# Poissons Ratio (y) = 0.11295 0.27617
# Poissons Ratio (z) = 0.35071 0.24421
#
# Static dielectric constant tensor:
#      x y z
#    x 3.798980 0.000000 0.000000 
#    y 0.000000 4.039470 0.000000 
#    z 0.000000 0.000000 3.978210 
# 
# 
# High freq. dielectric constant tensor:
#      x y z
#    x 1.803240 0.000000 0.000000 
#    y 0.000000 1.810880 0.000000 
#    z 0.000000 0.000000 1.812130 
# 
# From -- ./inp_files/8171.got.cif
#   From: 2010.03.12/outbox.cif.g09.slc.cpg/sg57_5_cif.got.tgz:8171.got - 2010.04.16 15:48:40.
