data_PCOD8231863
_publ_section_title
;
Structure prediction by ZEFSAII (Michael W. Deem and Ramdas Pophale) SiO2 
 PCOD8231863
Probable space group: P B C M
;
_chemical_formula_sum "Si O2"
_cell_formula_units_Z 64
_cell_length_a 11.310541
_cell_length_b 16.065624
_cell_length_c 17.872787
_cell_angle_alpha 90.000000
_cell_angle_beta 90.000000
_cell_angle_gamma 90.000000
_cell_volume 3247.680192
_symmetry_space_group_name_H-M "P B C M"
_symmetry_group_IT_number 57
_symmetry_cell_setting 'orthorhombic'
loop_
_space_group_symop_operation_xyz
x,y,z
-x,-y,1/2+z
x,1/2-y,-z
-x,1/2+y,1/2-z
-x,-y,-z
x,y,1/2-z
-x,1/2+y,z
x,1/2-y,1/2+z
loop_
_atom_site_type_symbol
_atom_site_label
_atom_site_fract_x
_atom_site_fract_y
_atom_site_fract_z
Si Si1 0.688233 0.447017 0.026018
Si Si2 0.048285 0.400043 0.415911
Si Si3 0.442077 0.273138 0.664825
Si Si4 0.923970 0.083986 0.067819
Si Si5 0.726188 0.692233 0.562265
Si Si6 0.911533 0.249188 0.164945
Si Si7 0.558249 0.603709 0.039580
Si Si8 0.327271 0.832777 0.333233
O O1 0.672022 0.542795 0.050037
O O2 0.705250 0.397907 0.102798
O O3 0.794628 0.428058 0.969280
O O4 0.566045 0.432699 0.984022
O O5 0.036372 0.497501 0.389986
O O6 0.187263 0.379948 0.410367
O O7 0.014975 0.395468 0.502544
O O8 0.973903 0.331992 0.369274
O O9 0.430578 0.300296 0.750000
O O10 0.314770 0.239349 0.637330
O O11 0.471963 0.355144 0.618553
O O12 0.544276 0.205027 0.652934
O O13 0.935536 0.162245 0.123132
O O14 0.792441 0.750000 0.500000
O O15 0.601885 0.666001 0.524618
O O16 0.956897 0.240299 0.250000
O O17 0.770570 0.260342 0.161834
O O18 0.321936 0.874175 0.250000
#
# Coordination Sequence:
#
# PCOD8231863 Si02
#       8
#     8   8   8   8   8   8   8   8
#     4  11  20  37  62  91 115 154 200 250 309 356
#     4  11  23  40  62  89 122 157 206 259 300 355
#     4  10  21  37  56  83 120 160 196 238 300 364
#     4  11  23  39  65  92 117 158 207 259 303 362
#     4  10  19  35  57  84 116 153 196 245 291 358
#     4  11  24  41  62  89 120 161 204 249 309 365
#     4  10  21  34  59  89 118 149 199 250 294 362
#     4  10  21  37  59  88 122 155 196 245 302 365
#
# _framework density 19.706374
#
# number of rings (size 3 to 8) (size 9 to 14) (size 15 to 20)
#    0.000    1.500    3.750    1.875    0.000    2.500 
#    0.000    0.000    0.000    0.750    0.000    0.000 
#    0.000    0.000    0.000    0.000    0.000    0.000 
#
# Total GULP energy -792965.031539 kJ/mol
# GULP energy per Si atom -12390.078618 kJ/mol
# Density = 1.966152 g / cm^3
# Si number density = 19.706374 Si / 1000 Ang^3
#
#
#
# Elastic Constant Matrix: (Units=GPa)
#
#
# Indices 1 2 3 4 5 6 
#
# 1 73.9006 22.4960 23.5914 0.0000 0.0000 0.0000
# 2 22.4960 121.8524 58.3383 0.0000 0.0000 0.0000
# 3 23.5914 58.3383 108.6970 0.0000 0.0000 0.0000
# 4 0.0000 0.0000 0.0000 10.2044 0.0000 0.0000
# 5 0.0000 0.0000 0.0000 0.0000 15.4559 0.0000
# 6 0.0000 0.0000 0.0000 0.0000 0.0000 27.5503
#
#
#
# Elastic Compliance Matrix: (Units=1/GPa)
#
#
# Indices 1 2 3 4 5 6 
#
# 1 0.014768 -0.001604 -0.002344 0.000000 0.000000 0.000000
# 2 -0.001604 0.011219 -0.005673 0.000000 0.000000 0.000000
# 3 -0.002344 -0.005673 0.012753 0.000000 0.000000 0.000000
# 4 0.000000 0.000000 0.000000 0.097997 0.000000 0.000000
# 5 0.000000 0.000000 0.000000 0.000000 0.064700 0.000000
# 6 0.000000 0.000000 0.000000 0.000000 0.000000 0.036297
#
#
# Mechanical properties :
#
#
# Convention : Reuss Voigt Hill
#
# Bulk Modulus (GPa) = 51.28828 57.03348 54.16088
# Shear Modulus (GPa) = 18.97695 23.97707 21.47701
#
# Velocity S-wave (km/s) = 3.10657 3.49193 3.30487
# Velocity P-wave (km/s) = 6.24103 6.72775 6.48895
#
# Compressibility (1/GPa) = 0.01949763
#
# Stress axis : x y z
#
# Youngs Moduli (GPa) = 67.71223 89.13581 78.41004
#
# Poissons Ratio (x) = 0.14298 0.18382
# Poissons Ratio (y) = 0.10862 0.44483
# Poissons Ratio (z) = 0.15874 0.50567
#
# Static dielectric constant tensor:
#      x y z
#    x 3.634750 0.000000 0.000000 
#    y 0.000000 3.778490 0.000000 
#    z 0.000000 0.000000 3.509530 
# 
# 
# High freq. dielectric constant tensor:
#      x y z
#    x 1.776450 0.000000 0.000000 
#    y 0.000000 1.770290 0.000000 
#    z 0.000000 0.000000 1.756550 
# 
# From -- ./inp_files/22021.got.cif
#   From: 2010.03.12/outbox.cif.g09.slc.cpg/sg57_12_cif.got.tgz:22021.got - 2010.04.16 15:48:40.
