data_PCOD8231056
_publ_section_title
;
Structure prediction by ZEFSAII (Michael W. Deem and Ramdas Pophale) SiO2 
 PCOD8231056
Probable space group: P B C M
;
_chemical_formula_sum "Si O2"
_cell_formula_units_Z 48
_cell_length_a 15.126355
_cell_length_b 21.441294
_cell_length_c 9.365441
_cell_angle_alpha 90.000000
_cell_angle_beta 90.000000
_cell_angle_gamma 90.000000
_cell_volume 3037.480599
_symmetry_space_group_name_H-M "P B C M"
_symmetry_group_IT_number 57
_symmetry_cell_setting 'orthorhombic'
loop_
_space_group_symop_operation_xyz
x,y,z
-x,-y,1/2+z
x,1/2-y,-z
-x,1/2+y,1/2-z
-x,-y,-z
x,y,1/2-z
-x,1/2+y,z
x,1/2-y,1/2+z
loop_
_atom_site_type_symbol
_atom_site_label
_atom_site_fract_x
_atom_site_fract_y
_atom_site_fract_z
Si Si1 0.309375 0.956324 0.082406
Si Si2 0.657712 0.904792 0.585627
Si Si3 0.470331 0.561174 0.416722
Si Si4 0.110644 0.951161 0.415037
Si Si5 0.804533 0.686014 0.081802
Si Si6 0.951866 0.912942 0.915342
O O1 0.333088 0.952589 0.250000
O O2 0.317088 0.027263 0.023150
O O3 0.211265 0.931006 0.051145
O O4 0.380211 0.914464 0.992617
O O5 0.685797 0.908368 0.750000
O O6 0.552621 0.890338 0.566230
O O7 0.717256 0.849537 0.519780
O O8 0.500000 0.500000 0.500000
O O9 0.453349 0.546950 0.250000
O O10 0.088985 0.941874 0.250000
O O11 0.044532 0.906556 0.501517
O O12 0.097834 0.023325 0.459614
O O13 0.797329 0.699279 0.250000
O O14 0.889827 0.644640 0.044116
O O15 0.814750 0.750000 0.000000
O O16 0.975365 0.913027 0.750000
#
# Coordination Sequence:
#
# PCOD8231056 Si02
#       6
#     8   8   8   8   8   8
#     4   9  15  26  43  63  88 118 143 170 214 266
#     4   8  14  27  43  57  83 119 146 169 211 264
#     4   9  16  25  40  61  85 115 144 173 210 257
#     4   9  16  27  45  65  88 118 147 177 221 272
#     4  10  19  32  47  63  86 119 154 185 220 262
#     4   9  17  29  44  62  87 118 148 182 223 266
#
# _framework density 15.802569999999999
#
# number of rings (size 3 to 8) (size 9 to 14) (size 15 to 20)
#    0.000    3.000    1.667    1.500    0.000    1.333 
#    0.000    4.167    0.000    0.000    0.000    1.167 
#    0.000    2.667    0.000    0.000    0.000    0.000 
#
# Total GULP energy -594788.634205 kJ/mol
# GULP energy per Si atom -12391.429879 kJ/mol
# Density = 1.576660 g / cm^3
# Si number density = 15.802570 Si / 1000 Ang^3
#
#
#
# Elastic Constant Matrix: (Units=GPa)
#
#
# Indices 1 2 3 4 5 6 
#
# 1 148.7689 45.8587 63.9423 0.0000 0.0000 0.0000
# 2 45.8587 58.5205 28.8934 0.0000 0.0000 0.0000
# 3 63.9423 28.8934 61.1177 0.0000 0.0000 0.0000
# 4 0.0000 0.0000 0.0000 18.7283 0.0000 0.0000
# 5 0.0000 0.0000 0.0000 0.0000 31.6050 0.0000
# 6 0.0000 0.0000 0.0000 0.0000 0.0000 17.0160
#
#
#
# Elastic Compliance Matrix: (Units=1/GPa)
#
#
# Indices 1 2 3 4 5 6 
#
# 1 0.013085 -0.004559 -0.011534 0.000000 0.000000 0.000000
# 2 -0.004559 0.023879 -0.006520 0.000000 0.000000 0.000000
# 3 -0.011534 -0.006520 0.031511 0.000000 0.000000 0.000000
# 4 0.000000 0.000000 0.000000 0.053395 0.000000 0.000000
# 5 0.000000 0.000000 0.000000 0.000000 0.031641 0.000000
# 6 0.000000 0.000000 0.000000 0.000000 0.000000 0.058768
#
#
# Mechanical properties :
#
#
# Convention : Reuss Voigt Hill
#
# Bulk Modulus (GPa) = 43.01031 60.64401 51.82716
# Shear Modulus (GPa) = 18.84986 22.11737 20.48361
#
# Velocity S-wave (km/s) = 3.45749 3.74519 3.60421
# Velocity P-wave (km/s) = 6.57384 7.56051 7.08437
#
# Compressibility (1/GPa) = 0.02325024
#
# Stress axis : x y z
#
# Youngs Moduli (GPa) = 76.42583 41.87725 31.73478
#
# Poissons Ratio (x) = 0.19091 0.36603
# Poissons Ratio (y) = 0.34841 0.20690
# Poissons Ratio (z) = 0.88151 0.27302
#
# Static dielectric constant tensor:
#      x y z
#    x 3.518470 0.000000 0.000000 
#    y 0.000000 2.585860 0.000000 
#    z 0.000000 0.000000 2.960890 
# 
# 
# High freq. dielectric constant tensor:
#      x y z
#    x 1.625810 0.000000 0.000000 
#    y 0.000000 1.543720 0.000000 
#    z 0.000000 0.000000 1.595340 
# 
# From -- ./inp_files/5350.got.cif
#   From: 2010.03.12/outbox.cif.g09.slc.cpg/sg57_3_cif.got.tgz:5350.got - 2010.04.16 15:48:40.
