data_PCOD8231848
_publ_section_title
;
Structure prediction by ZEFSAII (Michael W. Deem and Ramdas Pophale) SiO2 
 PCOD8231848
Probable space group: P B C M
;
_chemical_formula_sum "Si O2"
_cell_formula_units_Z 64
_cell_length_a 11.937334
_cell_length_b 30.631588
_cell_length_c 9.283862
_cell_angle_alpha 90.000000
_cell_angle_beta 90.000000
_cell_angle_gamma 90.000000
_cell_volume 3394.732308
_symmetry_space_group_name_H-M "P B C M"
_symmetry_group_IT_number 57
_symmetry_cell_setting 'orthorhombic'
loop_
_space_group_symop_operation_xyz
x,y,z
-x,-y,1/2+z
x,1/2-y,-z
-x,1/2+y,1/2-z
-x,-y,-z
x,y,1/2-z
-x,1/2+y,z
x,1/2-y,1/2+z
loop_
_atom_site_type_symbol
_atom_site_label
_atom_site_fract_x
_atom_site_fract_y
_atom_site_fract_z
Si Si1 0.238186 0.792269 0.084985
Si Si2 0.214255 0.545186 0.917163
Si Si3 0.998296 0.169501 0.914880
Si Si4 0.379032 0.376846 0.079362
Si Si5 0.763242 0.706432 0.918811
Si Si6 0.989169 0.080872 0.080475
Si Si7 0.368074 0.876486 0.079045
Si Si8 0.761880 0.946430 0.914800
O O1 0.272550 0.785492 0.250000
O O2 0.104864 0.797520 0.068313
O O3 0.301463 0.834420 0.019962
O O4 0.279566 0.750000 0.000000
O O5 0.184485 0.553687 0.750000
O O6 0.305614 0.579856 0.974847
O O7 0.265854 0.497260 0.939234
O O8 0.100938 0.549076 0.008099
O O9 0.008848 0.152717 0.750000
O O10 0.110010 0.194604 0.962880
O O11 0.976094 0.129106 0.018120
O O12 0.374600 0.381716 0.250000
O O13 0.316954 0.332756 0.029752
O O14 0.505570 0.375547 0.019644
O O15 0.319625 0.418999 0.014792
O O16 0.751826 0.715093 0.750000
O O17 0.725037 0.750000 0.000000
O O18 0.967839 0.082229 0.250000
O O19 0.110366 0.062225 0.040763
O O20 0.368488 0.875638 0.250000
O O21 0.741546 0.932514 0.750000
#
# Coordination Sequence:
#
# PCOD8231848 Si02
#       8
#     8   8   8   8   8   8   8   8
#     4  10  20  35  56  81 110 143 182 224 274 331
#     4  10  20  38  60  80 111 151 185 221 277 340
#     4  10  19  35  57  80 107 149 185 215 276 341
#     4  10  21  38  59  81 108 146 191 231 270 324
#     4  10  21  35  55  82 110 143 183 224 273 330
#     4  11  21  33  54  86 116 141 178 229 278 325
#     4   9  19  37  59  80 106 146 190 228 269 324
#     4  10  22  37  56  84 114 146 182 227 281 330
#
# _framework density 18.852737999999999
#
# number of rings (size 3 to 8) (size 9 to 14) (size 15 to 20)
#    0.000    2.000    2.500    1.125    0.000    3.500 
#    0.000    1.250    0.000    0.000    0.000    0.000 
#    0.000    0.000    0.000    0.000    0.000    0.000 
#
# Total GULP energy -793820.732812 kJ/mol
# GULP energy per Si atom -12403.448950 kJ/mol
# Density = 1.880983 g / cm^3
# Si number density = 18.852738 Si / 1000 Ang^3
#
#
#
# Elastic Constant Matrix: (Units=GPa)
#
#
# Indices 1 2 3 4 5 6 
#
# 1 131.1607 55.5492 31.5361 0.0000 0.0000 0.0000
# 2 55.5492 131.3818 36.8442 0.0000 0.0000 0.0000
# 3 31.5361 36.8442 43.4228 0.0000 0.0000 0.0000
# 4 0.0000 0.0000 0.0000 33.3277 0.0000 0.0000
# 5 0.0000 0.0000 0.0000 0.0000 11.2220 0.0000
# 6 0.0000 0.0000 0.0000 0.0000 0.0000 12.3479
#
#
#
# Elastic Compliance Matrix: (Units=1/GPa)
#
#
# Indices 1 2 3 4 5 6 
#
# 1 0.010002 -0.002876 -0.004824 0.000000 0.000000 0.000000
# 2 -0.002876 0.010815 -0.007088 0.000000 0.000000 0.000000
# 3 -0.004824 -0.007088 0.032546 0.000000 0.000000 0.000000
# 4 0.000000 0.000000 0.000000 0.030005 0.000000 0.000000
# 5 0.000000 0.000000 0.000000 0.000000 0.089111 0.000000
# 6 0.000000 0.000000 0.000000 0.000000 0.000000 0.080986
#
#
# Mechanical properties :
#
#
# Convention : Reuss Voigt Hill
#
# Bulk Modulus (GPa) = 42.03705 61.53604 51.78655
# Shear Modulus (GPa) = 17.18389 23.51524 20.34957
#
# Velocity S-wave (km/s) = 3.02235 3.53556 3.28898
# Velocity P-wave (km/s) = 5.87584 7.02696 6.47702
#
# Compressibility (1/GPa) = 0.02378854
#
# Stress axis : x y z
#
# Youngs Moduli (GPa) = 99.97822 92.46262 30.72528
#
# Poissons Ratio (x) = 0.26595 0.14821
# Poissons Ratio (y) = 0.28757 0.21777
# Poissons Ratio (z) = 0.48226 0.65535
#
# Static dielectric constant tensor:
#      x y z
#    x 3.591720 0.000000 0.000000 
#    y 0.000000 3.454080 0.000000 
#    z 0.000000 0.000000 3.275830 
# 
# 
# High freq. dielectric constant tensor:
#      x y z
#    x 1.733050 0.000000 0.000000 
#    y 0.000000 1.740730 0.000000 
#    z 0.000000 0.000000 1.711550 
# 
# From -- ./inp_files/3897.got.cif
#   From: 2010.03.12/outbox.cif.g09.slc.cpg/sg57_2_cif.got.tgz:3897.got - 2010.04.16 15:48:40.
