data_PCOD8231813
_publ_section_title
;
Structure prediction by ZEFSAII (Michael W. Deem and Ramdas Pophale) SiO2 
 PCOD8231813
Probable space group: P B C M
;
_chemical_formula_sum "Si O2"
_cell_formula_units_Z 64
_cell_length_a 14.541819
_cell_length_b 13.272321
_cell_length_c 16.589824
_cell_angle_alpha 90.000000
_cell_angle_beta 90.000000
_cell_angle_gamma 90.000000
_cell_volume 3201.897243
_symmetry_space_group_name_H-M "P B C M"
_symmetry_group_IT_number 57
_symmetry_cell_setting 'orthorhombic'
loop_
_space_group_symop_operation_xyz
x,y,z
-x,-y,1/2+z
x,1/2-y,-z
-x,1/2+y,1/2-z
-x,-y,-z
x,y,1/2-z
-x,1/2+y,z
x,1/2-y,1/2+z
loop_
_atom_site_type_symbol
_atom_site_label
_atom_site_fract_x
_atom_site_fract_y
_atom_site_fract_z
Si Si1 0.919811 0.620416 0.657304
Si Si2 0.605455 0.993483 0.568863
Si Si3 0.330466 0.280999 0.907913
Si Si4 0.141938 0.172856 0.157086
Si Si5 0.074063 0.521245 0.568091
Si Si6 0.428187 0.085882 0.893779
Si Si7 0.245481 0.986041 0.842022
Si Si8 0.241219 0.867101 0.996504
O O1 0.895863 0.616674 0.750000
O O2 0.929057 0.738017 0.631832
O O3 0.831865 0.561004 0.619199
O O4 0.017082 0.567474 0.641990
O O5 0.530337 0.046249 0.629166
O O6 0.681173 0.076286 0.547807
O O7 0.644912 0.896133 0.614145
O O8 0.568951 0.941546 0.487715
O O9 0.238545 0.269184 0.855477
O O10 0.412836 0.205817 0.879794
O O11 0.306653 0.250000 0.000000
O O12 0.130446 0.138227 0.250000
O O13 0.126687 0.079314 0.097100
O O14 0.144436 0.604067 0.535992
O O15 0.000000 0.500000 0.500000
O O16 0.347208 0.033031 0.844356
O O17 0.224053 0.952368 0.750000
O O18 0.244283 0.891000 0.901344
O O19 0.260178 0.750000 0.000000
#
# Coordination Sequence:
#
# PCOD8231813 Si02
#       8
#     8   8   8   8   8   8   8   8
#     4  10  22  39  62  91 123 163 205 257 321 375
#     4   9  19  36  56  89 123 159 202 258 311 362
#     4  10  19  34  62  91 123 162 212 257 311 365
#     4  11  24  41  64  93 127 165 207 261 321 372
#     4  12  25  39  62  92 126 162 209 266 308 376
#     4   9  18  32  61  90 119 158 206 255 306 369
#     4  10  20  39  62  91 126 158 204 262 313 369
#     4  11  24  41  61  91 122 168 215 251 308 380
#
# _framework density 19.988150000000001
#
# number of rings (size 3 to 8) (size 9 to 14) (size 15 to 20)
#    0.000    1.750    3.750    0.375    3.500    3.500 
#    0.000    1.875    0.000    1.500    0.000    0.000 
#    0.000    0.000    0.000    0.000    0.000    0.000 
#
# Total GULP energy -792954.051615 kJ/mol
# GULP energy per Si atom -12389.907056 kJ/mol
# Density = 1.994266 g / cm^3
# Si number density = 19.988150 Si / 1000 Ang^3
#
#
#
# Elastic Constant Matrix: (Units=GPa)
#
#
# Indices 1 2 3 4 5 6 
#
# 1 113.7494 56.0415 19.8834 0.0000 0.0000 0.0000
# 2 56.0415 163.4077 35.3555 0.0000 0.0000 0.0000
# 3 19.8834 35.3555 47.6700 0.0000 0.0000 0.0000
# 4 0.0000 0.0000 0.0000 19.7334 0.0000 0.0000
# 5 0.0000 0.0000 0.0000 0.0000 20.8305 0.0000
# 6 0.0000 0.0000 0.0000 0.0000 0.0000 35.0968
#
#
#
# Elastic Compliance Matrix: (Units=1/GPa)
#
#
# Indices 1 2 3 4 5 6 
#
# 1 0.010750 -0.003236 -0.002084 0.000000 0.000000 0.000000
# 2 -0.003236 0.008263 -0.004779 0.000000 0.000000 0.000000
# 3 -0.002084 -0.004779 0.025391 0.000000 0.000000 0.000000
# 4 0.000000 0.000000 0.000000 0.050675 0.000000 0.000000
# 5 0.000000 0.000000 0.000000 0.000000 0.048007 0.000000
# 6 0.000000 0.000000 0.000000 0.000000 0.000000 0.028493
#
#
# Mechanical properties :
#
#
# Convention : Reuss Voigt Hill
#
# Bulk Modulus (GPa) = 41.31052 60.82089 51.06570
# Shear Modulus (GPa) = 25.01933 29.36859 27.19396
#
# Velocity S-wave (km/s) = 3.54179 3.83730 3.69250
# Velocity P-wave (km/s) = 6.11866 7.08009 6.61686
#
# Compressibility (1/GPa) = 0.02420691
#
# Stress axis : x y z
#
# Youngs Moduli (GPa) = 93.02575 121.01531 39.38364
#
# Poissons Ratio (x) = 0.39158 0.08207
# Poissons Ratio (y) = 0.30101 0.18822
# Poissons Ratio (z) = 0.19385 0.57834
#
# Static dielectric constant tensor:
#      x y z
#    x 4.005100 0.000000 0.000000 
#    y 0.000000 3.940940 0.000000 
#    z 0.000000 0.000000 3.431660 
# 
# 
# High freq. dielectric constant tensor:
#      x y z
#    x 1.780950 0.000000 0.000000 
#    y 0.000000 1.781130 0.000000 
#    z 0.000000 0.000000 1.756180 
# 
# From -- ./inp_files/22706.got.cif
#   From: 2010.03.12/outbox.cif.g09.slc.cpg/sg57_12_cif.got.tgz:22706.got - 2010.04.16 15:48:40.
