data_PCOD8231595
_publ_section_title
;
Structure prediction by ZEFSAII (Michael W. Deem and Ramdas Pophale) SiO2 
 PCOD8231595
Probable space group: P B C M
;
_chemical_formula_sum "Si O2"
_cell_formula_units_Z 56
_cell_length_a 22.532165
_cell_length_b 14.056746
_cell_length_c 9.067222
_cell_angle_alpha 90.000000
_cell_angle_beta 90.000000
_cell_angle_gamma 90.000000
_cell_volume 2871.851434
_symmetry_space_group_name_H-M "P B C M"
_symmetry_group_IT_number 57
_symmetry_cell_setting 'orthorhombic'
loop_
_space_group_symop_operation_xyz
x,y,z
-x,-y,1/2+z
x,1/2-y,-z
-x,1/2+y,1/2-z
-x,-y,-z
x,y,1/2-z
-x,1/2+y,z
x,1/2-y,1/2+z
loop_
_atom_site_type_symbol
_atom_site_label
_atom_site_fract_x
_atom_site_fract_y
_atom_site_fract_z
Si Si1 0.855095 0.843063 0.577598
Si Si2 0.533611 0.646737 0.424319
Si Si3 0.800476 0.034604 0.918909
Si Si4 0.300566 0.647673 0.423800
Si Si5 0.416388 0.530933 0.077867
Si Si6 0.027143 0.410646 0.080881
Si Si7 0.902303 0.335857 0.412035
O O1 0.828658 0.750000 0.500000
O O2 0.867443 0.826238 0.750000
O O3 0.917557 0.867291 0.503172
O O4 0.804011 0.921831 0.552408
O O5 0.541595 0.750000 0.500000
O O6 0.544136 0.658556 0.250000
O O7 0.579837 0.568629 0.488440
O O8 0.468875 0.604596 0.461283
O O9 0.781980 0.055989 0.750000
O O10 0.868381 0.067040 0.956165
O O11 0.756236 0.087086 0.027931
O O12 0.302700 0.750000 0.500000
O O13 0.298564 0.664588 0.250000
O O14 0.357100 0.585211 0.470919
O O15 0.417021 0.504804 0.250000
O O16 0.044164 0.435199 0.250000
O O17 0.973108 0.336386 0.074444
O O18 0.000000 0.500000 0.000000
O O19 0.873744 0.250000 0.500000
O O20 0.882095 0.310684 0.250000
#
# Coordination Sequence:
#
# PCOD8231595 Si02
#       7
#     8   8   8   8   8   8   8
#     4  11  23  41  61  84 112 145 187 235 288 347
#     4  10  19  33  57  87 121 160 198 240 291 341
#     4  10  22  41  59  79 112 147 188 236 280 332
#     4  11  23  39  61  88 117 151 192 235 285 339
#     4   9  20  37  56  84 121 158 199 243 284 340
#     4  11  21  36  57  82 112 146 182 225 281 341
#     4  10  21  36  53  78 108 140 176 219 273 330
#
# _framework density 19.499616
#
# number of rings (size 3 to 8) (size 9 to 14) (size 15 to 20)
#    0.000    1.714    1.429    3.000    0.000    6.857 
#    0.000    0.714    0.000    1.714    0.000    0.000 
#    0.000    0.000    0.000    0.000    0.000    0.000 
#
# Total GULP energy -694158.454893 kJ/mol
# GULP energy per Si atom -12395.686695 kJ/mol
# Density = 1.945523 g / cm^3
# Si number density = 19.499616 Si / 1000 Ang^3
#
#
#
# Elastic Constant Matrix: (Units=GPa)
#
#
# Indices 1 2 3 4 5 6 
#
# 1 85.7081 46.4729 44.0971 0.0000 0.0000 0.0000
# 2 46.4729 158.8677 79.2370 0.0000 0.0000 0.0000
# 3 44.0971 79.2370 115.6597 0.0000 0.0000 0.0000
# 4 0.0000 0.0000 0.0000 40.5241 0.0000 0.0000
# 5 0.0000 0.0000 0.0000 0.0000 25.9357 0.0000
# 6 0.0000 0.0000 0.0000 0.0000 0.0000 23.6572
#
#
#
# Elastic Compliance Matrix: (Units=1/GPa)
#
#
# Indices 1 2 3 4 5 6 
#
# 1 0.015068 -0.002343 -0.004140 0.000000 0.000000 0.000000
# 2 -0.002343 0.009926 -0.005907 0.000000 0.000000 0.000000
# 3 -0.004140 -0.005907 0.014271 0.000000 0.000000 0.000000
# 4 0.000000 0.000000 0.000000 0.024677 0.000000 0.000000
# 5 0.000000 0.000000 0.000000 0.000000 0.038557 0.000000
# 6 0.000000 0.000000 0.000000 0.000000 0.000000 0.042270
#
#
# Mechanical properties :
#
#
# Convention : Reuss Voigt Hill
#
# Bulk Modulus (GPa) = 69.03309 77.76104 73.39706
# Shear Modulus (GPa) = 28.67354 30.71865 29.69610
#
# Velocity S-wave (km/s) = 3.83883 3.97337 3.90668
# Velocity P-wave (km/s) = 7.42482 7.81121 7.62046
#
# Compressibility (1/GPa) = 0.01448581
#
# Stress axis : x y z
#
# Youngs Moduli (GPa) = 66.36663 100.74478 70.07161
#
# Poissons Ratio (x) = 0.23605 0.29007
# Poissons Ratio (y) = 0.15550 0.41391
# Poissons Ratio (z) = 0.27474 0.59509
#
# Static dielectric constant tensor:
#      x y z
#    x 3.878380 0.000000 0.000000 
#    y 0.000000 3.607840 0.000000 
#    z 0.000000 0.000000 3.647010 
# 
# 
# High freq. dielectric constant tensor:
#      x y z
#    x 1.740410 0.000000 0.000000 
#    y 0.000000 1.770630 0.000000 
#    z 0.000000 0.000000 1.768330 
# 
# From -- ./inp_files/8112.got.cif
#   From: 2010.03.12/outbox.cif.g09.slc.cpg/sg57_5_cif.got.tgz:8112.got - 2010.04.16 15:48:40.
