data_PCOD8231603
_publ_section_title
;
Structure prediction by ZEFSAII (Michael W. Deem and Ramdas Pophale) SiO2 
 PCOD8231603
Probable space group: P B C M
;
_chemical_formula_sum "Si O2"
_cell_formula_units_Z 64
_cell_length_a 9.976698
_cell_length_b 18.139794
_cell_length_c 18.328055
_cell_angle_alpha 90.000000
_cell_angle_beta 90.000000
_cell_angle_gamma 90.000000
_cell_volume 3316.924272
_symmetry_space_group_name_H-M "P B C M"
_symmetry_group_IT_number 57
_symmetry_cell_setting 'orthorhombic'
loop_
_space_group_symop_operation_xyz
x,y,z
-x,-y,1/2+z
x,1/2-y,-z
-x,1/2+y,1/2-z
-x,-y,-z
x,y,1/2-z
-x,1/2+y,z
x,1/2-y,1/2+z
loop_
_atom_site_type_symbol
_atom_site_label
_atom_site_fract_x
_atom_site_fract_y
_atom_site_fract_z
Si Si1 0.976604 0.056092 0.065507
Si Si2 0.840066 0.663928 0.666169
Si Si3 0.385185 0.049444 0.834932
Si Si4 0.959284 0.715360 0.078453
Si Si5 0.920279 0.442543 0.166465
Si Si6 0.745951 0.238945 0.085522
Si Si7 0.649934 0.103902 0.899367
Si Si8 0.670919 0.412438 0.564107
O O1 0.073487 0.128074 0.068295
O O2 0.829173 0.085646 0.053839
O O3 0.995171 0.013992 0.141944
O O4 0.000000 0.000000 0.000000
O O5 0.808529 0.679667 0.750000
O O6 0.725024 0.608355 0.636080
O O7 0.843503 0.742899 0.625267
O O8 0.986268 0.628309 0.653769
O O9 0.358800 0.030059 0.750000
O O10 0.532797 0.081778 0.844354
O O11 0.382293 0.975712 0.883410
O O12 0.104131 0.726948 0.118069
O O13 0.956885 0.750000 0.000000
O O14 0.880017 0.451883 0.250000
O O15 0.786287 0.439558 0.118431
O O16 0.674912 0.310331 0.118838
O O17 0.648216 0.168442 0.100482
O O18 0.764043 0.250000 0.000000
O O19 0.606179 0.085166 0.982812
#
# Coordination Sequence:
#
# PCOD8231603 Si02
#       8
#     8   8   8   8   8   8   8   8
#     4  11  20  34  60  92 119 151 193 242 300 346
#     4  10  21  38  56  81 119 156 191 236 291 352
#     4  11  24  40  57  82 121 162 197 237 299 361
#     4  10  19  33  58  88 114 144 189 240 291 341
#     4  11  21  35  58  86 118 151 194 243 289 350
#     4   8  17  33  57  88 112 140 186 244 285 337
#     4  11  20  38  62  86 114 152 202 244 295 344
#     4  10  20  36  63  86 117 154 196 244 288 356
#
# _framework density 19.294983999999999
#
# number of rings (size 3 to 8) (size 9 to 14) (size 15 to 20)
#    0.000    1.750    3.750    2.250    0.000    0.500 
#    0.000    6.250    0.000    1.500    0.000    0.000 
#    0.000    0.000    0.000    0.000    0.000    0.000 
#
# Total GULP energy -793316.793187 kJ/mol
# GULP energy per Si atom -12395.574894 kJ/mol
# Density = 1.925107 g / cm^3
# Si number density = 19.294984 Si / 1000 Ang^3
#
#
#
# Elastic Constant Matrix: (Units=GPa)
#
#
# Indices 1 2 3 4 5 6 
#
# 1 56.3631 17.6754 16.6223 0.0000 0.0000 0.0000
# 2 17.6754 144.2043 45.8317 0.0000 0.0000 0.0000
# 3 16.6223 45.8317 66.1863 0.0000 0.0000 0.0000
# 4 0.0000 0.0000 0.0000 26.3826 0.0000 0.0000
# 5 0.0000 0.0000 0.0000 0.0000 -415.8096 0.0000
# 6 0.0000 0.0000 0.0000 0.0000 0.0000 20.3171
#
#
#
# Elastic Compliance Matrix: (Units=1/GPa)
#
#
# Indices 1 2 3 4 5 6 
#
# 1 0.019286 -0.001057 -0.004112 0.000000 0.000000 0.000000
# 2 -0.001057 0.008949 -0.005932 0.000000 0.000000 0.000000
# 3 -0.004112 -0.005932 0.020249 0.000000 0.000000 0.000000
# 4 0.000000 0.000000 0.000000 0.037904 0.000000 0.000000
# 5 0.000000 0.000000 0.000000 0.000000 -0.002405 0.000000
# 6 0.000000 0.000000 0.000000 0.000000 0.000000 0.049220
#
#
# Mechanical properties :
#
#
# Convention : Reuss Voigt Hill
#
# Bulk Modulus (GPa) = 38.04632 47.44584 42.74608
# Shear Modulus (GPa) = 30.45715 -61.38037 -15.46161
#
# Velocity S-wave (km/s) = 3.97735 -5.64629 -2.83385
# Velocity P-wave (km/s) = 6.39167 4.22663 3.39036
#
# Compressibility (1/GPa) = 0.02628375
#
# Stress axis : x y z
#
# Youngs Moduli (GPa) = 51.85059 111.73911 49.38535
#
# Poissons Ratio (x) = 0.11813 0.20305
# Poissons Ratio (y) = 0.05482 0.29294
# Poissons Ratio (z) = 0.21319 0.66280
#
# Static dielectric constant tensor:
#      x y z
#    x 3.329090 0.000000 0.000000 
#    y 0.000000 4.167170 0.000000 
#    z 0.000000 0.000000 3.398880 
# 
# 
# High freq. dielectric constant tensor:
#      x y z
#    x 1.722380 0.000000 0.000000 
#    y 0.000000 1.762550 0.000000 
#    z 0.000000 0.000000 1.736980 
# 
# From -- ./inp_files/22140.got.cif
#   From: 2010.03.12/outbox.cif.g09.slc.cpg/sg57_12_cif.got.tgz:22140.got - 2010.04.16 15:48:40.
