data_PCOD8231452
_publ_section_title
;
Structure prediction by ZEFSAII (Michael W. Deem and Ramdas Pophale) SiO2 
 PCOD8231452
Probable space group: P B C M
;
_chemical_formula_sum "Si O2"
_cell_formula_units_Z 64
_cell_length_a 9.798619
_cell_length_b 20.419124
_cell_length_c 15.506648
_cell_angle_alpha 90.000000
_cell_angle_beta 90.000000
_cell_angle_gamma 90.000000
_cell_volume 3102.557981
_symmetry_space_group_name_H-M "P B C M"
_symmetry_group_IT_number 57
_symmetry_cell_setting 'orthorhombic'
loop_
_space_group_symop_operation_xyz
x,y,z
-x,-y,1/2+z
x,1/2-y,-z
-x,1/2+y,1/2-z
-x,-y,-z
x,y,1/2-z
-x,1/2+y,z
x,1/2-y,1/2+z
loop_
_atom_site_type_symbol
_atom_site_label
_atom_site_fract_x
_atom_site_fract_y
_atom_site_fract_z
Si Si1 0.012675 0.865966 0.906104
Si Si2 0.057114 0.006208 0.596730
Si Si3 0.199794 0.753943 0.897858
Si Si4 0.135668 0.886715 0.094117
Si Si5 0.275774 0.375076 0.650190
Si Si6 0.567371 0.156980 0.149318
Si Si7 0.358667 0.976970 0.349186
Si Si8 0.344213 0.983095 0.648027
O O1 0.093610 0.807080 0.859024
O O2 0.851767 0.849179 0.906254
O O3 0.032887 0.935683 0.856360
O O4 0.074021 0.871847 0.001106
O O5 0.974090 0.065681 0.643149
O O6 0.219502 0.019776 0.599619
O O7 0.000000 0.000000 0.500000
O O8 0.162650 0.682742 0.857935
O O9 0.352559 0.776426 0.872449
O O10 0.191041 0.750000 0.000000
O O11 0.280345 0.924888 0.090199
O O12 0.248494 0.357640 0.750000
O O13 0.412247 0.339427 0.613465
O O14 0.290899 0.452603 0.637672
O O15 0.549845 0.145338 0.250000
O O16 0.646931 0.092454 0.114409
O O17 0.345145 0.954554 0.250000
O O18 0.517232 0.978857 0.377105
O O19 0.319545 0.986163 0.750000
#
# Coordination Sequence:
#
# PCOD8231452 Si02
#       8
#     8   8   8   8   8   8   8   8
#     4  10  19  35  55  78 112 150 188 232 273 336
#     4  10  19  33  53  82 114 147 188 232 280 338
#     4  10  21  37  54  77 113 152 186 226 282 342
#     4  10  21  35  53  80 117 152 185 228 283 342
#     4   9  18  33  57  85 109 136 182 241 285 323
#     4   9  18  35  58  84 108 139 189 239 280 335
#     4   9  18  34  55  82 113 144 181 232 289 335
#     4   9  18  34  58  84 111 142 186 240 285 329
#
# _framework density 20.628139999999998
#
# number of rings (size 3 to 8) (size 9 to 14) (size 15 to 20)
#    0.000    2.500    2.500    1.500    0.000    2.000 
#    0.000   10.625    0.000    1.500    0.000    0.000 
#    0.000    0.000    0.000    0.000    0.000    0.000 
#
# Total GULP energy -792995.504575 kJ/mol
# GULP energy per Si atom -12390.554759 kJ/mol
# Density = 2.058119 g / cm^3
# Si number density = 20.628140 Si / 1000 Ang^3
#
#
#
# Elastic Constant Matrix: (Units=GPa)
#
#
# Indices 1 2 3 4 5 6 
#
# 1 199.9923 88.0397 32.7438 0.0000 0.0000 0.0000
# 2 88.0397 147.8418 10.3988 0.0000 0.0000 0.0000
# 3 32.7438 10.3988 35.2093 0.0000 0.0000 0.0000
# 4 0.0000 0.0000 0.0000 7.3631 0.0000 0.0000
# 5 0.0000 0.0000 0.0000 0.0000 30.1186 0.0000
# 6 0.0000 0.0000 0.0000 0.0000 0.0000 34.9537
#
#
#
# Elastic Compliance Matrix: (Units=1/GPa)
#
#
# Indices 1 2 3 4 5 6 
#
# 1 0.007867 -0.004259 -0.006058 0.000000 0.000000 0.000000
# 2 -0.004259 0.009213 0.001239 0.000000 0.000000 0.000000
# 3 -0.006058 0.001239 0.033669 0.000000 0.000000 0.000000
# 4 0.000000 0.000000 0.000000 0.135812 0.000000 0.000000
# 5 0.000000 0.000000 0.000000 0.000000 0.033202 0.000000
# 6 0.000000 0.000000 0.000000 0.000000 0.000000 0.028609
#
#
# Mechanical properties :
#
#
# Convention : Reuss Voigt Hill
#
# Bulk Modulus (GPa) = 30.68011 71.71202 51.19606
# Shear Modulus (GPa) = 18.02509 31.27783 24.65146
#
# Velocity S-wave (km/s) = 2.95924 3.89816 3.46069
# Velocity P-wave (km/s) = 5.15571 7.42297 6.39069
#
# Compressibility (1/GPa) = 0.03259441
#
# Stress axis : x y z
#
# Youngs Moduli (GPa) = 127.11764 108.54515 29.70052
#
# Poissons Ratio (x) = 0.46224 0.17993
# Poissons Ratio (y) = 0.54133 -0.03681
# Poissons Ratio (z) = 0.77010 -0.13453
#
# Static dielectric constant tensor:
#      x y z
#    x 4.096910 0.000000 0.000000 
#    y 0.000000 4.722690 0.000000 
#    z 0.000000 0.000000 3.219650 
# 
# 
# High freq. dielectric constant tensor:
#      x y z
#    x 1.823970 0.000000 0.000000 
#    y 0.000000 1.787950 0.000000 
#    z 0.000000 0.000000 1.766190 
# 
# From -- ./inp_files/24706.got.cif
#   From: 2010.03.12/outbox.cif.g09.slc.cpg/sg57_13_cif.got.tgz:24706.got - 2010.04.16 15:48:40.
