data_PCOD8231238
_publ_section_title
;
Structure prediction by ZEFSAII (Michael W. Deem and Ramdas Pophale) SiO2 
 PCOD8231238
Probable space group: P B C M
;
_chemical_formula_sum "Si O2"
_cell_formula_units_Z 64
_cell_length_a 19.540417
_cell_length_b 20.562306
_cell_length_c 8.985597
_cell_angle_alpha 90.000000
_cell_angle_beta 90.000000
_cell_angle_gamma 90.000000
_cell_volume 3610.377235
_symmetry_space_group_name_H-M "P B C M"
_symmetry_group_IT_number 57
_symmetry_cell_setting 'orthorhombic'
loop_
_space_group_symop_operation_xyz
x,y,z
-x,-y,1/2+z
x,1/2-y,-z
-x,1/2+y,1/2-z
-x,-y,-z
x,y,1/2-z
-x,1/2+y,z
x,1/2-y,1/2+z
loop_
_atom_site_type_symbol
_atom_site_label
_atom_site_fract_x
_atom_site_fract_y
_atom_site_fract_z
Si Si1 0.318021 0.981358 0.078655
Si Si2 0.816609 0.018013 0.423384
Si Si3 0.820776 0.631454 0.574719
Si Si4 0.465758 0.937869 0.074107
Si Si5 0.462249 0.182924 0.074695
Si Si6 0.953034 0.684530 0.426467
Si Si7 0.037401 0.559634 0.075215
Si Si8 0.684357 0.870246 0.922427
O O1 0.299831 0.977948 0.250000
O O2 0.384649 0.939097 0.040459
O O3 0.332597 0.055721 0.030675
O O4 0.251595 0.952327 0.996368
O O5 0.803977 0.020807 0.250000
O O6 0.882663 0.060035 0.471731
O O7 0.828908 0.943626 0.473882
O O8 0.829409 0.642117 0.750000
O O9 0.877455 0.672504 0.489000
O O10 0.746489 0.657035 0.522246
O O11 0.480671 0.939462 0.250000
O O12 0.493647 0.872933 0.001085
O O13 0.500000 0.000000 0.000000
O O14 0.477549 0.183588 0.250000
O O15 0.382173 0.172255 0.042219
O O16 0.485327 0.250000 0.000000
O O17 0.982592 0.750000 0.500000
O O18 0.949776 0.691887 0.250000
O O19 0.003863 0.626986 0.476773
O O20 0.029811 0.549068 0.250000
O O21 0.000000 0.500000 0.000000
O O22 0.705322 0.865809 0.750000
#
# Coordination Sequence:
#
# PCOD8231238 Si02
#       8
#     8   8   8   8   8   8   8   8
#     4   9  18  33  53  80 110 141 178 221 267 320
#     4   9  18  32  52  81 110 136 173 222 269 319
#     4  10  19  32  52  78 109 143 181 221 264 318
#     4  11  21  36  58  84 112 145 185 230 274 326
#     4  11  23  39  56  80 111 148 187 229 277 328
#     4  11  23  37  54  76 107 146 181 221 269 319
#     4  10  20  35  56  81 107 138 178 222 269 317
#     4   9  18  34  52  74 110 148 184 222 265 320
#
# _framework density 17.726679000000001
#
# number of rings (size 3 to 8) (size 9 to 14) (size 15 to 20)
#    0.000    2.000    2.500    1.500    0.000    4.000 
#    0.000    1.250    0.000    0.750    0.000    3.500 
#    0.000    0.000    0.000    0.000    0.000    0.000 
#
# Total GULP energy -793713.934638 kJ/mol
# GULP energy per Si atom -12401.780229 kJ/mol
# Density = 1.768633 g / cm^3
# Si number density = 17.726679 Si / 1000 Ang^3
#
#
#
# Elastic Constant Matrix: (Units=GPa)
#
#
# Indices 1 2 3 4 5 6 
#
# 1 115.4012 65.9613 55.3018 0.0000 0.0000 0.0000
# 2 65.9613 117.5745 53.6703 0.0000 0.0000 0.0000
# 3 55.3018 53.6703 75.8119 0.0000 0.0000 0.0000
# 4 0.0000 0.0000 0.0000 27.1117 0.0000 0.0000
# 5 0.0000 0.0000 0.0000 0.0000 31.4032 0.0000
# 6 0.0000 0.0000 0.0000 0.0000 0.0000 23.4684
#
#
#
# Elastic Compliance Matrix: (Units=1/GPa)
#
#
# Indices 1 2 3 4 5 6 
#
# 1 0.015145 -0.005103 -0.007436 0.000000 0.000000 0.000000
# 2 -0.005103 0.014285 -0.006391 0.000000 0.000000 0.000000
# 3 -0.007436 -0.006391 0.023139 0.000000 0.000000 0.000000
# 4 0.000000 0.000000 0.000000 0.036884 0.000000 0.000000
# 5 0.000000 0.000000 0.000000 0.000000 0.031844 0.000000
# 6 0.000000 0.000000 0.000000 0.000000 0.000000 0.042610
#
#
# Mechanical properties :
#
#
# Convention : Reuss Voigt Hill
#
# Bulk Modulus (GPa) = 67.97539 73.18385 70.57962
# Shear Modulus (GPa) = 24.19319 25.32027 24.75673
#
# Velocity S-wave (km/s) = 3.69831 3.78348 3.74114
# Velocity P-wave (km/s) = 7.52770 7.77563 7.65267
#
# Compressibility (1/GPa) = 0.01471121
#
# Stress axis : x y z
#
# Youngs Moduli (GPa) = 66.02780 70.00253 43.21729
#
# Poissons Ratio (x) = 0.35719 0.32134
# Poissons Ratio (y) = 0.33691 0.27620
# Poissons Ratio (z) = 0.49095 0.44738
#
# Static dielectric constant tensor:
#      x y z
#    x 3.506730 0.000000 0.000000 
#    y 0.000000 3.192010 0.000000 
#    z 0.000000 0.000000 3.276330 
# 
# 
# High freq. dielectric constant tensor:
#      x y z
#    x 1.689120 0.000000 0.000000 
#    y 0.000000 1.662430 0.000000 
#    z 0.000000 0.000000 1.692500 
# 
# From -- ./inp_files/8549.got.cif
#   From: 2010.03.12/outbox.cif.g09.slc.cpg/sg57_5_cif.got.tgz:8549.got - 2010.04.16 15:48:40.
