data_PCOD8231586
_publ_section_title
;
Structure prediction by ZEFSAII (Michael W. Deem and Ramdas Pophale) SiO2 
 PCOD8231586
Probable space group: P B C M
;
_chemical_formula_sum "Si O2"
_cell_formula_units_Z 48
_cell_length_a 14.782371
_cell_length_b 18.884324
_cell_length_c 8.904524
_cell_angle_alpha 90.000000
_cell_angle_beta 90.000000
_cell_angle_gamma 90.000000
_cell_volume 2485.743140
_symmetry_space_group_name_H-M "P B C M"
_symmetry_group_IT_number 57
_symmetry_cell_setting 'orthorhombic'
loop_
_space_group_symop_operation_xyz
x,y,z
-x,-y,1/2+z
x,1/2-y,-z
-x,1/2+y,1/2-z
-x,-y,-z
x,y,1/2-z
-x,1/2+y,z
x,1/2-y,1/2+z
loop_
_atom_site_type_symbol
_atom_site_label
_atom_site_fract_x
_atom_site_fract_y
_atom_site_fract_z
Si Si1 0.439265 0.414113 0.579976
Si Si2 0.367184 0.549098 0.077104
Si Si3 0.864876 0.920082 0.071602
Si Si4 0.180941 0.936755 0.425361
Si Si5 0.032283 0.825971 0.075464
Si Si6 0.722671 0.823140 0.922060
O O1 0.428156 0.444031 0.750000
O O2 0.545699 0.400122 0.547401
O O3 0.397400 0.470051 0.464851
O O4 0.384253 0.340689 0.563349
O O5 0.336591 0.549707 0.250000
O O6 0.283516 0.575751 0.978550
O O7 0.858279 0.921818 0.250000
O O8 0.951429 0.875785 0.014947
O O9 0.775079 0.886073 0.003305
O O10 0.869903 0.000071 0.011759
O O11 0.179979 0.955378 0.250000
O O12 0.127023 0.864504 0.459475
O O13 0.018454 0.812887 0.250000
O O14 0.029833 0.750000 0.000000
O O15 0.753821 0.818124 0.750000
O O16 0.746429 0.750000 0.000000
#
# Coordination Sequence:
#
# PCOD8231586 Si02
#       6
#     8   8   8   8   8   8
#     4   9  19  35  54  79 113 149 187 232 285 336
#     4  10  19  33  57  85 111 145 190 236 279 335
#     4  11  22  38  60  88 114 147 194 241 289 348
#     4  11  22  38  59  87 118 151 190 239 290 343
#     4  10  24  42  60  83 115 152 193 237 291 347
#     4  11  22  36  55  82 118 156 191 236 291 349
#
# _framework density 19.310120999999999
#
# number of rings (size 3 to 8) (size 9 to 14) (size 15 to 20)
#    0.000    1.667    1.667    3.000    0.000    5.333 
#    0.000    0.833    0.000    4.000    0.000    0.000 
#    0.000    0.000    0.000    0.000    0.000    0.000 
#
# Total GULP energy -595240.545663 kJ/mol
# GULP energy per Si atom -12400.844701 kJ/mol
# Density = 1.926617 g / cm^3
# Si number density = 19.310121 Si / 1000 Ang^3
#
#
#
# Elastic Constant Matrix: (Units=GPa)
#
#
# Indices 1 2 3 4 5 6 
#
# 1 126.8742 38.2550 43.6125 0.0000 0.0000 0.0000
# 2 38.2550 69.2809 39.2233 0.0000 0.0000 0.0000
# 3 43.6125 39.2233 93.6165 0.0000 0.0000 0.0000
# 4 0.0000 0.0000 0.0000 29.3705 0.0000 0.0000
# 5 0.0000 0.0000 0.0000 0.0000 30.0915 0.0000
# 6 0.0000 0.0000 0.0000 0.0000 0.0000 24.1600
#
#
#
# Elastic Compliance Matrix: (Units=1/GPa)
#
#
# Indices 1 2 3 4 5 6 
#
# 1 0.010101 -0.003819 -0.003105 0.000000 0.000000 0.000000
# 2 -0.003819 0.020367 -0.006754 0.000000 0.000000 0.000000
# 3 -0.003105 -0.006754 0.014958 0.000000 0.000000 0.000000
# 4 0.000000 0.000000 0.000000 0.034048 0.000000 0.000000
# 5 0.000000 0.000000 0.000000 0.000000 0.033232 0.000000
# 6 0.000000 0.000000 0.000000 0.000000 0.000000 0.041391
#
#
# Mechanical properties :
#
#
# Convention : Reuss Voigt Hill
#
# Bulk Modulus (GPa) = 55.34471 59.10591 57.22531
# Shear Modulus (GPa) = 26.67002 27.96979 27.31990
#
# Velocity S-wave (km/s) = 3.72040 3.80998 3.76546
# Velocity P-wave (km/s) = 6.86865 7.07318 6.97167
#
# Compressibility (1/GPa) = 0.01806857
#
# Stress axis : x y z
#
# Youngs Moduli (GPa) = 99.00104 49.09994 66.85236
#
# Poissons Ratio (x) = 0.18753 0.20761
# Poissons Ratio (y) = 0.37811 0.45151
# Poissons Ratio (z) = 0.30744 0.33162
#
# Static dielectric constant tensor:
#      x y z
#    x 3.806670 0.000000 0.000000 
#    y 0.000000 3.230440 0.000000 
#    z 0.000000 0.000000 3.599470 
# 
# 
# High freq. dielectric constant tensor:
#      x y z
#    x 1.765630 0.000000 0.000000 
#    y 0.000000 1.726520 0.000000 
#    z 0.000000 0.000000 1.761040 
# 
# From -- ./inp_files/4644.got.cif
#   From: 2010.03.12/outbox.cif.g09.slc.cpg/sg57_3_cif.got.tgz:4644.got - 2010.04.16 15:48:40.
