data_PCOD8231493
_publ_section_title
;
Structure prediction by ZEFSAII (Michael W. Deem and Ramdas Pophale) SiO2 
 PCOD8231493
Probable space group: P B C M
;
_chemical_formula_sum "Si O2"
_cell_formula_units_Z 64
_cell_length_a 21.403814
_cell_length_b 17.713462
_cell_length_c 9.091683
_cell_angle_alpha 90.000000
_cell_angle_beta 90.000000
_cell_angle_gamma 90.000000
_cell_volume 3446.981107
_symmetry_space_group_name_H-M "P B C M"
_symmetry_group_IT_number 57
_symmetry_cell_setting 'orthorhombic'
loop_
_space_group_symop_operation_xyz
x,y,z
-x,-y,1/2+z
x,1/2-y,-z
-x,1/2+y,1/2-z
-x,-y,-z
x,y,1/2-z
-x,1/2+y,z
x,1/2-y,1/2+z
loop_
_atom_site_type_symbol
_atom_site_label
_atom_site_fract_x
_atom_site_fract_y
_atom_site_fract_z
Si Si1 0.609624 0.424762 0.077250
Si Si2 0.064064 0.480614 0.077366
Si Si3 0.725346 0.170606 0.577174
Si Si4 0.238721 0.110023 0.083167
Si Si5 0.823422 0.453515 0.417640
Si Si6 0.126623 0.175575 0.922152
Si Si7 0.491751 0.326719 0.076599
Si Si8 0.380685 0.405932 0.922402
O O1 0.621130 0.430099 0.250000
O O2 0.665005 0.373025 0.011239
O O3 0.542814 0.389841 0.036597
O O4 0.612146 0.509373 0.013187
O O5 0.056194 0.490591 0.250000
O O6 0.083318 0.395300 0.034411
O O7 0.116909 0.538613 0.022793
O O8 0.000000 0.500000 0.000000
O O9 0.732752 0.250000 0.500000
O O10 0.717183 0.183706 0.750000
O O11 0.787597 0.123072 0.541756
O O12 0.222338 0.133360 0.250000
O O13 0.311057 0.124225 0.048415
O O14 0.225174 0.021625 0.058504
O O15 0.197381 0.161207 0.975671
O O16 0.847576 0.452099 0.250000
O O17 0.127661 0.189488 0.750000
O O18 0.098801 0.250000 0.000000
O O19 0.486313 0.313600 0.250000
O O20 0.513905 0.250000 0.000000
O O21 0.425340 0.351200 0.012896
O O22 0.397850 0.402795 0.750000
#
# Coordination Sequence:
#
# PCOD8231493 Si02
#       8
#     8   8   8   8   8   8   8   8
#     4   9  18  35  57  78 103 137 181 227 273 329
#     4  10  21  37  59  86 114 146 185 225 265 312
#     4  10  19  33  54  81 110 142 179 222 273 326
#     4   9  17  32  56  80 103 138 177 217 269 324
#     4   9  17  33  56  79 107 142 179 216 262 320
#     4  10  21  36  56  84 116 146 180 224 268 315
#     4  11  23  37  52  73 104 141 180 226 277 329
#     4  10  19  35  58  80 103 136 179 226 276 330
#
# _framework density 18.566972
#
# number of rings (size 3 to 8) (size 9 to 14) (size 15 to 20)
#    0.000    2.250    1.250    1.875    0.000    3.000 
#    0.000    2.500    0.000    0.000    0.000    0.000 
#    0.000    0.000    0.000    0.000    0.000    0.000 
#
# Total GULP energy -793767.662295 kJ/mol
# GULP energy per Si atom -12402.619723 kJ/mol
# Density = 1.852471 g / cm^3
# Si number density = 18.566972 Si / 1000 Ang^3
#
#
#
# Elastic Constant Matrix: (Units=GPa)
#
#
# Indices 1 2 3 4 5 6 
#
# 1 108.7821 29.2164 48.6558 0.0000 0.0000 0.0000
# 2 29.2164 81.4113 36.0923 0.0000 0.0000 0.0000
# 3 48.6558 36.0923 70.5727 0.0000 0.0000 0.0000
# 4 0.0000 0.0000 0.0000 31.6783 0.0000 0.0000
# 5 0.0000 0.0000 0.0000 0.0000 28.1599 0.0000
# 6 0.0000 0.0000 0.0000 0.0000 0.0000 20.4209
#
#
#
# Elastic Compliance Matrix: (Units=1/GPa)
#
#
# Indices 1 2 3 4 5 6 
#
# 1 0.013344 -0.000918 -0.008730 0.000000 0.000000 0.000000
# 2 -0.000918 0.015948 -0.007523 0.000000 0.000000 0.000000
# 3 -0.008730 -0.007523 0.024036 0.000000 0.000000 0.000000
# 4 0.000000 0.000000 0.000000 0.031567 0.000000 0.000000
# 5 0.000000 0.000000 0.000000 0.000000 0.035511 0.000000
# 6 0.000000 0.000000 0.000000 0.000000 0.000000 0.048970
#
#
# Mechanical properties :
#
#
# Convention : Reuss Voigt Hill
#
# Bulk Modulus (GPa) = 52.67305 54.29947 53.48626
# Shear Modulus (GPa) = 23.80397 25.83860 24.82128
#
# Velocity S-wave (km/s) = 3.58447 3.73452 3.66026
# Velocity P-wave (km/s) = 6.74997 6.92129 6.83616
#
# Compressibility (1/GPa) = 0.01898504
#
# Stress axis : x y z
#
# Youngs Moduli (GPa) = 74.93848 62.70339 41.60373
#
# Poissons Ratio (x) = 0.05759 0.36322
# Poissons Ratio (y) = 0.06883 0.31298
# Poissons Ratio (z) = 0.65424 0.47172
#
# Static dielectric constant tensor:
#      x y z
#    x 3.350650 0.000000 0.000000 
#    y 0.000000 3.460290 0.000000 
#    z 0.000000 0.000000 3.279430 
# 
# 
# High freq. dielectric constant tensor:
#      x y z
#    x 1.718270 0.000000 0.000000 
#    y 0.000000 1.722350 0.000000 
#    z 0.000000 0.000000 1.707630 
# 
# From -- ./inp_files/8584.got.cif
#   From: 2010.03.12/outbox.cif.g09.slc.cpg/sg57_5_cif.got.tgz:8584.got - 2010.04.16 15:48:40.
