data_PCOD8231375
_publ_section_title
;
Structure prediction by ZEFSAII (Michael W. Deem and Ramdas Pophale) SiO2 
 PCOD8231375
Probable space group: P B C M
;
_chemical_formula_sum "Si O2"
_cell_formula_units_Z 48
_cell_length_a 30.866852
_cell_length_b 9.567226
_cell_length_c 8.759898
_cell_angle_alpha 90.000000
_cell_angle_beta 90.000000
_cell_angle_gamma 90.000000
_cell_volume 2586.886784
_symmetry_space_group_name_H-M "P B C M"
_symmetry_group_IT_number 57
_symmetry_cell_setting 'orthorhombic'
loop_
_space_group_symop_operation_xyz
x,y,z
-x,-y,1/2+z
x,1/2-y,-z
-x,1/2+y,1/2-z
-x,-y,-z
x,y,1/2-z
-x,1/2+y,z
x,1/2-y,1/2+z
loop_
_atom_site_type_symbol
_atom_site_label
_atom_site_fract_x
_atom_site_fract_y
_atom_site_fract_z
Si Si1 0.223760 0.905037 0.069024
Si Si2 0.870400 0.101992 0.926054
Si Si3 0.466723 0.896066 0.426806
Si Si4 0.963913 0.096893 0.570217
Si Si5 0.297314 0.404011 0.431535
Si Si6 0.632536 0.400151 0.071046
O O1 0.233177 0.898464 0.250000
O O2 0.175583 0.971164 0.033344
O O3 0.229054 0.750000 0.000000
O O4 0.256195 0.009132 0.987352
O O5 0.871264 0.134022 0.750000
O O6 0.916221 0.028064 0.970278
O O7 0.869796 0.250000 0.000000
O O8 0.477414 0.750000 0.500000
O O9 0.476278 0.885800 0.250000
O O10 0.417294 0.940105 0.459612
O O11 0.500000 0.000000 0.500000
O O12 0.968091 0.250000 0.500000
O O13 0.971281 0.107474 0.750000
O O14 0.000000 0.000000 0.500000
O O15 0.295156 0.250000 0.500000
O O16 0.297591 0.394957 0.250000
O O17 0.340632 0.479182 0.489067
O O18 0.643635 0.394721 0.250000
O O19 0.644456 0.250000 0.000000
#
# Coordination Sequence:
#
# PCOD8231375 Si02
#       6
#     8   8   8   8   8   8
#     4  10  19  35  58  83 108 138 176 219 264 317
#     4   8  16  30  51  76 103 134 173 217 261 310
#     4  10  21  37  59  85 115 148 185 226 271 319
#     4  10  19  33  52  77 106 139 177 219 265 315
#     4  12  25  40  57  80 110 144 179 222 272 323
#     4  10  21  39  61  85 111 145 186 227 267 316
#
# _framework density 18.555122999999998
#
# number of rings (size 3 to 8) (size 9 to 14) (size 15 to 20)
#    0.000    2.000    0.000    4.000    0.000    4.000 
#    0.000    0.833    0.000    0.000    0.000    0.000 
#    0.000    0.000    0.000    0.000    0.000    0.000 
#
# Total GULP energy -594796.018892 kJ/mol
# GULP energy per Si atom -12391.583727 kJ/mol
# Density = 1.851289 g / cm^3
# Si number density = 18.555123 Si / 1000 Ang^3
#
#
#
# Elastic Constant Matrix: (Units=GPa)
#
#
# Indices 1 2 3 4 5 6 
#
# 1 164.1692 92.6467 81.4523 0.0000 0.0000 0.0000
# 2 92.6467 115.9090 74.0476 0.0000 0.0000 0.0000
# 3 81.4523 74.0476 122.2726 0.0000 0.0000 0.0000
# 4 0.0000 0.0000 0.0000 35.2994 0.0000 0.0000
# 5 0.0000 0.0000 0.0000 0.0000 30.5933 0.0000
# 6 0.0000 0.0000 0.0000 0.0000 0.0000 27.5529
#
#
#
# Elastic Compliance Matrix: (Units=1/GPa)
#
#
# Indices 1 2 3 4 5 6 
#
# 1 0.011976 -0.007300 -0.003557 0.000000 0.000000 0.000000
# 2 -0.007300 0.018521 -0.006353 0.000000 0.000000 0.000000
# 3 -0.003557 -0.006353 0.014395 0.000000 0.000000 0.000000
# 4 0.000000 0.000000 0.000000 0.028329 0.000000 0.000000
# 5 0.000000 0.000000 0.000000 0.000000 0.032687 0.000000
# 6 0.000000 0.000000 0.000000 0.000000 0.000000 0.036294
#
#
# Mechanical properties :
#
#
# Convention : Reuss Voigt Hill
#
# Bulk Modulus (GPa) = 95.49394 99.84935 97.67165
# Shear Modulus (GPa) = 27.76035 28.96939 28.36487
#
# Velocity S-wave (km/s) = 3.87214 3.95557 3.91408
# Velocity P-wave (km/s) = 8.45979 8.64819 8.55451
#
# Compressibility (1/GPa) = 0.01047187
#
# Stress axis : x y z
#
# Youngs Moduli (GPa) = 83.50323 53.99221 69.46650
#
# Poissons Ratio (x) = 0.39414 0.24708
# Poissons Ratio (y) = 0.60957 0.44135
# Poissons Ratio (z) = 0.29700 0.34304
#
# Static dielectric constant tensor:
#      x y z
#    x 4.239280 0.000000 0.000000 
#    y 0.000000 3.171030 0.000000 
#    z 0.000000 0.000000 3.670700 
# 
# 
# High freq. dielectric constant tensor:
#      x y z
#    x 1.747520 0.000000 0.000000 
#    y 0.000000 1.691340 0.000000 
#    z 0.000000 0.000000 1.739680 
# 
# From -- ./inp_files/9924.got.cif
#   From: 2010.03.12/outbox.cif.g09.slc.cpg/sg57_5_cif.got.tgz:9924.got - 2010.04.16 15:48:40.
