data_PCOD8231518
_publ_section_title
;
Structure prediction by ZEFSAII (Michael W. Deem and Ramdas Pophale) SiO2 
 PCOD8231518
Probable space group: P B C M
;
_chemical_formula_sum "Si O2"
_cell_formula_units_Z 56
_cell_length_a 22.213812
_cell_length_b 14.176293
_cell_length_c 9.049474
_cell_angle_alpha 90.000000
_cell_angle_beta 90.000000
_cell_angle_gamma 90.000000
_cell_volume 2849.765401
_symmetry_space_group_name_H-M "P B C M"
_symmetry_group_IT_number 57
_symmetry_cell_setting 'orthorhombic'
loop_
_space_group_symop_operation_xyz
x,y,z
-x,-y,1/2+z
x,1/2-y,-z
-x,1/2+y,1/2-z
-x,-y,-z
x,y,1/2-z
-x,1/2+y,z
x,1/2-y,1/2+z
loop_
_atom_site_type_symbol
_atom_site_label
_atom_site_fract_x
_atom_site_fract_y
_atom_site_fract_z
Si Si1 0.365027 0.472968 0.579518
Si Si2 0.528288 0.656388 0.077697
Si Si3 0.019571 0.090171 0.916413
Si Si4 0.894825 0.157098 0.923126
Si Si5 0.145134 0.463163 0.075223
Si Si6 0.609441 0.345442 0.923584
Si Si7 0.249519 0.350574 0.577180
O O1 0.365635 0.503720 0.750000
O O2 0.429370 0.430224 0.529984
O O3 0.352080 0.566262 0.483152
O O4 0.314977 0.394326 0.549160
O O5 0.533732 0.675545 0.250000
O O6 0.459814 0.635384 0.030557
O O7 0.552651 0.750000 0.000000
O O8 0.019215 0.056251 0.750000
O O9 0.089630 0.111339 0.957280
O O10 0.968064 0.168565 0.942481
O O11 0.000000 0.000000 0.000000
O O12 0.877020 0.152985 0.750000
O O13 0.866570 0.250000 0.000000
O O14 0.869322 0.065400 0.005846
O O15 0.157602 0.474168 0.250000
O O16 0.202649 0.422194 0.994358
O O17 0.618610 0.335273 0.750000
O O18 0.633065 0.250000 0.000000
O O19 0.245797 0.250000 0.500000
O O20 0.235394 0.338362 0.750000
#
# Coordination Sequence:
#
# PCOD8231518 Si02
#       7
#     8   8   8   8   8   8   8
#     4  10  21  37  56  79 110 144 182 226 271 318
#     4   9  18  32  52  81 113 145 179 220 268 321
#     4   8  16  30  50  76 106 140 177 218 266 317
#     4  10  19  33  54  83 116 148 183 224 272 328
#     4  10  20  37  58  81 111 147 186 229 275 324
#     4  10  20  34  55  82 112 144 179 219 269 325
#     4  11  24  41  60  82 108 142 183 228 273 321
#
# _framework density 19.650739999999999
#
# number of rings (size 3 to 8) (size 9 to 14) (size 15 to 20)
#    0.000    2.286    0.000    2.571    0.000    4.000 
#    0.000    2.143    0.000    3.429    0.000    0.000 
#    0.000    0.000    0.000    0.000    0.000    0.000 
#
# Total GULP energy -693983.779734 kJ/mol
# GULP energy per Si atom -12392.567495 kJ/mol
# Density = 1.960601 g / cm^3
# Si number density = 19.650740 Si / 1000 Ang^3
#
#
#
# Elastic Constant Matrix: (Units=GPa)
#
#
# Indices 1 2 3 4 5 6 
#
# 1 47.6240 26.9503 32.4407 0.0000 0.0000 0.0000
# 2 26.9503 119.1429 58.1068 0.0000 0.0000 0.0000
# 3 32.4407 58.1068 96.9775 0.0000 0.0000 0.0000
# 4 0.0000 0.0000 0.0000 39.0765 0.0000 0.0000
# 5 0.0000 0.0000 0.0000 0.0000 26.1513 0.0000
# 6 0.0000 0.0000 0.0000 0.0000 0.0000 21.2958
#
#
#
# Elastic Compliance Matrix: (Units=1/GPa)
#
#
# Indices 1 2 3 4 5 6 
#
# 1 0.027699 -0.002468 -0.007787 0.000000 0.000000 0.000000
# 2 -0.002468 0.012078 -0.006412 0.000000 0.000000 0.000000
# 3 -0.007787 -0.006412 0.016758 0.000000 0.000000 0.000000
# 4 0.000000 0.000000 0.000000 0.025591 0.000000 0.000000
# 5 0.000000 0.000000 0.000000 0.000000 0.038239 0.000000
# 6 0.000000 0.000000 0.000000 0.000000 0.000000 0.046958
#
#
# Mechanical properties :
#
#
# Convention : Reuss Voigt Hill
#
# Bulk Modulus (GPa) = 43.09863 55.41554 49.25709
# Shear Modulus (GPa) = 23.99344 27.05450 25.52397
#
# Velocity S-wave (km/s) = 3.49806 3.71451 3.60791
# Velocity P-wave (km/s) = 6.18831 6.83068 6.51742
#
# Compressibility (1/GPa) = 0.02320259
#
# Stress axis : x y z
#
# Youngs Moduli (GPa) = 36.10270 82.79180 59.67165
#
# Poissons Ratio (x) = 0.20430 0.46467
# Poissons Ratio (y) = 0.08909 0.38260
# Poissons Ratio (z) = 0.28114 0.53084
#
# Static dielectric constant tensor:
#      x y z
#    x 3.556170 0.000000 0.000000 
#    y 0.000000 3.146520 0.000000 
#    z 0.000000 0.000000 3.605250 
# 
# 
# High freq. dielectric constant tensor:
#      x y z
#    x 1.753300 0.000000 0.000000 
#    y 0.000000 1.760470 0.000000 
#    z 0.000000 0.000000 1.775300 
# 
# From -- ./inp_files/8097.got.cif
#   From: 2010.03.12/outbox.cif.g09.slc.cpg/sg57_5_cif.got.tgz:8097.got - 2010.04.16 15:48:40.
