data_PCOD8231313
_publ_section_title
;
Structure prediction by ZEFSAII (Michael W. Deem and Ramdas Pophale) SiO2 
 PCOD8231313
Probable space group: P B C M
;
_chemical_formula_sum "Si O2"
_cell_formula_units_Z 64
_cell_length_a 23.359692
_cell_length_b 15.513402
_cell_length_c 9.022672
_cell_angle_alpha 90.000000
_cell_angle_beta 90.000000
_cell_angle_gamma 90.000000
_cell_volume 3269.710701
_symmetry_space_group_name_H-M "P B C M"
_symmetry_group_IT_number 57
_symmetry_cell_setting 'orthorhombic'
loop_
_space_group_symop_operation_xyz
x,y,z
-x,-y,1/2+z
x,1/2-y,-z
-x,1/2+y,1/2-z
-x,-y,-z
x,y,1/2-z
-x,1/2+y,z
x,1/2-y,1/2+z
loop_
_atom_site_type_symbol
_atom_site_label
_atom_site_fract_x
_atom_site_fract_y
_atom_site_fract_z
Si Si1 0.061989 0.161915 0.924898
Si Si2 0.669185 0.833558 0.422583
Si Si3 0.070149 0.836286 0.422470
Si Si4 0.131650 0.009953 0.425699
Si Si5 0.748058 0.995581 0.076278
Si Si6 0.563421 0.418184 0.919780
Si Si7 0.564215 0.595798 0.419981
Si Si8 0.320122 0.835683 0.578699
O O1 0.072948 0.167346 0.750000
O O2 0.995709 0.146570 0.964492
O O3 0.083930 0.250000 0.000000
O O4 0.096492 0.083369 0.992476
O O5 0.697456 0.750000 0.500000
O O6 0.666259 0.815868 0.250000
O O7 0.706156 0.917034 0.461453
O O8 0.604637 0.844026 0.482160
O O9 0.093628 0.750000 0.500000
O O10 0.077756 0.820864 0.250000
O O11 0.106730 0.917792 0.476987
O O12 0.126244 0.022651 0.250000
O O13 0.196737 0.016078 0.475736
O O14 0.764231 0.996684 0.250000
O O15 0.716542 0.082555 0.025115
O O16 0.571072 0.451769 0.750000
O O17 0.501599 0.373384 0.940935
O O18 0.612874 0.349898 0.958288
O O19 0.570044 0.497272 0.030499
O O20 0.583589 0.602655 0.250000
O O21 0.297504 0.750000 0.500000
O O22 0.309959 0.820798 0.750000
#
# Coordination Sequence:
#
# PCOD8231313 Si02
#       8
#     8   8   8   8   8   8   8   8
#     4  10  20  37  61  89 122 158 195 234 284 341
#     4  11  23  41  62  83 112 148 191 240 293 350
#     4   9  20  37  59  89 123 158 194 236 284 337
#     4  11  23  38  59  88 120 153 195 243 288 341
#     4  10  23  43  61  78 111 156 196 241 293 341
#     4   9  18  35  56  82 117 152 185 230 286 345
#     4  10  19  32  57  88 115 147 187 230 287 349
#     4  10  21  39  60  82 111 149 191 236 287 341
#
# _framework density 19.573598
#
# number of rings (size 3 to 8) (size 9 to 14) (size 15 to 20)
#    0.000    2.000    1.250    1.875    0.000    5.500 
#    0.000    5.000    0.000    0.000    0.000    0.000 
#    0.000    0.000    0.000    0.000    0.000    0.000 
#
# Total GULP energy -793773.298262 kJ/mol
# GULP energy per Si atom -12402.707785 kJ/mol
# Density = 1.952905 g / cm^3
# Si number density = 19.573598 Si / 1000 Ang^3
#
#
#
# Elastic Constant Matrix: (Units=GPa)
#
#
# Indices 1 2 3 4 5 6 
#
# 1 61.9312 26.2431 36.1119 0.0000 0.0000 0.0000
# 2 26.2431 115.0106 46.9207 0.0000 0.0000 0.0000
# 3 36.1119 46.9207 75.6497 0.0000 0.0000 0.0000
# 4 0.0000 0.0000 0.0000 38.9580 0.0000 0.0000
# 5 0.0000 0.0000 0.0000 0.0000 29.9690 0.0000
# 6 0.0000 0.0000 0.0000 0.0000 0.0000 11.2634
#
#
#
# Elastic Compliance Matrix: (Units=1/GPa)
#
#
# Indices 1 2 3 4 5 6 
#
# 1 0.022461 -0.001005 -0.010099 0.000000 0.000000 0.000000
# 2 -0.001005 0.011685 -0.006768 0.000000 0.000000 0.000000
# 3 -0.010099 -0.006768 0.022237 0.000000 0.000000 0.000000
# 4 0.000000 0.000000 0.000000 0.025669 0.000000 0.000000
# 5 0.000000 0.000000 0.000000 0.000000 0.033368 0.000000
# 6 0.000000 0.000000 0.000000 0.000000 0.000000 0.088783
#
#
# Mechanical properties :
#
#
# Convention : Reuss Voigt Hill
#
# Bulk Modulus (GPa) = 48.44853 52.34921 50.39887
# Shear Modulus (GPa) = 20.25711 25.59246 22.92478
#
# Velocity S-wave (km/s) = 3.22051 3.61986 3.42601
# Velocity P-wave (km/s) = 6.21567 6.65387 6.43850
#
# Compressibility (1/GPa) = 0.02064046
#
# Stress axis : x y z
#
# Youngs Moduli (GPa) = 44.52082 85.57788 44.97011
#
# Poissons Ratio (x) = 0.08604 0.45413
# Poissons Ratio (y) = 0.04476 0.30434
# Poissons Ratio (z) = 0.44959 0.57917
#
# Static dielectric constant tensor:
#      x y z
#    x 3.616250 0.000000 0.000000 
#    y 0.000000 3.642340 0.000000 
#    z 0.000000 0.000000 3.562710 
# 
# 
# High freq. dielectric constant tensor:
#      x y z
#    x 1.759680 0.000000 0.000000 
#    y 0.000000 1.765390 0.000000 
#    z 0.000000 0.000000 1.764870 
# 
# From -- ./inp_files/9408.got.cif
#   From: 2010.03.12/outbox.cif.g09.slc.cpg/sg57_5_cif.got.tgz:9408.got - 2010.04.16 15:48:40.
