data_PCOD8231954
_publ_section_title
;
Structure prediction by ZEFSAII (Michael W. Deem and Ramdas Pophale) SiO2 
 PCOD8231954
Probable space group: P B C M
;
_chemical_formula_sum "Si O2"
_cell_formula_units_Z 36
_cell_length_a 9.160498
_cell_length_b 14.874965
_cell_length_c 12.633945
_cell_angle_alpha 90.000000
_cell_angle_beta 90.000000
_cell_angle_gamma 90.000000
_cell_volume 1721.527714
_symmetry_space_group_name_H-M "P B C M"
_symmetry_group_IT_number 57
_symmetry_cell_setting 'orthorhombic'
loop_
_space_group_symop_operation_xyz
x,y,z
-x,-y,1/2+z
x,1/2-y,-z
-x,1/2+y,1/2-z
-x,-y,-z
x,y,1/2-z
-x,1/2+y,z
x,1/2-y,1/2+z
loop_
_atom_site_type_symbol
_atom_site_label
_atom_site_fract_x
_atom_site_fract_y
_atom_site_fract_z
Si Si1 0.132901 0.750000 0.000000
Si Si2 0.332580 0.587711 0.497096
Si Si3 0.115732 0.474894 0.631322
Si Si4 0.396116 0.416853 0.370220
Si Si5 0.911784 0.625167 0.926775
O O1 0.236714 0.828802 0.953762
O O2 0.025151 0.707812 0.909372
O O3 0.250247 0.534131 0.589872
O O4 0.364225 0.521075 0.399629
O O5 0.482062 0.623325 0.550606
O O6 0.147791 0.440905 0.750000
O O7 0.093001 0.389873 0.554431
O O8 0.969028 0.535145 0.630476
O O9 0.451305 0.411627 0.250000
O O10 0.250029 0.355838 0.382892
#
# Coordination Sequence:
#
# PCOD8231954 Si02
#       5
#     4   8   8   8   8
#     4  10  20  38  52  78 116 142 176 228 280 328
#     4   9  20  35  57  80 109 144 179 224 275 326
#     4   9  16  32  52  74 101 139 180 215 258 324
#     4  10  19  36  57  80 105 143 189 227 267 327
#     4   9  19  31  51  76 105 139 176 222 271 317
#
# _framework density 20.911657999999999
#
# number of rings (size 3 to 8) (size 9 to 14) (size 15 to 20)
#    0.000    2.667    0.000    2.667    0.000    0.889 
#    0.000   13.333    0.000    0.000    0.000    0.000 
#    0.000    0.000    0.000    0.000    0.000    0.000 
#
# Total GULP energy -446134.321764 kJ/mol
# GULP energy per Si atom -12392.620049 kJ/mol
# Density = 2.086406 g / cm^3
# Si number density = 20.911658 Si / 1000 Ang^3
#
#
#
# Elastic Constant Matrix: (Units=GPa)
#
#
# Indices 1 2 3 4 5 6 
#
# 1 130.9073 30.4975 5.9757 0.0000 0.0000 0.0000
# 2 30.4975 71.9032 14.0797 0.0000 0.0000 0.0000
# 3 5.9757 14.0797 100.2464 0.0000 0.0000 0.0000
# 4 0.0000 0.0000 0.0000 7.5099 0.0000 0.0000
# 5 0.0000 0.0000 0.0000 0.0000 18.4508 0.0000
# 6 0.0000 0.0000 0.0000 0.0000 0.0000 38.4146
#
#
#
# Elastic Compliance Matrix: (Units=1/GPa)
#
#
# Indices 1 2 3 4 5 6 
#
# 1 0.008477 -0.003595 0.000000 0.000000 0.000000 0.000000
# 2 -0.003595 0.015826 -0.002008 0.000000 0.000000 0.000000
# 3 0.000000 -0.002008 0.010258 0.000000 0.000000 0.000000
# 4 0.000000 0.000000 0.000000 0.133158 0.000000 0.000000
# 5 0.000000 0.000000 0.000000 0.000000 0.054198 0.000000
# 6 0.000000 0.000000 0.000000 0.000000 0.000000 0.026032
#
#
# Mechanical properties :
#
#
# Convention : Reuss Voigt Hill
#
# Bulk Modulus (GPa) = 42.82317 44.90700 43.86509
# Shear Modulus (GPa) = 18.73080 29.70864 24.21972
#
# Velocity S-wave (km/s) = 2.99609 3.77327 3.40691
# Velocity P-wave (km/s) = 5.70012 6.36433 6.04136
#
# Compressibility (1/GPa) = 0.02335184
#
# Stress axis : x y z
#
# Youngs Moduli (GPa) = 117.97192 63.18804 97.48942
#
# Poissons Ratio (x) = 0.22718 0.00003
# Poissons Ratio (y) = 0.42414 0.19580
# Poissons Ratio (z) = 0.00004 0.12691
#
# Static dielectric constant tensor:
#      x y z
#    x 4.175020 0.000000 0.000000 
#    y 0.000000 3.556640 0.000000 
#    z 0.000000 0.000000 3.398730 
# 
# 
# High freq. dielectric constant tensor:
#      x y z
#    x 1.843530 0.000000 0.000000 
#    y 0.000000 1.781860 0.000000 
#    z 0.000000 0.000000 1.782380 
# 
# From -- ./inp_files/16056.got.cif
#   From: 2010.03.12/outbox.cif.g09.slc.cpg/sg57_9_cif.got.tgz:16056.got - 2010.04.16 15:48:40.
