data_PCOD8231997
_publ_section_title
;
Structure prediction by ZEFSAII (Michael W. Deem and Ramdas Pophale) SiO2 
 PCOD8231997
Probable space group: P B C M
;
_chemical_formula_sum "Si O2"
_cell_formula_units_Z 64
_cell_length_a 16.015783
_cell_length_b 10.997952
_cell_length_c 17.674383
_cell_angle_alpha 90.000000
_cell_angle_beta 90.000000
_cell_angle_gamma 90.000000
_cell_volume 3113.180185
_symmetry_space_group_name_H-M "P B C M"
_symmetry_group_IT_number 57
_symmetry_cell_setting 'orthorhombic'
loop_
_space_group_symop_operation_xyz
x,y,z
-x,-y,1/2+z
x,1/2-y,-z
-x,1/2+y,1/2-z
-x,-y,-z
x,y,1/2-z
-x,1/2+y,z
x,1/2-y,1/2+z
loop_
_atom_site_type_symbol
_atom_site_label
_atom_site_fract_x
_atom_site_fract_y
_atom_site_fract_z
Si Si1 0.353218 0.722725 0.587422
Si Si2 0.640464 0.908794 0.089701
Si Si3 0.045605 0.229547 0.838700
Si Si4 0.787457 0.722529 0.083066
Si Si5 0.248372 0.898139 0.661143
Si Si6 0.521751 0.734395 0.338542
Si Si7 0.937268 0.456291 0.659816
Si Si8 0.356063 0.055942 0.417582
O O1 0.338085 0.750000 0.500000
O O2 0.269875 0.761122 0.635057
O O3 0.436052 0.790454 0.617183
O O4 0.364951 0.582266 0.604371
O O5 0.715392 0.816065 0.103340
O O6 0.560442 0.864900 0.137183
O O7 0.674798 0.035525 0.119644
O O8 0.612535 0.915840 0.002554
O O9 0.031571 0.226979 0.750000
O O10 0.140154 0.267780 0.855458
O O11 0.987533 0.338341 0.873241
O O12 0.028650 0.089803 0.869011
O O13 0.742582 0.591125 0.087658
O O14 0.825494 0.750000 0.000000
O O15 0.253915 0.916626 0.750000
O O16 0.158079 0.941664 0.631467
O O17 0.503561 0.733998 0.250000
O O18 0.586514 0.628687 0.359388
O O19 0.941231 0.453298 0.750000
#
# Coordination Sequence:
#
# PCOD8231997 Si02
#       8
#     8   8   8   8   8   8   8   8
#     4  12  25  41  61  86 123 165 205 247 313 377
#     4  10  19  40  66  87 115 159 207 251 304 368
#     4  10  19  36  60  87 119 162 204 250 308 376
#     4   9  19  36  62  88 117 149 199 254 301 356
#     4  11  22  38  62  91 119 156 206 260 307 364
#     4  11  25  40  60  92 125 159 203 260 310 358
#     4   9  20  36  59  89 123 158 206 256 310 373
#     4  10  23  42  61  88 122 160 207 255 307 374
#
# _framework density 20.557756999999999
#
# number of rings (size 3 to 8) (size 9 to 14) (size 15 to 20)
#    0.000    1.750    2.500    2.625    1.750    5.000 
#    0.000    2.500    0.000    0.000    0.000    0.000 
#    0.000    0.000    0.000    0.000    0.000    0.000 
#
# Total GULP energy -793305.380946 kJ/mol
# GULP energy per Si atom -12395.396577 kJ/mol
# Density = 2.051097 g / cm^3
# Si number density = 20.557757 Si / 1000 Ang^3
#
#
#
# Elastic Constant Matrix: (Units=GPa)
#
#
# Indices 1 2 3 4 5 6 
#
# 1 74.7152 43.4771 18.4371 0.0000 0.0000 0.0000
# 2 43.4771 119.5515 6.7796 0.0000 0.0000 0.0000
# 3 18.4371 6.7796 44.4087 0.0000 0.0000 0.0000
# 4 0.0000 0.0000 0.0000 24.6500 0.0000 0.0000
# 5 0.0000 0.0000 0.0000 0.0000 24.8274 0.0000
# 6 0.0000 0.0000 0.0000 0.0000 0.0000 -13.2700
#
#
#
# Elastic Compliance Matrix: (Units=1/GPa)
#
#
# Indices 1 2 3 4 5 6 
#
# 1 0.018829 -0.006460 -0.006831 0.000000 0.000000 0.000000
# 2 -0.006460 0.010654 0.001056 0.000000 0.000000 0.000000
# 3 -0.006831 0.001056 0.025193 0.000000 0.000000 0.000000
# 4 0.000000 0.000000 0.000000 0.040568 0.000000 0.000000
# 5 0.000000 0.000000 0.000000 0.000000 0.040278 0.000000
# 6 0.000000 0.000000 0.000000 0.000000 0.000000 -0.075358
#
#
# Mechanical properties :
#
#
# Convention : Reuss Voigt Hill
#
# Bulk Modulus (GPa) = 33.10718 41.78477 37.44598
# Shear Modulus (GPa) = 52.79631 18.57359 35.68495
#
# Velocity S-wave (km/s) = 5.07323 3.00906 4.17086
# Velocity P-wave (km/s) = 7.10326 5.69581 6.43811
#
# Compressibility (1/GPa) = 0.03020493
#
# Stress axis : x y z
#
# Youngs Moduli (GPa) = 53.10966 93.86078 39.69363
#
# Poissons Ratio (x) = 0.60635 0.27115
# Poissons Ratio (y) = 0.34309 -0.04190
# Poissons Ratio (z) = 0.36279 -0.09908
#
# Static dielectric constant tensor:
#      x y z
#    x 3.744280 0.000000 0.000000 
#    y 0.000000 2.151240 0.000000 
#    z 0.000000 0.000000 3.480280 
# 
# 
# High freq. dielectric constant tensor:
#      x y z
#    x 1.795820 0.000000 0.000000 
#    y 0.000000 1.816530 0.000000 
#    z 0.000000 0.000000 1.782490 
# 
# From -- ./inp_files/22683.got.cif
#   From: 2010.03.12/outbox.cif.g09.slc.cpg/sg57_12_cif.got.tgz:22683.got - 2010.04.16 15:48:40.
