data_PCOD8231258
_publ_section_title
;
Structure prediction by ZEFSAII (Michael W. Deem and Ramdas Pophale) SiO2 
 PCOD8231258
Probable space group: P B C M
;
_chemical_formula_sum "Si O2"
_cell_formula_units_Z 48
_cell_length_a 15.594679
_cell_length_b 18.188390
_cell_length_c 9.127443
_cell_angle_alpha 90.000000
_cell_angle_beta 90.000000
_cell_angle_gamma 90.000000
_cell_volume 2588.927133
_symmetry_space_group_name_H-M "P B C M"
_symmetry_group_IT_number 57
_symmetry_cell_setting 'orthorhombic'
loop_
_space_group_symop_operation_xyz
x,y,z
-x,-y,1/2+z
x,1/2-y,-z
-x,1/2+y,1/2-z
-x,-y,-z
x,y,1/2-z
-x,1/2+y,z
x,1/2-y,1/2+z
loop_
_atom_site_type_symbol
_atom_site_label
_atom_site_fract_x
_atom_site_fract_y
_atom_site_fract_z
Si Si1 0.808935 0.328594 0.077669
Si Si2 0.505929 0.827492 0.921813
Si Si3 0.654424 0.585548 0.578804
Si Si4 0.665054 0.083822 0.080651
Si Si5 0.004943 0.825209 0.418254
Si Si6 0.179937 0.327394 0.079285
O O1 0.793555 0.316905 0.250000
O O2 0.904036 0.364240 0.044280
O O3 0.796786 0.250000 0.000000
O O4 0.741934 0.386784 0.017567
O O5 0.519069 0.815067 0.750000
O O6 0.420230 0.871925 0.957482
O O7 0.498677 0.750000 0.000000
O O8 0.585703 0.872099 0.982932
O O9 0.635702 0.599261 0.750000
O O10 0.648746 0.500294 0.538437
O O11 0.748168 0.614521 0.531571
O O12 0.691012 0.092090 0.250000
O O13 0.003663 0.750000 0.500000
O O14 0.005455 0.804286 0.250000
O O15 0.914038 0.864893 0.457373
O O16 0.187721 0.309895 0.250000
O O17 0.194337 0.250000 0.000000
#
# Coordination Sequence:
#
# PCOD8231258 Si02
#       6
#     8   8   8   8   8   8
#     4  10  19  32  53  78 104 136 175 218 259 303
#     4  11  23  38  57  79 103 133 171 215 260 309
#     4  10  21  37  56  78 106 139 173 212 259 309
#     4  10  22  38  54  76 107 141 174 210 258 311
#     4   8  15  28  47  73 102 132 169 212 257 301
#     4   9  17  31  52  76 103 135 171 213 258 305
#
# _framework density 18.540496999999998
#
# number of rings (size 3 to 8) (size 9 to 14) (size 15 to 20)
#    0.000    2.333    0.000    2.500    0.000    6.000 
#    0.000    0.833    0.000    0.000    0.000    0.000 
#    0.000    0.000    0.000    0.000    0.000    0.000 
#
# Total GULP energy -594828.598651 kJ/mol
# GULP energy per Si atom -12392.262472 kJ/mol
# Density = 1.849830 g / cm^3
# Si number density = 18.540497 Si / 1000 Ang^3
#
#
#
# Elastic Constant Matrix: (Units=GPa)
#
#
# Indices 1 2 3 4 5 6 
#
# 1 184.0222 84.4885 76.2023 0.0000 0.0000 0.0000
# 2 84.4885 122.0165 53.8739 0.0000 0.0000 0.0000
# 3 76.2023 53.8739 71.2870 0.0000 0.0000 0.0000
# 4 0.0000 0.0000 0.0000 16.5812 0.0000 0.0000
# 5 0.0000 0.0000 0.0000 0.0000 26.3151 0.0000
# 6 0.0000 0.0000 0.0000 0.0000 0.0000 -12.6712
#
#
#
# Elastic Compliance Matrix: (Units=1/GPa)
#
#
# Indices 1 2 3 4 5 6 
#
# 1 0.010676 -0.003532 -0.008743 0.000000 0.000000 0.000000
# 2 -0.003532 0.013469 -0.006403 0.000000 0.000000 0.000000
# 3 -0.008743 -0.006403 0.028212 0.000000 0.000000 0.000000
# 4 0.000000 0.000000 0.000000 0.060309 0.000000 0.000000
# 5 0.000000 0.000000 0.000000 0.000000 0.038001 0.000000
# 6 0.000000 0.000000 0.000000 0.000000 0.000000 -0.078919
#
#
# Mechanical properties :
#
#
# Convention : Reuss Voigt Hill
#
# Bulk Modulus (GPa) = 66.66147 89.60612 78.13380
# Shear Modulus (GPa) = 43.81941 16.89574 30.35757
#
# Velocity S-wave (km/s) = 4.86680 3.02203 4.05083
# Velocity P-wave (km/s) = 8.22275 7.78536 8.00704
#
# Compressibility (1/GPa) = 0.01500117
#
# Stress axis : x y z
#
# Youngs Moduli (GPa) = 93.66554 74.24725 35.44568
#
# Poissons Ratio (x) = 0.26227 0.30990
# Poissons Ratio (y) = 0.33086 0.22695
# Poissons Ratio (z) = 0.81891 0.47538
#
# Static dielectric constant tensor:
#      x y z
#    x 4.204410 0.000000 0.000000 
#    y 0.000000 3.363640 0.000000 
#    z 0.000000 0.000000 3.485300 
# 
# 
# High freq. dielectric constant tensor:
#      x y z
#    x 1.748200 0.000000 0.000000 
#    y 0.000000 1.692270 0.000000 
#    z 0.000000 0.000000 1.722960 
# 
# From -- ./inp_files/4619.got.cif
#   From: 2010.03.12/outbox.cif.g09.slc.cpg/sg57_3_cif.got.tgz:4619.got - 2010.04.16 15:48:40.
