data_PCOD8231840
_publ_section_title
;
Structure prediction by ZEFSAII (Michael W. Deem and Ramdas Pophale) SiO2 
 PCOD8231840
Probable space group: P B C M
;
_chemical_formula_sum "Si O2"
_cell_formula_units_Z 64
_cell_length_a 24.377829
_cell_length_b 14.300119
_cell_length_c 8.897967
_cell_angle_alpha 90.000000
_cell_angle_beta 90.000000
_cell_angle_gamma 90.000000
_cell_volume 3101.883400
_symmetry_space_group_name_H-M "P B C M"
_symmetry_group_IT_number 57
_symmetry_cell_setting 'orthorhombic'
loop_
_space_group_symop_operation_xyz
x,y,z
-x,-y,1/2+z
x,1/2-y,-z
-x,1/2+y,1/2-z
-x,-y,-z
x,y,1/2-z
-x,1/2+y,z
x,1/2-y,1/2+z
loop_
_atom_site_type_symbol
_atom_site_label
_atom_site_fract_x
_atom_site_fract_y
_atom_site_fract_z
Si Si1 0.371638 0.047085 0.928549
Si Si2 0.764540 0.155222 0.071956
Si Si3 0.944591 0.978901 0.915324
Si Si4 0.153419 0.351949 0.570761
Si Si5 0.524186 0.589882 0.077589
Si Si6 0.590873 0.158404 0.079813
Si Si7 0.738212 0.534775 0.071429
Si Si8 0.878388 0.165527 0.917734
O O1 0.366881 0.055618 0.750000
O O2 0.385607 0.940442 0.982634
O O3 0.420148 0.116156 0.987486
O O4 0.316079 0.085317 0.007414
O O5 0.756918 0.155667 0.250000
O O6 0.739748 0.250000 0.000000
O O7 0.733708 0.066937 0.003186
O O8 0.827723 0.144715 0.025998
O O9 0.960198 0.942158 0.750000
O O10 0.901919 0.904593 0.988941
O O11 0.915891 0.077423 0.903888
O O12 0.000000 0.000000 0.000000
O O13 0.155477 0.250000 0.500000
O O14 0.151970 0.345097 0.750000
O O15 0.207238 0.409534 0.519130
O O16 0.539336 0.568862 0.250000
O O17 0.475566 0.665990 0.066611
O O18 0.500000 0.500000 0.000000
O O19 0.610617 0.164972 0.250000
O O20 0.616201 0.250000 0.000000
O O21 0.737230 0.526127 0.250000
O O22 0.857938 0.194253 0.750000
O O23 0.911524 0.250000 0.000000
#
# Coordination Sequence:
#
# PCOD8231840 Si02
#       8
#     8   8   8   8   8   8   8   8
#     4  10  21  36  54  82 113 146 194 243 288 353
#     4  11  21  34  56  85 115 151 194 237 287 352
#     4  10  22  40  61  88 123 156 193 244 295 353
#     4  10  23  44  66  89 120 156 201 251 301 357
#     4   9  17  32  52  76 105 143 187 234 286 339
#     4   9  19  33  52  79 113 146 184 232 284 346
#     4  11  22  40  62  85 119 159 199 251 306 357
#     4  10  19  35  56  82 117 151 187 232 285 343
#
# _framework density 20.632625999999998
#
# number of rings (size 3 to 8) (size 9 to 14) (size 15 to 20)
#    0.000    2.000    1.250    4.125    0.000    6.500 
#    0.000    4.375    0.000    0.000    0.000    0.000 
#    0.000    0.000    0.000    0.000    0.000    0.000 
#
# Total GULP energy -793056.174251 kJ/mol
# GULP energy per Si atom -12391.502723 kJ/mol
# Density = 2.058566 g / cm^3
# Si number density = 20.632626 Si / 1000 Ang^3
#
#
#
# Elastic Constant Matrix: (Units=GPa)
#
#
# Indices 1 2 3 4 5 6 
#
# 1 136.8664 28.5845 46.3589 0.0000 0.0000 0.0000
# 2 28.5845 62.7300 28.2668 0.0000 0.0000 0.0000
# 3 46.3589 28.2668 104.1221 0.0000 0.0000 0.0000
# 4 0.0000 0.0000 0.0000 31.8614 0.0000 0.0000
# 5 0.0000 0.0000 0.0000 0.0000 30.2705 0.0000
# 6 0.0000 0.0000 0.0000 0.0000 0.0000 8.6875
#
#
#
# Elastic Compliance Matrix: (Units=1/GPa)
#
#
# Indices 1 2 3 4 5 6 
#
# 1 0.008962 -0.002604 -0.003283 0.000000 0.000000 0.000000
# 2 -0.002604 0.018920 -0.003977 0.000000 0.000000 0.000000
# 3 -0.003283 -0.003977 0.012146 0.000000 0.000000 0.000000
# 4 0.000000 0.000000 0.000000 0.031386 0.000000 0.000000
# 5 0.000000 0.000000 0.000000 0.000000 0.033035 0.000000
# 6 0.000000 0.000000 0.000000 0.000000 0.000000 0.115108
#
#
# Mechanical properties :
#
#
# Convention : Reuss Voigt Hill
#
# Bulk Modulus (GPa) = 49.26362 56.68210 52.97286
# Shear Modulus (GPa) = 20.32081 27.53109 23.92595
#
# Velocity S-wave (km/s) = 3.14170 3.65683 3.40901
# Velocity P-wave (km/s) = 6.09005 6.73510 6.42068
#
# Compressibility (1/GPa) = 0.02029895
#
# Stress axis : x y z
#
# Youngs Moduli (GPa) = 111.57640 52.85383 82.33440
#
# Poissons Ratio (x) = 0.13766 0.27033
# Poissons Ratio (y) = 0.29060 0.32743
# Poissons Ratio (z) = 0.36635 0.21019
#
# Static dielectric constant tensor:
#      x y z
#    x 3.486620 0.000000 0.000000 
#    y 0.000000 3.676880 0.000000 
#    z 0.000000 0.000000 3.577970 
# 
# 
# High freq. dielectric constant tensor:
#      x y z
#    x 1.811250 0.000000 0.000000 
#    y 0.000000 1.788540 0.000000 
#    z 0.000000 0.000000 1.808810 
# 
# From -- ./inp_files/9506.got.cif
#   From: 2010.03.12/outbox.cif.g09.slc.cpg/sg57_5_cif.got.tgz:9506.got - 2010.04.16 15:48:40.
