data_PCOD8231356
_publ_section_title
;
Structure prediction by ZEFSAII (Michael W. Deem and Ramdas Pophale) SiO2 
 PCOD8231356
Probable space group: P B C M
;
_chemical_formula_sum "Si O2"
_cell_formula_units_Z 48
_cell_length_a 30.675185
_cell_length_b 9.568225
_cell_length_c 8.751277
_cell_angle_alpha 90.000000
_cell_angle_beta 90.000000
_cell_angle_gamma 90.000000
_cell_volume 2568.561689
_symmetry_space_group_name_H-M "P B C M"
_symmetry_group_IT_number 57
_symmetry_cell_setting 'orthorhombic'
loop_
_space_group_symop_operation_xyz
x,y,z
-x,-y,1/2+z
x,1/2-y,-z
-x,1/2+y,1/2-z
-x,-y,-z
x,y,1/2-z
-x,1/2+y,z
x,1/2-y,1/2+z
loop_
_atom_site_type_symbol
_atom_site_label
_atom_site_fract_x
_atom_site_fract_y
_atom_site_fract_z
Si Si1 0.036353 0.903091 0.569998
Si Si2 0.607012 0.602067 0.429486
Si Si3 0.775809 0.097654 0.429684
Si Si4 0.708268 0.893843 0.926990
Si Si5 0.461847 0.594853 0.432711
Si Si6 0.130563 0.600840 0.427121
O O1 0.031989 0.750000 0.500000
O O2 0.029153 0.892506 0.750000
O O3 0.084285 0.971932 0.529096
O O4 0.000000 0.000000 0.500000
O O5 0.591621 0.750000 0.500000
O O6 0.595701 0.602058 0.250000
O O7 0.657778 0.576940 0.461382
O O8 0.583374 0.474797 0.514714
O O9 0.774762 0.250000 0.500000
O O10 0.768199 0.106557 0.250000
O O11 0.823349 0.024753 0.469601
O O12 0.736145 0.015872 0.501531
O O13 0.718091 0.884818 0.750000
O O14 0.723837 0.750000 0.000000
O O15 0.465405 0.750000 0.500000
O O16 0.500000 0.500000 0.500000
O O17 0.464789 0.601255 0.250000
O O18 0.130892 0.750000 0.500000
O O19 0.130577 0.630384 0.250000
#
# Coordination Sequence:
#
# PCOD8231356 Si02
#       6
#     8   8   8   8   8   8
#     4  10  19  33  52  75 102 133 171 214 263 316
#     4  10  21  39  61  85 113 147 186 226 271 322
#     4  10  19  33  54  79 106 137 176 220 265 315
#     4  10  21  37  57  81 111 146 182 222 270 322
#     4  12  25  42  63  88 118 151 188 229 274 322
#     4   8  16  30  49  72  99 132 170 213 260 313
#
# _framework density 18.6875
#
# number of rings (size 3 to 8) (size 9 to 14) (size 15 to 20)
#    0.000    2.000    0.000    4.000    0.000    4.000 
#    0.000    0.833    0.000    0.000    0.000    0.000 
#    0.000    0.000    0.000    0.000    0.000    0.000 
#
# Total GULP energy -594800.169888 kJ/mol
# GULP energy per Si atom -12391.670206 kJ/mol
# Density = 1.864497 g / cm^3
# Si number density = 18.687500 Si / 1000 Ang^3
#
#
#
# Elastic Constant Matrix: (Units=GPa)
#
#
# Indices 1 2 3 4 5 6 
#
# 1 121.6387 71.9167 68.0215 0.0000 0.0000 0.0000
# 2 71.9167 109.8632 57.7271 0.0000 0.0000 0.0000
# 3 68.0215 57.7271 113.6998 0.0000 0.0000 0.0000
# 4 0.0000 0.0000 0.0000 35.8650 0.0000 0.0000
# 5 0.0000 0.0000 0.0000 0.0000 33.2736 0.0000
# 6 0.0000 0.0000 0.0000 0.0000 0.0000 31.5335
#
#
#
# Elastic Compliance Matrix: (Units=1/GPa)
#
#
# Indices 1 2 3 4 5 6 
#
# 1 0.015724 -0.007297 -0.005702 0.000000 0.000000 0.000000
# 2 -0.007297 0.015800 -0.003657 0.000000 0.000000 0.000000
# 3 -0.005702 -0.003657 0.014063 0.000000 0.000000 0.000000
# 4 0.000000 0.000000 0.000000 0.027882 0.000000 0.000000
# 5 0.000000 0.000000 0.000000 0.000000 0.030054 0.000000
# 6 0.000000 0.000000 0.000000 0.000000 0.000000 0.031712
#
#
# Mechanical properties :
#
#
# Convention : Reuss Voigt Hill
#
# Bulk Modulus (GPa) = 81.46118 82.28136 81.87127
# Shear Modulus (GPa) = 28.96228 29.97018 29.46623
#
# Velocity S-wave (km/s) = 3.94105 4.00904 3.97519
# Velocity P-wave (km/s) = 8.02465 8.09664 8.06073
#
# Compressibility (1/GPa) = 0.01227579
#
# Stress axis : x y z
#
# Youngs Moduli (GPa) = 63.59773 63.29114 71.10847
#
# Poissons Ratio (x) = 0.46181 0.40548
# Poissons Ratio (y) = 0.46405 0.26002
# Poissons Ratio (z) = 0.36265 0.23143
#
# Static dielectric constant tensor:
#      x y z
#    x 4.090690 0.000000 0.000000 
#    y 0.000000 3.203670 0.000000 
#    z 0.000000 0.000000 3.658910 
# 
# 
# High freq. dielectric constant tensor:
#      x y z
#    x 1.750450 0.000000 0.000000 
#    y 0.000000 1.698000 0.000000 
#    z 0.000000 0.000000 1.744140 
# 
# From -- ./inp_files/9901.got.cif
#   From: 2010.03.12/outbox.cif.g09.slc.cpg/sg57_5_cif.got.tgz:9901.got - 2010.04.16 15:48:40.
