data_PCOD8231195
_publ_section_title
;
Structure prediction by ZEFSAII (Michael W. Deem and Ramdas Pophale) SiO2 
 PCOD8231195
Probable space group: P B C M
;
_chemical_formula_sum "Si O2"
_cell_formula_units_Z 48
_cell_length_a 15.747328
_cell_length_b 19.085061
_cell_length_c 8.739413
_cell_angle_alpha 90.000000
_cell_angle_beta 90.000000
_cell_angle_gamma 90.000000
_cell_volume 2626.531957
_symmetry_space_group_name_H-M "P B C M"
_symmetry_group_IT_number 57
_symmetry_cell_setting 'orthorhombic'
loop_
_space_group_symop_operation_xyz
x,y,z
-x,-y,1/2+z
x,1/2-y,-z
-x,1/2+y,1/2-z
-x,-y,-z
x,y,1/2-z
-x,1/2+y,z
x,1/2-y,1/2+z
loop_
_atom_site_type_symbol
_atom_site_label
_atom_site_fract_x
_atom_site_fract_y
_atom_site_fract_z
Si Si1 0.086879 0.920199 0.927729
Si Si2 0.597607 0.827187 0.069339
Si Si3 0.089314 0.416861 0.073187
Si Si4 0.583339 0.175112 0.572729
Si Si5 0.234121 0.326646 0.570305
Si Si6 0.232011 0.827393 0.069040
O O1 0.070885 0.904929 0.750000
O O2 0.104958 0.001518 0.958091
O O3 0.167172 0.878040 0.986569
O O4 0.004851 0.894884 0.021356
O O5 0.612891 0.824537 0.250000
O O6 0.505859 0.864481 0.027754
O O7 0.594780 0.750000 0.000000
O O8 0.679364 0.864305 0.992652
O O9 0.101107 0.397005 0.250000
O O10 0.155365 0.374861 0.971510
O O11 0.584251 0.250000 0.500000
O O12 0.579309 0.190173 0.750000
O O13 0.673797 0.138992 0.532788
O O14 0.220939 0.250000 0.500000
O O15 0.240795 0.318979 0.750000
O O16 0.214315 0.824386 0.250000
O O17 0.223047 0.750000 0.000000
#
# Coordination Sequence:
#
# PCOD8231195 Si02
#       6
#     8   8   8   8   8   8
#     4  10  21  37  56  77 100 129 166 206 251 303
#     4   9  15  26  44  68  99 132 166 202 244 291
#     4  10  21  38  57  75  98 130 167 206 250 302
#     4   8  15  26  43  68  98 132 166 202 242 288
#     4  11  21  33  51  77 106 133 166 207 251 296
#     4  10  19  32  51  77 107 136 169 208 250 293
#
# _framework density 18.275048000000002
#
# number of rings (size 3 to 8) (size 9 to 14) (size 15 to 20)
#    0.000    2.333    0.000    4.500    0.000    4.000 
#    0.000    3.333    0.000    1.000    0.000    0.000 
#    0.000    0.000    0.000    0.000    0.000    0.000 
#
# Total GULP energy -594647.414948 kJ/mol
# GULP energy per Si atom -12388.487811 kJ/mol
# Density = 1.823345 g / cm^3
# Si number density = 18.275048 Si / 1000 Ang^3
#
#
#
# Elastic Constant Matrix: (Units=GPa)
#
#
# Indices 1 2 3 4 5 6 
#
# 1 161.2010 50.4065 47.2836 0.0000 0.0000 0.0000
# 2 50.4065 37.6333 30.2046 0.0000 0.0000 0.0000
# 3 47.2836 30.2046 89.2919 0.0000 0.0000 0.0000
# 4 0.0000 0.0000 0.0000 22.1734 0.0000 0.0000
# 5 0.0000 0.0000 0.0000 0.0000 1272.3874 0.0000
# 6 0.0000 0.0000 0.0000 0.0000 0.0000 -28.9697
#
#
#
# Elastic Compliance Matrix: (Units=1/GPa)
#
#
# Indices 1 2 3 4 5 6 
#
# 1 0.010756 -0.013501 -0.001129 0.000000 0.000000 0.000000
# 2 -0.013501 0.053421 -0.010921 0.000000 0.000000 0.000000
# 3 -0.001129 -0.010921 0.015491 0.000000 0.000000 0.000000
# 4 0.000000 0.000000 0.000000 0.045099 0.000000 0.000000
# 5 0.000000 0.000000 0.000000 0.000000 0.000786 0.000000
# 6 0.000000 0.000000 0.000000 0.000000 0.000000 -0.034519
#
#
# Mechanical properties :
#
#
# Convention : Reuss Voigt Hill
#
# Bulk Modulus (GPa) = 35.00638 60.43506 47.72072
# Shear Modulus (GPa) = 32.96867 263.80032 148.38450
#
# Velocity S-wave (km/s) = 4.25199 12.02761 9.02061
# Velocity P-wave (km/s) = 6.58048 15.03416 11.60450
#
# Compressibility (1/GPa) = 0.02856622
#
# Stress axis : x y z
#
# Youngs Moduli (GPa) = 92.96948 18.71923 64.55207
#
# Poissons Ratio (x) = 0.25273 0.07287
# Poissons Ratio (y) = 1.25517 0.70500
# Poissons Ratio (z) = 0.10495 0.20444
#
# Static dielectric constant tensor:
#      x y z
#    x 4.293560 0.000000 0.000000 
#    y 0.000000 2.889670 0.000000 
#    z 0.000000 0.000000 3.427180 
# 
# 
# High freq. dielectric constant tensor:
#      x y z
#    x 1.741790 0.000000 0.000000 
#    y 0.000000 1.649100 0.000000 
#    z 0.000000 0.000000 1.725960 
# 
# From -- ./inp_files/4879.got.cif
#   From: 2010.03.12/outbox.cif.g09.slc.cpg/sg57_3_cif.got.tgz:4879.got - 2010.04.16 15:48:40.
