data_PCOD8231328
_publ_section_title
;
Structure prediction by ZEFSAII (Michael W. Deem and Ramdas Pophale) SiO2 
 PCOD8231328
Probable space group: P B C M
;
_chemical_formula_sum "Si O2"
_cell_formula_units_Z 64
_cell_length_a 17.610931
_cell_length_b 22.659084
_cell_length_c 8.789510
_cell_angle_alpha 90.000000
_cell_angle_beta 90.000000
_cell_angle_gamma 90.000000
_cell_volume 3507.432562
_symmetry_space_group_name_H-M "P B C M"
_symmetry_group_IT_number 57
_symmetry_cell_setting 'orthorhombic'
loop_
_space_group_symop_operation_xyz
x,y,z
-x,-y,1/2+z
x,1/2-y,-z
-x,1/2+y,1/2-z
-x,-y,-z
x,y,1/2-z
-x,1/2+y,z
x,1/2-y,1/2+z
loop_
_atom_site_type_symbol
_atom_site_label
_atom_site_fract_x
_atom_site_fract_y
_atom_site_fract_z
Si Si1 0.090098 0.649385 0.929644
Si Si2 0.927786 0.689287 0.569641
Si Si3 0.482783 0.437754 0.072049
Si Si4 0.648060 0.418065 0.427211
Si Si5 0.748030 0.310558 0.068830
Si Si6 0.920285 0.016342 0.930025
Si Si7 0.668100 0.552135 0.430680
Si Si8 0.178973 0.417760 0.430252
O O1 0.083990 0.652111 0.750000
O O2 0.164514 0.683968 0.987022
O O3 0.099502 0.582181 0.981662
O O4 0.012322 0.676589 0.997554
O O5 0.897113 0.750000 0.500000
O O6 0.929040 0.693864 0.750000
O O7 0.870984 0.637897 0.516073
O O8 0.465314 0.443857 0.250000
O O9 0.559662 0.399734 0.043967
O O10 0.500000 0.500000 0.000000
O O11 0.408120 0.413381 0.986274
O O12 0.665640 0.421728 0.250000
O O13 0.700578 0.366394 0.497881
O O14 0.667359 0.483803 0.491196
O O15 0.741586 0.308492 0.250000
O O16 0.714723 0.250000 0.000000
O O17 0.924247 0.009271 0.750000
O O18 0.854203 0.976545 0.996472
O O19 0.000000 0.000000 0.000000
O O20 0.673663 0.555329 0.250000
O O21 0.736255 0.588689 0.506285
O O22 0.178823 0.423566 0.250000
#
# Coordination Sequence:
#
# PCOD8231328 Si02
#       8
#     8   8   8   8   8   8   8   8
#     4   9  18  34  53  72 102 138 170 211 263 310
#     4  10  21  37  53  71  97 133 177 220 260 307
#     4   9  16  29  50  77 107 137 168 204 251 310
#     4   8  16  31  51  74 104 140 170 200 252 316
#     4  10  19  33  51  71  99 137 177 215 253 300
#     4  11  20  34  54  77 105 137 172 214 265 320
#     4  10  19  33  54  81 106 134 173 213 266 326
#     4  11  22  36  52  76 109 139 172 216 267 315
#
# _framework density 18.246964999999999
#
# number of rings (size 3 to 8) (size 9 to 14) (size 15 to 20)
#    0.000    2.250    1.250    3.375    0.000    3.000 
#    0.000    6.250    0.000    0.750    0.000    1.750 
#    0.000    0.000    0.000    0.000    0.000    0.000 
#
# Total GULP energy -793316.786028 kJ/mol
# GULP energy per Si atom -12395.574782 kJ/mol
# Density = 1.820543 g / cm^3
# Si number density = 18.246965 Si / 1000 Ang^3
#
#
#
# Elastic Constant Matrix: (Units=GPa)
#
#
# Indices 1 2 3 4 5 6 
#
# 1 120.9015 41.2463 22.6792 0.0000 0.0000 0.0000
# 2 41.2463 90.4411 23.0246 0.0000 0.0000 0.0000
# 3 22.6792 23.0246 45.9031 0.0000 0.0000 0.0000
# 4 0.0000 0.0000 0.0000 24.7540 0.0000 0.0000
# 5 0.0000 0.0000 0.0000 0.0000 29.2747 0.0000
# 6 0.0000 0.0000 0.0000 0.0000 0.0000 18.9055
#
#
#
# Elastic Compliance Matrix: (Units=1/GPa)
#
#
# Indices 1 2 3 4 5 6 
#
# 1 0.010164 -0.003848 -0.003091 0.000000 0.000000 0.000000
# 2 -0.003848 0.014133 -0.005187 0.000000 0.000000 0.000000
# 3 -0.003091 -0.005187 0.025914 0.000000 0.000000 0.000000
# 4 0.000000 0.000000 0.000000 0.040397 0.000000 0.000000
# 5 0.000000 0.000000 0.000000 0.000000 0.034159 0.000000
# 6 0.000000 0.000000 0.000000 0.000000 0.000000 0.052895
#
#
# Mechanical properties :
#
#
# Convention : Reuss Voigt Hill
#
# Bulk Modulus (GPa) = 38.52592 47.90510 43.21551
# Shear Modulus (GPa) = 23.74521 25.93989 24.84255
#
# Velocity S-wave (km/s) = 3.61130 3.77450 3.69380
# Velocity P-wave (km/s) = 6.20871 6.73101 6.47513
#
# Compressibility (1/GPa) = 0.02595655
#
# Stress axis : x y z
#
# Youngs Moduli (GPa) = 98.38676 70.75827 38.58868
#
# Poissons Ratio (x) = 0.27230 0.11929
# Poissons Ratio (y) = 0.37863 0.20018
# Poissons Ratio (z) = 0.30415 0.36706
#
# Static dielectric constant tensor:
#      x y z
#    x 3.841650 0.000000 0.000000 
#    y 0.000000 3.271260 0.000000 
#    z 0.000000 0.000000 3.273190 
# 
# 
# High freq. dielectric constant tensor:
#      x y z
#    x 1.719260 0.000000 0.000000 
#    y 0.000000 1.682740 0.000000 
#    z 0.000000 0.000000 1.690230 
# 
# From -- ./inp_files/7119.got.cif
#   From: 2010.03.12/outbox.cif.g09.slc.cpg/sg57_4_cif.got.tgz:7119.got - 2010.04.16 15:48:40.
