data_PCOD8231600
_publ_section_title
;
Structure prediction by ZEFSAII (Michael W. Deem and Ramdas Pophale) SiO2 
 PCOD8231600
Probable space group: P B C M
;
_chemical_formula_sum "Si O2"
_cell_formula_units_Z 40
_cell_length_a 14.970160
_cell_length_b 8.942009
_cell_length_c 13.511407
_cell_angle_alpha 90.000000
_cell_angle_beta 90.000000
_cell_angle_gamma 90.000000
_cell_volume 1808.681602
_symmetry_space_group_name_H-M "P B C M"
_symmetry_group_IT_number 57
_symmetry_cell_setting 'orthorhombic'
loop_
_space_group_symop_operation_xyz
x,y,z
-x,-y,1/2+z
x,1/2-y,-z
-x,1/2+y,1/2-z
-x,-y,-z
x,y,1/2-z
-x,1/2+y,z
x,1/2-y,1/2+z
loop_
_atom_site_type_symbol
_atom_site_label
_atom_site_fract_x
_atom_site_fract_y
_atom_site_fract_z
Si Si1 0.222329 0.250000 0.000000
Si Si2 0.186240 0.787674 0.633998
Si Si3 0.450058 0.521241 0.864683
Si Si4 0.378834 0.196500 0.638557
Si Si5 0.104376 0.979048 0.488711
Si Si6 0.346697 0.750000 0.000000
O O1 0.287198 0.325579 0.080236
O O2 0.157080 0.126319 0.046876
O O3 0.192431 0.772258 0.750000
O O4 0.132490 0.646033 0.590319
O O5 0.284843 0.809057 0.589116
O O6 0.132896 0.935078 0.600543
O O7 0.420459 0.557417 0.750000
O O8 0.555778 0.554430 0.875711
O O9 0.432375 0.348245 0.892278
O O10 0.402398 0.618229 0.948894
O O11 0.347188 0.211903 0.750000
O O12 0.000000 0.000000 0.500000
#
# Coordination Sequence:
#
# PCOD8231600 Si02
#       6
#     4   8   8   8   8   4
#     4  12  23  39  66  92 124 162 204 267 323 370
#     4  10  22  40  62  89 122 161 205 254 312 375
#     4  10  21  38  58  83 122 166 207 251 300 357
#     4  10  23  40  59  88 123 164 210 254 306 368
#     4  10  23  43  65  91 123 159 204 258 319 389
#     4  10  19  33  58  84 114 156 204 253 299 356
#
# _framework density 22.115556999999999
#
# number of rings (size 3 to 8) (size 9 to 14) (size 15 to 20)
#    0.000    2.000    0.000    4.800    0.000   10.400 
#    0.000    4.000    0.000    0.000    0.000    0.000 
#    0.000    0.000    0.000    0.000    0.000    0.000 
#
# Total GULP energy -495720.499139 kJ/mol
# GULP energy per Si atom -12393.012478 kJ/mol
# Density = 2.206522 g / cm^3
# Si number density = 22.115557 Si / 1000 Ang^3
#
#
#
# Elastic Constant Matrix: (Units=GPa)
#
#
# Indices 1 2 3 4 5 6 
#
# 1 131.5010 21.5653 33.4510 0.0000 0.0000 0.0000
# 2 21.5653 47.9711 -1.7573 0.0000 0.0000 0.0000
# 3 33.4510 -1.7573 119.2719 0.0000 0.0000 0.0000
# 4 0.0000 0.0000 0.0000 26.1206 0.0000 0.0000
# 5 0.0000 0.0000 0.0000 0.0000 10.6640 0.0000
# 6 0.0000 0.0000 0.0000 0.0000 0.0000 23.5644
#
#
#
# Elastic Compliance Matrix: (Units=1/GPa)
#
#
# Indices 1 2 3 4 5 6 
#
# 1 0.008931 -0.004109 -0.002565 0.000000 0.000000 0.000000
# 2 -0.004109 0.022747 0.001488 0.000000 0.000000 0.000000
# 3 -0.002565 0.001488 0.009126 0.000000 0.000000 0.000000
# 4 0.000000 0.000000 0.000000 0.038284 0.000000 0.000000
# 5 0.000000 0.000000 0.000000 0.000000 0.093774 0.000000
# 6 0.000000 0.000000 0.000000 0.000000 0.000000 0.042437
#
#
# Mechanical properties :
#
#
# Convention : Reuss Voigt Hill
#
# Bulk Modulus (GPa) = 32.86151 45.02910 38.94531
# Shear Modulus (GPa) = 21.20304 28.43545 24.81924
#
# Velocity S-wave (km/s) = 3.09971 3.58965 3.35364
# Velocity P-wave (km/s) = 5.26329 6.13073 5.71349
#
# Compressibility (1/GPa) = 0.03043074
#
# Stress axis : x y z
#
# Youngs Moduli (GPa) = 111.97104 43.96091 109.58198
#
# Poissons Ratio (x) = 0.18063 0.28111
# Poissons Ratio (y) = 0.46007 -0.16301
# Poissons Ratio (z) = 0.28724 -0.06539
#
# Static dielectric constant tensor:
#      x y z
#    x 3.974280 0.000000 0.000000 
#    y 0.000000 4.113990 0.000000 
#    z 0.000000 0.000000 4.186370 
# 
# 
# High freq. dielectric constant tensor:
#      x y z
#    x 1.869100 0.000000 0.000000 
#    y 0.000000 1.875070 0.000000 
#    z 0.000000 0.000000 1.871530 
# 
# From -- ./inp_files/18252.got.cif
#   From: 2010.03.12/outbox.cif.g09.slc.cpg/sg57_10_cif.got.tgz:18252.got - 2010.04.16 15:48:40.
