data_PCOD8231527
_publ_section_title
;
Structure prediction by ZEFSAII (Michael W. Deem and Ramdas Pophale) SiO2 
 PCOD8231527
Probable space group: P B C M
;
_chemical_formula_sum "Si O2"
_cell_formula_units_Z 64
_cell_length_a 21.018556
_cell_length_b 19.409853
_cell_length_c 8.953450
_cell_angle_alpha 90.000000
_cell_angle_beta 90.000000
_cell_angle_gamma 90.000000
_cell_volume 3652.712872
_symmetry_space_group_name_H-M "P B C M"
_symmetry_group_IT_number 57
_symmetry_cell_setting 'orthorhombic'
loop_
_space_group_symop_operation_xyz
x,y,z
-x,-y,1/2+z
x,1/2-y,-z
-x,1/2+y,1/2-z
-x,-y,-z
x,y,1/2-z
-x,1/2+y,z
x,1/2-y,1/2+z
loop_
_atom_site_type_symbol
_atom_site_label
_atom_site_fract_x
_atom_site_fract_y
_atom_site_fract_z
Si Si1 0.322277 0.055864 0.579090
Si Si2 0.772628 0.364703 0.420102
Si Si3 0.890875 0.317495 0.925273
Si Si4 0.194338 0.996458 0.582356
Si Si5 0.391205 0.320660 0.922892
Si Si6 0.058343 0.534890 0.080138
Si Si7 0.538579 0.321660 0.575361
Si Si8 0.360640 0.585825 0.925321
O O1 0.345487 0.060645 0.750000
O O2 0.244526 0.059193 0.570229
O O3 0.348250 0.119322 0.487479
O O4 0.347734 0.985068 0.510452
O O5 0.789887 0.346324 0.250000
O O6 0.816083 0.317868 0.527422
O O7 0.788302 0.444151 0.451508
O O8 0.696746 0.358625 0.450133
O O9 0.895985 0.309797 0.750000
O O10 0.924857 0.388095 0.981580
O O11 0.923341 0.250000 0.000000
O O12 0.200881 0.962578 0.750000
O O13 0.119852 0.015779 0.561293
O O14 0.376260 0.312737 0.750000
O O15 0.464749 0.337972 0.952442
O O16 0.370931 0.250000 0.000000
O O17 0.037664 0.542523 0.250000
O O18 0.000000 0.500000 0.000000
O O19 0.558168 0.250000 0.500000
O O20 0.555522 0.318334 0.750000
O O21 0.575854 0.382822 0.494908
O O22 0.370028 0.570380 0.750000
#
# Coordination Sequence:
#
# PCOD8231527 Si02
#       8
#     8   8   8   8   8   8   8   8
#     4  10  19  33  55  78 101 131 165 206 254 298
#     4   9  17  29  46  69  96 127 161 197 239 285
#     4  10  20  33  49  71 100 133 170 210 247 288
#     4   8  16  31  49  72 101 128 157 195 237 284
#     4  10  21  37  55  75  98 126 165 211 259 312
#     4   9  18  32  51  76 104 134 168 203 242 291
#     4  10  21  36  52  69  94 130 168 208 255 306
#     4  10  20  33  50  74 103 133 168 208 249 297
#
# _framework density 17.521224
#
# number of rings (size 3 to 8) (size 9 to 14) (size 15 to 20)
#    0.000    2.500    0.000    3.000    0.000    7.000 
#    0.000    0.000    0.000    0.750    0.000    1.750 
#    0.000    0.000    0.000    0.000    0.000    0.000 
#
# Total GULP energy -793142.415885 kJ/mol
# GULP energy per Si atom -12392.850248 kJ/mol
# Density = 1.748134 g / cm^3
# Si number density = 17.521224 Si / 1000 Ang^3
#
#
#
# Elastic Constant Matrix: (Units=GPa)
#
#
# Indices 1 2 3 4 5 6 
#
# 1 97.0267 62.3061 47.0029 0.0000 0.0000 0.0000
# 2 62.3061 98.6479 44.8181 0.0000 0.0000 0.0000
# 3 47.0029 44.8181 85.6291 0.0000 0.0000 0.0000
# 4 0.0000 0.0000 0.0000 33.3322 0.0000 0.0000
# 5 0.0000 0.0000 0.0000 0.0000 28.3767 0.0000
# 6 0.0000 0.0000 0.0000 0.0000 0.0000 22.2294
#
#
#
# Elastic Compliance Matrix: (Units=1/GPa)
#
#
# Indices 1 2 3 4 5 6 
#
# 1 0.019114 -0.009585 -0.005475 0.000000 0.000000 0.000000
# 2 -0.009585 0.018106 -0.004215 0.000000 0.000000 0.000000
# 3 -0.005475 -0.004215 0.016890 0.000000 0.000000 0.000000
# 4 0.000000 0.000000 0.000000 0.030001 0.000000 0.000000
# 5 0.000000 0.000000 0.000000 0.000000 0.035240 0.000000
# 6 0.000000 0.000000 0.000000 0.000000 0.000000 0.044985
#
#
# Mechanical properties :
#
#
# Convention : Reuss Voigt Hill
#
# Bulk Modulus (GPa) = 64.27128 65.50643 64.88885
# Shear Modulus (GPa) = 24.03003 25.26611 24.64807
#
# Velocity S-wave (km/s) = 3.70737 3.80153 3.75474
# Velocity P-wave (km/s) = 7.42211 7.53239 7.47745
#
# Compressibility (1/GPa) = 0.01555905
#
# Stress axis : x y z
#
# Youngs Moduli (GPa) = 52.31872 55.23046 59.20667
#
# Poissons Ratio (x) = 0.52937 0.32416
# Poissons Ratio (y) = 0.50146 0.24958
# Poissons Ratio (z) = 0.28645 0.23282
#
# Static dielectric constant tensor:
#      x y z
#    x 3.314750 0.000000 0.000000 
#    y 0.000000 3.017950 0.000000 
#    z 0.000000 0.000000 3.420320 
# 
# 
# High freq. dielectric constant tensor:
#      x y z
#    x 1.666870 0.000000 0.000000 
#    y 0.000000 1.652110 0.000000 
#    z 0.000000 0.000000 1.692300 
# 
# From -- ./inp_files/8442.got.cif
#   From: 2010.03.12/outbox.cif.g09.slc.cpg/sg57_5_cif.got.tgz:8442.got - 2010.04.16 15:48:40.
