data_PCOD8231282
_publ_section_title
;
Structure prediction by ZEFSAII (Michael W. Deem and Ramdas Pophale) SiO2 
 PCOD8231282
Probable space group: P B C M
;
_chemical_formula_sum "Si O2"
_cell_formula_units_Z 48
_cell_length_a 20.159042
_cell_length_b 13.790318
_cell_length_c 9.203049
_cell_angle_alpha 90.000000
_cell_angle_beta 90.000000
_cell_angle_gamma 90.000000
_cell_volume 2558.443939
_symmetry_space_group_name_H-M "P B C M"
_symmetry_group_IT_number 57
_symmetry_cell_setting 'orthorhombic'
loop_
_space_group_symop_operation_xyz
x,y,z
-x,-y,1/2+z
x,1/2-y,-z
-x,1/2+y,1/2-z
-x,-y,-z
x,y,1/2-z
-x,1/2+y,z
x,1/2-y,1/2+z
loop_
_atom_site_type_symbol
_atom_site_label
_atom_site_fract_x
_atom_site_fract_y
_atom_site_fract_z
Si Si1 0.119353 0.847169 0.579137
Si Si2 0.279776 0.349719 0.919198
Si Si3 0.846179 0.528327 0.418528
Si Si4 0.595461 0.524654 0.418473
Si Si5 0.968119 0.656439 0.417052
Si Si6 0.466756 0.647576 0.079467
O O1 0.143171 0.750000 0.500000
O O2 0.130505 0.836406 0.750000
O O3 0.042955 0.870146 0.537307
O O4 0.164344 0.933626 0.516896
O O5 0.284229 0.326271 0.750000
O O6 0.208245 0.392208 0.962961
O O7 0.334733 0.428588 0.963756
O O8 0.293018 0.250000 0.000000
O O9 0.838587 0.499432 0.250000
O O10 0.919462 0.568240 0.453569
O O11 0.593621 0.493706 0.250000
O O12 0.586383 0.428404 0.514889
O O13 0.539642 0.605104 0.451485
O O14 0.941617 0.750000 0.500000
O O15 0.964878 0.684848 0.250000
O O16 0.453155 0.661653 0.250000
O O17 0.459254 0.750000 0.000000
#
# Coordination Sequence:
#
# PCOD8231282 Si02
#       6
#     8   8   8   8   8   8
#     4  10  20  34  52  73  97 129 168 211 258 304
#     4  10  21  36  55  78 106 138 169 205 249 300
#     4  10  20  34  51  74 103 133 167 207 250 298
#     4   9  19  35  53  77 108 140 174 210 251 299
#     4   9  18  31  49  74 102 130 163 206 254 302
#     4  10  19  32  54  81 108 138 172 213 256 298
#
# _framework density 18.761403999999999
#
# number of rings (size 3 to 8) (size 9 to 14) (size 15 to 20)
#    0.000    2.333    0.000    2.500    0.000    3.333 
#    0.000    0.833    0.000    0.000    0.000    0.000 
#    0.000    0.000    0.000    0.000    0.000    0.000 
#
# Total GULP energy -595311.741813 kJ/mol
# GULP energy per Si atom -12402.327954 kJ/mol
# Density = 1.871870 g / cm^3
# Si number density = 18.761404 Si / 1000 Ang^3
#
#
#
# Elastic Constant Matrix: (Units=GPa)
#
#
# Indices 1 2 3 4 5 6 
#
# 1 49.0508 33.1028 28.3411 0.0000 0.0000 0.0000
# 2 33.1028 138.5564 76.1582 0.0000 0.0000 0.0000
# 3 28.3411 76.1582 85.2963 0.0000 0.0000 0.0000
# 4 0.0000 0.0000 0.0000 43.5386 0.0000 0.0000
# 5 0.0000 0.0000 0.0000 0.0000 21.7829 0.0000
# 6 0.0000 0.0000 0.0000 0.0000 0.0000 17.3578
#
#
#
# Elastic Compliance Matrix: (Units=1/GPa)
#
#
# Indices 1 2 3 4 5 6 
#
# 1 0.025792 -0.002851 -0.006025 0.000000 0.000000 0.000000
# 2 -0.002851 0.014488 -0.011989 0.000000 0.000000 0.000000
# 3 -0.006025 -0.011989 0.024430 0.000000 0.000000 0.000000
# 4 0.000000 0.000000 0.000000 0.022968 0.000000 0.000000
# 5 0.000000 0.000000 0.000000 0.000000 0.045908 0.000000
# 6 0.000000 0.000000 0.000000 0.000000 0.000000 0.057611
#
#
# Mechanical properties :
#
#
# Convention : Reuss Voigt Hill
#
# Bulk Modulus (GPa) = 43.51233 60.90084 52.20659
# Shear Modulus (GPa) = 20.78275 25.55596 23.16935
#
# Velocity S-wave (km/s) = 3.33188 3.69474 3.51799
# Velocity P-wave (km/s) = 6.16804 7.12269 6.66249
#
# Compressibility (1/GPa) = 0.02298199
#
# Stress axis : x y z
#
# Youngs Moduli (GPa) = 38.77220 69.02316 40.93356
#
# Poissons Ratio (x) = 0.19675 0.24661
# Poissons Ratio (y) = 0.11052 0.49074
# Poissons Ratio (z) = 0.23359 0.82749
#
# Static dielectric constant tensor:
#      x y z
#    x 3.391030 0.000000 0.000000 
#    y 0.000000 3.355310 0.000000 
#    z 0.000000 0.000000 3.462300 
# 
# 
# High freq. dielectric constant tensor:
#      x y z
#    x 1.712430 0.000000 0.000000 
#    y 0.000000 1.732580 0.000000 
#    z 0.000000 0.000000 1.729530 
# 
# From -- ./inp_files/7873.got.cif
#   From: 2010.03.12/outbox.cif.g09.slc.cpg/sg57_4_cif.got.tgz:7873.got - 2010.04.16 15:48:40.
