data_PCOD8231890
_publ_section_title
;
Structure prediction by ZEFSAII (Michael W. Deem and Ramdas Pophale) SiO2 
 PCOD8231890
Probable space group: P B C M
;
_chemical_formula_sum "Si O2"
_cell_formula_units_Z 48
_cell_length_a 14.328537
_cell_length_b 20.346670
_cell_length_c 9.087141
_cell_angle_alpha 90.000000
_cell_angle_beta 90.000000
_cell_angle_gamma 90.000000
_cell_volume 2649.247039
_symmetry_space_group_name_H-M "P B C M"
_symmetry_group_IT_number 57
_symmetry_cell_setting 'orthorhombic'
loop_
_space_group_symop_operation_xyz
x,y,z
-x,-y,1/2+z
x,1/2-y,-z
-x,1/2+y,1/2-z
-x,-y,-z
x,y,1/2-z
-x,1/2+y,z
x,1/2-y,1/2+z
loop_
_atom_site_type_symbol
_atom_site_label
_atom_site_fract_x
_atom_site_fract_y
_atom_site_fract_z
Si Si1 0.945962 0.683223 0.578190
Si Si2 0.448877 0.941267 0.920607
Si Si3 0.756351 0.021528 0.079566
Si Si4 0.940263 0.056222 0.576256
Si Si5 0.744297 0.631037 0.922003
Si Si6 0.564788 0.816072 0.924026
O O1 0.976485 0.750000 0.500000
O O2 0.949921 0.696137 0.750000
O O3 0.842648 0.661568 0.530174
O O4 0.017961 0.626589 0.531314
O O5 0.466394 0.953553 0.750000
O O6 0.339175 0.940473 0.956739
O O7 0.492237 0.872388 0.971942
O O8 0.500000 0.000000 0.000000
O O9 0.785490 0.028382 0.250000
O O10 0.744200 0.945539 0.037764
O O11 0.834281 0.054589 0.978510
O O12 0.945380 0.044901 0.750000
O O13 0.000000 0.000000 0.500000
O O14 0.722738 0.641825 0.750000
O O15 0.667589 0.667445 0.018504
O O16 0.569039 0.806370 0.750000
O O17 0.527860 0.750000 0.000000
#
# Coordination Sequence:
#
# PCOD8231890 Si02
#       6
#     8   8   8   8   8   8
#     4  10  22  38  55  81 114 148 187 228 280 337
#     4  10  21  37  59  84 113 148 191 234 281 339
#     4  10  20  37  59  86 117 148 184 236 289 334
#     4  11  22  38  59  85 115 149 192 236 279 339
#     4  10  19  35  58  84 117 150 181 232 288 338
#     4  11  23  37  55  84 116 152 193 233 283 343
#
# _framework density 18.118355000000001
#
# number of rings (size 3 to 8) (size 9 to 14) (size 15 to 20)
#    0.000    1.667    3.333    1.500    0.000    5.333 
#    0.000    0.833    0.000    4.000    0.000    0.000 
#    0.000    0.000    0.000    0.000    0.000    0.000 
#
# Total GULP energy -595422.213666 kJ/mol
# GULP energy per Si atom -12404.629451 kJ/mol
# Density = 1.807712 g / cm^3
# Si number density = 18.118355 Si / 1000 Ang^3
#
#
#
# Elastic Constant Matrix: (Units=GPa)
#
#
# Indices 1 2 3 4 5 6 
#
# 1 109.7438 76.3287 48.5833 0.0000 0.0000 0.0000
# 2 76.3287 157.1004 65.0111 0.0000 0.0000 0.0000
# 3 48.5833 65.0111 66.4577 0.0000 0.0000 0.0000
# 4 0.0000 0.0000 0.0000 32.3191 0.0000 0.0000
# 5 0.0000 0.0000 0.0000 0.0000 29.9253 0.0000
# 6 0.0000 0.0000 0.0000 0.0000 0.0000 28.0805
#
#
#
# Elastic Compliance Matrix: (Units=1/GPa)
#
#
# Indices 1 2 3 4 5 6 
#
# 1 0.015301 -0.004713 -0.006575 0.000000 0.000000 0.000000
# 2 -0.004713 0.012147 -0.008437 0.000000 0.000000 0.000000
# 3 -0.006575 -0.008437 0.028107 0.000000 0.000000 0.000000
# 4 0.000000 0.000000 0.000000 0.030941 0.000000 0.000000
# 5 0.000000 0.000000 0.000000 0.000000 0.033417 0.000000
# 6 0.000000 0.000000 0.000000 0.000000 0.000000 0.035612
#
#
# Mechanical properties :
#
#
# Convention : Reuss Voigt Hill
#
# Bulk Modulus (GPa) = 62.09407 79.23867 70.66637
# Shear Modulus (GPa) = 24.95731 27.62356 26.29043
#
# Velocity S-wave (km/s) = 3.71544 3.90887 3.81338
# Velocity P-wave (km/s) = 7.26304 8.01257 7.64699
#
# Compressibility (1/GPa) = 0.01610460
#
# Stress axis : x y z
#
# Youngs Moduli (GPa) = 65.35498 82.32778 35.57872
#
# Poissons Ratio (x) = 0.38804 0.23393
# Poissons Ratio (y) = 0.30804 0.30016
# Poissons Ratio (z) = 0.42971 0.69456
#
# Static dielectric constant tensor:
#      x y z
#    x 3.434510 0.000000 0.000000 
#    y 0.000000 3.434100 0.000000 
#    z 0.000000 0.000000 3.317180 
# 
# 
# High freq. dielectric constant tensor:
#      x y z
#    x 1.703820 0.000000 0.000000 
#    y 0.000000 1.705460 0.000000 
#    z 0.000000 0.000000 1.702420 
# 
# From -- ./inp_files/4572.got.cif
#   From: 2010.03.12/outbox.cif.g09.slc.cpg/sg57_3_cif.got.tgz:4572.got - 2010.04.16 15:48:40.
