data_PCOD8231035
_publ_section_title
;
Structure prediction by ZEFSAII (Michael W. Deem and Ramdas Pophale) SiO2 
 PCOD8231035
Probable space group: P B C M
;
_chemical_formula_sum "Si O2"
_cell_formula_units_Z 56
_cell_length_a 22.046680
_cell_length_b 14.414370
_cell_length_c 8.978189
_cell_angle_alpha 90.000000
_cell_angle_beta 90.000000
_cell_angle_gamma 90.000000
_cell_volume 2853.169729
_symmetry_space_group_name_H-M "P B C M"
_symmetry_group_IT_number 57
_symmetry_cell_setting 'orthorhombic'
loop_
_space_group_symop_operation_xyz
x,y,z
-x,-y,1/2+z
x,1/2-y,-z
-x,1/2+y,1/2-z
-x,-y,-z
x,y,1/2-z
-x,1/2+y,z
x,1/2-y,1/2+z
loop_
_atom_site_type_symbol
_atom_site_label
_atom_site_fract_x
_atom_site_fract_y
_atom_site_fract_z
Si Si1 0.096110 0.656474 0.575330
Si Si2 0.534468 0.843294 0.574474
Si Si3 0.752013 0.650266 0.925412
Si Si4 0.632862 0.958423 0.424196
Si Si5 0.969498 0.842683 0.923559
Si Si6 0.603951 0.159397 0.421970
Si Si7 0.854352 0.962686 0.919775
O O1 0.122566 0.750000 0.500000
O O2 0.085967 0.673260 0.750000
O O3 0.032097 0.629357 0.502030
O O4 0.143444 0.572867 0.547728
O O5 0.560612 0.750000 0.500000
O O6 0.542153 0.835798 0.750000
O O7 0.573649 0.928468 0.514443
O O8 0.465062 0.858594 0.524565
O O9 0.752793 0.664539 0.750000
O O10 0.690907 0.599194 0.979004
O O11 0.757278 0.750000 0.000000
O O12 0.807840 0.585416 0.969398
O O13 0.620041 0.943515 0.250000
O O14 0.643374 0.067771 0.458516
O O15 0.981592 0.823681 0.750000
O O16 0.921654 0.924301 0.948372
O O17 0.942787 0.750000 0.000000
O O18 0.632494 0.250000 0.500000
O O19 0.604435 0.183093 0.250000
O O20 0.834095 0.942567 0.750000
#
# Coordination Sequence:
#
# PCOD8231035 Si02
#       7
#     8   8   8   8   8   8   8
#     4  10  20  35  55  81 111 142 177 219 265 317
#     4  10  19  31  52  81 110 143 177 216 267 321
#     4  11  24  40  59  80 106 140 178 220 266 314
#     4  10  21  37  55  78 108 142 180 223 266 314
#     4  10  19  32  52  80 111 142 175 216 267 320
#     4   9  19  35  54  79 111 141 176 220 266 317
#     4  10  22  38  56  79 108 142 182 224 266 313
#
# _framework density 19.627293000000002
#
# number of rings (size 3 to 8) (size 9 to 14) (size 15 to 20)
#    0.000    2.000    0.000    4.286    0.000    6.857 
#    0.000    0.714    0.000    3.429    0.000    0.000 
#    0.000    0.000    0.000    0.000    0.000    0.000 
#
# Total GULP energy -694477.116090 kJ/mol
# GULP energy per Si atom -12401.377073 kJ/mol
# Density = 1.958262 g / cm^3
# Si number density = 19.627293 Si / 1000 Ang^3
#
#
#
# Elastic Constant Matrix: (Units=GPa)
#
#
# Indices 1 2 3 4 5 6 
#
# 1 57.2585 45.7020 31.2059 0.0000 0.0000 0.0000
# 2 45.7020 134.5271 48.1064 0.0000 0.0000 0.0000
# 3 31.2059 48.1064 81.9976 0.0000 0.0000 0.0000
# 4 0.0000 0.0000 0.0000 31.9782 0.0000 0.0000
# 5 0.0000 0.0000 0.0000 0.0000 19.7230 0.0000
# 6 0.0000 0.0000 0.0000 0.0000 0.0000 31.7807
#
#
#
# Elastic Compliance Matrix: (Units=1/GPa)
#
#
# Indices 1 2 3 4 5 6 
#
# 1 0.026094 -0.006724 -0.005986 0.000000 0.000000 0.000000
# 2 -0.006724 0.011140 -0.003976 0.000000 0.000000 0.000000
# 3 -0.005986 -0.003976 0.016806 0.000000 0.000000 0.000000
# 4 0.000000 0.000000 0.000000 0.031271 0.000000 0.000000
# 5 0.000000 0.000000 0.000000 0.000000 0.050702 0.000000
# 6 0.000000 0.000000 0.000000 0.000000 0.000000 0.031466
#
#
# Mechanical properties :
#
#
# Convention : Reuss Voigt Hill
#
# Bulk Modulus (GPa) = 48.38528 58.20128 53.29328
# Shear Modulus (GPa) = 24.06843 26.61429 25.34136
#
# Velocity S-wave (km/s) = 3.50562 3.68636 3.59713
# Velocity P-wave (km/s) = 6.41025 6.91640 6.66813
#
# Compressibility (1/GPa) = 0.02066744
#
# Stress axis : x y z
#
# Youngs Moduli (GPa) = 38.32310 89.76813 59.50149
#
# Poissons Ratio (x) = 0.60363 0.35615
# Poissons Ratio (y) = 0.25770 0.23660
# Poissons Ratio (z) = 0.22939 0.35696
#
# Static dielectric constant tensor:
#      x y z
#    x 3.332290 0.000000 0.000000 
#    y 0.000000 3.757550 0.000000 
#    z 0.000000 0.000000 3.605440 
# 
# 
# High freq. dielectric constant tensor:
#      x y z
#    x 1.737290 0.000000 0.000000 
#    y 0.000000 1.780150 0.000000 
#    z 0.000000 0.000000 1.769340 
# 
# From -- ./inp_files/8123.got.cif
#   From: 2010.03.12/outbox.cif.g09.slc.cpg/sg57_5_cif.got.tgz:8123.got - 2010.04.16 15:48:40.
