data_PCOD8231823
_publ_section_title
;
Structure prediction by ZEFSAII (Michael W. Deem and Ramdas Pophale) SiO2 
 PCOD8231823
Probable space group: P B C M
;
_chemical_formula_sum "Si O2"
_cell_formula_units_Z 56
_cell_length_a 17.119480
_cell_length_b 5.206373
_cell_length_c 30.617211
_cell_angle_alpha 90.000000
_cell_angle_beta 90.000000
_cell_angle_gamma 90.000000
_cell_volume 2728.924216
_symmetry_space_group_name_H-M "P B C M"
_symmetry_group_IT_number 57
_symmetry_cell_setting 'orthorhombic'
loop_
_space_group_symop_operation_xyz
x,y,z
-x,-y,1/2+z
x,1/2-y,-z
-x,1/2+y,1/2-z
-x,-y,-z
x,y,1/2-z
-x,1/2+y,z
x,1/2-y,1/2+z
loop_
_atom_site_type_symbol
_atom_site_label
_atom_site_fract_x
_atom_site_fract_y
_atom_site_fract_z
Si Si1 0.369657 0.473231 0.750000
Si Si2 0.965220 0.101158 0.952710
Si Si3 0.209714 0.999121 0.471482
Si Si4 0.967779 0.902839 0.357074
Si Si5 0.788920 0.547395 0.656359
Si Si6 0.287795 0.543879 0.881638
Si Si7 0.733126 0.472312 0.750000
Si Si8 0.549090 0.509389 0.158397
O O1 0.302664 0.687981 0.750000
O O2 0.423184 0.514523 0.708087
O O3 0.334620 0.186529 0.750000
O O4 0.974863 0.388011 0.974402
O O5 0.994807 0.168046 0.904152
O O6 0.877125 0.002833 0.951417
O O7 0.222833 0.250000 0.500000
O O8 0.226479 0.750000 0.500000
O O9 0.270914 0.008449 0.432211
O O10 0.987193 0.635000 0.332107
O O11 0.876580 0.956909 0.361326
O O12 0.742427 0.325078 0.631479
O O13 0.788336 0.501000 0.708079
O O14 0.751176 0.824591 0.648025
O O15 0.380295 0.534593 0.875089
O O16 0.485357 0.290477 0.149299
#
# Coordination Sequence:
#
# PCOD8231823 Si02
#       8
#     4   8   8   8   8   8   4   8
#     4  12  22  43  62 103 144 166 204 266 320 377
#     4  10  19  35  55  85 120 156 199 253 328 385
#     4  12  26  42  64  94 123 162 214 274 331 383
#     4  10  20  35  57  84 118 164 218 264 316 372
#     4  12  22  41  66  92 129 179 226 263 316 386
#     4  12  24  44  68  91 132 173 216 264 321 398
#     4  12  22  39  64  99 132 174 224 268 302 375
#     4  12  24  41  67 102 137 172 205 255 320 393
#
# _framework density 20.520904999999999
#
# number of rings (size 3 to 8) (size 9 to 14) (size 15 to 20)
#    0.000    0.571    2.857    8.143    0.000    1.714 
#    0.000    0.714    0.000    2.571    0.000    0.000 
#    0.000    0.000    0.000    0.000    0.000    0.000 
#
# Total GULP energy -694671.826719 kJ/mol
# GULP energy per Si atom -12404.854049 kJ/mol
# Density = 2.047420 g / cm^3
# Si number density = 20.520905 Si / 1000 Ang^3
#
#
#
# Elastic Constant Matrix: (Units=GPa)
#
#
# Indices 1 2 3 4 5 6 
#
# 1 106.3568 21.8498 44.7055 0.0000 0.0000 0.0000
# 2 21.8498 135.3693 19.7072 0.0000 0.0000 0.0000
# 3 44.7055 19.7072 104.0996 0.0000 0.0000 0.0000
# 4 0.0000 0.0000 0.0000 19.2758 0.0000 0.0000
# 5 0.0000 0.0000 0.0000 0.0000 27.2577 0.0000
# 6 0.0000 0.0000 0.0000 0.0000 0.0000 42.3959
#
#
#
# Elastic Compliance Matrix: (Units=1/GPa)
#
#
# Indices 1 2 3 4 5 6 
#
# 1 0.011655 -0.001185 -0.004781 0.000000 0.000000 0.000000
# 2 -0.001185 0.007717 -0.000952 0.000000 0.000000 0.000000
# 3 -0.004781 -0.000952 0.011840 0.000000 0.000000 0.000000
# 4 0.000000 0.000000 0.000000 0.051879 0.000000 0.000000
# 5 0.000000 0.000000 0.000000 0.000000 0.036687 0.000000
# 6 0.000000 0.000000 0.000000 0.000000 0.000000 0.023587
#
#
# Mechanical properties :
#
#
# Convention : Reuss Voigt Hill
#
# Bulk Modulus (GPa) = 57.55163 57.59453 57.57308
# Shear Modulus (GPa) = 30.67612 35.09008 32.88310
#
# Velocity S-wave (km/s) = 3.87055 4.13966 4.00737
# Velocity P-wave (km/s) = 6.93406 7.13977 7.03766
#
# Compressibility (1/GPa) = 0.01737570
#
# Stress axis : x y z
#
# Youngs Moduli (GPa) = 85.79667 129.58248 84.46219
#
# Poissons Ratio (x) = 0.15359 0.40382
# Poissons Ratio (y) = 0.10169 0.08040
# Poissons Ratio (z) = 0.41020 0.12335
#
# Static dielectric constant tensor:
#      x y z
#    x 3.606670 0.000000 0.000000 
#    y 0.000000 4.419100 0.000000 
#    z 0.000000 0.000000 3.824930 
# 
# 
# High freq. dielectric constant tensor:
#      x y z
#    x 1.785000 0.000000 0.000000 
#    y 0.000000 1.846750 0.000000 
#    z 0.000000 0.000000 1.794990 
# 
# From -- ./inp_files/29879.got.cif
#   From: 2010.03.12/outbox.cif.g09.slc.cpg/sg57_15_cif.got.tgz:29879.got - 2010.04.16 15:48:40.
