data_PCOD8231591
_publ_section_title
;
Structure prediction by ZEFSAII (Michael W. Deem and Ramdas Pophale) SiO2 
 PCOD8231591
Probable space group: P B C M
;
_chemical_formula_sum "Si O2"
_cell_formula_units_Z 64
_cell_length_a 22.987357
_cell_length_b 9.352979
_cell_length_c 14.415088
_cell_angle_alpha 90.000000
_cell_angle_beta 90.000000
_cell_angle_gamma 90.000000
_cell_volume 3099.247773
_symmetry_space_group_name_H-M "P B C M"
_symmetry_group_IT_number 57
_symmetry_cell_setting 'orthorhombic'
loop_
_space_group_symop_operation_xyz
x,y,z
-x,-y,1/2+z
x,1/2-y,-z
-x,1/2+y,1/2-z
-x,-y,-z
x,y,1/2-z
-x,1/2+y,z
x,1/2-y,1/2+z
loop_
_atom_site_type_symbol
_atom_site_label
_atom_site_fract_x
_atom_site_fract_y
_atom_site_fract_z
Si Si1 0.671740 0.599487 0.464723
Si Si2 0.443107 0.056737 0.137941
Si Si3 0.248205 0.908839 0.143710
Si Si4 0.926284 0.010442 0.143888
Si Si5 0.332262 0.835097 0.913083
Si Si6 0.035371 0.671796 0.644587
Si Si7 0.450519 0.760784 0.647985
Si Si8 0.138562 0.589925 0.976189
O O1 0.697447 0.750000 0.500000
O O2 0.607615 0.627227 0.423994
O O3 0.704488 0.530405 0.376521
O O4 0.681098 0.495988 0.554233
O O5 0.431637 0.065748 0.250000
O O6 0.502075 0.133943 0.103126
O O7 0.447177 0.894109 0.100328
O O8 0.228665 0.911789 0.250000
O O9 0.274449 0.749352 0.122791
O O10 0.193740 0.961261 0.082029
O O11 0.902846 0.006586 0.250000
O O12 0.960235 0.159388 0.123589
O O13 0.872083 0.000262 0.071853
O O14 0.969753 0.879388 0.124229
O O15 0.386540 0.834067 0.842832
O O16 0.358409 0.750000 0.000000
O O17 0.052123 0.637714 0.750000
O O18 0.079518 0.580049 0.582994
O O19 0.474460 0.731333 0.750000
O O20 0.154762 0.750000 0.000000
#
# Coordination Sequence:
#
# PCOD8231591 Si02
#       8
#     8   8   8   8   8   8   8   8
#     4  11  24  40  58  85 119 154 189 244 310 377
#     4  10  21  37  57  81 117 156 191 236 296 368
#     4  11  22  42  67  84 110 156 207 262 313 361
#     4   9  18  32  53  83 123 160 194 241 296 353
#     4  10  20  37  59  84 110 146 194 245 299 359
#     4   9  17  31  51  81 117 155 196 237 290 348
#     4  10  20  35  55  84 115 150 193 237 291 362
#     4  10  19  33  57  87 113 149 204 256 295 351
#
# _framework density 20.650172000000001
#
# number of rings (size 3 to 8) (size 9 to 14) (size 15 to 20)
#    0.000    2.000    2.500    2.625    1.750    1.500 
#    0.000    3.125    0.000    3.000    0.000    0.000 
#    0.000    0.000    0.000    0.000    0.000    0.000 
#
# Total GULP energy -793032.842479 kJ/mol
# GULP energy per Si atom -12391.138164 kJ/mol
# Density = 2.060317 g / cm^3
# Si number density = 20.650172 Si / 1000 Ang^3
#
#
#
# Elastic Constant Matrix: (Units=GPa)
#
#
# Indices 1 2 3 4 5 6 
#
# 1 98.0463 18.8924 51.3787 0.0000 0.0000 0.0000
# 2 18.8924 90.0429 30.1908 0.0000 0.0000 0.0000
# 3 51.3787 30.1908 97.2726 0.0000 0.0000 0.0000
# 4 0.0000 0.0000 0.0000 19.1575 0.0000 0.0000
# 5 0.0000 0.0000 0.0000 0.0000 39.5343 0.0000
# 6 0.0000 0.0000 0.0000 0.0000 0.0000 19.5157
#
#
#
# Elastic Compliance Matrix: (Units=1/GPa)
#
#
# Indices 1 2 3 4 5 6 
#
# 1 0.014124 -0.000516 -0.007300 0.000000 0.000000 0.000000
# 2 -0.000516 0.012415 -0.003581 0.000000 0.000000 0.000000
# 3 -0.007300 -0.003581 0.015248 0.000000 0.000000 0.000000
# 4 0.000000 0.000000 0.000000 0.052199 0.000000 0.000000
# 5 0.000000 0.000000 0.000000 0.000000 0.025294 0.000000
# 6 0.000000 0.000000 0.000000 0.000000 0.000000 0.051241
#
#
# Mechanical properties :
#
#
# Convention : Reuss Voigt Hill
#
# Bulk Modulus (GPa) = 52.65086 54.03171 53.34128
# Shear Modulus (GPa) = 25.04445 27.96816 26.50630
#
# Velocity S-wave (km/s) = 3.48630 3.68418 3.58661
# Velocity P-wave (km/s) = 6.46202 6.65730 6.56038
#
# Compressibility (1/GPa) = 0.01899304
#
# Stress axis : x y z
#
# Youngs Moduli (GPa) = 70.80085 80.55015 65.58380
#
# Poissons Ratio (x) = 0.04154 0.47877
# Poissons Ratio (y) = 0.03652 0.23484
# Poissons Ratio (z) = 0.51686 0.28843
#
# Static dielectric constant tensor:
#      x y z
#    x 3.575340 0.000000 0.000000 
#    y 0.000000 3.634310 0.000000 
#    z 0.000000 0.000000 3.827070 
# 
# 
# High freq. dielectric constant tensor:
#      x y z
#    x 1.793590 0.000000 0.000000 
#    y 0.000000 1.781940 0.000000 
#    z 0.000000 0.000000 1.814540 
# 
# From -- ./inp_files/19475.got.cif
#   From: 2010.03.12/outbox.cif.g09.slc.cpg/sg57_10_cif.got.tgz:19475.got - 2010.04.16 15:48:40.
