data_PCOD8231104
_publ_section_title
;
Structure prediction by ZEFSAII (Michael W. Deem and Ramdas Pophale) SiO2 
 PCOD8231104
Probable space group: P B C M
;
_chemical_formula_sum "Si O2"
_cell_formula_units_Z 48
_cell_length_a 18.520645
_cell_length_b 16.518820
_cell_length_c 8.979463
_cell_angle_alpha 90.000000
_cell_angle_beta 90.000000
_cell_angle_gamma 90.000000
_cell_volume 2747.169736
_symmetry_space_group_name_H-M "P B C M"
_symmetry_group_IT_number 57
_symmetry_cell_setting 'orthorhombic'
loop_
_space_group_symop_operation_xyz
x,y,z
-x,-y,1/2+z
x,1/2-y,-z
-x,1/2+y,1/2-z
-x,-y,-z
x,y,1/2-z
-x,1/2+y,z
x,1/2-y,1/2+z
loop_
_atom_site_type_symbol
_atom_site_label
_atom_site_fract_x
_atom_site_fract_y
_atom_site_fract_z
Si Si1 0.046008 0.068648 0.576842
Si Si2 0.465457 0.922543 0.425210
Si Si3 0.417837 0.168247 0.072556
Si Si4 0.830875 0.492307 0.427226
Si Si5 0.086442 0.667701 0.921429
Si Si6 0.329362 0.012880 0.076454
O O1 0.055620 0.048983 0.750000
O O2 0.999606 0.150970 0.554059
O O3 0.124396 0.068090 0.497594
O O4 0.000000 0.000000 0.500000
O O5 0.482915 0.919560 0.250000
O O6 0.500646 0.845210 0.507427
O O7 0.500000 0.000000 0.500000
O O8 0.379204 0.933178 0.453184
O O9 0.421518 0.174891 0.250000
O O10 0.366496 0.095169 0.015272
O O11 0.386588 0.250000 0.000000
O O12 0.834660 0.499888 0.250000
O O13 0.865286 0.407236 0.481848
O O14 0.749675 0.498152 0.492677
O O15 0.104370 0.679619 0.750000
O O16 0.109805 0.750000 0.000000
O O17 0.319557 0.026523 0.250000
#
# Coordination Sequence:
#
# PCOD8231104 Si02
#       6
#     8   8   8   8   8   8
#     4   9  17  30  47  69  91 118 156 194 231 278
#     4   9  16  29  49  71  94 124 160 197 234 285
#     4  10  19  32  50  72  96 127 165 206 249 293
#     4   9  17  32  51  71  95 126 158 193 238 290
#     4   9  18  30  47  68  92 120 154 193 234 277
#     4   8  16  31  51  71  95 127 160 191 237 293
#
# _framework density 17.472526999999999
#
# number of rings (size 3 to 8) (size 9 to 14) (size 15 to 20)
#    0.000    3.000    0.000    3.500    0.000    3.333 
#    0.000    6.667    0.000    6.000    0.000    0.000 
#    0.000    0.000    0.000    0.000    0.000    0.000 
#
# Total GULP energy -594635.051409 kJ/mol
# GULP energy per Si atom -12388.230238 kJ/mol
# Density = 1.743276 g / cm^3
# Si number density = 17.472527 Si / 1000 Ang^3
#
#
#
# Elastic Constant Matrix: (Units=GPa)
#
#
# Indices 1 2 3 4 5 6 
#
# 1 135.2867 43.1285 33.7955 0.0000 0.0000 0.0000
# 2 43.1285 79.8874 27.0589 0.0000 0.0000 0.0000
# 3 33.7955 27.0589 61.9034 0.0000 0.0000 0.0000
# 4 0.0000 0.0000 0.0000 28.9032 0.0000 0.0000
# 5 0.0000 0.0000 0.0000 0.0000 21.7154 0.0000
# 6 0.0000 0.0000 0.0000 0.0000 0.0000 18.8313
#
#
#
# Elastic Compliance Matrix: (Units=1/GPa)
#
#
# Indices 1 2 3 4 5 6 
#
# 1 0.009522 -0.003967 -0.003464 0.000000 0.000000 0.000000
# 2 -0.003967 0.016346 -0.004979 0.000000 0.000000 0.000000
# 3 -0.003464 -0.004979 0.020222 0.000000 0.000000 0.000000
# 4 0.000000 0.000000 0.000000 0.034598 0.000000 0.000000
# 5 0.000000 0.000000 0.000000 0.000000 0.046050 0.000000
# 6 0.000000 0.000000 0.000000 0.000000 0.000000 0.053103
#
#
# Mechanical properties :
#
#
# Convention : Reuss Voigt Hill
#
# Bulk Modulus (GPa) = 47.01795 53.89371 50.45583
# Shear Modulus (GPa) = 23.61256 25.42962 24.52109
#
# Velocity S-wave (km/s) = 3.68014 3.81912 3.75027
# Velocity P-wave (km/s) = 6.71014 7.09643 6.90599
#
# Compressibility (1/GPa) = 0.02126847
#
# Stress axis : x y z
#
# Youngs Moduli (GPa) = 105.02234 61.17763 49.45120
#
# Poissons Ratio (x) = 0.24270 0.17131
# Poissons Ratio (y) = 0.41664 0.24623
# Poissons Ratio (z) = 0.36382 0.30462
#
# Static dielectric constant tensor:
#      x y z
#    x 3.796680 0.000000 0.000000 
#    y 0.000000 3.225310 0.000000 
#    z 0.000000 0.000000 3.298870 
# 
# 
# High freq. dielectric constant tensor:
#      x y z
#    x 1.670900 0.000000 0.000000 
#    y 0.000000 1.650270 0.000000 
#    z 0.000000 0.000000 1.668110 
# 
# From -- ./inp_files/6671.got.cif
#   From: 2010.03.12/outbox.cif.g09.slc.cpg/sg57_4_cif.got.tgz:6671.got - 2010.04.16 15:48:40.
