data_PCOD8231019
_publ_section_title
;
Structure prediction by ZEFSAII (Michael W. Deem and Ramdas Pophale) SiO2 
 PCOD8231019
Probable space group: P B C M
;
_chemical_formula_sum "Si O2"
_cell_formula_units_Z 40
_cell_length_a 10.538463
_cell_length_b 13.885483
_cell_length_c 13.880781
_cell_angle_alpha 90.000000
_cell_angle_beta 90.000000
_cell_angle_gamma 90.000000
_cell_volume 2031.197571
_symmetry_space_group_name_H-M "P B C M"
_symmetry_group_IT_number 57
_symmetry_cell_setting 'orthorhombic'
loop_
_space_group_symop_operation_xyz
x,y,z
-x,-y,1/2+z
x,1/2-y,-z
-x,1/2+y,1/2-z
-x,-y,-z
x,y,1/2-z
-x,1/2+y,z
x,1/2-y,1/2+z
loop_
_atom_site_type_symbol
_atom_site_label
_atom_site_fract_x
_atom_site_fract_y
_atom_site_fract_z
Si Si1 0.695006 0.436230 0.358878
Si Si2 0.088437 0.354510 0.981717
Si Si3 0.514602 0.706226 0.639738
Si Si4 0.626729 0.880620 0.963546
Si Si5 0.018002 0.977433 0.138796
O O1 0.680261 0.476030 0.250000
O O2 0.632065 0.330207 0.368077
O O3 0.618779 0.508764 0.429757
O O4 0.843550 0.431801 0.384738
O O5 0.084831 0.414605 0.081353
O O6 0.026550 0.250000 0.000000
O O7 0.231714 0.341476 0.944268
O O8 0.011694 0.412329 0.899011
O O9 0.562054 0.703472 0.750000
O O10 0.528609 0.813954 0.597309
O O11 0.597551 0.630579 0.577088
O O12 0.981711 0.974771 0.250000
#
# Coordination Sequence:
#
# PCOD8231019 Si02
#       5
#     8   8   8   8   8
#     4   9  18  34  54  75 105 142 175 214 267 322
#     4  10  19  36  55  81 109 139 185 225 270 329
#     4  10  19  31  51  78 105 137 180 216 257 318
#     4  10  19  34  52  79 108 140 176 219 269 309
#     4   9  20  36  56  79 108 144 180 224 277 324
#
# _framework density 19.692817000000002
#
# number of rings (size 3 to 8) (size 9 to 14) (size 15 to 20)
#    0.000    2.400    2.000    1.200    0.000    2.400 
#    3.600    0.000    0.000    0.000    0.000    0.000 
#    0.000    0.000    0.000    0.000    0.000    0.000 
#
# Total GULP energy -495790.780023 kJ/mol
# GULP energy per Si atom -12394.769501 kJ/mol
# Density = 1.964799 g / cm^3
# Si number density = 19.692817 Si / 1000 Ang^3
#
#
#
# Elastic Constant Matrix: (Units=GPa)
#
#
# Indices 1 2 3 4 5 6 
#
# 1 36.0021 27.6118 11.1832 0.0000 0.0000 0.0000
# 2 27.6118 96.1922 25.0126 0.0000 0.0000 0.0000
# 3 11.1832 25.0126 118.8149 0.0000 0.0000 0.0000
# 4 0.0000 0.0000 0.0000 24.1553 0.0000 0.0000
# 5 0.0000 0.0000 0.0000 0.0000 23.4012 0.0000
# 6 0.0000 0.0000 0.0000 0.0000 0.0000 8.7128
#
#
#
# Elastic Compliance Matrix: (Units=1/GPa)
#
#
# Indices 1 2 3 4 5 6 
#
# 1 0.035799 -0.009944 -0.001276 0.000000 0.000000 0.000000
# 2 -0.009944 0.013760 -0.001961 0.000000 0.000000 0.000000
# 3 -0.001276 -0.001961 0.008949 0.000000 0.000000 0.000000
# 4 0.000000 0.000000 0.000000 0.041399 0.000000 0.000000
# 5 0.000000 0.000000 0.000000 0.000000 0.042733 0.000000
# 6 0.000000 0.000000 0.000000 0.000000 0.000000 0.114774
#
#
# Mechanical properties :
#
#
# Convention : Reuss Voigt Hill
#
# Bulk Modulus (GPa) = 31.10754 42.06938 36.58846
# Shear Modulus (GPa) = 16.97839 23.73396 20.35618
#
# Velocity S-wave (km/s) = 2.93944 3.47538 3.21859
# Velocity P-wave (km/s) = 5.22983 6.12483 5.69494
#
# Compressibility (1/GPa) = 0.03214655
#
# Stress axis : x y z
#
# Youngs Moduli (GPa) = 27.93344 72.67325 111.74010
#
# Poissons Ratio (x) = 0.72269 0.14259
# Poissons Ratio (y) = 0.27778 0.21910
# Poissons Ratio (z) = 0.03564 0.14250
#
# Static dielectric constant tensor:
#      x y z
#    x 3.401320 0.000000 0.000000 
#    y 0.000000 3.492840 0.000000 
#    z 0.000000 0.000000 3.671170 
# 
# 
# High freq. dielectric constant tensor:
#      x y z
#    x 1.742860 0.000000 0.000000 
#    y 0.000000 1.757290 0.000000 
#    z 0.000000 0.000000 1.772970 
# 
# From -- ./inp_files/17421.got.cif
#   From: 2010.03.12/outbox.cif.g09.slc.cpg/sg57_9_cif.got.tgz:17421.got - 2010.04.16 15:48:40.
