data_PCOD8231075
_publ_section_title
;
Structure prediction by ZEFSAII (Michael W. Deem and Ramdas Pophale) SiO2 
 PCOD8231075
Probable space group: P B C M
;
_chemical_formula_sum "Si O2"
_cell_formula_units_Z 48
_cell_length_a 12.687286
_cell_length_b 25.478542
_cell_length_c 8.726955
_cell_angle_alpha 90.000000
_cell_angle_beta 90.000000
_cell_angle_gamma 90.000000
_cell_volume 2821.019178
_symmetry_space_group_name_H-M "P B C M"
_symmetry_group_IT_number 57
_symmetry_cell_setting 'orthorhombic'
loop_
_space_group_symop_operation_xyz
x,y,z
-x,-y,1/2+z
x,1/2-y,-z
-x,1/2+y,1/2-z
-x,-y,-z
x,y,1/2-z
-x,1/2+y,z
x,1/2-y,1/2+z
loop_
_atom_site_type_symbol
_atom_site_label
_atom_site_fract_x
_atom_site_fract_y
_atom_site_fract_z
Si Si1 0.483769 0.192996 0.070737
Si Si2 0.882519 0.888564 0.931477
Si Si3 0.275595 0.192006 0.931215
Si Si4 0.114155 0.006179 0.930151
Si Si5 0.122959 0.891685 0.929959
Si Si6 0.715943 0.192881 0.070107
O O1 0.458803 0.195753 0.250000
O O2 0.599158 0.168318 0.037676
O O3 0.489471 0.250000 0.000000
O O4 0.385287 0.164166 0.987678
O O5 0.872709 0.884741 0.750000
O O6 0.003447 0.885118 0.990944
O O7 0.822571 0.840898 0.009290
O O8 0.831019 0.944001 0.987585
O O9 0.273279 0.194863 0.750000
O O10 0.266352 0.250000 0.000000
O O11 0.107849 0.017096 0.750000
O O12 0.170339 0.950047 0.965038
O O13 0.000000 0.000000 0.000000
O O14 0.119353 0.883035 0.750000
O O15 0.199871 0.847806 0.003057
O O16 0.732344 0.199418 0.250000
O O17 0.733717 0.250000 0.000000
#
# Coordination Sequence:
#
# PCOD8231075 Si02
#       6
#     8   8   8   8   8   8
#     4   9  16  28  47  67  89 118 154 191 225 268
#     4  10  19  32  49  70  97 125 156 194 236 281
#     4  11  21  33  49  69  95 124 156 192 232 278
#     4   9  16  29  48  68  91 123 162 198 233 275
#     4   8  16  30  48  69  95 125 154 189 232 277
#     4   9  17  30  47  69  95 123 153 186 228 274
#
# _framework density 17.015127
#
# number of rings (size 3 to 8) (size 9 to 14) (size 15 to 20)
#    0.000    2.667    0.000    5.000    0.000    1.333 
#    0.000    6.667    0.000    1.000    0.000    0.000 
#    0.000    0.000    0.000    0.000    0.000    0.000 
#
# Total GULP energy -594642.754031 kJ/mol
# GULP energy per Si atom -12388.390709 kJ/mol
# Density = 1.697640 g / cm^3
# Si number density = 17.015127 Si / 1000 Ang^3
#
#
#
# Elastic Constant Matrix: (Units=GPa)
#
#
# Indices 1 2 3 4 5 6 
#
# 1 102.4696 64.2790 41.1789 0.0000 0.0000 0.0000
# 2 64.2790 107.1810 41.4927 0.0000 0.0000 0.0000
# 3 41.1789 41.4927 91.1807 0.0000 0.0000 0.0000
# 4 0.0000 0.0000 0.0000 26.5543 0.0000 0.0000
# 5 0.0000 0.0000 0.0000 0.0000 20.7914 0.0000
# 6 0.0000 0.0000 0.0000 0.0000 0.0000 4.9647
#
#
#
# Elastic Compliance Matrix: (Units=1/GPa)
#
#
# Indices 1 2 3 4 5 6 
#
# 1 0.016560 -0.008541 -0.003592 0.000000 0.000000 0.000000
# 2 -0.008541 0.015730 -0.003301 0.000000 0.000000 0.000000
# 3 -0.003592 -0.003301 0.014092 0.000000 0.000000 0.000000
# 4 0.000000 0.000000 0.000000 0.037659 0.000000 0.000000
# 5 0.000000 0.000000 0.000000 0.000000 0.048097 0.000000
# 6 0.000000 0.000000 0.000000 0.000000 0.000000 0.201421
#
#
# Mechanical properties :
#
#
# Convention : Reuss Voigt Hill
#
# Bulk Modulus (GPa) = 64.45863 66.08138 65.27001
# Shear Modulus (GPa) = 13.52821 20.72079 17.12450
#
# Velocity S-wave (km/s) = 2.82276 3.49347 3.17587
# Velocity P-wave (km/s) = 6.97060 7.42924 7.20357
#
# Compressibility (1/GPa) = 0.01551383
#
# Stress axis : x y z
#
# Youngs Moduli (GPa) = 60.38522 63.57243 70.96374
#
# Poissons Ratio (x) = 0.54297 0.25492
# Poissons Ratio (y) = 0.51575 0.23424
# Poissons Ratio (z) = 0.21692 0.20985
#
# Static dielectric constant tensor:
#      x y z
#    x 3.756140 0.000000 0.000000 
#    y 0.000000 3.464220 0.000000 
#    z 0.000000 0.000000 3.673500 
# 
# 
# High freq. dielectric constant tensor:
#      x y z
#    x 1.643170 0.000000 0.000000 
#    y 0.000000 1.642130 0.000000 
#    z 0.000000 0.000000 1.657520 
# 
# From -- ./inp_files/3270.got.cif
#   From: 2010.03.12/outbox.cif.g09.slc.cpg/sg57_2_cif.got.tgz:3270.got - 2010.04.16 15:48:40.
