data_PCOD8231392
_publ_section_title
;
Structure prediction by ZEFSAII (Michael W. Deem and Ramdas Pophale) SiO2 
 PCOD8231392
Probable space group: P B C M
;
_chemical_formula_sum "Si O2"
_cell_formula_units_Z 48
_cell_length_a 18.322667
_cell_length_b 16.575016
_cell_length_c 9.020158
_cell_angle_alpha 90.000000
_cell_angle_beta 90.000000
_cell_angle_gamma 90.000000
_cell_volume 2739.408443
_symmetry_space_group_name_H-M "P B C M"
_symmetry_group_IT_number 57
_symmetry_cell_setting 'orthorhombic'
loop_
_space_group_symop_operation_xyz
x,y,z
-x,-y,1/2+z
x,1/2-y,-z
-x,1/2+y,1/2-z
-x,-y,-z
x,y,1/2-z
-x,1/2+y,z
x,1/2-y,1/2+z
loop_
_atom_site_type_symbol
_atom_site_label
_atom_site_fract_x
_atom_site_fract_y
_atom_site_fract_z
Si Si1 0.574286 0.515896 0.081971
Si Si2 0.787733 0.921435 0.419511
Si Si3 0.670162 0.668528 0.424360
Si Si4 0.155502 0.666755 0.920439
Si Si5 0.924100 0.481442 0.575806
Si Si6 0.716250 0.438579 0.416924
O O1 0.551687 0.529111 0.250000
O O2 0.616304 0.596161 0.025289
O O3 0.628257 0.437895 0.062011
O O4 0.500000 0.500000 0.000000
O O5 0.773016 0.897819 0.250000
O O6 0.753009 0.850923 0.520655
O O7 0.873542 0.938732 0.448582
O O8 0.748249 0.005194 0.455916
O O9 0.641310 0.750000 0.500000
O O10 0.671570 0.680545 0.250000
O O11 0.130839 0.673276 0.750000
O O12 0.243031 0.647544 0.931525
O O13 0.138485 0.750000 0.000000
O O14 0.109723 0.596634 0.997719
O O15 0.933489 0.463295 0.750000
O O16 0.000000 0.500000 0.500000
O O17 0.731860 0.474336 0.250000
#
# Coordination Sequence:
#
# PCOD8231392 Si02
#       6
#     8   8   8   8   8   8
#     4   9  18  32  50  73 100 131 166 203 246 297
#     4   9  17  30  50  74  97 124 161 201 241 290
#     4  10  20  34  52  74 100 130 166 208 253 298
#     4  10  19  33  53  75 101 132 167 211 257 299
#     4  10  20  34  53  77 104 135 170 205 247 301
#     4   8  16  31  49  69  95 128 165 202 242 291
#
# _framework density 17.522030999999998
#
# number of rings (size 3 to 8) (size 9 to 14) (size 15 to 20)
#    0.000    2.667    0.000    3.000    0.000    6.000 
#    0.000    1.667    0.000    8.000    0.000    0.000 
#    0.000    0.000    0.000    0.000    0.000    0.000 
#
# Total GULP energy -594708.243749 kJ/mol
# GULP energy per Si atom -12389.755078 kJ/mol
# Density = 1.748215 g / cm^3
# Si number density = 17.522031 Si / 1000 Ang^3
#
#
#
# Elastic Constant Matrix: (Units=GPa)
#
#
# Indices 1 2 3 4 5 6 
#
# 1 128.1295 47.3939 60.0908 0.0000 0.0000 0.0000
# 2 47.3939 85.1107 46.1560 0.0000 0.0000 0.0000
# 3 60.0908 46.1560 101.6530 0.0000 0.0000 0.0000
# 4 0.0000 0.0000 0.0000 29.5849 0.0000 0.0000
# 5 0.0000 0.0000 0.0000 0.0000 31.6264 0.0000
# 6 0.0000 0.0000 0.0000 0.0000 0.0000 18.0704
#
#
#
# Elastic Compliance Matrix: (Units=1/GPa)
#
#
# Indices 1 2 3 4 5 6 
#
# 1 0.011587 -0.003632 -0.005200 0.000000 0.000000 0.000000
# 2 -0.003632 0.016726 -0.005448 0.000000 0.000000 0.000000
# 3 -0.005200 -0.005448 0.015385 0.000000 0.000000 0.000000
# 4 0.000000 0.000000 0.000000 0.033801 0.000000 0.000000
# 5 0.000000 0.000000 0.000000 0.000000 0.031619 0.000000
# 6 0.000000 0.000000 0.000000 0.000000 0.000000 0.055339
#
#
# Mechanical properties :
#
#
# Convention : Reuss Voigt Hill
#
# Bulk Modulus (GPa) = 66.05787 69.13051 67.59419
# Shear Modulus (GPa) = 25.24449 26.60652 25.92550
#
# Velocity S-wave (km/s) = 3.79981 3.90097 3.85072
# Velocity P-wave (km/s) = 7.55203 7.73494 7.64403
#
# Compressibility (1/GPa) = 0.01513824
#
# Stress axis : x y z
#
# Youngs Moduli (GPa) = 86.30409 59.78669 64.99841
#
# Poissons Ratio (x) = 0.21715 0.33801
# Poissons Ratio (y) = 0.31346 0.35408
# Poissons Ratio (z) = 0.44881 0.32569
#
# Static dielectric constant tensor:
#      x y z
#    x 3.348830 0.000000 0.000000 
#    y 0.000000 3.131850 0.000000 
#    z 0.000000 0.000000 3.378540 
# 
# 
# High freq. dielectric constant tensor:
#      x y z
#    x 1.669110 0.000000 0.000000 
#    y 0.000000 1.650310 0.000000 
#    z 0.000000 0.000000 1.691830 
# 
# From -- ./inp_files/6476.got.cif
#   From: 2010.03.12/outbox.cif.g09.slc.cpg/sg57_4_cif.got.tgz:6476.got - 2010.04.16 15:48:40.
