data_PCOD8231032
_publ_section_title
;
Structure prediction by ZEFSAII (Michael W. Deem and Ramdas Pophale) SiO2 
 PCOD8231032
Probable space group: P B C M
;
_chemical_formula_sum "Si O2"
_cell_formula_units_Z 56
_cell_length_a 19.541203
_cell_length_b 18.513114
_cell_length_c 8.817814
_cell_angle_alpha 90.000000
_cell_angle_beta 90.000000
_cell_angle_gamma 90.000000
_cell_volume 3190.007510
_symmetry_space_group_name_H-M "P B C M"
_symmetry_group_IT_number 57
_symmetry_cell_setting 'orthorhombic'
loop_
_space_group_symop_operation_xyz
x,y,z
-x,-y,1/2+z
x,1/2-y,-z
-x,1/2+y,1/2-z
-x,-y,-z
x,y,1/2-z
-x,1/2+y,z
x,1/2-y,1/2+z
loop_
_atom_site_type_symbol
_atom_site_label
_atom_site_fract_x
_atom_site_fract_y
_atom_site_fract_z
Si Si1 0.958318 0.062395 0.574539
Si Si2 0.153936 0.041441 0.072585
Si Si3 0.523813 0.326428 0.421715
Si Si4 0.631631 0.825986 0.077844
Si Si5 0.309309 0.456335 0.927007
Si Si6 0.933493 0.829451 0.429668
Si Si7 0.566258 0.036595 0.428215
O O1 0.973306 0.057866 0.750000
O O2 0.989627 0.140464 0.522536
O O3 0.880380 0.038055 0.537094
O O4 0.000000 0.000000 0.500000
O O5 0.147828 0.060557 0.250000
O O6 0.231831 0.026761 0.024932
O O7 0.121777 0.110589 0.985237
O O8 0.530161 0.250000 0.500000
O O9 0.550985 0.321163 0.250000
O O10 0.445897 0.355630 0.422907
O O11 0.570210 0.380853 0.517260
O O12 0.659588 0.823065 0.250000
O O13 0.633831 0.750000 0.000000
O O14 0.679239 0.873573 0.971020
O O15 0.323081 0.469372 0.750000
O O16 0.361648 0.503101 0.024527
O O17 0.921772 0.750000 0.500000
O O18 0.925496 0.821002 0.250000
O O19 0.557951 0.031402 0.250000
O O20 0.500000 0.000000 0.500000
#
# Coordination Sequence:
#
# PCOD8231032 Si02
#       7
#     8   8   8   8   8   8   8
#     4   8  15  30  51  74  99 130 170 209 249 294
#     4   9  19  35  53  74 103 139 176 215 260 312
#     4  10  20  35  55  78 102 131 167 214 269 319
#     4  10  20  33  50  71 100 134 169 211 259 315
#     4  11  22  35  53  76 104 139 177 219 269 319
#     4  10  19  31  52  80 109 140 172 211 253 302
#     4  12  23  36  55  78 105 137 178 228 272 319
#
# _framework density 17.554817
#
# number of rings (size 3 to 8) (size 9 to 14) (size 15 to 20)
#    0.000    2.000    1.429    3.000    0.000    3.429 
#    0.000    0.000    0.000    0.857    0.000    2.000 
#    0.000    0.000    0.000    0.000    0.000    0.000 
#
# Total GULP energy -693780.613531 kJ/mol
# GULP energy per Si atom -12388.939527 kJ/mol
# Density = 1.751486 g / cm^3
# Si number density = 17.554817 Si / 1000 Ang^3
#
#
#
# Elastic Constant Matrix: (Units=GPa)
#
#
# Indices 1 2 3 4 5 6 
#
# 1 109.2673 54.9159 47.2181 0.0000 0.0000 0.0000
# 2 54.9159 67.3599 43.7519 0.0000 0.0000 0.0000
# 3 47.2181 43.7519 101.8477 0.0000 0.0000 0.0000
# 4 0.0000 0.0000 0.0000 28.1498 0.0000 0.0000
# 5 0.0000 0.0000 0.0000 0.0000 22.0962 0.0000
# 6 0.0000 0.0000 0.0000 0.0000 0.0000 25.1721
#
#
#
# Elastic Compliance Matrix: (Units=1/GPa)
#
#
# Indices 1 2 3 4 5 6 
#
# 1 0.015954 -0.011377 -0.002509 0.000000 0.000000 0.000000
# 2 -0.011377 0.028704 -0.007056 0.000000 0.000000 0.000000
# 3 -0.002509 -0.007056 0.014013 0.000000 0.000000 0.000000
# 4 0.000000 0.000000 0.000000 0.035524 0.000000 0.000000
# 5 0.000000 0.000000 0.000000 0.000000 0.045257 0.000000
# 6 0.000000 0.000000 0.000000 0.000000 0.000000 0.039727
#
#
# Mechanical properties :
#
#
# Convention : Reuss Voigt Hill
#
# Bulk Modulus (GPa) = 59.57184 63.36076 61.46630
# Shear Modulus (GPa) = 22.05961 23.92287 22.99124
#
# Velocity S-wave (km/s) = 3.54872 3.69555 3.62288
# Velocity P-wave (km/s) = 7.12739 7.37434 7.25192
#
# Compressibility (1/GPa) = 0.01678646
#
# Stress axis : x y z
#
# Youngs Moduli (GPa) = 62.68021 34.83848 71.36171
#
# Poissons Ratio (x) = 0.39635 0.17906
# Poissons Ratio (y) = 0.71310 0.50354
# Poissons Ratio (z) = 0.15728 0.24583
#
# Static dielectric constant tensor:
#      x y z
#    x 3.775370 0.000000 0.000000 
#    y 0.000000 3.520930 0.000000 
#    z 0.000000 0.000000 3.056160 
# 
# 
# High freq. dielectric constant tensor:
#      x y z
#    x 1.658980 0.000000 0.000000 
#    y 0.000000 1.674840 0.000000 
#    z 0.000000 0.000000 1.692330 
# 
# From -- ./inp_files/8281.got.cif
#   From: 2010.03.12/outbox.cif.g09.slc.cpg/sg57_5_cif.got.tgz:8281.got - 2010.04.16 15:48:40.
