data_PCOD8231038
_publ_section_title
;
Structure prediction by ZEFSAII (Michael W. Deem and Ramdas Pophale) SiO2 
 PCOD8231038
Probable space group: P B C M
;
_chemical_formula_sum "Si O2"
_cell_formula_units_Z 64
_cell_length_a 16.914527
_cell_length_b 21.206950
_cell_length_c 9.117774
_cell_angle_alpha 90.000000
_cell_angle_beta 90.000000
_cell_angle_gamma 90.000000
_cell_volume 3270.595940
_symmetry_space_group_name_H-M "P B C M"
_symmetry_group_IT_number 57
_symmetry_cell_setting 'orthorhombic'
loop_
_space_group_symop_operation_xyz
x,y,z
-x,-y,1/2+z
x,1/2-y,-z
-x,1/2+y,1/2-z
-x,-y,-z
x,y,1/2-z
-x,1/2+y,z
x,1/2-y,1/2+z
loop_
_atom_site_type_symbol
_atom_site_label
_atom_site_fract_x
_atom_site_fract_y
_atom_site_fract_z
Si Si1 0.797306 0.681446 0.425203
Si Si2 0.078614 0.936888 0.921047
Si Si3 0.919568 0.584547 0.576730
Si Si4 0.772617 0.077115 0.912386
Si Si5 0.360185 0.987520 0.579316
Si Si6 0.334686 0.803249 0.407705
Si Si7 0.540685 0.131716 0.086003
Si Si8 0.364222 0.387784 0.584999
O O1 0.810251 0.750000 0.500000
O O2 0.812113 0.686779 0.250000
O O3 0.856898 0.629789 0.494959
O O4 0.707896 0.658191 0.459782
O O5 0.067248 0.923079 0.750000
O O6 0.097045 0.010670 0.952006
O O7 0.153863 0.901930 0.988220
O O8 0.005600 0.905606 0.006609
O O9 0.919937 0.600351 0.750000
O O10 0.798713 0.052778 0.750000
O O11 0.720439 0.137856 0.894544
O O12 0.721239 0.024759 0.993543
O O13 0.340384 0.986569 0.750000
O O14 0.381324 0.057468 0.530859
O O15 0.431744 0.939554 0.538584
O O16 0.289327 0.750000 0.500000
O O17 0.355193 0.775215 0.250000
O O18 0.418212 0.818195 0.482101
O O19 0.572868 0.141158 0.250000
O O20 0.447932 0.147776 0.078968
O O21 0.349470 0.414299 0.750000
#
# Coordination Sequence:
#
# PCOD8231038 Si02
#       8
#     8   8   8   8   8   8   8   8
#     4  11  24  41  59  79 108 148 192 236 281 330
#     4  10  20  35  60  92 119 143 176 220 271 326
#     4  10  21  38  60  86 116 147 180 221 271 327
#     4  10  20  34  53  79 111 144 178 218 267 323
#     4  10  19  31  52  81 113 147 181 223 276 331
#     4  10  21  36  54  75 102 140 181 222 269 319
#     4   9  19  35  53  77 109 143 182 229 279 329
#     4  10  21  36  55  79 108 143 183 229 278 328
#
# _framework density 19.568299
#
# number of rings (size 3 to 8) (size 9 to 14) (size 15 to 20)
#    0.000    2.000    0.000    3.375    0.000    7.500 
#    0.000    1.875    0.000    1.500    0.000    0.000 
#    0.000    0.000    0.000    0.000    0.000    0.000 
#
# Total GULP energy -793151.720719 kJ/mol
# GULP energy per Si atom -12392.995636 kJ/mol
# Density = 1.952376 g / cm^3
# Si number density = 19.568299 Si / 1000 Ang^3
#
#
#
# Elastic Constant Matrix: (Units=GPa)
#
#
# Indices 1 2 3 4 5 6 
#
# 1 122.8843 19.7581 47.1445 0.0000 0.0000 0.0000
# 2 19.7581 50.5744 34.7980 0.0000 0.0000 0.0000
# 3 47.1445 34.7980 120.7500 0.0000 0.0000 0.0000
# 4 0.0000 0.0000 0.0000 32.8496 0.0000 0.0000
# 5 0.0000 0.0000 0.0000 0.0000 26.4696 0.0000
# 6 0.0000 0.0000 0.0000 0.0000 0.0000 7.0574
#
#
#
# Elastic Compliance Matrix: (Units=1/GPa)
#
#
# Indices 1 2 3 4 5 6 
#
# 1 0.009658 -0.001470 -0.003347 0.000000 0.000000 0.000000
# 2 -0.001470 0.024887 -0.006598 0.000000 0.000000 0.000000
# 3 -0.003347 -0.006598 0.011490 0.000000 0.000000 0.000000
# 4 0.000000 0.000000 0.000000 0.030442 0.000000 0.000000
# 5 0.000000 0.000000 0.000000 0.000000 0.037779 0.000000
# 6 0.000000 0.000000 0.000000 0.000000 0.000000 0.141696
#
#
# Mechanical properties :
#
#
# Convention : Reuss Voigt Hill
#
# Bulk Modulus (GPa) = 43.09532 55.29000 49.19266
# Shear Modulus (GPa) = 17.45095 26.10918 21.78007
#
# Velocity S-wave (km/s) = 2.98954 3.65671 3.33983
# Velocity P-wave (km/s) = 5.82986 6.79301 6.32978
#
# Compressibility (1/GPa) = 0.02320438
#
# Stress axis : x y z
#
# Youngs Moduli (GPa) = 103.53813 40.18162 87.03324
#
# Poissons Ratio (x) = 0.05907 0.29132
# Poissons Ratio (y) = 0.15222 0.57425
# Poissons Ratio (z) = 0.34656 0.26512
#
# Static dielectric constant tensor:
#      x y z
#    x 3.574350 0.000000 0.000000 
#    y 0.000000 3.361880 0.000000 
#    z 0.000000 0.000000 4.009200 
# 
# 
# High freq. dielectric constant tensor:
#      x y z
#    x 1.762650 0.000000 0.000000 
#    y 0.000000 1.741710 0.000000 
#    z 0.000000 0.000000 1.779850 
# 
# From -- ./inp_files/7237.got.cif
#   From: 2010.03.12/outbox.cif.g09.slc.cpg/sg57_4_cif.got.tgz:7237.got - 2010.04.16 15:48:40.
