data_PCOD8231697
_publ_section_title
;
Structure prediction by ZEFSAII (Michael W. Deem and Ramdas Pophale) SiO2 
 PCOD8231697
Probable space group: P B C M
;
_chemical_formula_sum "Si O2"
_cell_formula_units_Z 64
_cell_length_a 18.874613
_cell_length_b 19.937256
_cell_length_c 9.111632
_cell_angle_alpha 90.000000
_cell_angle_beta 90.000000
_cell_angle_gamma 90.000000
_cell_volume 3428.779935
_symmetry_space_group_name_H-M "P B C M"
_symmetry_group_IT_number 57
_symmetry_cell_setting 'orthorhombic'
loop_
_space_group_symop_operation_xyz
x,y,z
-x,-y,1/2+z
x,1/2-y,-z
-x,1/2+y,1/2-z
-x,-y,-z
x,y,1/2-z
-x,1/2+y,z
x,1/2-y,1/2+z
loop_
_atom_site_type_symbol
_atom_site_label
_atom_site_fract_x
_atom_site_fract_y
_atom_site_fract_z
Si Si1 0.063794 0.092744 0.077876
Si Si2 0.070023 0.562654 0.916513
Si Si3 0.714957 0.558135 0.578142
Si Si4 0.677476 0.183713 0.576908
Si Si5 0.516717 0.314272 0.080024
Si Si6 0.554446 0.950548 0.077554
Si Si7 0.184855 0.321919 0.424135
Si Si8 0.773363 0.064638 0.581611
O O1 0.069753 0.109155 0.250000
O O2 0.080255 0.015458 0.040818
O O3 0.115653 0.141974 0.990131
O O4 0.983017 0.103501 0.022133
O O5 0.041646 0.568366 0.750000
O O6 0.147687 0.594686 0.934424
O O7 0.715947 0.545945 0.750000
O O8 0.635051 0.545334 0.518632
O O9 0.745634 0.632308 0.542301
O O10 0.766499 0.504451 0.505196
O O11 0.707929 0.250000 0.500000
O O12 0.686870 0.191847 0.750000
O O13 0.596760 0.171301 0.527990
O O14 0.720446 0.120087 0.516772
O O15 0.515226 0.298276 0.250000
O O16 0.468436 0.376015 0.036508
O O17 0.484255 0.250000 0.000000
O O18 0.549418 0.964519 0.250000
O O19 0.500000 0.000000 0.000000
O O20 0.196584 0.250000 0.500000
O O21 0.174058 0.312295 0.250000
O O22 0.755409 0.048334 0.750000
#
# Coordination Sequence:
#
# PCOD8231697 Si02
#       8
#     8   8   8   8   8   8   8   8
#     4  10  19  34  56  82 109 142 184 226 273 329
#     4   9  18  32  54  82 111 142 178 224 270 324
#     4  10  22  37  55  81 112 143 181 230 282 333
#     4   9  18  32  51  75 103 137 174 215 264 318
#     4   9  18  33  52  73 100 135 176 218 262 318
#     4  10  21  37  55  80 111 142 179 227 281 334
#     4  11  23  39  58  81 114 153 192 238 288 338
#     4  10  19  34  56  81 109 144 184 224 269 325
#
# _framework density 18.665531000000001
#
# number of rings (size 3 to 8) (size 9 to 14) (size 15 to 20)
#    0.000    2.250    1.250    1.500    0.000    4.500 
#    0.000    3.125    0.000    1.500    0.000    0.000 
#    0.000    0.000    0.000    0.000    0.000    0.000 
#
# Total GULP energy -793513.780600 kJ/mol
# GULP energy per Si atom -12398.652822 kJ/mol
# Density = 1.862305 g / cm^3
# Si number density = 18.665531 Si / 1000 Ang^3
#
#
#
# Elastic Constant Matrix: (Units=GPa)
#
#
# Indices 1 2 3 4 5 6 
#
# 1 109.6115 48.0523 42.3346 0.0000 0.0000 0.0000
# 2 48.0523 82.7819 45.8649 0.0000 0.0000 0.0000
# 3 42.3346 45.8649 60.0137 0.0000 0.0000 0.0000
# 4 0.0000 0.0000 0.0000 34.0060 0.0000 0.0000
# 5 0.0000 0.0000 0.0000 0.0000 26.2529 0.0000
# 6 0.0000 0.0000 0.0000 0.0000 0.0000 24.2469
#
#
#
# Elastic Compliance Matrix: (Units=1/GPa)
#
#
# Indices 1 2 3 4 5 6 
#
# 1 0.013408 -0.004410 -0.006088 0.000000 0.000000 0.000000
# 2 -0.004410 0.022402 -0.014009 0.000000 0.000000 0.000000
# 3 -0.006088 -0.014009 0.031664 0.000000 0.000000 0.000000
# 4 0.000000 0.000000 0.000000 0.029407 0.000000 0.000000
# 5 0.000000 0.000000 0.000000 0.000000 0.038091 0.000000
# 6 0.000000 0.000000 0.000000 0.000000 0.000000 0.041242
#
#
# Mechanical properties :
#
#
# Convention : Reuss Voigt Hill
#
# Bulk Modulus (GPa) = 54.17420 58.32342 56.24881
# Shear Modulus (GPa) = 21.60947 24.64483 23.12715
#
# Velocity S-wave (km/s) = 3.40622 3.63759 3.52380
# Velocity P-wave (km/s) = 6.67506 6.99694 6.83789
#
# Compressibility (1/GPa) = 0.01845897
#
# Stress axis : x y z
#
# Youngs Moduli (GPa) = 74.58472 44.63978 31.58178
#
# Poissons Ratio (x) = 0.19685 0.19226
# Poissons Ratio (y) = 0.32890 0.44244
# Poissons Ratio (z) = 0.45405 0.62538
#
# Static dielectric constant tensor:
#      x y z
#    x 3.591970 0.000000 0.000000 
#    y 0.000000 3.346370 0.000000 
#    z 0.000000 0.000000 3.539470 
# 
# 
# High freq. dielectric constant tensor:
#      x y z
#    x 1.731310 0.000000 0.000000 
#    y 0.000000 1.713150 0.000000 
#    z 0.000000 0.000000 1.720140 
# 
# From -- ./inp_files/7248.got.cif
#   From: 2010.03.12/outbox.cif.g09.slc.cpg/sg57_4_cif.got.tgz:7248.got - 2010.04.16 15:48:40.
