data_PCOD8231604
_publ_section_title
;
Structure prediction by ZEFSAII (Michael W. Deem and Ramdas Pophale) SiO2 
 PCOD8231604
Probable space group: P B C M
;
_chemical_formula_sum "Si O2"
_cell_formula_units_Z 64
_cell_length_a 23.611334
_cell_length_b 9.479074
_cell_length_c 13.572006
_cell_angle_alpha 90.000000
_cell_angle_beta 90.000000
_cell_angle_gamma 90.000000
_cell_volume 3037.599281
_symmetry_space_group_name_H-M "P B C M"
_symmetry_group_IT_number 57
_symmetry_cell_setting 'orthorhombic'
loop_
_space_group_symop_operation_xyz
x,y,z
-x,-y,1/2+z
x,1/2-y,-z
-x,1/2+y,1/2-z
-x,-y,-z
x,y,1/2-z
-x,1/2+y,z
x,1/2-y,1/2+z
loop_
_atom_site_type_symbol
_atom_site_label
_atom_site_fract_x
_atom_site_fract_y
_atom_site_fract_z
Si Si1 0.667282 0.595365 0.475529
Si Si2 0.447304 0.078297 0.135094
Si Si3 0.253282 0.907913 0.136314
Si Si4 0.932530 0.014571 0.134495
Si Si5 0.329052 0.855303 0.866806
Si Si6 0.035658 0.673184 0.634714
Si Si7 0.448622 0.746946 0.638672
Si Si8 0.141998 0.590758 0.975141
O O1 0.691754 0.750000 0.500000
O O2 0.603291 0.614275 0.438835
O O3 0.699360 0.525269 0.383405
O O4 0.677221 0.500082 0.573026
O O5 0.433573 0.119032 0.250000
O O6 0.501034 0.162629 0.090097
O O7 0.463205 0.915493 0.127368
O O8 0.236726 0.907161 0.250000
O O9 0.277719 0.752708 0.107242
O O10 0.198514 0.963199 0.076861
O O11 0.918245 0.013463 0.250000
O O12 0.960434 0.164196 0.099551
O O13 0.873307 0.000812 0.074271
O O14 0.975176 0.890869 0.102930
O O15 0.329560 0.888083 0.750000
O O16 0.386967 0.782025 0.905746
O O17 0.041500 0.663808 0.750000
O O18 0.086870 0.578734 0.594098
O O19 0.446020 0.797454 0.750000
O O20 0.156077 0.750000 0.000000
#
# Coordination Sequence:
#
# PCOD8231604 Si02
#       8
#     8   8   8   8   8   8   8   8
#     4  12  26  41  60  92 122 161 196 247 313 382
#     4  10  21  39  62  89 125 161 197 245 303 368
#     4  11  23  44  69  87 113 156 209 266 314 365
#     4   9  18  32  53  84 125 163 198 245 298 355
#     4  10  22  42  64  87 118 159 206 256 305 363
#     4   9  17  31  51  81 118 157 199 242 297 352
#     4   9  19  36  60  90 121 157 197 243 299 361
#     4  10  19  33  58  88 114 152 207 260 300 357
#
# _framework density 21.069271000000001
#
# number of rings (size 3 to 8) (size 9 to 14) (size 15 to 20)
#    0.000    2.000    1.250    2.250    1.750    2.000 
#    0.000    1.875    0.000    1.500    0.000    0.000 
#    0.000    0.000    0.000    0.000    0.000    0.000 
#
# Total GULP energy -793345.092076 kJ/mol
# GULP energy per Si atom -12396.017064 kJ/mol
# Density = 2.102132 g / cm^3
# Si number density = 21.069271 Si / 1000 Ang^3
#
#
#
# Elastic Constant Matrix: (Units=GPa)
#
#
# Indices 1 2 3 4 5 6 
#
# 1 123.2720 32.2879 55.2642 0.0000 0.0000 0.0000
# 2 32.2879 93.9229 38.5501 0.0000 0.0000 0.0000
# 3 55.2642 38.5501 65.7873 0.0000 0.0000 0.0000
# 4 0.0000 0.0000 0.0000 22.9715 0.0000 0.0000
# 5 0.0000 0.0000 0.0000 0.0000 36.9412 0.0000
# 6 0.0000 0.0000 0.0000 0.0000 0.0000 21.4217
#
#
#
# Elastic Compliance Matrix: (Units=1/GPa)
#
#
# Indices 1 2 3 4 5 6 
#
# 1 0.013013 0.000017 -0.010942 0.000000 0.000000 0.000000
# 2 0.000017 0.014019 -0.008229 0.000000 0.000000 0.000000
# 3 -0.010942 -0.008229 0.029214 0.000000 0.000000 0.000000
# 4 0.000000 0.000000 0.000000 0.043532 0.000000 0.000000
# 5 0.000000 0.000000 0.000000 0.000000 0.027070 0.000000
# 6 0.000000 0.000000 0.000000 0.000000 0.000000 0.046682
#
#
# Mechanical properties :
#
#
# Convention : Reuss Voigt Hill
#
# Bulk Modulus (GPa) = 55.74530 59.46519 57.60524
# Shear Modulus (GPa) = 22.95513 26.72553 24.84033
#
# Velocity S-wave (km/s) = 3.30435 3.56541 3.43736
# Velocity P-wave (km/s) = 6.40889 6.72566 6.56918
#
# Compressibility (1/GPa) = 0.01793873
#
# Stress axis : x y z
#
# Youngs Moduli (GPa) = 76.84743 71.33309 34.22995
#
# Poissons Ratio (x) = -0.00125 0.37453
# Poissons Ratio (y) = -0.00134 0.28169
# Poissons Ratio (z) = 0.84083 0.58703
#
# Static dielectric constant tensor:
#      x y z
#    x 3.845980 0.000000 0.000000 
#    y 0.000000 3.695230 0.000000 
#    z 0.000000 0.000000 3.997650 
# 
# 
# High freq. dielectric constant tensor:
#      x y z
#    x 1.816630 0.000000 0.000000 
#    y 0.000000 1.800600 0.000000 
#    z 0.000000 0.000000 1.844070 
# 
# From -- ./inp_files/19474.got.cif
#   From: 2010.03.12/outbox.cif.g09.slc.cpg/sg57_10_cif.got.tgz:19474.got - 2010.04.16 15:48:40.
