data_PCOD8231606
_publ_section_title
;
Structure prediction by ZEFSAII (Michael W. Deem and Ramdas Pophale) SiO2 
 PCOD8231606
Probable space group: P B C M
;
_chemical_formula_sum "Si O2"
_cell_formula_units_Z 48
_cell_length_a 10.069851
_cell_length_b 27.877493
_cell_length_c 8.920343
_cell_angle_alpha 90.000000
_cell_angle_beta 90.000000
_cell_angle_gamma 90.000000
_cell_volume 2504.138319
_symmetry_space_group_name_H-M "P B C M"
_symmetry_group_IT_number 57
_symmetry_cell_setting 'orthorhombic'
loop_
_space_group_symop_operation_xyz
x,y,z
-x,-y,1/2+z
x,1/2-y,-z
-x,1/2+y,1/2-z
-x,-y,-z
x,y,1/2-z
-x,1/2+y,z
x,1/2-y,1/2+z
loop_
_atom_site_type_symbol
_atom_site_label
_atom_site_fract_x
_atom_site_fract_y
_atom_site_fract_z
Si Si1 0.490843 0.801872 0.427338
Si Si2 0.737070 0.650690 0.427661
Si Si3 0.765836 0.139183 0.923283
Si Si4 0.018722 0.200989 0.573522
Si Si5 0.144733 0.049318 0.425189
Si Si6 0.840907 0.453244 0.925775
O O1 0.506214 0.750000 0.500000
O O2 0.512513 0.797569 0.250000
O O3 0.596756 0.838119 0.497876
O O4 0.347431 0.823167 0.469490
O O5 0.732064 0.658432 0.250000
O O6 0.772867 0.596208 0.470639
O O7 0.844318 0.686627 0.496172
O O8 0.754241 0.126130 0.750000
O O9 0.907806 0.161687 0.963185
O O10 0.749332 0.089756 0.013683
O O11 0.968302 0.250000 0.500000
O O12 0.040239 0.207714 0.750000
O O13 0.151010 0.039126 0.250000
O O14 0.992529 0.056193 0.477441
O O15 0.209607 0.003812 0.508227
O O16 0.825145 0.455246 0.750000
#
# Coordination Sequence:
#
# PCOD8231606 Si02
#       6
#     8   8   8   8   8   8
#     4  11  24  42  61  84 115 156 198 239 290 346
#     4  11  22  39  60  85 116 152 193 238 287 342
#     4  10  22  39  59  84 116 152 192 238 289 343
#     4  11  22  36  57  84 113 147 188 240 291 340
#     4   9  19  35  56  85 119 152 187 234 289 343
#     4  10  19  33  58  89 118 150 189 236 289 344
#
# _framework density 19.16827
#
# number of rings (size 3 to 8) (size 9 to 14) (size 15 to 20)
#    0.000    1.667    1.667    3.000    0.000    4.000 
#    0.000    0.833    0.000    0.000    0.000    0.000 
#    0.000    0.000    0.000    0.000    0.000    0.000 
#
# Total GULP energy -595435.259399 kJ/mol
# GULP energy per Si atom -12404.901237 kJ/mol
# Density = 1.912464 g / cm^3
# Si number density = 19.168270 Si / 1000 Ang^3
#
#
#
# Elastic Constant Matrix: (Units=GPa)
#
#
# Indices 1 2 3 4 5 6 
#
# 1 57.5493 22.5397 29.6211 0.0000 0.0000 0.0000
# 2 22.5397 135.3974 57.8482 0.0000 0.0000 0.0000
# 3 29.6211 57.8482 80.5893 0.0000 0.0000 0.0000
# 4 0.0000 0.0000 0.0000 36.8804 0.0000 0.0000
# 5 0.0000 0.0000 0.0000 0.0000 26.8203 0.0000
# 6 0.0000 0.0000 0.0000 0.0000 0.0000 29.1012
#
#
#
# Elastic Compliance Matrix: (Units=1/GPa)
#
#
# Indices 1 2 3 4 5 6 
#
# 1 0.021439 -0.000292 -0.007671 0.000000 0.000000 0.000000
# 2 -0.000292 0.010657 -0.007542 0.000000 0.000000 0.000000
# 3 -0.007671 -0.007542 0.020642 0.000000 0.000000 0.000000
# 4 0.000000 0.000000 0.000000 0.027115 0.000000 0.000000
# 5 0.000000 0.000000 0.000000 0.000000 0.037285 0.000000
# 6 0.000000 0.000000 0.000000 0.000000 0.000000 0.034363
#
#
# Mechanical properties :
#
#
# Convention : Reuss Voigt Hill
#
# Bulk Modulus (GPa) = 46.02306 54.83934 50.43120
# Shear Modulus (GPa) = 26.35021 29.46218 27.90620
#
# Velocity S-wave (km/s) = 3.71169 3.92475 3.81970
# Velocity P-wave (km/s) = 6.51391 7.01497 6.76907
#
# Compressibility (1/GPa) = 0.02172824
#
# Stress axis : x y z
#
# Youngs Moduli (GPa) = 46.64446 93.83817 48.44515
#
# Poissons Ratio (x) = 0.02737 0.37160
# Poissons Ratio (y) = 0.01361 0.36539
# Poissons Ratio (z) = 0.35779 0.70775
#
# Static dielectric constant tensor:
#      x y z
#    x 3.414380 0.000000 0.000000 
#    y 0.000000 3.596590 0.000000 
#    z 0.000000 0.000000 3.521070 
# 
# 
# High freq. dielectric constant tensor:
#      x y z
#    x 1.726540 0.000000 0.000000 
#    y 0.000000 1.760330 0.000000 
#    z 0.000000 0.000000 1.754100 
# 
# From -- ./inp_files/2051.got.cif
#   From: 2010.03.12/outbox.cif.g09.slc.cpg/sg57_2_cif.got.tgz:2051.got - 2010.04.16 15:48:40.
