data_PCOD8231178
_publ_section_title
;
Structure prediction by ZEFSAII (Michael W. Deem and Ramdas Pophale) SiO2 
 PCOD8231178
Probable space group: P B C M
;
_chemical_formula_sum "Si O2"
_cell_formula_units_Z 64
_cell_length_a 11.941107
_cell_length_b 31.287664
_cell_length_c 9.100399
_cell_angle_alpha 90.000000
_cell_angle_beta 90.000000
_cell_angle_gamma 90.000000
_cell_volume 3399.994097
_symmetry_space_group_name_H-M "P B C M"
_symmetry_group_IT_number 57
_symmetry_cell_setting 'orthorhombic'
loop_
_space_group_symop_operation_xyz
x,y,z
-x,-y,1/2+z
x,1/2-y,-z
-x,1/2+y,1/2-z
-x,-y,-z
x,y,1/2-z
-x,1/2+y,z
x,1/2-y,1/2+z
loop_
_atom_site_type_symbol
_atom_site_label
_atom_site_fract_x
_atom_site_fract_y
_atom_site_fract_z
Si Si1 0.736903 0.207983 0.920181
Si Si2 0.016168 0.545697 0.076619
Si Si3 0.876296 0.628452 0.075801
Si Si4 0.596380 0.370496 0.421612
Si Si5 0.346987 0.387843 0.077472
Si Si6 0.738127 0.437670 0.915040
Si Si7 0.396816 0.018858 0.914923
Si Si8 0.997396 0.293985 0.422939
O O1 0.712101 0.214197 0.750000
O O2 0.664235 0.169424 0.987140
O O3 0.866384 0.199088 0.951780
O O4 0.693747 0.250000 0.000000
O O5 0.016187 0.536969 0.250000
O O6 0.134944 0.566243 0.026513
O O7 0.923470 0.581266 0.032664
O O8 0.000000 0.500000 0.000000
O O9 0.881910 0.635497 0.250000
O O10 0.749701 0.633817 0.018519
O O11 0.945311 0.665481 0.996827
O O12 0.616995 0.374491 0.250000
O O13 0.464987 0.364683 0.456899
O O14 0.647082 0.413425 0.488408
O O15 0.316104 0.385177 0.250000
O O16 0.357141 0.436268 0.019112
O O17 0.729213 0.419604 0.750000
O O18 0.709205 0.487751 0.920866
O O19 0.439598 0.026944 0.750000
O O20 0.500000 0.000000 0.000000
O O21 0.038011 0.250000 0.500000
O O22 0.025940 0.291667 0.250000
#
# Coordination Sequence:
#
# PCOD8231178 Si02
#       8
#     8   8   8   8   8   8   8   8
#     4   9  19  35  57  85 112 138 171 214 268 328
#     4  10  22  38  55  79 112 149 189 234 283 338
#     4  11  23  38  57  83 114 150 193 239 286 339
#     4  10  20  35  55  80 107 139 181 221 266 325
#     4  10  21  37  55  76 109 152 190 229 276 328
#     4  10  20  33  52  78 107 138 177 226 277 325
#     4  10  19  32  51  75 104 142 183 224 270 321
#     4  10  20  37  62  89 116 146 182 229 283 341
#
# _framework density 18.823561000000002
#
# number of rings (size 3 to 8) (size 9 to 14) (size 15 to 20)
#    0.000    2.000    1.250    2.250    0.000    4.500 
#    0.000    0.625    0.000    1.500    0.000    0.000 
#    0.000    0.000    0.000    0.000    0.000    0.000 
#
# Total GULP energy -793593.021193 kJ/mol
# GULP energy per Si atom -12399.890956 kJ/mol
# Density = 1.878072 g / cm^3
# Si number density = 18.823561 Si / 1000 Ang^3
#
#
#
# Elastic Constant Matrix: (Units=GPa)
#
#
# Indices 1 2 3 4 5 6 
#
# 1 98.0470 43.9144 43.5561 0.0000 0.0000 0.0000
# 2 43.9144 123.3398 49.5077 0.0000 0.0000 0.0000
# 3 43.5561 49.5077 68.1477 0.0000 0.0000 0.0000
# 4 0.0000 0.0000 0.0000 33.6172 0.0000 0.0000
# 5 0.0000 0.0000 0.0000 0.0000 29.2227 0.0000
# 6 0.0000 0.0000 0.0000 0.0000 0.0000 31.4101
#
#
#
# Elastic Compliance Matrix: (Units=1/GPa)
#
#
# Indices 1 2 3 4 5 6 
#
# 1 0.014602 -0.002051 -0.007843 0.000000 0.000000 0.000000
# 2 -0.002051 0.011733 -0.007213 0.000000 0.000000 0.000000
# 3 -0.007843 -0.007213 0.024927 0.000000 0.000000 0.000000
# 4 0.000000 0.000000 0.000000 0.029747 0.000000 0.000000
# 5 0.000000 0.000000 0.000000 0.000000 0.034220 0.000000
# 6 0.000000 0.000000 0.000000 0.000000 0.000000 0.031837
#
#
# Mechanical properties :
#
#
# Convention : Reuss Voigt Hill
#
# Bulk Modulus (GPa) = 58.65657 62.61011 60.63334
# Shear Modulus (GPa) = 26.74352 29.02044 27.88198
#
# Velocity S-wave (km/s) = 3.77337 3.93072 3.85285
# Velocity P-wave (km/s) = 7.08614 7.34401 7.21623
#
# Compressibility (1/GPa) = 0.01704839
#
# Stress axis : x y z
#
# Youngs Moduli (GPa) = 68.48487 85.22856 40.11758
#
# Poissons Ratio (x) = 0.17479 0.31463
# Poissons Ratio (y) = 0.14045 0.28937
# Poissons Ratio (z) = 0.53711 0.61476
#
# Static dielectric constant tensor:
#      x y z
#    x 3.546980 0.000000 0.000000 
#    y 0.000000 3.576540 0.000000 
#    z 0.000000 0.000000 3.382180 
# 
# 
# High freq. dielectric constant tensor:
#      x y z
#    x 1.733930 0.000000 0.000000 
#    y 0.000000 1.729420 0.000000 
#    z 0.000000 0.000000 1.726110 
# 
# From -- ./inp_files/3850.got.cif
#   From: 2010.03.12/outbox.cif.g09.slc.cpg/sg57_2_cif.got.tgz:3850.got - 2010.04.16 15:48:40.
