data_PCOD8231854
_publ_section_title
;
Structure prediction by ZEFSAII (Michael W. Deem and Ramdas Pophale) SiO2 
 PCOD8231854
Probable space group: P B C M
;
_chemical_formula_sum "Si O2"
_cell_formula_units_Z 64
_cell_length_a 8.349649
_cell_length_b 18.537825
_cell_length_c 21.532188
_cell_angle_alpha 90.000000
_cell_angle_beta 90.000000
_cell_angle_gamma 90.000000
_cell_volume 3332.845336
_symmetry_space_group_name_H-M "P B C M"
_symmetry_group_IT_number 57
_symmetry_cell_setting 'orthorhombic'
loop_
_space_group_symop_operation_xyz
x,y,z
-x,-y,1/2+z
x,1/2-y,-z
-x,1/2+y,1/2-z
-x,-y,-z
x,y,1/2-z
-x,1/2+y,z
x,1/2-y,1/2+z
loop_
_atom_site_type_symbol
_atom_site_label
_atom_site_fract_x
_atom_site_fract_y
_atom_site_fract_z
Si Si1 0.267151 0.181866 0.467777
Si Si2 0.532008 0.636911 0.136006
Si Si3 0.464219 0.404528 0.438143
Si Si4 0.675332 0.451731 0.541990
Si Si5 0.654535 0.126328 0.678061
Si Si6 0.794957 0.971210 0.680560
Si Si7 0.019242 0.612689 0.404906
Si Si8 0.775620 0.216404 0.320317
O O1 0.186136 0.250000 0.500000
O O2 0.357797 0.194531 0.401649
O O3 0.396668 0.158431 0.519104
O O4 0.118817 0.130673 0.453724
O O5 0.451522 0.588140 0.084532
O O6 0.642736 0.582901 0.175888
O O7 0.399710 0.678741 0.176257
O O8 0.623029 0.440257 0.470155
O O9 0.326321 0.465145 0.436659
O O10 0.504247 0.374515 0.369414
O O11 0.851587 0.422648 0.550678
O O12 0.593808 0.127100 0.750000
O O13 0.759641 0.198233 0.664421
O O14 0.753421 0.053791 0.663479
O O15 0.857685 0.968498 0.750000
O O16 0.948091 0.946459 0.641447
O O17 0.095676 0.680556 0.367108
O O18 0.838258 0.206170 0.250000
#
# Coordination Sequence:
#
# PCOD8231854 Si02
#       8
#     8   8   8   8   8   8   8   8
#     4  10  21  35  53  80 115 145 179 230 287 338
#     4   9  17  34  58  83 106 139 194 230 276 339
#     4  10  19  37  58  81 111 140 183 242 280 332
#     4   9  19  34  57  83 105 141 187 230 283 323
#     4  10  21  36  59  87 113 148 191 236 292 339
#     4  10  19  35  57  81 114 149 187 234 279 336
#     4  10  22  37  52  84 113 147 196 223 276 352
#     4  10  20  36  58  81 112 150 189 234 281 336
#
# _framework density 19.202809999999999
#
# number of rings (size 3 to 8) (size 9 to 14) (size 15 to 20)
#    0.000    2.250    1.250    1.500    1.750    1.500 
#    2.250    1.875    0.000    0.750    0.000    0.000 
#    0.000    0.000    0.000    0.000    0.000    0.000 
#
# Total GULP energy -793061.134122 kJ/mol
# GULP energy per Si atom -12391.580221 kJ/mol
# Density = 1.915910 g / cm^3
# Si number density = 19.202810 Si / 1000 Ang^3
#
#
#
# Elastic Constant Matrix: (Units=GPa)
#
#
# Indices 1 2 3 4 5 6 
#
# 1 73.9413 17.4141 32.7182 0.0000 0.0000 0.0000
# 2 17.4141 94.2620 32.3194 0.0000 0.0000 0.0000
# 3 32.7182 32.3194 92.2601 0.0000 0.0000 0.0000
# 4 0.0000 0.0000 0.0000 25.7055 0.0000 0.0000
# 5 0.0000 0.0000 0.0000 0.0000 16.1020 0.0000
# 6 0.0000 0.0000 0.0000 0.0000 0.0000 12.8059
#
#
#
# Elastic Compliance Matrix: (Units=1/GPa)
#
#
# Indices 1 2 3 4 5 6 
#
# 1 0.016152 -0.001159 -0.005322 0.000000 0.000000 0.000000
# 2 -0.001159 0.012140 -0.003842 0.000000 0.000000 0.000000
# 3 -0.005322 -0.003842 0.014072 0.000000 0.000000 0.000000
# 4 0.000000 0.000000 0.000000 0.038902 0.000000 0.000000
# 5 0.000000 0.000000 0.000000 0.000000 0.062104 0.000000
# 6 0.000000 0.000000 0.000000 0.000000 0.000000 0.078089
#
#
# Mechanical properties :
#
#
# Convention : Reuss Voigt Hill
#
# Bulk Modulus (GPa) = 46.04362 47.26298 46.65330
# Shear Modulus (GPa) = 20.05255 22.79012 21.42133
#
# Velocity S-wave (km/s) = 3.23499 3.44875 3.34358
# Velocity P-wave (km/s) = 6.16305 6.36588 6.26529
#
# Compressibility (1/GPa) = 0.02171853
#
# Stress axis : x y z
#
# Youngs Moduli (GPa) = 61.91122 82.37190 71.06303
#
# Poissons Ratio (x) = 0.09549 0.37819
# Poissons Ratio (y) = 0.07177 0.27300
# Poissons Ratio (z) = 0.32949 0.31644
#
# Static dielectric constant tensor:
#      x y z
#    x 3.375140 0.000000 0.000000 
#    y 0.000000 3.593550 0.000000 
#    z 0.000000 0.000000 3.621590 
# 
# 
# High freq. dielectric constant tensor:
#      x y z
#    x 1.726960 0.000000 0.000000 
#    y 0.000000 1.749490 0.000000 
#    z 0.000000 0.000000 1.753310 
# 
# From -- ./inp_files/24580.got.cif
#   From: 2010.03.12/outbox.cif.g09.slc.cpg/sg57_13_cif.got.tgz:24580.got - 2010.04.16 15:48:40.
