data_PCOD8231185
_publ_section_title
;
Structure prediction by ZEFSAII (Michael W. Deem and Ramdas Pophale) SiO2 
 PCOD8231185
Probable space group: P B C M
;
_chemical_formula_sum "Si O2"
_cell_formula_units_Z 56
_cell_length_a 18.973084
_cell_length_b 18.564297
_cell_length_c 9.069373
_cell_angle_alpha 90.000000
_cell_angle_beta 90.000000
_cell_angle_gamma 90.000000
_cell_volume 3194.432392
_symmetry_space_group_name_H-M "P B C M"
_symmetry_group_IT_number 57
_symmetry_cell_setting 'orthorhombic'
loop_
_space_group_symop_operation_xyz
x,y,z
-x,-y,1/2+z
x,1/2-y,-z
-x,1/2+y,1/2-z
-x,-y,-z
x,y,1/2-z
-x,1/2+y,z
x,1/2-y,1/2+z
loop_
_atom_site_type_symbol
_atom_site_label
_atom_site_fract_x
_atom_site_fract_y
_atom_site_fract_z
Si Si1 0.562508 0.324271 0.580056
Si Si2 0.715859 0.174359 0.077471
Si Si3 0.065064 0.461447 0.423982
Si Si4 0.588558 0.673589 0.422973
Si Si5 0.725959 0.595416 0.422179
Si Si6 0.210397 0.534305 0.420616
Si Si7 0.868829 0.673518 0.074894
O O1 0.557063 0.250000 0.500000
O O2 0.564135 0.305265 0.750000
O O3 0.637909 0.359541 0.536540
O O4 0.488146 0.365343 0.544401
O O5 0.722176 0.189431 0.250000
O O6 0.773485 0.115742 0.025329
O O7 0.731210 0.250000 0.000000
O O8 0.052101 0.449227 0.250000
O O9 0.129725 0.515525 0.453530
O O10 0.078709 0.384851 0.502216
O O11 0.000000 0.500000 0.500000
O O12 0.593386 0.750000 0.500000
O O13 0.599830 0.686270 0.250000
O O14 0.651823 0.624674 0.484781
O O15 0.723021 0.581380 0.250000
O O16 0.737547 0.519003 0.496411
O O17 0.788472 0.651293 0.461421
O O18 0.228906 0.526494 0.250000
O O19 0.882827 0.677556 0.250000
O O20 0.884573 0.750000 0.000000
#
# Coordination Sequence:
#
# PCOD8231185 Si02
#       7
#     8   8   8   8   8   8   8
#     4   8  14  25  42  62  88 120 155 194 236 277
#     4   9  17  31  50  71  92 119 156 198 239 280
#     4  10  20  36  56  76 100 131 162 196 240 292
#     4   9  16  26  41  64  92 124 160 198 236 276
#     4   9  18  30  45  67  97 129 161 196 236 280
#     4   9  19  34  51  70  94 123 156 192 235 287
#     4  10  19  32  51  76 103 132 166 202 238 282
#
# _framework density 17.530501000000001
#
# number of rings (size 3 to 8) (size 9 to 14) (size 15 to 20)
#    0.000    2.857    0.000    1.286    0.000    2.286 
#    0.000    1.429    0.000    1.714    0.000    0.000 
#    0.000    0.000    0.000    0.000    0.000    0.000 
#
# Total GULP energy -693799.628908 kJ/mol
# GULP energy per Si atom -12389.279088 kJ/mol
# Density = 1.749060 g / cm^3
# Si number density = 17.530501 Si / 1000 Ang^3
#
#
#
# Elastic Constant Matrix: (Units=GPa)
#
#
# Indices 1 2 3 4 5 6 
#
# 1 106.0782 75.4249 41.9350 0.0000 0.0000 0.0000
# 2 75.4249 127.6892 48.8826 0.0000 0.0000 0.0000
# 3 41.9350 48.8826 52.9989 0.0000 0.0000 0.0000
# 4 0.0000 0.0000 0.0000 28.8656 0.0000 0.0000
# 5 0.0000 0.0000 0.0000 0.0000 21.9715 0.0000
# 6 0.0000 0.0000 0.0000 0.0000 0.0000 26.1003
#
#
#
# Elastic Compliance Matrix: (Units=1/GPa)
#
#
# Indices 1 2 3 4 5 6 
#
# 1 0.017683 -0.007867 -0.006736 0.000000 0.000000 0.000000
# 2 -0.007867 0.015606 -0.008169 0.000000 0.000000 0.000000
# 3 -0.006736 -0.008169 0.031733 0.000000 0.000000 0.000000
# 4 0.000000 0.000000 0.000000 0.034643 0.000000 0.000000
# 5 0.000000 0.000000 0.000000 0.000000 0.045514 0.000000
# 6 0.000000 0.000000 0.000000 0.000000 0.000000 0.038314
#
#
# Mechanical properties :
#
#
# Convention : Reuss Voigt Hill
#
# Bulk Modulus (GPa) = 51.33999 68.80569 60.07284
# Shear Modulus (GPa) = 21.22878 23.42239 22.32558
#
# Velocity S-wave (km/s) = 3.48366 3.65923 3.57252
# Velocity P-wave (km/s) = 6.74766 7.56225 7.16654
#
# Compressibility (1/GPa) = 0.01947799
#
# Stress axis : x y z
#
# Youngs Moduli (GPa) = 56.55020 64.07945 31.51299
#
# Poissons Ratio (x) = 0.50409 0.21228
# Poissons Ratio (y) = 0.44486 0.25743
# Poissons Ratio (z) = 0.38093 0.52347
#
# Static dielectric constant tensor:
#      x y z
#    x 3.710030 0.000000 0.000000 
#    y 0.000000 3.087060 0.000000 
#    z 0.000000 0.000000 3.260770 
# 
# 
# High freq. dielectric constant tensor:
#      x y z
#    x 1.684030 0.000000 0.000000 
#    y 0.000000 1.653100 0.000000 
#    z 0.000000 0.000000 1.679990 
# 
# From -- ./inp_files/8279.got.cif
#   From: 2010.03.12/outbox.cif.g09.slc.cpg/sg57_5_cif.got.tgz:8279.got - 2010.04.16 15:48:40.
