data_PCOD8231931
_publ_section_title
;
Structure prediction by ZEFSAII (Michael W. Deem and Ramdas Pophale) SiO2 
 PCOD8231931
Probable space group: P B C M
;
_chemical_formula_sum "Si O2"
_cell_formula_units_Z 48
_cell_length_a 10.240527
_cell_length_b 28.180882
_cell_length_c 8.410914
_cell_angle_alpha 90.000000
_cell_angle_beta 90.000000
_cell_angle_gamma 90.000000
_cell_volume 2427.281137
_symmetry_space_group_name_H-M "P B C M"
_symmetry_group_IT_number 57
_symmetry_cell_setting 'orthorhombic'
loop_
_space_group_symop_operation_xyz
x,y,z
-x,-y,1/2+z
x,1/2-y,-z
-x,1/2+y,1/2-z
-x,-y,-z
x,y,1/2-z
-x,1/2+y,z
x,1/2-y,1/2+z
loop_
_atom_site_type_symbol
_atom_site_label
_atom_site_fract_x
_atom_site_fract_y
_atom_site_fract_z
Si Si1 0.899279 0.799350 0.937459
Si Si2 0.531236 0.603411 0.933332
Si Si3 0.006134 0.602772 0.061210
Si Si4 0.724332 0.441340 0.564780
Si Si5 0.399634 0.200166 0.062125
Si Si6 0.759927 0.543400 0.064938
O O1 0.904803 0.798635 0.750000
O O2 0.981225 0.843997 0.005450
O O3 0.750175 0.804782 0.995426
O O4 0.960294 0.750000 0.000000
O O5 0.570105 0.597725 0.750000
O O6 0.393882 0.578204 0.961750
O O7 0.517471 0.658468 0.980767
O O8 0.641414 0.579894 0.043098
O O9 0.001108 0.603745 0.250000
O O10 0.892659 0.567550 0.001239
O O11 0.144925 0.584071 0.999800
O O12 0.700864 0.430454 0.750000
O O13 0.735489 0.497417 0.541174
O O14 0.414337 0.196760 0.250000
O O15 0.457304 0.250000 0.000000
O O16 0.769380 0.529501 0.250000
#
# Coordination Sequence:
#
# PCOD8231931 Si02
#       6
#     8   8   8   8   8   8
#     4   9  17  33  56  85 114 144 181 228 280 333
#     4  12  24  39  58  85 117 154 198 238 283 341
#     4   9  19  37  60  84 115 151 188 233 289 346
#     4  11  23  39  58  83 116 155 193 237 292 346
#     4  10  19  35  60  88 118 148 187 238 288 338
#     4  11  21  39  62  85 113 149 193 243 291 342
#
# _framework density 19.775213000000001
#
# number of rings (size 3 to 8) (size 9 to 14) (size 15 to 20)
#    0.000    1.667    1.667    4.000    0.000    0.667 
#    0.000    5.000    0.000    2.000    0.000    0.000 
#    0.000    0.000    0.000    0.000    0.000    0.000 
#
# Total GULP energy -595394.873854 kJ/mol
# GULP energy per Si atom -12404.059872 kJ/mol
# Density = 1.973020 g / cm^3
# Si number density = 19.775213 Si / 1000 Ang^3
#
#
#
# Elastic Constant Matrix: (Units=GPa)
#
#
# Indices 1 2 3 4 5 6 
#
# 1 75.0747 18.6511 11.2237 0.0000 0.0000 0.0000
# 2 18.6511 123.0288 12.0073 0.0000 0.0000 0.0000
# 3 11.2237 12.0073 48.8369 0.0000 0.0000 0.0000
# 4 0.0000 0.0000 0.0000 33.1433 0.0000 0.0000
# 5 0.0000 0.0000 0.0000 0.0000 8.8753 0.0000
# 6 0.0000 0.0000 0.0000 0.0000 0.0000 -0.5029
#
#
#
# Elastic Compliance Matrix: (Units=1/GPa)
#
#
# Indices 1 2 3 4 5 6 
#
# 1 0.014206 -0.001880 -0.002803 0.000000 0.000000 0.000000
# 2 -0.001880 0.008577 -0.001677 0.000000 0.000000 0.000000
# 3 -0.002803 -0.001677 0.021533 0.000000 0.000000 0.000000
# 4 0.000000 0.000000 0.000000 0.030172 0.000000 0.000000
# 5 0.000000 0.000000 0.000000 0.000000 0.112672 0.000000
# 6 0.000000 0.000000 0.000000 0.000000 0.000000 -1.988290
#
#
# Mechanical properties :
#
#
# Convention : Reuss Voigt Hill
#
# Bulk Modulus (GPa) = 31.64869 36.74496 34.19683
# Shear Modulus (GPa) = -2.81234 21.97369 9.58068
#
# Velocity S-wave (km/s) = -1.19383 3.33704 2.20348
# Velocity P-wave (km/s) = 3.76014 5.78528 4.87894
#
# Compressibility (1/GPa) = 0.03159688
#
# Stress axis : x y z
#
# Youngs Moduli (GPa) = 70.39212 116.59308 46.44107
#
# Poissons Ratio (x) = 0.21921 0.13016
# Poissons Ratio (y) = 0.13235 0.07787
# Poissons Ratio (z) = 0.19728 0.19549
#
# Static dielectric constant tensor:
#      x y z
#    x 3.551150 0.000000 0.000000 
#    y 0.000000 3.921930 0.000000 
#    z 0.000000 0.000000 3.345370 
# 
# 
# High freq. dielectric constant tensor:
#      x y z
#    x 1.750580 0.000000 0.000000 
#    y 0.000000 1.788570 0.000000 
#    z 0.000000 0.000000 1.759750 
# 
# From -- ./inp_files/2107.got.cif
#   From: 2010.03.12/outbox.cif.g09.slc.cpg/sg57_2_cif.got.tgz:2107.got - 2010.04.16 15:48:40.
