data_PCOD8231108
_publ_section_title
;
Structure prediction by ZEFSAII (Michael W. Deem and Ramdas Pophale) SiO2 
 PCOD8231108
Probable space group: P B C M
;
_chemical_formula_sum "Si O2"
_cell_formula_units_Z 48
_cell_length_a 30.966544
_cell_length_b 9.573002
_cell_length_c 9.085920
_cell_angle_alpha 90.000000
_cell_angle_beta 90.000000
_cell_angle_gamma 90.000000
_cell_volume 2693.455453
_symmetry_space_group_name_H-M "P B C M"
_symmetry_group_IT_number 57
_symmetry_cell_setting 'orthorhombic'
loop_
_space_group_symop_operation_xyz
x,y,z
-x,-y,1/2+z
x,1/2-y,-z
-x,1/2+y,1/2-z
-x,-y,-z
x,y,1/2-z
-x,1/2+y,z
x,1/2-y,1/2+z
loop_
_atom_site_type_symbol
_atom_site_label
_atom_site_fract_x
_atom_site_fract_y
_atom_site_fract_z
Si Si1 0.968407 0.894480 0.922594
Si Si2 0.533766 0.900193 0.576606
Si Si3 0.870022 0.606852 0.420216
Si Si4 0.203649 0.601119 0.923894
Si Si5 0.372700 0.392405 0.917968
Si Si6 0.720917 0.899160 0.577141
O O1 0.978593 0.883836 0.750000
O O2 0.919053 0.940154 0.952224
O O3 0.978144 0.750000 0.000000
O O4 0.000000 0.000000 0.000000
O O5 0.530801 0.750000 0.500000
O O6 0.523524 0.884848 0.750000
O O7 0.581715 0.971422 0.551659
O O8 0.500000 0.000000 0.500000
O O9 0.857566 0.750000 0.500000
O O10 0.862383 0.638159 0.250000
O O11 0.839409 0.481324 0.473715
O O12 0.205080 0.624520 0.750000
O O13 0.244591 0.511523 0.980331
O O14 0.204105 0.750000 0.000000
O O15 0.370303 0.349484 0.750000
O O16 0.326939 0.465577 0.960027
O O17 0.375754 0.250000 0.000000
O O18 0.727895 0.750000 0.500000
O O19 0.727443 0.873914 0.750000
#
# Coordination Sequence:
#
# PCOD8231108 Si02
#       6
#     8   8   8   8   8   8
#     4  10  20  35  54  77 105 135 169 208 251 297
#     4  10  19  32  50  72  99 130 165 204 247 294
#     4   9  19  35  54  76 100 129 167 207 244 288
#     4  10  21  35  50  72 102 132 162 198 242 291
#     4   8  15  28  47  70  95 123 157 199 241 284
#     4   9  17  31  52  75  97 123 159 200 241 288
#
# _framework density 17.820974
#
# number of rings (size 3 to 8) (size 9 to 14) (size 15 to 20)
#    0.000    2.667    0.000    1.500    0.000    3.333 
#    0.000    2.500    0.000    2.000    0.000    0.000 
#    0.000    0.000    0.000    0.000    0.000    0.000 
#
# Total GULP energy -594710.930476 kJ/mol
# GULP energy per Si atom -12389.811052 kJ/mol
# Density = 1.778041 g / cm^3
# Si number density = 17.820974 Si / 1000 Ang^3
#
#
#
# Elastic Constant Matrix: (Units=GPa)
#
#
# Indices 1 2 3 4 5 6 
#
# 1 168.7518 99.8485 62.2698 0.0000 0.0000 0.0000
# 2 99.8485 119.6037 53.8665 0.0000 0.0000 0.0000
# 3 62.2698 53.8665 69.7347 0.0000 0.0000 0.0000
# 4 0.0000 0.0000 0.0000 34.0321 0.0000 0.0000
# 5 0.0000 0.0000 0.0000 0.0000 24.7754 0.0000
# 6 0.0000 0.0000 0.0000 0.0000 0.0000 28.9984
#
#
#
# Elastic Compliance Matrix: (Units=1/GPa)
#
#
# Indices 1 2 3 4 5 6 
#
# 1 0.012688 -0.008418 -0.004827 0.000000 0.000000 0.000000
# 2 -0.008418 0.018407 -0.006701 0.000000 0.000000 0.000000
# 3 -0.004827 -0.006701 0.023827 0.000000 0.000000 0.000000
# 4 0.000000 0.000000 0.000000 0.029384 0.000000 0.000000
# 5 0.000000 0.000000 0.000000 0.000000 0.040363 0.000000
# 6 0.000000 0.000000 0.000000 0.000000 0.000000 0.034485
#
#
# Mechanical properties :
#
#
# Convention : Reuss Voigt Hill
#
# Bulk Modulus (GPa) = 66.54055 87.78444 77.16249
# Shear Modulus (GPa) = 24.50308 27.03488 25.76898
#
# Velocity S-wave (km/s) = 3.71206 3.89913 3.80675
# Velocity P-wave (km/s) = 7.46940 8.34487 7.91924
#
# Compressibility (1/GPa) = 0.01502843
#
# Stress axis : x y z
#
# Youngs Moduli (GPa) = 78.81363 54.32745 41.96959
#
# Poissons Ratio (x) = 0.45735 0.20259
# Poissons Ratio (y) = 0.66349 0.28124
# Poissons Ratio (z) = 0.38044 0.36406
#
# Static dielectric constant tensor:
#      x y z
#    x 4.096280 0.000000 0.000000 
#    y 0.000000 3.183810 0.000000 
#    z 0.000000 0.000000 3.369090 
# 
# 
# High freq. dielectric constant tensor:
#      x y z
#    x 1.716030 0.000000 0.000000 
#    y 0.000000 1.657390 0.000000 
#    z 0.000000 0.000000 1.693910 
# 
# From -- ./inp_files/9914.got.cif
#   From: 2010.03.12/outbox.cif.g09.slc.cpg/sg57_5_cif.got.tgz:9914.got - 2010.04.16 15:48:40.
