data_PCOD8231880
_publ_section_title
;
Structure prediction by ZEFSAII (Michael W. Deem and Ramdas Pophale) SiO2 
 PCOD8231880
Probable space group: P B C M
;
_chemical_formula_sum "Si O2"
_cell_formula_units_Z 48
_cell_length_a 11.824617
_cell_length_b 25.489572
_cell_length_c 8.529184
_cell_angle_alpha 90.000000
_cell_angle_beta 90.000000
_cell_angle_gamma 90.000000
_cell_volume 2570.733811
_symmetry_space_group_name_H-M "P B C M"
_symmetry_group_IT_number 57
_symmetry_cell_setting 'orthorhombic'
loop_
_space_group_symop_operation_xyz
x,y,z
-x,-y,1/2+z
x,1/2-y,-z
-x,1/2+y,1/2-z
-x,-y,-z
x,y,1/2-z
-x,1/2+y,z
x,1/2-y,1/2+z
loop_
_atom_site_type_symbol
_atom_site_label
_atom_site_fract_x
_atom_site_fract_y
_atom_site_fract_z
Si Si1 0.236654 0.903127 0.435725
Si Si2 0.375147 0.004314 0.063580
Si Si3 0.619248 0.306599 0.435864
Si Si4 0.624509 0.694229 0.065939
Si Si5 0.998994 0.941718 0.435318
Si Si6 0.239878 0.398851 0.434620
O O1 0.238607 0.900896 0.250000
O O2 0.292072 0.849624 0.501964
O O3 0.108217 0.909569 0.497814
O O4 0.308700 0.952822 0.492935
O O5 0.372659 0.011639 0.250000
O O6 0.320080 0.053736 0.980569
O O7 0.500000 0.000000 0.000000
O O8 0.655829 0.250000 0.500000
O O9 0.619621 0.304752 0.250000
O O10 0.494440 0.323152 0.490881
O O11 0.607007 0.698495 0.250000
O O12 0.664428 0.750000 0.000000
O O13 0.721523 0.653055 0.024442
O O14 0.002557 0.946528 0.250000
O O15 0.887511 0.911078 0.491293
O O16 0.000000 0.000000 0.500000
O O17 0.246723 0.388974 0.250000
#
# Coordination Sequence:
#
# PCOD8231880 Si02
#       6
#     8   8   8   8   8   8
#     4   9  19  35  55  78 109 147 184 227 280 331
#     4  11  21  34  54  80 113 146 185 232 285 343
#     4  10  19  35  58  83 113 147 184 229 281 339
#     4  11  22  38  60  84 113 148 187 233 282 338
#     4  10  20  37  58  80 109 149 191 234 281 333
#     4  11  22  36  56  83 114 148 188 233 282 339
#
# _framework density 18.671710000000001
#
# number of rings (size 3 to 8) (size 9 to 14) (size 15 to 20)
#    0.000    1.667    1.667    5.000    0.000    2.000 
#    0.000    5.000    0.000    2.000    0.000    0.000 
#    0.000    0.000    0.000    0.000    0.000    0.000 
#
# Total GULP energy -595288.608163 kJ/mol
# GULP energy per Si atom -12401.846003 kJ/mol
# Density = 1.862921 g / cm^3
# Si number density = 18.671710 Si / 1000 Ang^3
#
#
#
# Elastic Constant Matrix: (Units=GPa)
#
#
# Indices 1 2 3 4 5 6 
#
# 1 158.0692 85.5649 17.4140 0.0000 0.0000 0.0000
# 2 85.5649 146.5637 23.1142 0.0000 0.0000 0.0000
# 3 17.4140 23.1142 50.5858 0.0000 0.0000 0.0000
# 4 0.0000 0.0000 0.0000 32.5226 0.0000 0.0000
# 5 0.0000 0.0000 0.0000 0.0000 22.8677 0.0000
# 6 0.0000 0.0000 0.0000 0.0000 0.0000 15.8405
#
#
#
# Elastic Compliance Matrix: (Units=1/GPa)
#
#
# Indices 1 2 3 4 5 6 
#
# 1 0.009277 -0.005294 -0.000775 0.000000 0.000000 0.000000
# 2 -0.005294 0.010374 -0.002918 0.000000 0.000000 0.000000
# 3 -0.000775 -0.002918 0.021368 0.000000 0.000000 0.000000
# 4 0.000000 0.000000 0.000000 0.030748 0.000000 0.000000
# 5 0.000000 0.000000 0.000000 0.000000 0.043730 0.000000
# 6 0.000000 0.000000 0.000000 0.000000 0.000000 0.063129
#
#
# Mechanical properties :
#
#
# Convention : Reuss Voigt Hill
#
# Bulk Modulus (GPa) = 43.39023 67.48944 55.43984
# Shear Modulus (GPa) = 24.47601 29.52119 26.99860
#
# Velocity S-wave (km/s) = 3.62451 3.98057 3.80671
# Velocity P-wave (km/s) = 6.38788 7.57300 7.00555
#
# Compressibility (1/GPa) = 0.02304666
#
# Stress axis : x y z
#
# Youngs Moduli (GPa) = 107.78858 96.39668 46.79838
#
# Poissons Ratio (x) = 0.51033 0.03626
# Poissons Ratio (y) = 0.57064 0.13654
# Poissons Ratio (z) = 0.08351 0.28125
#
# Static dielectric constant tensor:
#      x y z
#    x 3.769520 0.000000 0.000000 
#    y 0.000000 3.599780 0.000000 
#    z 0.000000 0.000000 3.352780 
# 
# 
# High freq. dielectric constant tensor:
#      x y z
#    x 1.729610 0.000000 0.000000 
#    y 0.000000 1.729840 0.000000 
#    z 0.000000 0.000000 1.721420 
# 
# From -- ./inp_files/3088.got.cif
#   From: 2010.03.12/outbox.cif.g09.slc.cpg/sg57_2_cif.got.tgz:3088.got - 2010.04.16 15:48:40.
