data_PCOD8231053
_publ_section_title
;
Structure prediction by ZEFSAII (Michael W. Deem and Ramdas Pophale) SiO2 
 PCOD8231053
Probable space group: P B C M
;
_chemical_formula_sum "Si O2"
_cell_formula_units_Z 64
_cell_length_a 19.871667
_cell_length_b 9.906793
_cell_length_c 17.424988
_cell_angle_alpha 90.000000
_cell_angle_beta 90.000000
_cell_angle_gamma 90.000000
_cell_volume 3430.361403
_symmetry_space_group_name_H-M "P B C M"
_symmetry_group_IT_number 57
_symmetry_cell_setting 'orthorhombic'
loop_
_space_group_symop_operation_xyz
x,y,z
-x,-y,1/2+z
x,1/2-y,-z
-x,1/2+y,1/2-z
-x,-y,-z
x,y,1/2-z
-x,1/2+y,z
x,1/2-y,1/2+z
loop_
_atom_site_type_symbol
_atom_site_label
_atom_site_fract_x
_atom_site_fract_y
_atom_site_fract_z
Si Si1 0.047016 0.305932 0.838368
Si Si2 0.690427 0.007150 0.158742
Si Si3 0.810503 0.646900 0.103096
Si Si4 0.582381 0.130243 0.446447
Si Si5 0.037053 0.021201 0.918966
Si Si6 0.187392 0.043809 0.942782
Si Si7 0.432598 0.372518 0.949576
Si Si8 0.327372 0.303970 0.834725
O O1 0.042336 0.260641 0.750000
O O2 0.119244 0.376641 0.853548
O O3 0.031869 0.176958 0.892165
O O4 0.992836 0.421647 0.855354
O O5 0.701728 0.034822 0.250000
O O6 0.758273 0.036404 0.109395
O O7 0.670263 0.853334 0.142310
O O8 0.631727 0.103573 0.125468
O O9 0.812309 0.799445 0.075242
O O10 0.746998 0.632044 0.159124
O O11 0.799396 0.538063 0.034507
O O12 0.611006 0.250000 0.500000
O O13 0.506949 0.162652 0.415801
O O14 0.571896 0.004041 0.500347
O O15 0.114924 0.979222 0.926125
O O16 0.000000 0.000000 0.000000
O O17 0.379993 0.391909 0.881761
O O18 0.405563 0.250000 0.000000
O O19 0.353616 0.320941 0.750000
#
# Coordination Sequence:
#
# PCOD8231053 Si02
#       8
#     8   8   8   8   8   8   8   8
#     4  11  22  36  57  85 118 149 185 240 294 338
#     4  10  20  35  57  84 114 147 187 236 288 337
#     4   9  17  31  54  84 112 139 181 236 283 329
#     4  10  21  36  56  82 110 150 191 227 275 336
#     4  11  21  38  58  84 113 151 196 232 283 351
#     4   9  18  32  57  81 107 147 190 229 273 336
#     4  10  19  35  58  81 109 143 188 234 274 329
#     4  10  19  31  55  87 112 138 181 236 288 330
#
# _framework density 18.656927
#
# number of rings (size 3 to 8) (size 9 to 14) (size 15 to 20)
#    0.000    2.000    2.500    1.875    1.750    4.000 
#    0.000    1.875    0.000    0.000    0.000    0.000 
#    0.000    0.000    0.000    0.000    0.000    0.000 
#
# Total GULP energy -793254.877755 kJ/mol
# GULP energy per Si atom -12394.607465 kJ/mol
# Density = 1.861446 g / cm^3
# Si number density = 18.656927 Si / 1000 Ang^3
#
#
#
# Elastic Constant Matrix: (Units=GPa)
#
#
# Indices 1 2 3 4 5 6 
#
# 1 118.2587 23.9251 55.9180 0.0000 0.0000 0.0000
# 2 23.9251 46.8504 24.1586 0.0000 0.0000 0.0000
# 3 55.9180 24.1586 104.0157 0.0000 0.0000 0.0000
# 4 0.0000 0.0000 0.0000 26.3513 0.0000 0.0000
# 5 0.0000 0.0000 0.0000 0.0000 25.5120 0.0000
# 6 0.0000 0.0000 0.0000 0.0000 0.0000 23.7579
#
#
#
# Elastic Compliance Matrix: (Units=1/GPa)
#
#
# Indices 1 2 3 4 5 6 
#
# 1 0.011724 -0.003109 -0.005580 0.000000 0.000000 0.000000
# 2 -0.003109 0.025073 -0.004152 0.000000 0.000000 0.000000
# 3 -0.005580 -0.004152 0.013578 0.000000 0.000000 0.000000
# 4 0.000000 0.000000 0.000000 0.037949 0.000000 0.000000
# 5 0.000000 0.000000 0.000000 0.000000 0.039197 0.000000
# 6 0.000000 0.000000 0.000000 0.000000 0.000000 0.042091
#
#
# Mechanical properties :
#
#
# Convention : Reuss Voigt Hill
#
# Bulk Modulus (GPa) = 40.49913 53.01425 46.75669
# Shear Modulus (GPa) = 24.56679 26.13245 25.34962
#
# Velocity S-wave (km/s) = 3.63266 3.74663 3.69009
# Velocity P-wave (km/s) = 6.27291 6.86974 6.57810
#
# Compressibility (1/GPa) = 0.02469189
#
# Stress axis : x y z
#
# Youngs Moduli (GPa) = 85.29669 39.88291 73.64724
#
# Poissons Ratio (x) = 0.12401 0.41098
# Poissons Ratio (y) = 0.26522 0.30578
# Poissons Ratio (z) = 0.47599 0.16559
#
# Static dielectric constant tensor:
#      x y z
#    x 3.796240 0.000000 0.000000 
#    y 0.000000 3.093190 0.000000 
#    z 0.000000 0.000000 3.403000 
# 
# 
# High freq. dielectric constant tensor:
#      x y z
#    x 1.737140 0.000000 0.000000 
#    y 0.000000 1.687110 0.000000 
#    z 0.000000 0.000000 1.722590 
# 
# From -- ./inp_files/22938.got.cif
#   From: 2010.03.12/outbox.cif.g09.slc.cpg/sg57_12_cif.got.tgz:22938.got - 2010.04.16 15:48:40.
