data_PCOD8231836
_publ_section_title
;
Structure prediction by ZEFSAII (Michael W. Deem and Ramdas Pophale) SiO2 
 PCOD8231836
Probable space group: P B C M
;
_chemical_formula_sum "Si O2"
_cell_formula_units_Z 56
_cell_length_a 22.109511
_cell_length_b 14.102676
_cell_length_c 8.783688
_cell_angle_alpha 90.000000
_cell_angle_beta 90.000000
_cell_angle_gamma 90.000000
_cell_volume 2738.782642
_symmetry_space_group_name_H-M "P B C M"
_symmetry_group_IT_number 57
_symmetry_cell_setting 'orthorhombic'
loop_
_space_group_symop_operation_xyz
x,y,z
-x,-y,1/2+z
x,1/2-y,-z
-x,1/2+y,1/2-z
-x,-y,-z
x,y,1/2-z
-x,1/2+y,z
x,1/2-y,1/2+z
loop_
_atom_site_type_symbol
_atom_site_label
_atom_site_fract_x
_atom_site_fract_y
_atom_site_fract_z
Si Si1 0.329567 0.146368 0.067910
Si Si2 0.561572 0.978170 0.916844
Si Si3 0.911597 0.536661 0.928351
Si Si4 0.791337 0.960293 0.569736
Si Si5 0.637505 0.336250 0.419099
Si Si6 0.236671 0.846927 0.929318
Si Si7 0.967269 0.145939 0.570923
O O1 0.330748 0.148103 0.250000
O O2 0.390942 0.095144 0.005424
O O3 0.269648 0.091344 0.010024
O O4 0.327836 0.250000 0.000000
O O5 0.544898 0.939129 0.750000
O O6 0.593768 0.077448 0.903427
O O7 0.500000 0.000000 0.000000
O O8 0.901989 0.522935 0.750000
O O9 0.965045 0.610109 0.965289
O O10 0.852205 0.586952 0.002629
O O11 0.922474 0.432211 0.999321
O O12 0.791863 0.958778 0.750000
O O13 0.796932 0.066598 0.508088
O O14 0.601123 0.250000 0.500000
O O15 0.661804 0.308734 0.250000
O O16 0.692902 0.357841 0.530303
O O17 0.226021 0.849605 0.750000
O O18 0.209916 0.750000 0.000000
O O19 0.956784 0.250000 0.500000
O O20 0.954799 0.151705 0.750000
#
# Coordination Sequence:
#
# PCOD8231836 Si02
#       7
#     8   8   8   8   8   8   8
#     4  10  23  43  63  86 120 158 200 249 298 356
#     4  10  22  40  60  84 117 153 195 246 299 354
#     4  10  22  39  60  91 124 157 206 253 297 357
#     4  11  22  40  62  86 123 161 198 249 304 355
#     4  10  19  35  56  81 113 145 184 231 288 349
#     4  11  21  34  56  85 115 149 190 235 290 355
#     4  10  21  39  63  89 123 164 204 251 303 354
#
# _framework density 20.447042
#
# number of rings (size 3 to 8) (size 9 to 14) (size 15 to 20)
#    0.000    1.714    1.429    3.857    0.000    6.286 
#    0.000    8.571    0.000    0.000    0.000    0.000 
#    0.000    0.000    0.000    0.000    0.000    0.000 
#
# Total GULP energy -694122.949934 kJ/mol
# GULP energy per Si atom -12395.052677 kJ/mol
# Density = 2.040050 g / cm^3
# Si number density = 20.447042 Si / 1000 Ang^3
#
#
#
# Elastic Constant Matrix: (Units=GPa)
#
#
# Indices 1 2 3 4 5 6 
#
# 1 123.9671 37.4776 41.7971 0.0000 0.0000 0.0000
# 2 37.4776 93.7165 33.3468 0.0000 0.0000 0.0000
# 3 41.7971 33.3468 78.2904 0.0000 0.0000 0.0000
# 4 0.0000 0.0000 0.0000 33.9853 0.0000 0.0000
# 5 0.0000 0.0000 0.0000 0.0000 28.5439 0.0000
# 6 0.0000 0.0000 0.0000 0.0000 0.0000 9.3993
#
#
#
# Elastic Compliance Matrix: (Units=1/GPa)
#
#
# Indices 1 2 3 4 5 6 
#
# 1 0.010332 -0.002557 -0.004427 0.000000 0.000000 0.000000
# 2 -0.002557 0.013209 -0.004261 0.000000 0.000000 0.000000
# 3 -0.004427 -0.004261 0.016952 0.000000 0.000000 0.000000
# 4 0.000000 0.000000 0.000000 0.029425 0.000000 0.000000
# 5 0.000000 0.000000 0.000000 0.000000 0.035034 0.000000
# 6 0.000000 0.000000 0.000000 0.000000 0.000000 0.106391
#
#
# Mechanical properties :
#
#
# Convention : Reuss Voigt Hill
#
# Bulk Modulus (GPa) = 55.54712 57.91299 56.73006
# Shear Modulus (GPa) = 20.84780 26.60920 23.72850
#
# Velocity S-wave (km/s) = 3.19658 3.61137 3.41029
# Velocity P-wave (km/s) = 6.39136 6.76566 6.58117
#
# Compressibility (1/GPa) = 0.01800273
#
# Stress axis : x y z
#
# Youngs Moduli (GPa) = 96.78451 75.70493 58.99156
#
# Poissons Ratio (x) = 0.19355 0.26116
# Poissons Ratio (y) = 0.24744 0.25139
# Poissons Ratio (z) = 0.42848 0.32261
#
# Static dielectric constant tensor:
#      x y z
#    x 3.568100 0.000000 0.000000 
#    y 0.000000 3.527510 0.000000 
#    z 0.000000 0.000000 3.441110 
# 
# 
# High freq. dielectric constant tensor:
#      x y z
#    x 1.802130 0.000000 0.000000 
#    y 0.000000 1.798260 0.000000 
#    z 0.000000 0.000000 1.802980 
# 
# From -- ./inp_files/8120.got.cif
#   From: 2010.03.12/outbox.cif.g09.slc.cpg/sg57_5_cif.got.tgz:8120.got - 2010.04.16 15:48:40.
