data_PCOD8231262
_publ_section_title
;
Structure prediction by ZEFSAII (Michael W. Deem and Ramdas Pophale) SiO2 
 PCOD8231262
Probable space group: P B C M
;
_chemical_formula_sum "Si O2"
_cell_formula_units_Z 40
_cell_length_a 12.967606
_cell_length_b 19.570192
_cell_length_c 8.655565
_cell_angle_alpha 90.000000
_cell_angle_beta 90.000000
_cell_angle_gamma 90.000000
_cell_volume 2196.596642
_symmetry_space_group_name_H-M "P B C M"
_symmetry_group_IT_number 57
_symmetry_cell_setting 'orthorhombic'
loop_
_space_group_symop_operation_xyz
x,y,z
-x,-y,1/2+z
x,1/2-y,-z
-x,1/2+y,1/2-z
-x,-y,-z
x,y,1/2-z
-x,1/2+y,z
x,1/2-y,1/2+z
loop_
_atom_site_type_symbol
_atom_site_label
_atom_site_fract_x
_atom_site_fract_y
_atom_site_fract_z
Si Si1 0.224332 0.920150 0.931356
Si Si2 0.779035 0.569562 0.431762
Si Si3 0.002452 0.573136 0.071470
Si Si4 0.610060 0.322346 0.068511
Si Si5 0.391006 0.322848 0.932888
O O1 0.247243 0.909857 0.750000
O O2 0.109788 0.890426 0.980427
O O3 0.305937 0.879171 0.031669
O O4 0.233311 0.000097 0.972288
O O5 0.768885 0.552757 0.250000
O O6 0.691808 0.621518 0.488478
O O7 0.890801 0.606964 0.466032
O O8 0.015523 0.560769 0.250000
O O9 0.000000 0.500000 0.000000
O O10 0.595800 0.314408 0.250000
O O11 0.646376 0.250000 0.000000
O O12 0.501866 0.345855 0.995897
O O13 0.395834 0.317422 0.750000
O O14 0.357344 0.250000 0.000000
#
# Coordination Sequence:
#
# PCOD8231262 Si02
#       5
#     8   8   8   8   8
#     4  10  19  32  53  79 105 133 168 208 249 296
#     4   9  18  33  53  77 104 134 168 207 250 296
#     4   8  15  29  49  73 102 133 164 201 246 294
#     4  11  22  37  55  73  99 133 169 209 253 302
#     4  10  20  35  54  74 100 133 168 207 252 302
#
# _framework density 18.209987000000002
#
# number of rings (size 3 to 8) (size 9 to 14) (size 15 to 20)
#    0.000    2.400    0.000    4.200    0.000    3.200 
#    0.000    1.000    0.000    2.400    0.000    0.000 
#    0.000    0.000    0.000    0.000    0.000    0.000 
#
# Total GULP energy -495574.463098 kJ/mol
# GULP energy per Si atom -12389.361577 kJ/mol
# Density = 1.816854 g / cm^3
# Si number density = 18.209987 Si / 1000 Ang^3
#
#
#
# Elastic Constant Matrix: (Units=GPa)
#
#
# Indices 1 2 3 4 5 6 
#
# 1 150.2870 70.2424 35.0416 0.0000 0.0000 0.0000
# 2 70.2424 68.8975 23.3650 0.0000 0.0000 0.0000
# 3 35.0416 23.3650 61.7438 0.0000 0.0000 0.0000
# 4 0.0000 0.0000 0.0000 28.2614 0.0000 0.0000
# 5 0.0000 0.0000 0.0000 0.0000 12.8666 0.0000
# 6 0.0000 0.0000 0.0000 0.0000 0.0000 0.7405
#
#
#
# Elastic Compliance Matrix: (Units=1/GPa)
#
#
# Indices 1 2 3 4 5 6 
#
# 1 0.013100 -0.012430 -0.002731 0.000000 0.000000 0.000000
# 2 -0.012430 0.028445 -0.003710 0.000000 0.000000 0.000000
# 3 -0.002731 -0.003710 0.019150 0.000000 0.000000 0.000000
# 4 0.000000 0.000000 0.000000 0.035384 0.000000 0.000000
# 5 0.000000 0.000000 0.000000 0.000000 0.077721 0.000000
# 6 0.000000 0.000000 0.000000 0.000000 0.000000 1.350522
#
#
# Mechanical properties :
#
#
# Convention : Reuss Voigt Hill
#
# Bulk Modulus (GPa) = 43.56628 59.80292 51.68460
# Shear Modulus (GPa) = 3.18529 18.52564 10.85547
#
# Velocity S-wave (km/s) = 1.32401 3.19303 2.44422
# Velocity P-wave (km/s) = 5.12968 6.81953 6.03405
#
# Compressibility (1/GPa) = 0.02295353
#
# Stress axis : x y z
#
# Youngs Moduli (GPa) = 76.33416 35.15580 52.21980
#
# Poissons Ratio (x) = 0.43698 0.14262
# Poissons Ratio (y) = 0.94882 0.19372
# Poissons Ratio (z) = 0.20848 0.13042
#
# Static dielectric constant tensor:
#      x y z
#    x 4.132990 0.000000 0.000000 
#    y 0.000000 3.061180 0.000000 
#    z 0.000000 0.000000 3.378100 
# 
# 
# High freq. dielectric constant tensor:
#      x y z
#    x 1.730420 0.000000 0.000000 
#    y 0.000000 1.669500 0.000000 
#    z 0.000000 0.000000 1.714680 
# 
# From -- ./inp_files/2668.got.cif
#   From: 2010.03.12/outbox.cif.g09.slc.cpg/sg57_2_cif.got.tgz:2668.got - 2010.04.16 15:48:40.
