data_PCOD8231458
_publ_section_title
;
Structure prediction by ZEFSAII (Michael W. Deem and Ramdas Pophale) SiO2 
 PCOD8231458
Probable space group: P B C M
;
_chemical_formula_sum "Si O2"
_cell_formula_units_Z 56
_cell_length_a 8.696986
_cell_length_b 18.258527
_cell_length_c 18.569018
_cell_angle_alpha 90.000000
_cell_angle_beta 90.000000
_cell_angle_gamma 90.000000
_cell_volume 2948.651498
_symmetry_space_group_name_H-M "P B C M"
_symmetry_group_IT_number 57
_symmetry_cell_setting 'orthorhombic'
loop_
_space_group_symop_operation_xyz
x,y,z
-x,-y,1/2+z
x,1/2-y,-z
-x,1/2+y,1/2-z
-x,-y,-z
x,y,1/2-z
-x,1/2+y,z
x,1/2-y,1/2+z
loop_
_atom_site_type_symbol
_atom_site_label
_atom_site_fract_x
_atom_site_fract_y
_atom_site_fract_z
Si Si1 0.158499 0.754402 0.327713
Si Si2 0.151863 0.404421 0.532398
Si Si3 0.722827 0.831457 0.102084
Si Si4 0.607963 0.193472 0.938709
Si Si5 0.149228 0.183368 0.166556
Si Si6 0.984689 0.593211 0.670919
Si Si7 0.161646 0.935325 0.466158
O O1 0.238881 0.743612 0.250000
O O2 0.289264 0.755971 0.387211
O O3 0.058194 0.827180 0.327336
O O4 0.035525 0.690317 0.341522
O O5 0.220054 0.341366 0.480401
O O6 0.193998 0.384339 0.614938
O O7 0.225231 0.484102 0.512780
O O8 0.967265 0.407132 0.521587
O O9 0.538336 0.838963 0.103594
O O10 0.763525 0.753650 0.135769
O O11 0.805286 0.896117 0.148396
O O12 0.702309 0.123612 0.967304
O O13 0.553304 0.250000 0.000000
O O14 0.196588 0.169237 0.250000
O O15 0.993380 0.555421 0.750000
O O16 0.081629 0.548851 0.611920
#
# Coordination Sequence:
#
# PCOD8231458 Si02
#       7
#     8   8   8   8   8   8   8
#     4   8  16  29  46  69  93 119 157 204 249 290
#     4  10  19  35  52  73 103 135 169 211 256 306
#     4  10  20  32  49  74 103 135 171 206 250 304
#     4  11  20  31  49  75 103 133 168 210 253 301
#     4  10  19  33  54  76  98 130 171 213 256 303
#     4   8  15  31  51  70  95 126 164 208 248 294
#     4   9  20  33  52  77 102 134 172 212 259 305
#
# _framework density 18.991734000000001
#
# number of rings (size 3 to 8) (size 9 to 14) (size 15 to 20)
#    0.000    2.571    0.000    4.286    0.000    2.286 
#    0.000    0.000    0.000    0.000    0.000    0.000 
#    0.000    0.000    0.000    0.000    0.000    0.000 
#
# Total GULP energy -693884.773365 kJ/mol
# GULP energy per Si atom -12390.799524 kJ/mol
# Density = 1.894851 g / cm^3
# Si number density = 18.991734 Si / 1000 Ang^3
#
#
#
# Elastic Constant Matrix: (Units=GPa)
#
#
# Indices 1 2 3 4 5 6 
#
# 1 77.3158 17.0928 14.5850 0.0000 0.0000 0.0000
# 2 17.0928 53.3087 23.1657 0.0000 0.0000 0.0000
# 3 14.5850 23.1657 111.0350 0.0000 0.0000 0.0000
# 4 0.0000 0.0000 0.0000 17.0817 0.0000 0.0000
# 5 0.0000 0.0000 0.0000 0.0000 13.3839 0.0000
# 6 0.0000 0.0000 0.0000 0.0000 0.0000 14.6483
#
#
#
# Elastic Compliance Matrix: (Units=1/GPa)
#
#
# Indices 1 2 3 4 5 6 
#
# 1 0.014020 -0.004063 -0.000994 0.000000 0.000000 0.000000
# 2 -0.004063 0.021807 -0.004016 0.000000 0.000000 0.000000
# 3 -0.000994 -0.004016 0.009975 0.000000 0.000000 0.000000
# 4 0.000000 0.000000 0.000000 0.058542 0.000000 0.000000
# 5 0.000000 0.000000 0.000000 0.000000 0.074717 0.000000
# 6 0.000000 0.000000 0.000000 0.000000 0.000000 0.068267
#
#
# Mechanical properties :
#
#
# Convention : Reuss Voigt Hill
#
# Bulk Modulus (GPa) = 36.16005 39.03851 37.59928
# Shear Modulus (GPa) = 18.20225 21.47719 19.83972
#
# Velocity S-wave (km/s) = 3.09921 3.36649 3.23561
# Velocity P-wave (km/s) = 5.64695 5.97588 5.81374
#
# Compressibility (1/GPa) = 0.02765483
#
# Stress axis : x y z
#
# Youngs Moduli (GPa) = 71.32788 45.85756 100.25514
#
# Poissons Ratio (x) = 0.18634 0.09963
# Poissons Ratio (y) = 0.28983 0.40261
# Poissons Ratio (z) = 0.07089 0.18416
#
# Static dielectric constant tensor:
#      x y z
#    x 3.290200 0.000000 0.000000 
#    y 0.000000 3.215850 0.000000 
#    z 0.000000 0.000000 3.965140 
# 
# 
# High freq. dielectric constant tensor:
#      x y z
#    x 1.712790 0.000000 0.000000 
#    y 0.000000 1.712470 0.000000 
#    z 0.000000 0.000000 1.745290 
# 
# From -- ./inp_files/21344.got.cif
#   From: 2010.03.12/outbox.cif.g09.slc.cpg/sg57_11_cif.got.tgz:21344.got - 2010.04.16 15:48:40.
