data_PCOD8231406
_publ_section_title
;
Structure prediction by ZEFSAII (Michael W. Deem and Ramdas Pophale) SiO2 
 PCOD8231406
Probable space group: P B C M
;
_chemical_formula_sum "Si O2"
_cell_formula_units_Z 64
_cell_length_a 21.357044
_cell_length_b 18.823786
_cell_length_c 9.102818
_cell_angle_alpha 90.000000
_cell_angle_beta 90.000000
_cell_angle_gamma 90.000000
_cell_volume 3659.518769
_symmetry_space_group_name_H-M "P B C M"
_symmetry_group_IT_number 57
_symmetry_cell_setting 'orthorhombic'
loop_
_space_group_symop_operation_xyz
x,y,z
-x,-y,1/2+z
x,1/2-y,-z
-x,1/2+y,1/2-z
-x,-y,-z
x,y,1/2-z
-x,1/2+y,z
x,1/2-y,1/2+z
loop_
_atom_site_type_symbol
_atom_site_label
_atom_site_fract_x
_atom_site_fract_y
_atom_site_fract_z
Si Si1 0.810131 0.018609 0.582200
Si Si2 0.100731 0.179272 0.580599
Si Si3 0.227358 0.384159 0.085112
Si Si4 0.517879 0.572756 0.077601
Si Si5 0.941357 0.535583 0.076627
Si Si6 0.405998 0.824784 0.923153
Si Si7 0.641305 0.918359 0.415829
Si Si8 0.299743 0.928090 0.580374
O O1 0.794427 0.032289 0.750000
O O2 0.769133 0.076480 0.493656
O O3 0.788843 0.940020 0.539777
O O4 0.884635 0.020771 0.551679
O O5 0.076270 0.250000 0.500000
O O6 0.078346 0.179878 0.750000
O O7 0.177127 0.179360 0.572050
O O8 0.072052 0.110821 0.500541
O O9 0.221646 0.418706 0.250000
O O10 0.300615 0.362345 0.063325
O O11 0.518561 0.558794 0.250000
O O12 0.467834 0.631971 0.033014
O O13 0.500000 0.500000 0.000000
O O14 0.585617 0.600988 0.025956
O O15 0.952636 0.548509 0.250000
O O16 0.000000 0.500000 0.000000
O O17 0.402257 0.813952 0.750000
O O18 0.345058 0.866924 0.982305
O O19 0.409071 0.750000 0.000000
O O20 0.614859 0.915618 0.250000
O O21 0.667487 0.996673 0.451411
O O22 0.288473 0.915440 0.750000
#
# Coordination Sequence:
#
# PCOD8231406 Si02
#       8
#     8   8   8   8   8   8   8   8
#     4   9  17  28  47  77 104 125 161 209 248 291
#     4  10  19  33  53  77 106 144 183 220 265 317
#     4   8  16  30  47  68  99 134 164 201 252 304
#     4  11  21  34  51  73 100 130 171 218 262 314
#     4  10  20  34  53  80 113 145 180 223 264 309
#     4  10  22  38  52  71  99 131 169 214 264 319
#     4   9  16  30  50  73  99 126 163 211 256 302
#     4   9  17  32  51  71  99 129 159 204 257 310
#
# _framework density 17.488637000000001
#
# number of rings (size 3 to 8) (size 9 to 14) (size 15 to 20)
#    0.000    2.500    1.250    2.250    0.000    5.500 
#    0.000    0.625    0.000    3.750    0.000    1.750 
#    0.000    0.000    0.000    0.000    0.000    0.000 
#
# Total GULP energy -793108.519447 kJ/mol
# GULP energy per Si atom -12392.320616 kJ/mol
# Density = 1.744883 g / cm^3
# Si number density = 17.488637 Si / 1000 Ang^3
#
#
#
# Elastic Constant Matrix: (Units=GPa)
#
#
# Indices 1 2 3 4 5 6 
#
# 1 127.3201 48.5605 67.2247 0.0000 0.0000 0.0000
# 2 48.5605 80.0606 45.6398 0.0000 0.0000 0.0000
# 3 67.2247 45.6398 90.0047 0.0000 0.0000 0.0000
# 4 0.0000 0.0000 0.0000 26.4125 0.0000 0.0000
# 5 0.0000 0.0000 0.0000 0.0000 31.7616 0.0000
# 6 0.0000 0.0000 0.0000 0.0000 0.0000 19.9204
#
#
#
# Elastic Compliance Matrix: (Units=1/GPa)
#
#
# Indices 1 2 3 4 5 6 
#
# 1 0.013618 -0.003463 -0.008416 0.000000 0.000000 0.000000
# 2 -0.003463 0.018450 -0.006769 0.000000 0.000000 0.000000
# 3 -0.008416 -0.006769 0.020829 0.000000 0.000000 0.000000
# 4 0.000000 0.000000 0.000000 0.037861 0.000000 0.000000
# 5 0.000000 0.000000 0.000000 0.000000 0.031485 0.000000
# 6 0.000000 0.000000 0.000000 0.000000 0.000000 0.050200
#
#
# Mechanical properties :
#
#
# Convention : Reuss Voigt Hill
#
# Bulk Modulus (GPa) = 64.09591 68.91504 66.50548
# Shear Modulus (GPa) = 23.26253 24.68294 23.97273
#
# Velocity S-wave (km/s) = 3.65108 3.76090 3.70639
# Velocity P-wave (km/s) = 7.38265 7.63874 7.51178
#
# Compressibility (1/GPa) = 0.01560162
#
# Stress axis : x y z
#
# Youngs Moduli (GPa) = 73.43011 54.20138 48.01041
#
# Poissons Ratio (x) = 0.18768 0.40404
# Poissons Ratio (y) = 0.25426 0.32499
# Poissons Ratio (z) = 0.61797 0.36690
#
# Static dielectric constant tensor:
#      x y z
#    x 3.731320 0.000000 0.000000 
#    y 0.000000 2.849460 0.000000 
#    z 0.000000 0.000000 3.353950 
# 
# 
# High freq. dielectric constant tensor:
#      x y z
#    x 1.680900 0.000000 0.000000 
#    y 0.000000 1.633060 0.000000 
#    z 0.000000 0.000000 1.684180 
# 
# From -- ./inp_files/8466.got.cif
#   From: 2010.03.12/outbox.cif.g09.slc.cpg/sg57_5_cif.got.tgz:8466.got - 2010.04.16 15:48:40.
