data_PCOD8231782
_publ_section_title
;
Structure prediction by ZEFSAII (Michael W. Deem and Ramdas Pophale) SiO2 
 PCOD8231782
Probable space group: P B C M
;
_chemical_formula_sum "Si O2"
_cell_formula_units_Z 56
_cell_length_a 15.855023
_cell_length_b 11.709700
_cell_length_c 15.417928
_cell_angle_alpha 90.000000
_cell_angle_beta 90.000000
_cell_angle_gamma 90.000000
_cell_volume 2862.454936
_symmetry_space_group_name_H-M "P B C M"
_symmetry_group_IT_number 57
_symmetry_cell_setting 'orthorhombic'
loop_
_space_group_symop_operation_xyz
x,y,z
-x,-y,1/2+z
x,1/2-y,-z
-x,1/2+y,1/2-z
-x,-y,-z
x,y,1/2-z
-x,1/2+y,z
x,1/2-y,1/2+z
loop_
_atom_site_type_symbol
_atom_site_label
_atom_site_fract_x
_atom_site_fract_y
_atom_site_fract_z
Si Si1 0.376913 0.976496 0.463137
Si Si2 0.172617 0.254639 0.852292
Si Si3 0.534274 0.847592 0.431314
Si Si4 0.893568 0.985939 0.149081
Si Si5 0.645960 0.811138 0.652992
Si Si6 0.808269 0.384564 0.496235
Si Si7 0.908375 0.990306 0.850359
O O1 0.419102 0.031817 0.549299
O O2 0.382153 0.071095 0.389293
O O3 0.433779 0.869565 0.428963
O O4 0.284275 0.935748 0.484423
O O5 0.173600 0.244865 0.750000
O O6 0.267390 0.264417 0.890608
O O7 0.118719 0.364196 0.881323
O O8 0.129738 0.139503 0.887613
O O9 0.559506 0.750000 0.500000
O O10 0.574127 0.788940 0.345775
O O11 0.866938 0.005043 0.250000
O O12 0.992473 0.001392 0.137803
O O13 0.846109 0.075780 0.088086
O O14 0.666868 0.846140 0.750000
O O15 0.801936 0.250000 0.500000
O O16 0.864300 0.418558 0.413176
O O17 0.882171 0.014548 0.750000
#
# Coordination Sequence:
#
# PCOD8231782 Si02
#       7
#     8   8   8   8   8   8   8
#     4  10  20  37  56  81 116 154 195 242 299 360
#     4   9  18  36  62  87 114 153 202 252 304 361
#     4   9  19  35  58  80 108 149 191 240 297 349
#     4  10  23  41  62  88 120 159 208 264 315 364
#     4  10  19  34  58  87 114 147 196 246 299 360
#     4  12  25  38  59  90 124 164 207 246 308 384
#     4  10  22  41  62  87 120 159 202 257 315 372
#
# _framework density 19.563625999999999
#
# number of rings (size 3 to 8) (size 9 to 14) (size 15 to 20)
#    0.000    2.000    1.429    1.714    2.000    1.714 
#    0.000    0.000    0.000   10.286    0.000    0.000 
#    0.000    0.000    0.000    0.000    0.000    0.000 
#
# Total GULP energy -694158.342491 kJ/mol
# GULP energy per Si atom -12395.684687 kJ/mol
# Density = 1.951910 g / cm^3
# Si number density = 19.563626 Si / 1000 Ang^3
#
#
#
# Elastic Constant Matrix: (Units=GPa)
#
#
# Indices 1 2 3 4 5 6 
#
# 1 118.9237 37.6574 37.3895 0.0000 0.0000 0.0000
# 2 37.6574 101.5403 32.6806 0.0000 0.0000 0.0000
# 3 37.3895 32.6806 76.3301 0.0000 0.0000 0.0000
# 4 0.0000 0.0000 0.0000 22.5603 0.0000 0.0000
# 5 0.0000 0.0000 0.0000 0.0000 26.9881 0.0000
# 6 0.0000 0.0000 0.0000 0.0000 0.0000 43.6435
#
#
#
# Elastic Compliance Matrix: (Units=1/GPa)
#
#
# Indices 1 2 3 4 5 6 
#
# 1 0.010498 -0.002596 -0.004031 0.000000 0.000000 0.000000
# 2 -0.002596 0.012064 -0.003894 0.000000 0.000000 0.000000
# 3 -0.004031 -0.003894 0.016743 0.000000 0.000000 0.000000
# 4 0.000000 0.000000 0.000000 0.044326 0.000000 0.000000
# 5 0.000000 0.000000 0.000000 0.000000 0.037053 0.000000
# 6 0.000000 0.000000 0.000000 0.000000 0.000000 0.022913
#
#
# Mechanical properties :
#
#
# Convention : Reuss Voigt Hill
#
# Bulk Modulus (GPa) = 54.75327 56.91657 55.83492
# Shear Modulus (GPa) = 29.28674 31.24284 30.26479
#
# Velocity S-wave (km/s) = 3.87331 4.00057 3.93745
# Velocity P-wave (km/s) = 6.93191 7.10603 7.01951
#
# Compressibility (1/GPa) = 0.01826375
#
# Stress axis : x y z
#
# Youngs Moduli (GPa) = 95.25533 82.88965 59.72808
#
# Poissons Ratio (x) = 0.21518 0.24076
# Poissons Ratio (y) = 0.24728 0.23256
# Poissons Ratio (z) = 0.38397 0.32274
#
# Static dielectric constant tensor:
#      x y z
#    x 3.718630 0.000000 0.000000 
#    y 0.000000 3.720560 0.000000 
#    z 0.000000 0.000000 3.509570 
# 
# 
# High freq. dielectric constant tensor:
#      x y z
#    x 1.773000 0.000000 0.000000 
#    y 0.000000 1.764660 0.000000 
#    z 0.000000 0.000000 1.746860 
# 
# From -- ./inp_files/18511.got.cif
#   From: 2010.03.12/outbox.cif.g09.slc.cpg/sg57_10_cif.got.tgz:18511.got - 2010.04.16 15:48:40.
