data_PCOD8231026
_publ_section_title
;
Structure prediction by ZEFSAII (Michael W. Deem and Ramdas Pophale) SiO2 
 PCOD8231026
Probable space group: P B C M
;
_chemical_formula_sum "Si O2"
_cell_formula_units_Z 56
_cell_length_a 31.933248
_cell_length_b 5.237966
_cell_length_c 15.031154
_cell_angle_alpha 90.000000
_cell_angle_beta 90.000000
_cell_angle_gamma 90.000000
_cell_volume 2514.189992
_symmetry_space_group_name_H-M "P B C M"
_symmetry_group_IT_number 57
_symmetry_cell_setting 'orthorhombic'
loop_
_space_group_symop_operation_xyz
x,y,z
-x,-y,1/2+z
x,1/2-y,-z
-x,1/2+y,1/2-z
-x,-y,-z
x,y,1/2-z
-x,1/2+y,z
x,1/2-y,1/2+z
loop_
_atom_site_type_symbol
_atom_site_label
_atom_site_fract_x
_atom_site_fract_y
_atom_site_fract_z
Si Si1 0.482025 0.984347 0.400891
Si Si2 0.660926 0.944652 0.355628
Si Si3 0.244694 0.056418 0.856387
Si Si4 0.022922 0.442833 0.644733
Si Si5 0.387791 0.555508 0.644090
Si Si6 0.198042 0.943379 0.144793
Si Si7 0.889580 0.499913 0.056978
O O1 0.503186 0.742404 0.350664
O O2 0.432355 0.957631 0.403398
O O3 0.500000 0.000000 0.500000
O O4 0.662380 0.949428 0.250000
O O5 0.635457 0.190274 0.390106
O O6 0.708023 0.952259 0.393406
O O7 0.638938 0.686387 0.389119
O O8 0.244509 0.056400 0.750000
O O9 0.222071 0.309680 0.893877
O O10 0.219877 0.811050 0.893974
O O11 0.019137 0.443807 0.750000
O O12 0.071303 0.441652 0.619582
O O13 0.001057 0.189209 0.604849
O O14 0.393905 0.554668 0.750000
O O15 0.201377 0.944003 0.250000
O O16 0.149789 0.941419 0.118760
O O17 0.879556 0.750000 0.000000
O O18 0.899843 0.250000 0.000000
#
# Coordination Sequence:
#
# PCOD8231026 Si02
#       7
#     8   8   8   8   8   8   8
#     4  10  21  36  52  73  96 140 178 213 259 308
#     4   9  17  30  50  83 115 135 167 221 280 330
#     4   9  17  31  55  85 113 142 183 230 281 336
#     4  10  22  41  64  88 118 156 199 252 303 353
#     4  10  19  31  51  80 111 136 167 220 276 323
#     4  10  20  36  58  85 114 152 197 239 278 344
#     4  12  25  39  58  88 119 162 199 242 302 346
#
# _framework density 22.273577
#
# number of rings (size 3 to 8) (size 9 to 14) (size 15 to 20)
#    0.000    2.000    0.000    3.857    0.000    5.714 
#    0.000    5.714    0.000    0.000   74.286    0.000 
#    0.000    0.000    0.000    0.000    0.000    0.000 
#
# Total GULP energy -694495.057759 kJ/mol
# GULP energy per Si atom -12401.697460 kJ/mol
# Density = 2.222288 g / cm^3
# Si number density = 22.273577 Si / 1000 Ang^3
#
#
#
# Elastic Constant Matrix: (Units=GPa)
#
#
# Indices 1 2 3 4 5 6 
#
# 1 195.2891 76.5663 4.5953 0.0000 0.0000 0.0000
# 2 76.5663 219.3409 8.2586 0.0000 0.0000 0.0000
# 3 4.5953 8.2586 7.5109 0.0000 0.0000 0.0000
# 4 0.0000 0.0000 0.0000 0.8492 0.0000 0.0000
# 5 0.0000 0.0000 0.0000 0.0000 14.5716 0.0000
# 6 0.0000 0.0000 0.0000 0.0000 0.0000 49.4216
#
#
#
# Elastic Compliance Matrix: (Units=1/GPa)
#
#
# Indices 1 2 3 4 5 6 
#
# 1 0.005947 -0.002023 -0.001414 0.000000 0.000000 0.000000
# 2 -0.002023 0.005444 -0.004748 0.000000 0.000000 0.000000
# 3 -0.001414 -0.004748 0.139226 0.000000 0.000000 0.000000
# 4 0.000000 0.000000 0.000000 1.177560 0.000000 0.000000
# 5 0.000000 0.000000 0.000000 0.000000 0.068627 0.000000
# 6 0.000000 0.000000 0.000000 0.000000 0.000000 0.020234
#
#
# Mechanical properties :
#
#
# Convention : Reuss Voigt Hill
#
# Bulk Modulus (GPa) = 7.44901 66.77572 37.11236
# Shear Modulus (GPa) = 3.38259 35.14986 19.26622
#
# Velocity S-wave (km/s) = 1.23367 3.97684 2.94425
# Velocity P-wave (km/s) = 2.31967 7.15065 5.31567
#
# Compressibility (1/GPa) = 0.13424601
#
# Stress axis : x y z
#
# Youngs Moduli (GPa) = 168.15444 183.68987 7.18256
#
# Poissons Ratio (x) = 0.37154 0.01016
# Poissons Ratio (y) = 0.34012 0.03411
# Poissons Ratio (z) = 0.23784 0.87223
#
# Static dielectric constant tensor:
#      x y z
#    x 4.044480 0.000000 0.000000 
#    y 0.000000 -0.080220 0.000000 
#    z 0.000000 0.000000 3.482450 
# 
# 
# High freq. dielectric constant tensor:
#      x y z
#    x 1.889700 0.000000 0.000000 
#    y 0.000000 1.903650 0.000000 
#    z 0.000000 0.000000 1.844280 
# 
# From -- ./inp_files/19650.got.cif
#   From: 2010.03.12/outbox.cif.g09.slc.cpg/sg57_10_cif.got.tgz:19650.got - 2010.04.16 15:48:40.
