data_PCOD8231825
_publ_section_title
;
Structure prediction by ZEFSAII (Michael W. Deem and Ramdas Pophale) SiO2 
 PCOD8231825
Probable space group: P B C M
;
_chemical_formula_sum "Si O2"
_cell_formula_units_Z 64
_cell_length_a 20.082400
_cell_length_b 9.676230
_cell_length_c 18.621006
_cell_angle_alpha 90.000000
_cell_angle_beta 90.000000
_cell_angle_gamma 90.000000
_cell_volume 3618.469663
_symmetry_space_group_name_H-M "P B C M"
_symmetry_group_IT_number 57
_symmetry_cell_setting 'orthorhombic'
loop_
_space_group_symop_operation_xyz
x,y,z
-x,-y,1/2+z
x,1/2-y,-z
-x,1/2+y,1/2-z
-x,-y,-z
x,y,1/2-z
-x,1/2+y,z
x,1/2-y,1/2+z
loop_
_atom_site_type_symbol
_atom_site_label
_atom_site_fract_x
_atom_site_fract_y
_atom_site_fract_z
Si Si1 0.560348 0.726795 0.664383
Si Si2 0.562277 0.041294 0.835572
Si Si3 0.170009 0.775009 0.331872
Si Si4 0.678158 0.963221 0.164742
Si Si5 0.926009 0.120544 0.949026
Si Si6 0.923630 0.882186 0.451361
Si Si7 0.827952 0.951279 0.331713
Si Si8 0.319146 0.729805 0.835480
O O1 0.560179 0.731400 0.750000
O O2 0.498355 0.635952 0.636185
O O3 0.557049 0.884214 0.634293
O O4 0.626792 0.651055 0.634750
O O5 0.561592 0.037028 0.750000
O O6 0.630065 0.113264 0.864218
O O7 0.162193 0.825026 0.250000
O O8 0.117713 0.860875 0.378166
O O9 0.155075 0.612795 0.337840
O O10 0.244468 0.807297 0.360882
O O11 0.673932 0.968290 0.250000
O O12 0.752750 0.921813 0.141618
O O13 0.660241 0.117343 0.135588
O O14 0.001339 0.083769 0.924819
O O15 0.925118 0.250000 0.000000
O O16 0.894510 0.000658 0.997384
O O17 0.922114 0.750000 0.500000
O O18 0.877764 0.864202 0.381376
O O19 0.837477 0.900333 0.250000
O O20 0.320100 0.735466 0.750000
#
# Coordination Sequence:
#
# PCOD8231825 Si02
#       8
#     8   8   8   8   8   8   8   8
#     4   9  15  22  34  54  83 121 159 192 233 285
#     4   9  15  22  34  54  84 121 157 193 234 283
#     4   9  17  31  53  76  97 129 171 210 249 299
#     4   8  14  25  41  60  84 118 157 196 240 288
#     4  10  19  35  56  73  97 131 167 206 249 299
#     4  10  21  35  52  76 102 132 166 206 253 297
#     4   9  17  32  53  73  98 133 169 205 251 306
#     4   8  14  25  40  60  87 117 153 198 244 287
#
# _framework density 17.687035999999999
#
# number of rings (size 3 to 8) (size 9 to 14) (size 15 to 20)
#    0.000    3.000    1.250    2.250    0.000    3.500 
#    2.250    0.625    0.000    0.000    0.000    0.000 
#    0.000    2.000    0.000    0.125    0.000    0.500 
#
# Total GULP energy -793236.610436 kJ/mol
# GULP energy per Si atom -12394.322038 kJ/mol
# Density = 1.764678 g / cm^3
# Si number density = 17.687036 Si / 1000 Ang^3
#
#
#
# Elastic Constant Matrix: (Units=GPa)
#
#
# Indices 1 2 3 4 5 6 
#
# 1 121.2455 54.8011 40.1659 0.0000 0.0000 0.0000
# 2 54.8011 99.1576 21.6149 0.0000 0.0000 0.0000
# 3 40.1659 21.6149 40.3293 0.0000 0.0000 0.0000
# 4 0.0000 0.0000 0.0000 14.4386 0.0000 0.0000
# 5 0.0000 0.0000 0.0000 0.0000 2.0898 0.0000
# 6 0.0000 0.0000 0.0000 0.0000 0.0000 31.6002
#
#
#
# Elastic Compliance Matrix: (Units=1/GPa)
#
#
# Indices 1 2 3 4 5 6 
#
# 1 0.014577 -0.005539 -0.011550 0.000000 0.000000 0.000000
# 2 -0.005539 0.013524 -0.001732 0.000000 0.000000 0.000000
# 3 -0.011550 -0.001732 0.037227 0.000000 0.000000 0.000000
# 4 0.000000 0.000000 0.000000 0.069259 0.000000 0.000000
# 5 0.000000 0.000000 0.000000 0.000000 0.478511 0.000000
# 6 0.000000 0.000000 0.000000 0.000000 0.000000 0.031645
#
#
# Mechanical properties :
#
#
# Convention : Reuss Voigt Hill
#
# Bulk Modulus (GPa) = 36.11758 54.87737 45.49747
# Shear Modulus (GPa) = 7.22948 19.23575 13.23261
#
# Velocity S-wave (km/s) = 2.02394 3.30140 2.73821
# Velocity P-wave (km/s) = 5.09180 6.75474 5.98135
#
# Compressibility (1/GPa) = 0.02768735
#
# Stress axis : x y z
#
# Youngs Moduli (GPa) = 68.59974 73.94522 26.86226
#
# Poissons Ratio (x) = 0.40956 0.31025
# Poissons Ratio (y) = 0.37996 0.04652
# Poissons Ratio (z) = 0.79231 0.12806
#
# Static dielectric constant tensor:
#      x y z
#    x 3.530240 0.000000 0.000000 
#    y 0.000000 3.363510 0.000000 
#    z 0.000000 0.000000 2.715810 
# 
# 
# High freq. dielectric constant tensor:
#      x y z
#    x 1.692340 0.000000 0.000000 
#    y 0.000000 1.681600 0.000000 
#    z 0.000000 0.000000 1.622130 
# 
# From -- ./inp_files/25596.got.cif
#   From: 2010.03.12/outbox.cif.g09.slc.cpg/sg57_13_cif.got.tgz:25596.got - 2010.04.16 15:48:40.
