data_PCOD8231460
_publ_section_title
;
Structure prediction by ZEFSAII (Michael W. Deem and Ramdas Pophale) SiO2 
 PCOD8231460
Probable space group: P B C M
;
_chemical_formula_sum "Si O2"
_cell_formula_units_Z 56
_cell_length_a 17.194900
_cell_length_b 19.704719
_cell_length_c 9.123988
_cell_angle_alpha 90.000000
_cell_angle_beta 90.000000
_cell_angle_gamma 90.000000
_cell_volume 3091.395752
_symmetry_space_group_name_H-M "P B C M"
_symmetry_group_IT_number 57
_symmetry_cell_setting 'orthorhombic'
loop_
_space_group_symop_operation_xyz
x,y,z
-x,-y,1/2+z
x,1/2-y,-z
-x,1/2+y,1/2-z
-x,-y,-z
x,y,1/2-z
-x,1/2+y,z
x,1/2-y,1/2+z
loop_
_atom_site_type_symbol
_atom_site_label
_atom_site_fract_x
_atom_site_fract_y
_atom_site_fract_z
Si Si1 0.379147 0.181551 0.921887
Si Si2 0.443498 0.818008 0.078884
Si Si3 0.276601 0.056198 0.577591
Si Si4 0.900102 0.551304 0.580930
Si Si5 0.044476 0.599343 0.079695
Si Si6 0.171679 0.680502 0.923297
Si Si7 0.688681 0.080948 0.578894
O O1 0.369270 0.192749 0.750000
O O2 0.468031 0.164056 0.964029
O O3 0.325812 0.120264 0.978854
O O4 0.350987 0.250000 0.000000
O O5 0.433750 0.804327 0.250000
O O6 0.389074 0.879841 0.028588
O O7 0.414998 0.750000 0.000000
O O8 0.284627 0.045955 0.750000
O O9 0.187305 0.068936 0.533136
O O10 0.311125 0.989560 0.504673
O O11 0.916657 0.569215 0.750000
O O12 0.913102 0.471911 0.551712
O O13 0.956512 0.596150 0.479992
O O14 0.043059 0.619258 0.250000
O O15 0.089521 0.656740 0.989398
O O16 0.163847 0.691444 0.750000
O O17 0.236417 0.625130 0.963679
O O18 0.197236 0.750000 0.000000
O O19 0.687697 0.065072 0.750000
#
# Coordination Sequence:
#
# PCOD8231460 Si02
#       7
#     8   8   8   8   8   8   8
#     4   9  19  36  57  78 104 138 177 219 266 318
#     4   9  18  34  53  76 106 142 181 219 261 313
#     4  10  20  35  55  80 108 140 177 220 268 318
#     4   9  18  33  53  76 104 136 172 216 262 313
#     4  10  19  33  54  77 101 136 178 216 261 316
#     4  11  22  35  52  76 109 145 180 221 268 317
#     4  10  21  34  51  78 110 141 177 221 266 314
#
# _framework density 18.114795999999998
#
# number of rings (size 3 to 8) (size 9 to 14) (size 15 to 20)
#    0.000    2.286    1.429    1.286    0.000    3.429 
#    0.000    0.714    0.000    1.714    0.000    0.000 
#    0.000    0.000    0.000    0.000    0.000    0.000 
#
# Total GULP energy -694598.211484 kJ/mol
# GULP energy per Si atom -12403.539491 kJ/mol
# Density = 1.807357 g / cm^3
# Si number density = 18.114796 Si / 1000 Ang^3
#
#
#
# Elastic Constant Matrix: (Units=GPa)
#
#
# Indices 1 2 3 4 5 6 
#
# 1 123.0587 80.3704 46.1079 0.0000 0.0000 0.0000
# 2 80.3704 134.4903 54.8180 0.0000 0.0000 0.0000
# 3 46.1079 54.8180 60.6082 0.0000 0.0000 0.0000
# 4 0.0000 0.0000 0.0000 34.4794 0.0000 0.0000
# 5 0.0000 0.0000 0.0000 0.0000 23.6872 0.0000
# 6 0.0000 0.0000 0.0000 0.0000 0.0000 19.6649
#
#
#
# Elastic Compliance Matrix: (Units=1/GPa)
#
#
# Indices 1 2 3 4 5 6 
#
# 1 0.014210 -0.006471 -0.004957 0.000000 0.000000 0.000000
# 2 -0.006471 0.014724 -0.008395 0.000000 0.000000 0.000000
# 3 -0.004957 -0.008395 0.027863 0.000000 0.000000 0.000000
# 4 0.000000 0.000000 0.000000 0.029003 0.000000 0.000000
# 5 0.000000 0.000000 0.000000 0.000000 0.042217 0.000000
# 6 0.000000 0.000000 0.000000 0.000000 0.000000 0.050852
#
#
# Mechanical properties :
#
#
# Convention : Reuss Voigt Hill
#
# Bulk Modulus (GPa) = 58.30442 75.63887 66.97165
# Shear Modulus (GPa) = 22.29828 24.69037 23.49432
#
# Velocity S-wave (km/s) = 3.51229 3.69588 3.60525
# Velocity P-wave (km/s) = 6.97884 7.74975 7.37437
#
# Compressibility (1/GPa) = 0.01715136
#
# Stress axis : x y z
#
# Youngs Moduli (GPa) = 70.37295 67.91526 35.88944
#
# Poissons Ratio (x) = 0.43949 0.17792
# Poissons Ratio (y) = 0.45540 0.30128
# Poissons Ratio (z) = 0.34886 0.57012
#
# Static dielectric constant tensor:
#      x y z
#    x 3.485810 0.000000 0.000000 
#    y 0.000000 3.234750 0.000000 
#    z 0.000000 0.000000 3.286700 
# 
# 
# High freq. dielectric constant tensor:
#      x y z
#    x 1.708030 0.000000 0.000000 
#    y 0.000000 1.690380 0.000000 
#    z 0.000000 0.000000 1.700510 
# 
# From -- ./inp_files/5230.got.cif
#   From: 2010.03.12/outbox.cif.g09.slc.cpg/sg57_3_cif.got.tgz:5230.got - 2010.04.16 15:48:40.
