data_PCOD8231773
_publ_section_title
;
Structure prediction by ZEFSAII (Michael W. Deem and Ramdas Pophale) SiO2 
 PCOD8231773
Probable space group: P B C M
;
_chemical_formula_sum "Si O2"
_cell_formula_units_Z 64
_cell_length_a 12.375654
_cell_length_b 28.896959
_cell_length_c 9.153454
_cell_angle_alpha 90.000000
_cell_angle_beta 90.000000
_cell_angle_gamma 90.000000
_cell_volume 3273.446926
_symmetry_space_group_name_H-M "P B C M"
_symmetry_group_IT_number 57
_symmetry_cell_setting 'orthorhombic'
loop_
_space_group_symop_operation_xyz
x,y,z
-x,-y,1/2+z
x,1/2-y,-z
-x,1/2+y,1/2-z
-x,-y,-z
x,y,1/2-z
-x,1/2+y,z
x,1/2-y,1/2+z
loop_
_atom_site_type_symbol
_atom_site_label
_atom_site_fract_x
_atom_site_fract_y
_atom_site_fract_z
Si Si1 0.437917 0.142793 0.581914
Si Si2 0.524492 0.453753 0.417521
Si Si3 0.014545 0.547101 0.914214
Si Si4 0.255275 0.300008 0.576483
Si Si5 0.951235 0.861500 0.920503
Si Si6 0.815992 0.169676 0.081950
Si Si7 0.369958 0.791102 0.085431
Si Si8 0.246183 0.584715 0.911486
O O1 0.397904 0.146610 0.750000
O O2 0.450212 0.089599 0.529099
O O3 0.358240 0.171065 0.478155
O O4 0.559806 0.162571 0.569739
O O5 0.500000 0.500000 0.500000
O O6 0.497737 0.461964 0.250000
O O7 0.650485 0.445964 0.444796
O O8 0.967087 0.543106 0.750000
O O9 0.142672 0.552236 0.908229
O O10 0.953818 0.590502 0.990300
O O11 0.000000 0.500000 0.000000
O O12 0.249262 0.250000 0.500000
O O13 0.264227 0.292468 0.750000
O O14 0.150536 0.330246 0.533803
O O15 0.948513 0.874689 0.750000
O O16 0.056692 0.830301 0.956649
O O17 0.794847 0.181077 0.250000
O O18 0.750228 0.205497 0.982948
O O19 0.766904 0.119868 0.044059
O O20 0.356124 0.775088 0.250000
O O21 0.432117 0.750000 0.000000
O O22 0.258399 0.609371 0.750000
#
# Coordination Sequence:
#
# PCOD8231773 Si02
#       8
#     8   8   8   8   8   8   8   8
#     4  10  22  41  62  84 117 155 197 248 297 352
#     4  10  21  38  58  84 116 152 195 243 296 353
#     4  10  20  34  58  87 118 157 202 250 304 362
#     4  11  24  42  64  88 120 161 206 255 309 367
#     4   9  21  40  59  84 119 156 199 249 299 355
#     4  10  19  34  58  85 112 145 187 234 289 348
#     4  11  22  37  57  84 117 149 187 235 287 344
#     4   9  18  36  56  76 109 152 190 234 294 348
#
# _framework density 19.551255999999999
#
# number of rings (size 3 to 8) (size 9 to 14) (size 15 to 20)
#    0.000    2.000    1.250    1.875    0.000    6.500 
#    0.000    5.000    0.000    0.000    0.000    0.000 
#    0.000    0.000    0.000    0.000    0.000    0.000 
#
# Total GULP energy -793355.107923 kJ/mol
# GULP energy per Si atom -12396.173561 kJ/mol
# Density = 1.950676 g / cm^3
# Si number density = 19.551256 Si / 1000 Ang^3
#
#
#
# Elastic Constant Matrix: (Units=GPa)
#
#
# Indices 1 2 3 4 5 6 
#
# 1 97.9168 52.7011 52.2004 0.0000 0.0000 0.0000
# 2 52.7011 142.1656 66.3850 0.0000 0.0000 0.0000
# 3 52.2004 66.3850 107.6945 0.0000 0.0000 0.0000
# 4 0.0000 0.0000 0.0000 38.7888 0.0000 0.0000
# 5 0.0000 0.0000 0.0000 0.0000 28.0692 0.0000
# 6 0.0000 0.0000 0.0000 0.0000 0.0000 25.6456
#
#
#
# Elastic Compliance Matrix: (Units=1/GPa)
#
#
# Indices 1 2 3 4 5 6 
#
# 1 0.014608 -0.002961 -0.005255 0.000000 0.000000 0.000000
# 2 -0.002961 0.010477 -0.005023 0.000000 0.000000 0.000000
# 3 -0.005255 -0.005023 0.014929 0.000000 0.000000 0.000000
# 4 0.000000 0.000000 0.000000 0.025781 0.000000 0.000000
# 5 0.000000 0.000000 0.000000 0.000000 0.035626 0.000000
# 6 0.000000 0.000000 0.000000 0.000000 0.000000 0.038993
#
#
# Mechanical properties :
#
#
# Convention : Reuss Voigt Hill
#
# Bulk Modulus (GPa) = 73.88072 76.70556 75.29314
# Shear Modulus (GPa) = 29.17050 30.26673 29.71862
#
# Velocity S-wave (km/s) = 3.86683 3.93882 3.90299
# Velocity P-wave (km/s) = 7.60308 7.74622 7.67498
#
# Compressibility (1/GPa) = 0.01353533
#
# Stress axis : x y z
#
# Youngs Moduli (GPa) = 68.45437 95.44383 66.98296
#
# Poissons Ratio (x) = 0.28264 0.35202
# Poissons Ratio (y) = 0.20271 0.33646
# Poissons Ratio (z) = 0.35975 0.47942
#
# Static dielectric constant tensor:
#      x y z
#    x 3.719860 0.000000 0.000000 
#    y 0.000000 3.554550 0.000000 
#    z 0.000000 0.000000 3.738960 
# 
# 
# High freq. dielectric constant tensor:
#      x y z
#    x 1.761810 0.000000 0.000000 
#    y 0.000000 1.762520 0.000000 
#    z 0.000000 0.000000 1.766060 
# 
# From -- ./inp_files/3869.got.cif
#   From: 2010.03.12/outbox.cif.g09.slc.cpg/sg57_2_cif.got.tgz:3869.got - 2010.04.16 15:48:40.
