data_PCOD8231159
_publ_section_title
;
Structure prediction by ZEFSAII (Michael W. Deem and Ramdas Pophale) SiO2 
 PCOD8231159
Probable space group: P B C M
;
_chemical_formula_sum "Si O2"
_cell_formula_units_Z 48
_cell_length_a 30.750581
_cell_length_b 9.601916
_cell_length_c 8.897119
_cell_angle_alpha 90.000000
_cell_angle_beta 90.000000
_cell_angle_gamma 90.000000
_cell_volume 2627.003355
_symmetry_space_group_name_H-M "P B C M"
_symmetry_group_IT_number 57
_symmetry_cell_setting 'orthorhombic'
loop_
_space_group_symop_operation_xyz
x,y,z
-x,-y,1/2+z
x,1/2-y,-z
-x,1/2+y,1/2-z
-x,-y,-z
x,y,1/2-z
-x,1/2+y,z
x,1/2-y,1/2+z
loop_
_atom_site_type_symbol
_atom_site_label
_atom_site_fract_x
_atom_site_fract_y
_atom_site_fract_z
Si Si1 0.300608 0.598346 0.929056
Si Si2 0.223311 0.400560 0.573178
Si Si3 0.035125 0.098538 0.426920
Si Si4 0.129160 0.104336 0.076590
Si Si5 0.632060 0.602277 0.574858
Si Si6 0.531719 0.606209 0.576768
O O1 0.303645 0.610632 0.750000
O O2 0.258555 0.511279 0.983722
O O3 0.297291 0.750000 0.000000
O O4 0.342877 0.521031 0.991758
O O5 0.231445 0.250000 0.500000
O O6 0.227993 0.378739 0.750000
O O7 0.175355 0.465209 0.528408
O O8 0.031388 0.250000 0.500000
O O9 0.026329 0.112251 0.250000
O O10 0.083157 0.027592 0.458858
O O11 0.000000 0.000000 0.500000
O O12 0.131878 0.137353 0.250000
O O13 0.125732 0.250000 0.000000
O O14 0.643923 0.750000 0.500000
O O15 0.644849 0.610069 0.750000
O O16 0.581722 0.563852 0.552493
O O17 0.521290 0.750000 0.500000
O O18 0.500000 0.500000 0.500000
O O19 0.519780 0.617895 0.750000
#
# Coordination Sequence:
#
# PCOD8231159 Si02
#       6
#     8   8   8   8   8   8
#     4  11  23  37  54  77 107 141 175 215 262 310
#     4   9  18  33  54  78 101 129 168 211 256 307
#     4  10  19  32  51  74 102 135 171 212 257 306
#     4   8  15  29  49  72  98 128 165 209 253 301
#     4  10  21  38  59  82 108 140 179 219 259 307
#     4  10  21  37  58  83 111 143 178 218 262 309
#
# _framework density 18.271771000000001
#
# number of rings (size 3 to 8) (size 9 to 14) (size 15 to 20)
#    0.000    2.333    0.000    2.500    0.000    6.000 
#    0.000    0.833    0.000    2.000    0.000    0.000 
#    0.000    0.000    0.000    0.000    0.000    0.000 
#
# Total GULP energy -594773.088047 kJ/mol
# GULP energy per Si atom -12391.106001 kJ/mol
# Density = 1.823018 g / cm^3
# Si number density = 18.271771 Si / 1000 Ang^3
#
#
#
# Elastic Constant Matrix: (Units=GPa)
#
#
# Indices 1 2 3 4 5 6 
#
# 1 142.3200 89.6223 69.7135 0.0000 0.0000 0.0000
# 2 89.6223 117.1850 61.4769 0.0000 0.0000 0.0000
# 3 69.7135 61.4769 96.0769 0.0000 0.0000 0.0000
# 4 0.0000 0.0000 0.0000 33.7779 0.0000 0.0000
# 5 0.0000 0.0000 0.0000 0.0000 -138.3288 0.0000
# 6 0.0000 0.0000 0.0000 0.0000 0.0000 28.9679
#
#
#
# Elastic Compliance Matrix: (Units=1/GPa)
#
#
# Indices 1 2 3 4 5 6 
#
# 1 0.015219 -0.008800 -0.005412 0.000000 0.000000 0.000000
# 2 -0.008800 0.017934 -0.005090 0.000000 0.000000 0.000000
# 3 -0.005412 -0.005090 0.017592 0.000000 0.000000 0.000000
# 4 0.000000 0.000000 0.000000 0.029605 0.000000 0.000000
# 5 0.000000 0.000000 0.000000 0.000000 -0.007229 0.000000
# 6 0.000000 0.000000 0.000000 0.000000 0.000000 0.034521
#
#
# Mechanical properties :
#
#
# Convention : Reuss Voigt Hill
#
# Bulk Modulus (GPa) = 82.36611 88.57858 85.47234
# Shear Modulus (GPa) = 33.26802 -6.13197 13.56803
#
# Velocity S-wave (km/s) = 4.27163 -1.83392 2.72797
# Velocity P-wave (km/s) = 8.33699 6.64073 7.53673
#
# Compressibility (1/GPa) = 0.01214092
#
# Stress axis : x y z
#
# Youngs Moduli (GPa) = 65.70658 55.75907 56.84310
#
# Poissons Ratio (x) = 0.49070 0.30763
# Poissons Ratio (y) = 0.57824 0.28934
# Poissons Ratio (z) = 0.35560 0.28382
#
# Static dielectric constant tensor:
#      x y z
#    x 4.058370 0.000000 0.000000 
#    y 0.000000 3.110290 0.000000 
#    z 0.000000 0.000000 3.516290 
# 
# 
# High freq. dielectric constant tensor:
#      x y z
#    x 1.733260 0.000000 0.000000 
#    y 0.000000 1.678740 0.000000 
#    z 0.000000 0.000000 1.721400 
# 
# From -- ./inp_files/9967.got.cif
#   From: 2010.03.12/outbox.cif.g09.slc.cpg/sg57_5_cif.got.tgz:9967.got - 2010.04.16 15:48:40.
