data_PCOD8231371
_publ_section_title
;
Structure prediction by ZEFSAII (Michael W. Deem and Ramdas Pophale) SiO2 
 PCOD8231371
Probable space group: P B C M
;
_chemical_formula_sum "Si O2"
_cell_formula_units_Z 56
_cell_length_a 15.488059
_cell_length_b 13.813891
_cell_length_c 13.505267
_cell_angle_alpha 90.000000
_cell_angle_beta 90.000000
_cell_angle_gamma 90.000000
_cell_volume 2889.456721
_symmetry_space_group_name_H-M "P B C M"
_symmetry_group_IT_number 57
_symmetry_cell_setting 'orthorhombic'
loop_
_space_group_symop_operation_xyz
x,y,z
-x,-y,1/2+z
x,1/2-y,-z
-x,1/2+y,1/2-z
-x,-y,-z
x,y,1/2-z
-x,1/2+y,z
x,1/2-y,1/2+z
loop_
_atom_site_type_symbol
_atom_site_label
_atom_site_fract_x
_atom_site_fract_y
_atom_site_fract_z
Si Si1 0.769014 0.490927 0.863498
Si Si2 0.574637 0.026117 0.364436
Si Si3 0.875891 0.489508 0.043946
Si Si4 0.188506 0.199136 0.862184
Si Si5 0.984373 0.847414 0.048269
Si Si6 0.267577 0.106807 0.133644
Si Si7 0.561845 0.864396 0.981543
O O1 0.803337 0.484578 0.750000
O O2 0.675280 0.443493 0.873879
O O3 0.760511 0.603830 0.899850
O O4 0.840099 0.446619 0.938182
O O5 0.548036 0.015557 0.250000
O O6 0.555233 0.922209 0.414982
O O7 0.522918 0.113040 0.416324
O O8 0.795002 0.515366 0.113687
O O9 0.933630 0.404897 0.093982
O O10 0.936963 0.583415 0.031520
O O11 0.213711 0.215727 0.750000
O O12 0.085722 0.183601 0.870023
O O13 0.221694 0.297236 0.914960
O O14 0.020946 0.750000 0.000000
O O15 0.284909 0.114174 0.250000
O O16 0.358082 0.092470 0.079642
O O17 0.568571 0.750000 0.000000
#
# Coordination Sequence:
#
# PCOD8231371 Si02
#       7
#     8   8   8   8   8   8   8
#     4   9  17  33  56  78 108 148 193 231 272 342
#     4  10  21  38  60  88 121 154 193 240 291 351
#     4  10  20  33  54  82 107 150 195 234 298 334
#     4   9  18  31  53  81 108 146 190 238 290 338
#     4  10  19  33  52  76 111 146 189 244 283 345
#     4  11  21  34  56  87 119 146 188 242 294 349
#     4  11  23  37  61  92 121 155 191 242 302 357
#
# _framework density 19.380806
#
# number of rings (size 3 to 8) (size 9 to 14) (size 15 to 20)
#    0.000    2.000    2.857    1.286    2.000    2.857 
#    0.000    3.571    0.000    0.000    0.000    0.000 
#    0.000    0.000    0.000    0.000    0.000    0.000 
#
# Total GULP energy -694122.897384 kJ/mol
# GULP energy per Si atom -12395.051739 kJ/mol
# Density = 1.933669 g / cm^3
# Si number density = 19.380806 Si / 1000 Ang^3
#
#
#
# Elastic Constant Matrix: (Units=GPa)
#
#
# Indices 1 2 3 4 5 6 
#
# 1 102.8855 38.2249 27.0225 0.0000 0.0000 0.0000
# 2 38.2249 57.7194 14.9399 0.0000 0.0000 0.0000
# 3 27.0225 14.9399 65.1005 0.0000 0.0000 0.0000
# 4 0.0000 0.0000 0.0000 17.4718 0.0000 0.0000
# 5 0.0000 0.0000 0.0000 0.0000 27.4393 0.0000
# 6 0.0000 0.0000 0.0000 0.0000 0.0000 31.3145
#
#
#
# Elastic Compliance Matrix: (Units=1/GPa)
#
#
# Indices 1 2 3 4 5 6 
#
# 1 0.013740 -0.008105 -0.003843 0.000000 0.000000 0.000000
# 2 -0.008105 0.023200 -0.001960 0.000000 0.000000 0.000000
# 3 -0.003843 -0.001960 0.017406 0.000000 0.000000 0.000000
# 4 0.000000 0.000000 0.000000 0.057235 0.000000 0.000000
# 5 0.000000 0.000000 0.000000 0.000000 0.036444 0.000000
# 6 0.000000 0.000000 0.000000 0.000000 0.000000 0.031934
#
#
# Mechanical properties :
#
#
# Convention : Reuss Voigt Hill
#
# Bulk Modulus (GPa) = 37.69335 42.89777 40.29556
# Shear Modulus (GPa) = 23.08204 24.94631 24.01417
#
# Velocity S-wave (km/s) = 3.45479 3.59160 3.52386
# Velocity P-wave (km/s) = 5.95022 6.27548 6.11502
#
# Compressibility (1/GPa) = 0.02652988
#
# Stress axis : x y z
#
# Youngs Moduli (GPa) = 72.77968 43.10378 57.45128
#
# Poissons Ratio (x) = 0.34934 0.22081
# Poissons Ratio (y) = 0.58985 0.11260
# Poissons Ratio (z) = 0.27972 0.08448
#
# Static dielectric constant tensor:
#      x y z
#    x 3.648770 0.000000 0.000000 
#    y 0.000000 3.401380 0.000000 
#    z 0.000000 0.000000 3.490580 
# 
# 
# High freq. dielectric constant tensor:
#      x y z
#    x 1.755790 0.000000 0.000000 
#    y 0.000000 1.724090 0.000000 
#    z 0.000000 0.000000 1.751140 
# 
# From -- ./inp_files/18498.got.cif
#   From: 2010.03.12/outbox.cif.g09.slc.cpg/sg57_10_cif.got.tgz:18498.got - 2010.04.16 15:48:40.
