data_PCOD8231199
_publ_section_title
;
Structure prediction by ZEFSAII (Michael W. Deem and Ramdas Pophale) SiO2 
 PCOD8231199
Probable space group: P B C M
;
_chemical_formula_sum "Si O2"
_cell_formula_units_Z 48
_cell_length_a 29.605822
_cell_length_b 8.587876
_cell_length_c 9.606965
_cell_angle_alpha 90.000000
_cell_angle_beta 90.000000
_cell_angle_gamma 90.000000
_cell_volume 2442.581690
_symmetry_space_group_name_H-M "P B C M"
_symmetry_group_IT_number 57
_symmetry_cell_setting 'orthorhombic'
loop_
_space_group_symop_operation_xyz
x,y,z
-x,-y,1/2+z
x,1/2-y,-z
-x,1/2+y,1/2-z
-x,-y,-z
x,y,1/2-z
-x,1/2+y,z
x,1/2-y,1/2+z
loop_
_atom_site_type_symbol
_atom_site_label
_atom_site_fract_x
_atom_site_fract_y
_atom_site_fract_z
Si Si1 0.560550 0.932684 0.250000
Si Si2 0.231922 0.593172 0.911833
Si Si3 0.464321 0.070669 0.250000
Si Si4 0.684314 0.896457 0.592374
Si Si5 0.962963 0.408108 0.085100
Si Si6 0.865835 0.101681 0.906160
Si Si7 0.596830 0.433557 0.020498
O O1 0.546232 0.753337 0.250000
O O2 0.517917 0.048342 0.250000
O O3 0.592436 0.970468 0.120865
O O4 0.240691 0.634419 0.750000
O O5 0.269249 0.471455 0.964748
O O6 0.181902 0.512548 0.932818
O O7 0.236209 0.750000 0.000000
O O8 0.444603 0.987090 0.384800
O O9 0.670917 0.750000 0.500000
O O10 0.690496 0.838644 0.750000
O O11 0.644825 0.024838 0.588172
O O12 0.976064 0.386868 0.250000
O O13 0.913230 0.492991 0.072399
O O14 0.958921 0.250000 0.000000
O O15 0.000000 0.500000 0.000000
O O16 0.865873 0.166998 0.750000
O O17 0.865874 0.250000 0.000000
O O18 0.593846 0.250000 0.000000
#
# Coordination Sequence:
#
# PCOD8231199 Si02
#       7
#     4   8   4   8   8   8   8
#     4  12  26  42  70  92 126 166 194 248 289 348
#     4   9  18  35  58  85 113 144 187 237 287 345
#     4  12  24  46  64  96 128 158 204 236 297 346
#     4  11  24  41  61  86 119 154 192 237 291 349
#     4  10  19  32  51  77 108 147 191 239 293 351
#     4   8  15  29  51  76 106 142 184 234 286 341
#     4  12  25  43  65  93 122 158 202 246 291 345
#
# _framework density 19.651340000000001
#
# number of rings (size 3 to 8) (size 9 to 14) (size 15 to 20)
#    0.000    1.667    0.833    4.500    1.167    1.333 
#    0.000    0.833    0.000    2.000    0.000    0.000 
#    0.000    0.000    0.000    0.000    0.000    0.000 
#
# Total GULP energy -594759.065526 kJ/mol
# GULP energy per Si atom -12390.813865 kJ/mol
# Density = 1.960661 g / cm^3
# Si number density = 19.651340 Si / 1000 Ang^3
#
#
#
# Elastic Constant Matrix: (Units=GPa)
#
#
# Indices 1 2 3 4 5 6 
#
# 1 131.0554 25.6184 27.1964 0.0000 0.0000 0.0000
# 2 25.6184 92.0837 22.2288 0.0000 0.0000 0.0000
# 3 27.1964 22.2288 93.5755 0.0000 0.0000 0.0000
# 4 0.0000 0.0000 0.0000 28.8110 0.0000 0.0000
# 5 0.0000 0.0000 0.0000 0.0000 34.5228 0.0000
# 6 0.0000 0.0000 0.0000 0.0000 0.0000 28.3956
#
#
#
# Elastic Compliance Matrix: (Units=1/GPa)
#
#
# Indices 1 2 3 4 5 6 
#
# 1 0.008409 -0.001856 -0.002003 0.000000 0.000000 0.000000
# 2 -0.001856 0.011930 -0.002295 0.000000 0.000000 0.000000
# 3 -0.002003 -0.002295 0.011814 0.000000 0.000000 0.000000
# 4 0.000000 0.000000 0.000000 0.034709 0.000000 0.000000
# 5 0.000000 0.000000 0.000000 0.000000 0.028966 0.000000
# 6 0.000000 0.000000 0.000000 0.000000 0.000000 0.035217
#
#
# Mechanical properties :
#
#
# Convention : Reuss Voigt Hill
#
# Bulk Modulus (GPa) = 50.38910 51.86686 51.12798
# Shear Modulus (GPa) = 33.34075 34.45729 33.89902
#
# Velocity S-wave (km/s) = 4.12347 4.19194 4.15785
# Velocity P-wave (km/s) = 6.95470 7.06263 7.00887
#
# Compressibility (1/GPa) = 0.01984556
#
# Stress axis : x y z
#
# Youngs Moduli (GPa) = 118.92290 83.82300 84.64684
#
# Poissons Ratio (x) = 0.15556 0.16955
# Poissons Ratio (y) = 0.22070 0.19423
# Poissons Ratio (z) = 0.23821 0.19234
#
# Static dielectric constant tensor:
#      x y z
#    x 4.462360 0.000000 0.000000 
#    y 0.000000 3.253920 0.000000 
#    z 0.000000 0.000000 3.755700 
# 
# 
# High freq. dielectric constant tensor:
#      x y z
#    x 1.794100 0.000000 0.000000 
#    y 0.000000 1.726550 0.000000 
#    z 0.000000 0.000000 1.781980 
# 
# From -- ./inp_files/10123.got.cif
#   From: 2010.03.12/outbox.cif.g09.slc.cpg/sg57_6_cif.got.tgz:10123.got - 2010.04.16 15:48:40.
