data_PCOD8231893
_publ_section_title
;
Structure prediction by ZEFSAII (Michael W. Deem and Ramdas Pophale) SiO2 
 PCOD8231893
Probable space group: P B C M
;
_chemical_formula_sum "Si O2"
_cell_formula_units_Z 48
_cell_length_a 15.374926
_cell_length_b 18.000522
_cell_length_c 8.512044
_cell_angle_alpha 90.000000
_cell_angle_beta 90.000000
_cell_angle_gamma 90.000000
_cell_volume 2355.765154
_symmetry_space_group_name_H-M "P B C M"
_symmetry_group_IT_number 57
_symmetry_cell_setting 'orthorhombic'
loop_
_space_group_symop_operation_xyz
x,y,z
-x,-y,1/2+z
x,1/2-y,-z
-x,1/2+y,1/2-z
-x,-y,-z
x,y,1/2-z
-x,1/2+y,z
x,1/2-y,1/2+z
loop_
_atom_site_type_symbol
_atom_site_label
_atom_site_fract_x
_atom_site_fract_y
_atom_site_fract_z
Si Si1 0.661758 0.670484 0.565584
Si Si2 0.001625 0.917961 0.065443
Si Si3 0.491287 0.081846 0.434554
Si Si4 0.652793 0.168116 0.936100
Si Si5 0.173930 0.400021 0.565216
Si Si6 0.809191 0.431185 0.434697
O O1 0.633600 0.750000 0.500000
O O2 0.644273 0.667485 0.750000
O O3 0.604910 0.608821 0.477226
O O4 0.762060 0.654860 0.526365
O O5 0.983274 0.917267 0.250000
O O6 0.099438 0.888507 0.026919
O O7 0.924526 0.873369 0.977597
O O8 0.000000 0.000000 0.000000
O O9 0.505513 0.081199 0.250000
O O10 0.560159 0.137117 0.512109
O O11 0.500000 0.000000 0.500000
O O12 0.656997 0.170322 0.750000
O O13 0.729267 0.115523 0.006903
O O14 0.667323 0.250000 0.000000
O O15 0.189241 0.392201 0.750000
O O16 0.190352 0.484071 0.501558
O O17 0.797293 0.437417 0.250000
#
# Coordination Sequence:
#
# PCOD8231893 Si02
#       6
#     8   8   8   8   8   8
#     4  12  25  42  62  87 118 156 195 239 292 350
#     4   9  16  30  52  81 113 150 194 245 297 346
#     4  12  25  43  65  91 118 150 191 238 286 342
#     4  11  22  39  59  84 117 155 194 239 291 347
#     4  10  19  35  58  86 115 150 195 246 296 350
#     4   8  17  33  56  81 112 151 194 241 290 339
#
# _framework density 20.375547000000001
#
# number of rings (size 3 to 8) (size 9 to 14) (size 15 to 20)
#    0.000    1.667    0.000    7.000    0.000    1.333 
#    0.000   10.000    0.000    2.000    0.000    0.000 
#    0.000    0.000    0.000    0.000    0.000    0.000 
#
# Total GULP energy -595153.671257 kJ/mol
# GULP energy per Si atom -12399.034818 kJ/mol
# Density = 2.032917 g / cm^3
# Si number density = 20.375547 Si / 1000 Ang^3
#
#
#
# Elastic Constant Matrix: (Units=GPa)
#
#
# Indices 1 2 3 4 5 6 
#
# 1 101.1723 16.3236 21.2102 0.0000 0.0000 0.0000
# 2 16.3236 72.9053 30.1462 0.0000 0.0000 0.0000
# 3 21.2102 30.1462 83.7797 0.0000 0.0000 0.0000
# 4 0.0000 0.0000 0.0000 30.8903 0.0000 0.0000
# 5 0.0000 0.0000 0.0000 0.0000 34.6443 0.0000
# 6 0.0000 0.0000 0.0000 0.0000 0.0000 25.2324
#
#
#
# Elastic Compliance Matrix: (Units=1/GPa)
#
#
# Indices 1 2 3 4 5 6 
#
# 1 0.010572 -0.001481 -0.002144 0.000000 0.000000 0.000000
# 2 -0.001481 0.016321 -0.005498 0.000000 0.000000 0.000000
# 3 -0.002144 -0.005498 0.014457 0.000000 0.000000 0.000000
# 4 0.000000 0.000000 0.000000 0.032373 0.000000 0.000000
# 5 0.000000 0.000000 0.000000 0.000000 0.028865 0.000000
# 6 0.000000 0.000000 0.000000 0.000000 0.000000 0.039632
#
#
# Mechanical properties :
#
#
# Convention : Reuss Voigt Hill
#
# Bulk Modulus (GPa) = 43.27894 43.69082 43.48488
# Shear Modulus (GPa) = 29.73237 30.83191 30.28214
#
# Velocity S-wave (km/s) = 3.82412 3.89418 3.85931
# Velocity P-wave (km/s) = 6.38633 6.45824 6.42239
#
# Compressibility (1/GPa) = 0.02310592
#
# Stress axis : x y z
#
# Youngs Moduli (GPa) = 94.58531 61.26935 69.17003
#
# Poissons Ratio (x) = 0.09072 0.14829
# Poissons Ratio (y) = 0.14006 0.38030
# Poissons Ratio (z) = 0.20277 0.33686
#
# Static dielectric constant tensor:
#      x y z
#    x 4.400050 0.000000 0.000000 
#    y 0.000000 3.597320 0.000000 
#    z 0.000000 0.000000 3.678580 
# 
# 
# High freq. dielectric constant tensor:
#      x y z
#    x 1.819280 0.000000 0.000000 
#    y 0.000000 1.772860 0.000000 
#    z 0.000000 0.000000 1.794010 
# 
# From -- ./inp_files/4537.got.cif
#   From: 2010.03.12/outbox.cif.g09.slc.cpg/sg57_3_cif.got.tgz:4537.got - 2010.04.16 15:48:40.
