data_PCOD8231443
_publ_section_title
;
Structure prediction by ZEFSAII (Michael W. Deem and Ramdas Pophale) SiO2 
 PCOD8231443
Probable space group: P B C M
;
_chemical_formula_sum "Si O2"
_cell_formula_units_Z 64
_cell_length_a 9.824089
_cell_length_b 22.663453
_cell_length_c 15.218227
_cell_angle_alpha 90.000000
_cell_angle_beta 90.000000
_cell_angle_gamma 90.000000
_cell_volume 3388.304447
_symmetry_space_group_name_H-M "P B C M"
_symmetry_group_IT_number 57
_symmetry_cell_setting 'orthorhombic'
loop_
_space_group_symop_operation_xyz
x,y,z
-x,-y,1/2+z
x,1/2-y,-z
-x,1/2+y,1/2-z
-x,-y,-z
x,y,1/2-z
-x,1/2+y,z
x,1/2-y,1/2+z
loop_
_atom_site_type_symbol
_atom_site_label
_atom_site_fract_x
_atom_site_fract_y
_atom_site_fract_z
Si Si1 0.147009 0.132674 0.652760
Si Si2 0.341630 0.186240 0.967977
Si Si3 0.350320 0.818093 0.010393
Si Si4 0.403933 0.595198 0.148566
Si Si5 0.786763 0.992638 0.092794
Si Si6 0.848846 0.379818 0.352654
Si Si7 0.072616 0.490273 0.848352
Si Si8 0.304259 0.427363 0.574570
O O1 0.115904 0.150930 0.750000
O O2 0.256119 0.179543 0.620095
O O3 0.210789 0.067413 0.648313
O O4 0.997848 0.137626 0.608679
O O5 0.303392 0.250000 0.000000
O O6 0.500221 0.179520 0.947508
O O7 0.286755 0.137822 0.036051
O O8 0.355497 0.851337 0.915582
O O9 0.302830 0.750000 0.000000
O O10 0.257715 0.850332 0.081568
O O11 0.408935 0.617964 0.250000
O O12 0.298820 0.541813 0.142902
O O13 0.550168 0.568153 0.121598
O O14 0.944009 0.015121 0.084943
O O15 0.716939 0.978569 0.998964
O O16 0.823100 0.361309 0.250000
O O17 0.838914 0.450349 0.361902
O O18 0.011327 0.489099 0.750000
O O19 0.178394 0.436253 0.858907
#
# Coordination Sequence:
#
# PCOD8231443 Si02
#       8
#     8   8   8   8   8   8   8   8
#     4   9  18  34  55  81 107 135 171 218 270 323
#     4   9  20  37  53  73 102 138 182 223 264 316
#     4  10  22  39  56  76 105 145 189 227 270 322
#     4  11  22  36  54  80 112 144 180 228 276 324
#     4  10  19  34  55  79 110 143 175 213 266 332
#     4   9  19  35  56  81 110 139 175 221 270 322
#     4  10  19  33  53  81 111 139 173 216 267 327
#     4  10  20  34  54  77 106 141 178 220 268 322
#
# _framework density 18.888504999999999
#
# number of rings (size 3 to 8) (size 9 to 14) (size 15 to 20)
#    0.000    2.250    0.000    3.750    0.000    5.500 
#    0.000    6.875    0.000    1.500    0.000    0.000 
#    0.000    0.000    0.000    0.000    0.000    0.000 
#
# Total GULP energy -793083.437209 kJ/mol
# GULP energy per Si atom -12391.928706 kJ/mol
# Density = 1.884551 g / cm^3
# Si number density = 18.888505 Si / 1000 Ang^3
#
#
#
# Elastic Constant Matrix: (Units=GPa)
#
#
# Indices 1 2 3 4 5 6 
#
# 1 96.0901 58.3463 47.6004 0.0000 0.0000 0.0000
# 2 58.3463 81.6121 32.6420 0.0000 0.0000 0.0000
# 3 47.6004 32.6420 98.2172 0.0000 0.0000 0.0000
# 4 0.0000 0.0000 0.0000 13.8680 0.0000 0.0000
# 5 0.0000 0.0000 0.0000 0.0000 32.7213 0.0000
# 6 0.0000 0.0000 0.0000 0.0000 0.0000 23.3531
#
#
#
# Elastic Compliance Matrix: (Units=1/GPa)
#
#
# Indices 1 2 3 4 5 6 
#
# 1 0.021069 -0.012661 -0.006003 0.000000 0.000000 0.000000
# 2 -0.012661 0.021741 -0.001089 0.000000 0.000000 0.000000
# 3 -0.006003 -0.001089 0.013453 0.000000 0.000000 0.000000
# 4 0.000000 0.000000 0.000000 0.072108 0.000000 0.000000
# 5 0.000000 0.000000 0.000000 0.000000 0.030561 0.000000
# 6 0.000000 0.000000 0.000000 0.000000 0.000000 0.042821
#
#
# Mechanical properties :
#
#
# Convention : Reuss Voigt Hill
#
# Bulk Modulus (GPa) = 59.68290 61.45518 60.56904
# Shear Modulus (GPa) = 20.25570 23.14387 21.69979
#
# Velocity S-wave (km/s) = 3.27828 3.50421 3.39312
# Velocity P-wave (km/s) = 6.78200 6.99850 6.89110
#
# Compressibility (1/GPa) = 0.01675522
#
# Stress axis : x y z
#
# Youngs Moduli (GPa) = 47.46397 45.99679 74.33460
#
# Poissons Ratio (x) = 0.58239 0.44622
# Poissons Ratio (y) = 0.60096 0.08096
# Poissons Ratio (z) = 0.28492 0.05009
#
# Static dielectric constant tensor:
#      x y z
#    x 3.656740 0.000000 0.000000 
#    y 0.000000 3.425600 0.000000 
#    z 0.000000 0.000000 3.842800 
# 
# 
# High freq. dielectric constant tensor:
#      x y z
#    x 1.743100 0.000000 0.000000 
#    y 0.000000 1.716330 0.000000 
#    z 0.000000 0.000000 1.731490 
# 
# From -- ./inp_files/16934.got.cif
#   From: 2010.03.12/outbox.cif.g09.slc.cpg/sg57_9_cif.got.tgz:16934.got - 2010.04.16 15:48:40.
