data_PCOD8231084
_publ_section_title
;
Structure prediction by ZEFSAII (Michael W. Deem and Ramdas Pophale) SiO2 
 PCOD8231084
Probable space group: P B C M
;
_chemical_formula_sum "Si O2"
_cell_formula_units_Z 64
_cell_length_a 23.119252
_cell_length_b 15.799991
_cell_length_c 9.027255
_cell_angle_alpha 90.000000
_cell_angle_beta 90.000000
_cell_angle_gamma 90.000000
_cell_volume 3297.511576
_symmetry_space_group_name_H-M "P B C M"
_symmetry_group_IT_number 57
_symmetry_cell_setting 'orthorhombic'
loop_
_space_group_symop_operation_xyz
x,y,z
-x,-y,1/2+z
x,1/2-y,-z
-x,1/2+y,1/2-z
-x,-y,-z
x,y,1/2-z
-x,1/2+y,z
x,1/2-y,1/2+z
loop_
_atom_site_type_symbol
_atom_site_label
_atom_site_fract_x
_atom_site_fract_y
_atom_site_fract_z
Si Si1 0.056257 0.664621 0.922619
Si Si2 0.314357 0.167722 0.074453
Si Si3 0.639362 0.420072 0.585487
Si Si4 0.578748 0.599609 0.917928
Si Si5 0.921994 0.663164 0.575608
Si Si6 0.740635 0.493298 0.422168
Si Si7 0.872110 0.497790 0.075107
Si Si8 0.525917 0.336733 0.926922
O O1 0.067356 0.676862 0.750000
O O2 0.089715 0.581456 0.980904
O O3 0.989359 0.650333 0.961012
O O4 0.079705 0.750000 0.000000
O O5 0.316839 0.178012 0.250000
O O6 0.275941 0.087546 0.024516
O O7 0.284665 0.250000 0.000000
O O8 0.378803 0.160954 0.009086
O O9 0.658819 0.395232 0.750000
O O10 0.605337 0.507368 0.583916
O O11 0.698249 0.422976 0.491785
O O12 0.592517 0.353072 0.523764
O O13 0.571024 0.633566 0.750000
O O14 0.517476 0.594289 0.002984
O O15 0.899616 0.750000 0.500000
O O16 0.910157 0.669039 0.750000
O O17 0.888857 0.583103 0.509329
O O18 0.730600 0.485410 0.250000
O O19 0.806400 0.474595 0.466844
O O20 0.879947 0.513776 0.250000
O O21 0.520302 0.337635 0.750000
O O22 0.505358 0.250000 0.000000
#
# Coordination Sequence:
#
# PCOD8231084 Si02
#       8
#     8   8   8   8   8   8   8   8
#     4   9  19  35  56  81 112 145 182 226 273 322
#     4  10  19  32  49  71  99 133 168 206 251 304
#     4   9  20  37  55  73  97 129 167 207 249 297
#     4  10  19  33  53  76  99 126 159 201 251 304
#     4  10  20  34  54  83 115 150 183 218 266 322
#     4   9  20  36  54  74 100 135 175 214 257 304
#     4  10  20  36  56  81 111 144 182 228 273 318
#     4  11  22  35  51  75 102 128 160 202 250 303
#
# _framework density 19.408574000000002
#
# number of rings (size 3 to 8) (size 9 to 14) (size 15 to 20)
#    0.000    2.250    0.000    2.625    0.000    4.000 
#    0.000    1.875    0.000    3.000    0.000    0.000 
#    0.000    0.000    0.000    0.000    0.000    0.000 
#
# Total GULP energy -793530.886597 kJ/mol
# GULP energy per Si atom -12398.920103 kJ/mol
# Density = 1.936440 g / cm^3
# Si number density = 19.408574 Si / 1000 Ang^3
#
#
#
# Elastic Constant Matrix: (Units=GPa)
#
#
# Indices 1 2 3 4 5 6 
#
# 1 84.6961 20.4918 33.3075 0.0000 0.0000 0.0000
# 2 20.4918 57.8334 23.6793 0.0000 0.0000 0.0000
# 3 33.3075 23.6793 69.3273 0.0000 0.0000 0.0000
# 4 0.0000 0.0000 0.0000 28.0200 0.0000 0.0000
# 5 0.0000 0.0000 0.0000 0.0000 27.4931 0.0000
# 6 0.0000 0.0000 0.0000 0.0000 0.0000 17.9510
#
#
#
# Elastic Compliance Matrix: (Units=1/GPa)
#
#
# Indices 1 2 3 4 5 6 
#
# 1 0.014920 -0.002734 -0.006234 0.000000 0.000000 0.000000
# 2 -0.002734 0.020603 -0.005724 0.000000 0.000000 0.000000
# 3 -0.006234 -0.005724 0.019375 0.000000 0.000000 0.000000
# 4 0.000000 0.000000 0.000000 0.035689 0.000000 0.000000
# 5 0.000000 0.000000 0.000000 0.000000 0.036373 0.000000
# 6 0.000000 0.000000 0.000000 0.000000 0.000000 0.055707
#
#
# Mechanical properties :
#
#
# Convention : Reuss Voigt Hill
#
# Bulk Modulus (GPa) = 39.19444 40.75710 39.97577
# Shear Modulus (GPa) = 22.67003 23.65136 23.16070
#
# Velocity S-wave (km/s) = 3.42137 3.49464 3.45820
# Velocity P-wave (km/s) = 5.98715 6.10970 6.04873
#
# Compressibility (1/GPa) = 0.02551382
#
# Stress axis : x y z
#
# Youngs Moduli (GPa) = 67.02353 48.53594 51.61404
#
# Poissons Ratio (x) = 0.13270 0.32178
# Poissons Ratio (y) = 0.18324 0.29542
# Poissons Ratio (z) = 0.41785 0.27781
#
# Static dielectric constant tensor:
#      x y z
#    x 3.603040 0.000000 0.000000 
#    y 0.000000 3.570600 0.000000 
#    z 0.000000 0.000000 3.556610 
# 
# 
# High freq. dielectric constant tensor:
#      x y z
#    x 1.748730 0.000000 0.000000 
#    y 0.000000 1.749800 0.000000 
#    z 0.000000 0.000000 1.755840 
# 
# From -- ./inp_files/8574.got.cif
#   From: 2010.03.12/outbox.cif.g09.slc.cpg/sg57_5_cif.got.tgz:8574.got - 2010.04.16 15:48:40.
