data_PCOD8231281
_publ_section_title
;
Structure prediction by ZEFSAII (Michael W. Deem and Ramdas Pophale) SiO2 
 PCOD8231281
Probable space group: P B C M
;
_chemical_formula_sum "Si O2"
_cell_formula_units_Z 56
_cell_length_a 21.569995
_cell_length_b 15.055697
_cell_length_c 8.912304
_cell_angle_alpha 90.000000
_cell_angle_beta 90.000000
_cell_angle_gamma 90.000000
_cell_volume 2894.282390
_symmetry_space_group_name_H-M "P B C M"
_symmetry_group_IT_number 57
_symmetry_cell_setting 'orthorhombic'
loop_
_space_group_symop_operation_xyz
x,y,z
-x,-y,1/2+z
x,1/2-y,-z
-x,1/2+y,1/2-z
-x,-y,-z
x,y,1/2-z
-x,1/2+y,z
x,1/2-y,1/2+z
loop_
_atom_site_type_symbol
_atom_site_label
_atom_site_fract_x
_atom_site_fract_y
_atom_site_fract_z
Si Si1 0.911835 0.990087 0.073178
Si Si2 0.999090 0.849131 0.927721
Si Si3 0.689059 0.662576 0.573411
Si Si4 0.771319 0.998129 0.428377
Si Si5 0.434001 0.915303 0.921800
Si Si6 0.429343 0.401329 0.921314
Si Si7 0.305014 0.662215 0.423971
O O1 0.916657 0.971928 0.250000
O O2 0.841608 0.995984 0.013933
O O3 0.942951 0.085582 0.033357
O O4 0.940355 0.903855 0.990760
O O5 0.991941 0.835668 0.750000
O O6 0.006165 0.750000 0.000000
O O7 0.717498 0.750000 0.500000
O O8 0.691879 0.669765 0.750000
O O9 0.732340 0.584780 0.510130
O O10 0.617348 0.652373 0.526117
O O11 0.769828 0.998648 0.250000
O O12 0.735701 0.083187 0.493872
O O13 0.428251 0.951263 0.750000
O O14 0.500078 0.865955 0.944634
O O15 0.378132 0.848554 0.957484
O O16 0.427988 0.995403 0.037358
O O17 0.407927 0.389604 0.750000
O O18 0.279783 0.750000 0.500000
O O19 0.291472 0.669591 0.250000
#
# Coordination Sequence:
#
# PCOD8231281 Si02
#       7
#     8   8   8   8   8   8   8
#     4   9  19  37  60  85 112 149 191 227 271 322
#     4  10  20  35  58  88 121 151 182 225 270 320
#     4  11  22  38  57  78 107 144 184 231 283 334
#     4   9  19  38  60  78 109 150 184 225 276 326
#     4   9  18  34  54  76 106 142 178 226 283 336
#     4  10  19  32  54  81 105 136 182 229 281 339
#     4  10  20  36  55  78 107 142 182 223 275 328
#
# _framework density 19.348492
#
# number of rings (size 3 to 8) (size 9 to 14) (size 15 to 20)
#    0.000    2.286    1.429    1.286    0.000    3.429 
#    0.000    5.000    0.000    0.000    0.000    0.000 
#    0.000    0.000    0.000    0.000    0.000    0.000 
#
# Total GULP energy -694166.991199 kJ/mol
# GULP energy per Si atom -12395.839129 kJ/mol
# Density = 1.930445 g / cm^3
# Si number density = 19.348492 Si / 1000 Ang^3
#
#
#
# Elastic Constant Matrix: (Units=GPa)
#
#
# Indices 1 2 3 4 5 6 
#
# 1 145.6670 73.9312 37.4140 0.0000 0.0000 0.0000
# 2 73.9312 160.1428 44.6585 0.0000 0.0000 0.0000
# 3 37.4140 44.6585 58.4419 0.0000 0.0000 0.0000
# 4 0.0000 0.0000 0.0000 34.3361 0.0000 0.0000
# 5 0.0000 0.0000 0.0000 0.0000 22.2591 0.0000
# 6 0.0000 0.0000 0.0000 0.0000 0.0000 4.5351
#
#
#
# Elastic Compliance Matrix: (Units=1/GPa)
#
#
# Indices 1 2 3 4 5 6 
#
# 1 0.009488 -0.003414 -0.003465 0.000000 0.000000 0.000000
# 2 -0.003414 0.009164 -0.004817 0.000000 0.000000 0.000000
# 3 -0.003465 -0.004817 0.023010 0.000000 0.000000 0.000000
# 4 0.000000 0.000000 0.000000 0.029124 0.000000 0.000000
# 5 0.000000 0.000000 0.000000 0.000000 0.044925 0.000000
# 6 0.000000 0.000000 0.000000 0.000000 0.000000 0.220500
#
#
# Mechanical properties :
#
#
# Convention : Reuss Voigt Hill
#
# Bulk Modulus (GPa) = 54.73559 75.13991 64.93775
# Shear Modulus (GPa) = 13.67266 26.10927 19.89097
#
# Velocity S-wave (km/s) = 2.66118 3.67743 3.20978
# Velocity P-wave (km/s) = 6.14762 7.54657 6.88273
#
# Compressibility (1/GPa) = 0.01826965
#
# Stress axis : x y z
#
# Youngs Moduli (GPa) = 105.40100 109.12644 43.45856
#
# Poissons Ratio (x) = 0.37252 0.15060
# Poissons Ratio (y) = 0.35980 0.20934
# Poissons Ratio (z) = 0.36525 0.52567
#
# Static dielectric constant tensor:
#      x y z
#    x 3.721530 0.000000 0.000000 
#    y 0.000000 3.573530 0.000000 
#    z 0.000000 0.000000 3.376590 
# 
# 
# High freq. dielectric constant tensor:
#      x y z
#    x 1.754100 0.000000 0.000000 
#    y 0.000000 1.750350 0.000000 
#    z 0.000000 0.000000 1.739760 
# 
# From -- ./inp_files/8204.got.cif
#   From: 2010.03.12/outbox.cif.g09.slc.cpg/sg57_5_cif.got.tgz:8204.got - 2010.04.16 15:48:40.
