data_PCOD8231538
_publ_section_title
;
Structure prediction by ZEFSAII (Michael W. Deem and Ramdas Pophale) SiO2 
 PCOD8231538
Probable space group: P B C M
;
_chemical_formula_sum "Si O2"
_cell_formula_units_Z 64
_cell_length_a 19.616596
_cell_length_b 20.360203
_cell_length_c 8.850494
_cell_angle_alpha 90.000000
_cell_angle_beta 90.000000
_cell_angle_gamma 90.000000
_cell_volume 3534.868512
_symmetry_space_group_name_H-M "P B C M"
_symmetry_group_IT_number 57
_symmetry_cell_setting 'orthorhombic'
loop_
_space_group_symop_operation_xyz
x,y,z
-x,-y,1/2+z
x,1/2-y,-z
-x,1/2+y,1/2-z
-x,-y,-z
x,y,1/2-z
-x,1/2+y,z
x,1/2-y,1/2+z
loop_
_atom_site_type_symbol
_atom_site_label
_atom_site_fract_x
_atom_site_fract_y
_atom_site_fract_z
Si Si1 0.313701 0.908013 0.922207
Si Si2 0.526109 0.932343 0.429178
Si Si3 0.943410 0.182336 0.428263
Si Si4 0.185696 0.060461 0.072052
Si Si5 0.160791 0.925407 0.926011
Si Si6 0.563839 0.179955 0.074763
Si Si7 0.901292 0.682368 0.071853
Si Si8 0.661044 0.539942 0.426678
O O1 0.321089 0.934071 0.750000
O O2 0.234844 0.893728 0.960631
O O3 0.357252 0.841844 0.945003
O O4 0.343612 0.962864 0.033976
O O5 0.519642 0.936299 0.250000
O O6 0.483922 0.871522 0.491030
O O7 0.604539 0.920727 0.478418
O O8 0.500000 0.000000 0.500000
O O9 0.917528 0.250000 0.500000
O O10 0.935812 0.188830 0.250000
O O11 0.896146 0.123819 0.491618
O O12 0.021035 0.167551 0.477121
O O13 0.178019 0.054543 0.250000
O O14 0.145719 0.123687 0.009075
O O15 0.264834 0.067245 0.025116
O O16 0.151794 0.995581 0.003840
O O17 0.149395 0.936657 0.750000
O O18 0.543135 0.183389 0.250000
O O19 0.553373 0.250000 0.000000
O O20 0.894544 0.689078 0.250000
O O21 0.874978 0.750000 0.000000
O O22 0.646787 0.549229 0.250000
#
# Coordination Sequence:
#
# PCOD8231538 Si02
#       8
#     8   8   8   8   8   8   8   8
#     4   9  18  33  52  73 103 140 177 215 260 315
#     4  12  23  37  59  84 108 140 180 222 267 322
#     4   9  18  32  50  72 102 139 179 221 264 315
#     4   9  19  34  52  77 107 137 173 221 269 316
#     4   9  18  32  50  76 107 139 176 218 263 312
#     4  11  23  38  55  79 111 145 181 225 270 317
#     4   9  18  34  53  74 102 137 178 222 268 319
#     4  10  19  33  55  80 105 135 175 219 264 317
#
# _framework density 18.105342
#
# number of rings (size 3 to 8) (size 9 to 14) (size 15 to 20)
#    0.000    2.250    1.250    1.875    0.000    3.000 
#    0.000    0.625    0.000    1.500    0.000    0.000 
#    0.000    0.000    0.000    0.000    0.000    0.000 
#
# Total GULP energy -793670.435317 kJ/mol
# GULP energy per Si atom -12401.100552 kJ/mol
# Density = 1.806413 g / cm^3
# Si number density = 18.105342 Si / 1000 Ang^3
#
#
#
# Elastic Constant Matrix: (Units=GPa)
#
#
# Indices 1 2 3 4 5 6 
#
# 1 109.6029 89.3401 41.1155 0.0000 0.0000 0.0000
# 2 89.3401 157.1185 51.7474 0.0000 0.0000 0.0000
# 3 41.1155 51.7474 70.6069 0.0000 0.0000 0.0000
# 4 0.0000 0.0000 0.0000 32.5813 0.0000 0.0000
# 5 0.0000 0.0000 0.0000 0.0000 23.6138 0.0000
# 6 0.0000 0.0000 0.0000 0.0000 0.0000 32.3089
#
#
#
# Elastic Compliance Matrix: (Units=1/GPa)
#
#
# Indices 1 2 3 4 5 6 
#
# 1 0.017777 -0.008831 -0.003880 0.000000 0.000000 0.000000
# 2 -0.008831 0.012776 -0.004221 0.000000 0.000000 0.000000
# 3 -0.003880 -0.004221 0.019516 0.000000 0.000000 0.000000
# 4 0.000000 0.000000 0.000000 0.030692 0.000000 0.000000
# 5 0.000000 0.000000 0.000000 0.000000 0.042348 0.000000
# 6 0.000000 0.000000 0.000000 0.000000 0.000000 0.030951
#
#
# Mechanical properties :
#
#
# Convention : Reuss Voigt Hill
#
# Bulk Modulus (GPa) = 61.70736 77.97049 69.83893
# Shear Modulus (GPa) = 25.86280 28.04249 26.95264
#
# Velocity S-wave (km/s) = 3.78360 3.93982 3.86250
# Velocity P-wave (km/s) = 7.29684 7.99091 7.65175
#
# Compressibility (1/GPa) = 0.01620552
#
# Stress axis : x y z
#
# Youngs Moduli (GPa) = 56.25093 78.27068 51.23934
#
# Poissons Ratio (x) = 0.69118 0.19882
# Poissons Ratio (y) = 0.49673 0.21630
# Poissons Ratio (z) = 0.21826 0.33041
#
# Static dielectric constant tensor:
#      x y z
#    x 3.655590 0.000000 0.000000 
#    y 0.000000 3.279210 0.000000 
#    z 0.000000 0.000000 3.311190 
# 
# 
# High freq. dielectric constant tensor:
#      x y z
#    x 1.708650 0.000000 0.000000 
#    y 0.000000 1.687390 0.000000 
#    z 0.000000 0.000000 1.701230 
# 
# From -- ./inp_files/7252.got.cif
#   From: 2010.03.12/outbox.cif.g09.slc.cpg/sg57_4_cif.got.tgz:7252.got - 2010.04.16 15:48:40.
