data_PCOD8231268
_publ_section_title
;
Structure prediction by ZEFSAII (Michael W. Deem and Ramdas Pophale) SiO2 
 PCOD8231268
Probable space group: P B C M
;
_chemical_formula_sum "Si O2"
_cell_formula_units_Z 48
_cell_length_a 7.866538
_cell_length_b 20.986212
_cell_length_c 12.471883
_cell_angle_alpha 90.000000
_cell_angle_beta 90.000000
_cell_angle_gamma 90.000000
_cell_volume 2058.968624
_symmetry_space_group_name_H-M "P B C M"
_symmetry_group_IT_number 57
_symmetry_cell_setting 'orthorhombic'
loop_
_space_group_symop_operation_xyz
x,y,z
-x,-y,1/2+z
x,1/2-y,-z
-x,1/2+y,1/2-z
-x,-y,-z
x,y,1/2-z
-x,1/2+y,z
x,1/2-y,1/2+z
loop_
_atom_site_type_symbol
_atom_site_label
_atom_site_fract_x
_atom_site_fract_y
_atom_site_fract_z
Si Si1 0.477599 0.650505 0.377370
Si Si2 0.929117 0.930938 0.125178
Si Si3 0.306239 0.922882 0.376555
Si Si4 0.609945 0.488431 0.877221
Si Si5 0.419249 0.711187 0.872392
Si Si6 0.240372 0.317585 0.026545
O O1 0.489357 0.653689 0.250000
O O2 0.382116 0.585674 0.415020
O O3 0.389723 0.716788 0.423586
O O4 0.669327 0.650020 0.423078
O O5 0.904700 0.919073 0.250000
O O6 0.788953 0.981620 0.084984
O O7 0.906146 0.863570 0.067230
O O8 0.121120 0.953111 0.099067
O O9 0.339488 0.916898 0.250000
O O10 0.447454 0.971905 0.425982
O O11 0.324603 0.850589 0.425239
O O12 0.589300 0.490237 0.750000
O O13 0.362105 0.717241 0.750000
O O14 0.619241 0.694636 0.880853
O O15 0.151703 0.250000 0.000000
#
# Coordination Sequence:
#
# PCOD8231268 Si02
#       6
#     8   8   8   8   8   8
#     4   9  19  33  54  79 109 147 180 219 273 322
#     4  10  19  33  57  83 108 137 178 223 263 318
#     4   9  17  31  56  83 106 139 181 219 260 316
#     4   9  17  33  56  79 108 145 178 217 270 320
#     4   9  16  32  56  80 106 139 180 222 269 318
#     4  10  19  32  53  80 106 139 182 222 268 319
#
# _framework density 23.312642
#
# number of rings (size 3 to 8) (size 9 to 14) (size 15 to 20)
#    0.000    2.667    1.667    0.500    0.000    1.333 
#    0.000    3.333    7.333    0.000    0.000    0.000 
#    0.000    0.000    0.000    0.000    0.000    0.000 
#
# Total GULP energy -594855.706307 kJ/mol
# GULP energy per Si atom -12392.827215 kJ/mol
# Density = 2.325958 g / cm^3
# Si number density = 23.312642 Si / 1000 Ang^3
#
#
#
# Elastic Constant Matrix: (Units=GPa)
#
#
# Indices 1 2 3 4 5 6 
#
# 1 123.6119 93.5021 28.3895 0.0000 0.0000 0.0000
# 2 93.5021 204.8246 68.6307 0.0000 0.0000 0.0000
# 3 28.3895 68.6307 45.7023 0.0000 0.0000 0.0000
# 4 0.0000 0.0000 0.0000 43.2190 0.0000 0.0000
# 5 0.0000 0.0000 0.0000 0.0000 15.8238 0.0000
# 6 0.0000 0.0000 0.0000 0.0000 0.0000 22.4742
#
#
#
# Elastic Compliance Matrix: (Units=1/GPa)
#
#
# Indices 1 2 3 4 5 6 
#
# 1 0.012415 -0.006206 0.001608 0.000000 0.000000 0.000000
# 2 -0.006206 0.012929 -0.015560 0.000000 0.000000 0.000000
# 3 0.001608 -0.015560 0.044249 0.000000 0.000000 0.000000
# 4 0.000000 0.000000 0.000000 0.023138 0.000000 0.000000
# 5 0.000000 0.000000 0.000000 0.000000 0.063196 0.000000
# 6 0.000000 0.000000 0.000000 0.000000 0.000000 0.044495
#
#
# Mechanical properties :
#
#
# Convention : Reuss Voigt Hill
#
# Bulk Modulus (GPa) = 34.15828 83.90925 59.03377
# Shear Modulus (GPa) = 19.96016 28.54450 24.25233
#
# Velocity S-wave (km/s) = 2.92925 3.50297 3.22888
# Velocity P-wave (km/s) = 5.11124 7.24101 6.26726
#
# Compressibility (1/GPa) = 0.02927548
#
# Stress axis : x y z
#
# Youngs Moduli (GPa) = 80.54751 77.34444 22.59931
#
# Poissons Ratio (x) = 0.48001 -0.03633
# Poissons Ratio (y) = 0.49989 0.35166
# Poissons Ratio (z) = -0.12950 1.20352
#
# Static dielectric constant tensor:
#      x y z
#    x 3.721420 0.000000 0.000000 
#    y 0.000000 4.737460 0.000000 
#    z 0.000000 0.000000 4.554520 
# 
# 
# High freq. dielectric constant tensor:
#      x y z
#    x 1.864500 0.000000 0.000000 
#    y 0.000000 1.948340 0.000000 
#    z 0.000000 0.000000 1.960300 
# 
# From -- ./inp_files/16554.got.cif
#   From: 2010.03.12/outbox.cif.g09.slc.cpg/sg57_9_cif.got.tgz:16554.got - 2010.04.16 15:48:40.
