data_PCOD8231876
_publ_section_title
;
Structure prediction by ZEFSAII (Michael W. Deem and Ramdas Pophale) SiO2 
 PCOD8231876
Probable space group: P B C M
;
_chemical_formula_sum "Si O2"
_cell_formula_units_Z 56
_cell_length_a 8.748475
_cell_length_b 18.034088
_cell_length_c 18.390665
_cell_angle_alpha 90.000000
_cell_angle_beta 90.000000
_cell_angle_gamma 90.000000
_cell_volume 2901.509341
_symmetry_space_group_name_H-M "P B C M"
_symmetry_group_IT_number 57
_symmetry_cell_setting 'orthorhombic'
loop_
_space_group_symop_operation_xyz
x,y,z
-x,-y,1/2+z
x,1/2-y,-z
-x,1/2+y,1/2-z
-x,-y,-z
x,y,1/2-z
-x,1/2+y,z
x,1/2-y,1/2+z
loop_
_atom_site_type_symbol
_atom_site_label
_atom_site_fract_x
_atom_site_fract_y
_atom_site_fract_z
Si Si1 0.486943 0.325793 0.831460
Si Si2 0.240330 0.325407 0.545158
Si Si3 0.720347 0.171126 0.967873
Si Si4 0.785181 0.262525 0.329069
Si Si5 0.312025 0.969987 0.665260
Si Si6 0.919716 0.373412 0.899457
Si Si7 0.560733 0.568369 0.954071
O O1 0.417067 0.333562 0.750000
O O2 0.357063 0.306973 0.889793
O O3 0.605908 0.258159 0.833244
O O4 0.576336 0.400856 0.853247
O O5 0.199705 0.250000 0.500000
O O6 0.303034 0.388419 0.492677
O O7 0.096344 0.366531 0.581445
O O8 0.822040 0.181136 0.894616
O O9 0.576671 0.124534 0.942839
O O10 0.663129 0.250000 0.000000
O O11 0.824519 0.131181 0.026162
O O12 0.824798 0.296961 0.250000
O O13 0.885904 0.189554 0.340068
O O14 0.308664 0.989087 0.750000
O O15 0.138958 0.950085 0.637654
O O16 0.376469 0.041574 0.623813
O O17 0.500000 0.500000 0.000000
#
# Coordination Sequence:
#
# PCOD8231876 Si02
#       7
#     8   8   8   8   8   8   8
#     4   9  18  33  54  80 110 144 191 239 288 346
#     4  12  23  36  58  91 120 152 196 250 299 353
#     4  10  19  35  58  82 116 151 194 239 287 356
#     4   9  17  32  55  81 110 148 187 234 293 346
#     4  10  21  39  60  84 114 155 199 239 290 356
#     4  10  20  36  57  82 112 157 196 229 285 356
#     4  12  21  37  60  88 116 152 198 249 300 343
#
# _framework density 19.300298999999999
#
# number of rings (size 3 to 8) (size 9 to 14) (size 15 to 20)
#    0.000    1.714    2.857    5.571    0.000    2.286 
#    0.000    0.714    0.000    0.857    0.000    0.000 
#    0.000    0.000    0.000    0.000    0.000    0.000 
#
# Total GULP energy -694102.941128 kJ/mol
# GULP energy per Si atom -12394.695377 kJ/mol
# Density = 1.925637 g / cm^3
# Si number density = 19.300299 Si / 1000 Ang^3
#
#
#
# Elastic Constant Matrix: (Units=GPa)
#
#
# Indices 1 2 3 4 5 6 
#
# 1 72.1498 11.4584 22.4420 0.0000 0.0000 0.0000
# 2 11.4584 55.6598 25.8461 0.0000 0.0000 0.0000
# 3 22.4420 25.8461 138.2103 0.0000 0.0000 0.0000
# 4 0.0000 0.0000 0.0000 28.9575 0.0000 0.0000
# 5 0.0000 0.0000 0.0000 0.0000 5.0387 0.0000
# 6 0.0000 0.0000 0.0000 0.0000 0.0000 17.2207
#
#
#
# Elastic Compliance Matrix: (Units=1/GPa)
#
#
# Indices 1 2 3 4 5 6 
#
# 1 0.014822 -0.002118 -0.002011 0.000000 0.000000 0.000000
# 2 -0.002118 0.019977 -0.003392 0.000000 0.000000 0.000000
# 3 -0.002011 -0.003392 0.008196 0.000000 0.000000 0.000000
# 4 0.000000 0.000000 0.000000 0.034533 0.000000 0.000000
# 5 0.000000 0.000000 0.000000 0.000000 0.198466 0.000000
# 6 0.000000 0.000000 0.000000 0.000000 0.000000 0.058070
#
#
# Mechanical properties :
#
#
# Convention : Reuss Voigt Hill
#
# Bulk Modulus (GPa) = 35.77225 42.83477 39.30351
# Shear Modulus (GPa) = 13.95000 23.99493 18.97247
#
# Velocity S-wave (km/s) = 2.69139 3.52979 3.13871
# Velocity P-wave (km/s) = 5.31346 6.23334 5.79169
#
# Compressibility (1/GPa) = 0.02795463
#
# Stress axis : x y z
#
# Youngs Moduli (GPa) = 67.46828 50.05670 122.00821
#
# Poissons Ratio (x) = 0.10600 0.24532
# Poissons Ratio (y) = 0.14287 0.41386
# Poissons Ratio (z) = 0.13566 0.16979
#
# Static dielectric constant tensor:
#      x y z
#    x 3.390930 0.000000 0.000000 
#    y 0.000000 3.403770 0.000000 
#    z 0.000000 0.000000 3.866840 
# 
# 
# High freq. dielectric constant tensor:
#      x y z
#    x 1.730550 0.000000 0.000000 
#    y 0.000000 1.723530 0.000000 
#    z 0.000000 0.000000 1.771870 
# 
# From -- ./inp_files/21359.got.cif
#   From: 2010.03.12/outbox.cif.g09.slc.cpg/sg57_11_cif.got.tgz:21359.got - 2010.04.16 15:48:40.
