data_PCOD8231309
_publ_section_title
;
Structure prediction by ZEFSAII (Michael W. Deem and Ramdas Pophale) SiO2 
 PCOD8231309
Probable space group: P B C M
;
_chemical_formula_sum "Si O2"
_cell_formula_units_Z 64
_cell_length_a 11.887835
_cell_length_b 31.035984
_cell_length_c 9.148523
_cell_angle_alpha 90.000000
_cell_angle_beta 90.000000
_cell_angle_gamma 90.000000
_cell_volume 3375.353570
_symmetry_space_group_name_H-M "P B C M"
_symmetry_group_IT_number 57
_symmetry_cell_setting 'orthorhombic'
loop_
_space_group_symop_operation_xyz
x,y,z
-x,-y,1/2+z
x,1/2-y,-z
-x,1/2+y,1/2-z
-x,-y,-z
x,y,1/2-z
-x,1/2+y,z
x,1/2-y,1/2+z
loop_
_atom_site_type_symbol
_atom_site_label
_atom_site_fract_x
_atom_site_fract_y
_atom_site_fract_z
Si Si1 0.015038 0.703190 0.076708
Si Si2 0.527469 0.794641 0.919271
Si Si3 0.502829 0.065193 0.085364
Si Si4 0.912380 0.469892 0.080478
Si Si5 0.139350 0.626139 0.919868
Si Si6 0.230890 0.206524 0.084009
Si Si7 0.601301 0.138564 0.917416
Si Si8 0.337015 0.994349 0.085020
O O1 0.037922 0.708404 0.250000
O O2 0.888575 0.684237 0.043329
O O3 0.034464 0.750000 0.000000
O O4 0.097005 0.666741 0.012876
O O5 0.500560 0.787556 0.750000
O O6 0.650459 0.819147 0.941061
O O7 0.535931 0.750000 0.000000
O O8 0.422107 0.818967 0.989287
O O9 0.529223 0.081221 0.250000
O O10 0.378857 0.043925 0.078932
O O11 0.509562 0.104337 0.973214
O O12 0.596549 0.030721 0.039659
O O13 0.942002 0.470690 0.250000
O O14 0.913392 0.419667 0.027518
O O15 0.793483 0.492182 0.048016
O O16 0.000000 0.500000 0.000000
O O17 0.112152 0.634746 0.750000
O O18 0.273113 0.621536 0.943849
O O19 0.222916 0.220895 0.250000
O O20 0.239800 0.250000 0.000000
O O21 0.577313 0.148994 0.750000
O O22 0.359229 0.975397 0.250000
#
# Coordination Sequence:
#
# PCOD8231309 Si02
#       8
#     8   8   8   8   8   8   8   8
#     4  10  20  36  60  88 116 150 193 237 284 337
#     4  10  20  36  57  83 114 147 187 228 277 336
#     4  10  19  32  57  86 109 138 181 228 274 332
#     4  10  21  40  61  82 113 153 192 236 289 341
#     4  10  22  40  59  79 113 154 192 236 286 339
#     4   8  16  32  54  78 106 139 175 222 275 327
#     4  11  22  38  57  78 112 152 188 231 286 336
#     4   9  18  36  58  81 111 145 178 222 281 335
#
# _framework density 18.960975999999999
#
# number of rings (size 3 to 8) (size 9 to 14) (size 15 to 20)
#    0.000    2.250    1.250    1.500    0.000    4.000 
#    2.250    0.000    0.000    0.000    0.000    0.000 
#    0.000    0.000    0.000    0.000    0.000    0.000 
#
# Total GULP energy -792877.120406 kJ/mol
# GULP energy per Si atom -12388.705006 kJ/mol
# Density = 1.891782 g / cm^3
# Si number density = 18.960976 Si / 1000 Ang^3
#
#
#
# Elastic Constant Matrix: (Units=GPa)
#
#
# Indices 1 2 3 4 5 6 
#
# 1 79.2499 51.1671 45.2908 0.0000 0.0000 0.0000
# 2 51.1671 98.7962 50.8598 0.0000 0.0000 0.0000
# 3 45.2908 50.8598 93.1765 0.0000 0.0000 0.0000
# 4 0.0000 0.0000 0.0000 34.2345 0.0000 0.0000
# 5 0.0000 0.0000 0.0000 0.0000 26.3215 0.0000
# 6 0.0000 0.0000 0.0000 0.0000 0.0000 25.9124
#
#
#
# Elastic Compliance Matrix: (Units=1/GPa)
#
#
# Indices 1 2 3 4 5 6 
#
# 1 0.021102 -0.007856 -0.005969 0.000000 0.000000 0.000000
# 2 -0.007856 0.017002 -0.005462 0.000000 0.000000 0.000000
# 3 -0.005969 -0.005462 0.016615 0.000000 0.000000 0.000000
# 4 0.000000 0.000000 0.000000 0.029210 0.000000 0.000000
# 5 0.000000 0.000000 0.000000 0.000000 0.037992 0.000000
# 6 0.000000 0.000000 0.000000 0.000000 0.000000 0.038592
#
#
# Mechanical properties :
#
#
# Convention : Reuss Voigt Hill
#
# Bulk Modulus (GPa) = 61.93738 62.87310 62.40524
# Shear Modulus (GPa) = 24.45372 25.55401 25.00387
#
# Velocity S-wave (km/s) = 3.59512 3.67511 3.63533
# Velocity P-wave (km/s) = 7.06893 7.15820 7.11370
#
# Compressibility (1/GPa) = 0.01614534
#
# Stress axis : x y z
#
# Youngs Moduli (GPa) = 47.38978 58.81564 60.18634
#
# Poissons Ratio (x) = 0.46205 0.35925
# Poissons Ratio (y) = 0.37229 0.32874
# Poissons Ratio (z) = 0.28286 0.32125
#
# Static dielectric constant tensor:
#      x y z
#    x 3.874320 0.000000 0.000000 
#    y 0.000000 4.016260 0.000000 
#    z 0.000000 0.000000 3.519140 
# 
# 
# High freq. dielectric constant tensor:
#      x y z
#    x 1.737320 0.000000 0.000000 
#    y 0.000000 1.719420 0.000000 
#    z 0.000000 0.000000 1.744530 
# 
# From -- ./inp_files/3889.got.cif
#   From: 2010.03.12/outbox.cif.g09.slc.cpg/sg57_2_cif.got.tgz:3889.got - 2010.04.16 15:48:40.
