data_PCOD8231612
_publ_section_title
;
Structure prediction by ZEFSAII (Michael W. Deem and Ramdas Pophale) SiO2 
 PCOD8231612
Probable space group: P B C M
;
_chemical_formula_sum "Si O2"
_cell_formula_units_Z 64
_cell_length_a 15.404039
_cell_length_b 12.766230
_cell_length_c 17.494855
_cell_angle_alpha 90.000000
_cell_angle_beta 90.000000
_cell_angle_gamma 90.000000
_cell_volume 3440.389562
_symmetry_space_group_name_H-M "P B C M"
_symmetry_group_IT_number 57
_symmetry_cell_setting 'orthorhombic'
loop_
_space_group_symop_operation_xyz
x,y,z
-x,-y,1/2+z
x,1/2-y,-z
-x,1/2+y,1/2-z
-x,-y,-z
x,y,1/2-z
-x,1/2+y,z
x,1/2-y,1/2+z
loop_
_atom_site_type_symbol
_atom_site_label
_atom_site_fract_x
_atom_site_fract_y
_atom_site_fract_z
Si Si1 0.351505 0.380093 0.164425
Si Si2 0.599230 0.515621 0.982354
Si Si3 0.238227 0.872567 0.980988
Si Si4 0.045360 0.352323 0.162801
Si Si5 0.860686 0.861745 0.660254
Si Si6 0.812570 0.016657 0.333942
Si Si7 0.696391 0.688118 0.427690
Si Si8 0.929590 0.462228 0.061006
O O1 0.392086 0.382831 0.250000
O O2 0.402733 0.456527 0.107647
O O3 0.252431 0.418154 0.165398
O O4 0.353941 0.262659 0.131799
O O5 0.665209 0.418354 0.997581
O O6 0.500000 0.500000 0.000000
O O7 0.626981 0.609512 0.037135
O O8 0.213443 0.891585 0.892313
O O9 0.238134 0.750000 0.000000
O O10 0.165072 0.935557 0.027787
O O11 0.013233 0.343174 0.250000
O O12 0.102924 0.252821 0.141397
O O13 0.096115 0.461619 0.147898
O O14 0.963821 0.358070 0.105057
O O15 0.849543 0.881472 0.750000
O O16 0.768907 0.874574 0.618359
O O17 0.924084 0.947481 0.624835
O O18 0.813748 0.069679 0.250000
O O19 0.738488 0.750000 0.500000
O O20 0.000000 0.500000 0.000000
#
# Coordination Sequence:
#
# PCOD8231612 Si02
#       8
#     8   8   8   8   8   8   8   8
#     4   9  17  33  61  93 119 142 188 250 307 359
#     4  10  22  41  64  88 120 158 201 249 307 375
#     4  11  24  41  59  87 118 161 205 247 303 360
#     4  10  21  36  58  86 119 161 204 247 295 352
#     4  11  23  39  60  89 125 159 201 256 307 356
#     4   9  17  35  59  85 114 154 200 246 293 350
#     4  10  19  33  62  94 118 146 192 250 312 353
#     4  12  25  37  56  85 125 164 208 246 294 353
#
# _framework density 18.602544000000002
#
# number of rings (size 3 to 8) (size 9 to 14) (size 15 to 20)
#    0.000    1.750    3.750    0.750    3.500    1.500 
#    0.000    2.500    0.000    3.000    0.000    0.000 
#    0.000    0.000    0.000    0.000    0.000    0.000 
#
# Total GULP energy -793283.628740 kJ/mol
# GULP energy per Si atom -12395.056699 kJ/mol
# Density = 1.856020 g / cm^3
# Si number density = 18.602544 Si / 1000 Ang^3
#
#
#
# Elastic Constant Matrix: (Units=GPa)
#
#
# Indices 1 2 3 4 5 6 
#
# 1 110.6680 32.9765 59.7002 0.0000 0.0000 0.0000
# 2 32.9765 93.9785 58.9170 0.0000 0.0000 0.0000
# 3 59.7002 58.9170 138.7176 0.0000 0.0000 0.0000
# 4 0.0000 0.0000 0.0000 27.5118 0.0000 0.0000
# 5 0.0000 0.0000 0.0000 0.0000 18.6973 0.0000
# 6 0.0000 0.0000 0.0000 0.0000 0.0000 18.4102
#
#
#
# Elastic Compliance Matrix: (Units=1/GPa)
#
#
# Indices 1 2 3 4 5 6 
#
# 1 0.011886 -0.001314 -0.004558 0.000000 0.000000 0.000000
# 2 -0.001314 0.014647 -0.005656 0.000000 0.000000 0.000000
# 3 -0.004558 -0.005656 0.011572 0.000000 0.000000 0.000000
# 4 0.000000 0.000000 0.000000 0.036348 0.000000 0.000000
# 5 0.000000 0.000000 0.000000 0.000000 0.053484 0.000000
# 6 0.000000 0.000000 0.000000 0.000000 0.000000 0.054318
#
#
# Mechanical properties :
#
#
# Convention : Reuss Voigt Hill
#
# Bulk Modulus (GPa) = 66.43570 71.83905 69.13738
# Shear Modulus (GPa) = 23.77255 25.70854 24.74055
#
# Velocity S-wave (km/s) = 3.57868 3.72155 3.65081
# Velocity P-wave (km/s) = 7.27095 7.56097 7.41738
#
# Compressibility (1/GPa) = 0.01505215
#
# Stress axis : x y z
#
# Youngs Moduli (GPa) = 84.13263 68.27155 86.41186
#
# Poissons Ratio (x) = 0.08968 0.39382
# Poissons Ratio (y) = 0.11051 0.48873
# Poissons Ratio (z) = 0.38343 0.38613
#
# Static dielectric constant tensor:
#      x y z
#    x 3.191810 0.000000 0.000000 
#    y 0.000000 3.314180 0.000000 
#    z 0.000000 0.000000 3.765870 
# 
# 
# High freq. dielectric constant tensor:
#      x y z
#    x 1.700040 0.000000 0.000000 
#    y 0.000000 1.708440 0.000000 
#    z 0.000000 0.000000 1.739020 
# 
# From -- ./inp_files/22679.got.cif
#   From: 2010.03.12/outbox.cif.g09.slc.cpg/sg57_12_cif.got.tgz:22679.got - 2010.04.16 15:48:40.
