data_PCOD8231888
_publ_section_title
;
Structure prediction by ZEFSAII (Michael W. Deem and Ramdas Pophale) SiO2 
 PCOD8231888
Probable space group: P B C M
;
_chemical_formula_sum "Si O2"
_cell_formula_units_Z 64
_cell_length_a 24.079235
_cell_length_b 14.706040
_cell_length_c 8.806923
_cell_angle_alpha 90.000000
_cell_angle_beta 90.000000
_cell_angle_gamma 90.000000
_cell_volume 3118.621204
_symmetry_space_group_name_H-M "P B C M"
_symmetry_group_IT_number 57
_symmetry_cell_setting 'orthorhombic'
loop_
_space_group_symop_operation_xyz
x,y,z
-x,-y,1/2+z
x,1/2-y,-z
-x,1/2+y,1/2-z
-x,-y,-z
x,y,1/2-z
-x,1/2+y,z
x,1/2-y,1/2+z
loop_
_atom_site_type_symbol
_atom_site_label
_atom_site_fract_x
_atom_site_fract_y
_atom_site_fract_z
Si Si1 0.615293 0.160289 0.928422
Si Si2 0.239661 0.041063 0.575102
Si Si3 0.871908 0.966695 0.573119
Si Si4 0.651648 0.849787 0.070089
Si Si5 0.038835 0.342887 0.070850
Si Si6 0.559983 0.510361 0.928661
Si Si7 0.086687 0.840748 0.426181
Si Si8 0.267385 0.664504 0.072427
O O1 0.601750 0.152092 0.750000
O O2 0.585897 0.250000 0.000000
O O3 0.680180 0.164984 0.960118
O O4 0.594985 0.075008 0.021745
O O5 0.231489 0.066688 0.750000
O O6 0.295600 0.089910 0.513485
O O7 0.186242 0.076589 0.482897
O O8 0.239110 0.932624 0.551795
O O9 0.878735 0.947117 0.750000
O O10 0.873810 0.074291 0.535349
O O11 0.923711 0.924682 0.486745
O O12 0.653528 0.841205 0.250000
O O13 0.594398 0.899746 0.018839
O O14 0.653959 0.750000 0.000000
O O15 0.043115 0.337197 0.250000
O O16 0.975855 0.359893 0.013781
O O17 0.062298 0.250000 0.000000
O O18 0.552963 0.511586 0.750000
O O19 0.500000 0.500000 0.000000
O O20 0.112161 0.750000 0.500000
O O21 0.083954 0.821401 0.250000
O O22 0.282585 0.680318 0.250000
O O23 0.231792 0.750000 0.000000
#
# Coordination Sequence:
#
# PCOD8231888 Si02
#       8
#     8   8   8   8   8   8   8   8
#     4  11  21  35  59  89 119 154 193 238 292 352
#     4  10  22  41  60  82 118 162 200 247 301 353
#     4  11  23  37  56  87 121 154 198 252 299 357
#     4  10  23  44  67  89 120 158 202 249 297 351
#     4  10  20  37  60  84 113 153 197 247 303 362
#     4  11  23  42  64  92 127 160 198 249 300 358
#     4   9  20  37  58  85 118 155 198 244 300 361
#     4  10  19  35  58  84 115 150 190 238 292 352
#
# _framework density 20.521889000000002
#
# number of rings (size 3 to 8) (size 9 to 14) (size 15 to 20)
#    0.000    1.750    1.250    3.750    0.000    5.500 
#    0.000    5.000    0.000    0.000    0.000    0.000 
#    0.000    0.000    0.000    0.000    0.000    0.000 
#
# Total GULP energy -793354.709244 kJ/mol
# GULP energy per Si atom -12396.167332 kJ/mol
# Density = 2.047518 g / cm^3
# Si number density = 20.521889 Si / 1000 Ang^3
#
#
#
# Elastic Constant Matrix: (Units=GPa)
#
#
# Indices 1 2 3 4 5 6 
#
# 1 96.6326 34.0143 39.5187 0.0000 0.0000 0.0000
# 2 34.0143 102.4337 40.4398 0.0000 0.0000 0.0000
# 3 39.5187 40.4398 62.6716 0.0000 0.0000 0.0000
# 4 0.0000 0.0000 0.0000 40.0597 0.0000 0.0000
# 5 0.0000 0.0000 0.0000 0.0000 27.8430 0.0000
# 6 0.0000 0.0000 0.0000 0.0000 0.0000 10.2201
#
#
#
# Elastic Compliance Matrix: (Units=1/GPa)
#
#
# Indices 1 2 3 4 5 6 
#
# 1 0.014132 -0.001576 -0.007894 0.000000 0.000000 0.000000
# 2 -0.001576 0.013275 -0.007572 0.000000 0.000000 0.000000
# 3 -0.007894 -0.007572 0.025820 0.000000 0.000000 0.000000
# 4 0.000000 0.000000 0.000000 0.024963 0.000000 0.000000
# 5 0.000000 0.000000 0.000000 0.000000 0.035916 0.000000
# 6 0.000000 0.000000 0.000000 0.000000 0.000000 0.097846
#
#
# Mechanical properties :
#
#
# Convention : Reuss Voigt Hill
#
# Bulk Modulus (GPa) = 52.24040 54.40926 53.32483
# Shear Modulus (GPa) = 19.80854 25.47558 22.64206
#
# Velocity S-wave (km/s) = 3.11020 3.52715 3.32522
# Velocity P-wave (km/s) = 6.19750 6.56948 6.38620
#
# Compressibility (1/GPa) = 0.01914227
#
# Stress axis : x y z
#
# Youngs Moduli (GPa) = 70.76374 75.32845 38.72987
#
# Poissons Ratio (x) = 0.11873 0.30573
# Poissons Ratio (y) = 0.11153 0.29327
# Poissons Ratio (z) = 0.55860 0.57040
#
# Static dielectric constant tensor:
#      x y z
#    x 3.614380 0.000000 0.000000 
#    y 0.000000 2.814670 0.000000 
#    z 0.000000 0.000000 3.707890 
# 
# 
# High freq. dielectric constant tensor:
#      x y z
#    x 1.795020 0.000000 0.000000 
#    y 0.000000 1.810860 0.000000 
#    z 0.000000 0.000000 1.802740 
# 
# From -- ./inp_files/9288.got.cif
#   From: 2010.03.12/outbox.cif.g09.slc.cpg/sg57_5_cif.got.tgz:9288.got - 2010.04.16 15:48:40.
