data_PCOD8231759
_publ_section_title
;
Structure prediction by ZEFSAII (Michael W. Deem and Ramdas Pophale) SiO2 
 PCOD8231759
Probable space group: P B C M
;
_chemical_formula_sum "Si O2"
_cell_formula_units_Z 64
_cell_length_a 20.860864
_cell_length_b 18.586514
_cell_length_c 8.556890
_cell_angle_alpha 90.000000
_cell_angle_beta 90.000000
_cell_angle_gamma 90.000000
_cell_volume 3317.769299
_symmetry_space_group_name_H-M "P B C M"
_symmetry_group_IT_number 57
_symmetry_cell_setting 'orthorhombic'
loop_
_space_group_symop_operation_xyz
x,y,z
-x,-y,1/2+z
x,1/2-y,-z
-x,1/2+y,1/2-z
-x,-y,-z
x,y,1/2-z
-x,1/2+y,z
x,1/2-y,1/2+z
loop_
_atom_site_type_symbol
_atom_site_label
_atom_site_fract_x
_atom_site_fract_y
_atom_site_fract_z
Si Si1 0.806626 0.538930 0.067441
Si Si2 0.877440 0.327578 0.933518
Si Si3 0.062240 0.537247 0.933092
Si Si4 0.499341 0.579316 0.565819
Si Si5 0.252443 0.324734 0.066141
Si Si6 0.252276 0.597298 0.434834
Si Si7 0.616987 0.329436 0.934575
Si Si8 0.391437 0.326924 0.565084
O O1 0.800093 0.555321 0.250000
O O2 0.876700 0.510842 0.020549
O O3 0.797243 0.611933 0.970235
O O4 0.753683 0.479915 0.018368
O O5 0.882010 0.324224 0.750000
O O6 0.806478 0.351796 0.988113
O O7 0.894033 0.250000 0.000000
O O8 0.930401 0.383445 0.994908
O O9 0.055569 0.545735 0.750000
O O10 0.000000 0.500000 0.000000
O O11 0.500000 0.500000 0.500000
O O12 0.490383 0.578352 0.750000
O O13 0.442012 0.623467 0.490051
O O14 0.567028 0.613154 0.520144
O O15 0.265472 0.317670 0.250000
O O16 0.223752 0.250000 0.000000
O O17 0.318056 0.342522 0.976563
O O18 0.252216 0.584475 0.250000
O O19 0.317210 0.634492 0.494609
O O20 0.616641 0.325025 0.750000
O O21 0.610519 0.250000 0.000000
O O22 0.413777 0.250000 0.500000
O O23 0.402024 0.329881 0.750000
#
# Coordination Sequence:
#
# PCOD8231759 Si02
#       8
#     8   8   8   8   8   8   8   8
#     4  10  21  37  59  87 119 153 192 236 287 343
#     4  10  19  34  57  86 119 155 195 240 286 340
#     4  10  21  38  60  86 118 157 198 241 286 342
#     4  12  26  43  60  82 112 150 193 241 293 347
#     4  11  22  38  61  88 118 151 191 240 292 347
#     4   9  20  36  57  85 118 154 192 235 286 342
#     4  11  23  40  60  85 117 152 192 237 288 347
#     4  11  22  40  63  86 112 147 190 238 291 349
#
# _framework density 19.29007
#
# number of rings (size 3 to 8) (size 9 to 14) (size 15 to 20)
#    0.000    1.500    0.000    6.375    1.750    3.000 
#    0.000    0.625    0.000    3.000    0.000    0.000 
#    0.000    0.000    0.000    0.000    0.000    0.000 
#
# Total GULP energy -793950.517000 kJ/mol
# GULP energy per Si atom -12405.476828 kJ/mol
# Density = 1.924617 g / cm^3
# Si number density = 19.290070 Si / 1000 Ang^3
#
#
#
# Elastic Constant Matrix: (Units=GPa)
#
#
# Indices 1 2 3 4 5 6 
#
# 1 79.3246 64.3224 24.0511 0.0000 0.0000 0.0000
# 2 64.3224 166.2441 36.2582 0.0000 0.0000 0.0000
# 3 24.0511 36.2582 55.1051 0.0000 0.0000 0.0000
# 4 0.0000 0.0000 0.0000 39.4949 0.0000 0.0000
# 5 0.0000 0.0000 0.0000 0.0000 30.5458 0.0000
# 6 0.0000 0.0000 0.0000 0.0000 0.0000 34.2356
#
#
#
# Elastic Compliance Matrix: (Units=1/GPa)
#
#
# Indices 1 2 3 4 5 6 
#
# 1 0.019117 -0.006511 -0.004059 0.000000 0.000000 0.000000
# 2 -0.006511 0.009241 -0.003238 0.000000 0.000000 0.000000
# 3 -0.004059 -0.003238 0.022050 0.000000 0.000000 0.000000
# 4 0.000000 0.000000 0.000000 0.025320 0.000000 0.000000
# 5 0.000000 0.000000 0.000000 0.000000 0.032738 0.000000
# 6 0.000000 0.000000 0.000000 0.000000 0.000000 0.029209
#
#
# Mechanical properties :
#
#
# Convention : Reuss Voigt Hill
#
# Bulk Modulus (GPa) = 43.88024 61.10412 52.49218
# Shear Modulus (GPa) = 28.92021 32.59140 30.75580
#
# Velocity S-wave (km/s) = 3.87619 4.11486 3.99731
# Velocity P-wave (km/s) = 6.54447 7.37030 6.96963
#
# Compressibility (1/GPa) = 0.02278930
#
# Stress axis : x y z
#
# Youngs Moduli (GPa) = 52.30912 108.21468 45.35202
#
# Poissons Ratio (x) = 0.70462 0.18411
# Poissons Ratio (y) = 0.34060 0.14687
# Poissons Ratio (z) = 0.21235 0.35044
#
# Static dielectric constant tensor:
#      x y z
#    x 3.531010 0.000000 0.000000 
#    y 0.000000 3.676600 0.000000 
#    z 0.000000 0.000000 3.580930 
# 
# 
# High freq. dielectric constant tensor:
#      x y z
#    x 1.741300 0.000000 0.000000 
#    y 0.000000 1.762940 0.000000 
#    z 0.000000 0.000000 1.766660 
# 
# From -- ./inp_files/8385.got.cif
#   From: 2010.03.12/outbox.cif.g09.slc.cpg/sg57_5_cif.got.tgz:8385.got - 2010.04.16 15:48:40.
