data_PCOD8231711
_publ_section_title
;
Structure prediction by ZEFSAII (Michael W. Deem and Ramdas Pophale) SiO2 
 PCOD8231711
Probable space group: P B C M
;
_chemical_formula_sum "Si O2"
_cell_formula_units_Z 64
_cell_length_a 14.770727
_cell_length_b 23.922041
_cell_length_c 8.728188
_cell_angle_alpha 90.000000
_cell_angle_beta 90.000000
_cell_angle_gamma 90.000000
_cell_volume 3084.069766
_symmetry_space_group_name_H-M "P B C M"
_symmetry_group_IT_number 57
_symmetry_cell_setting 'orthorhombic'
loop_
_space_group_symop_operation_xyz
x,y,z
-x,-y,1/2+z
x,1/2-y,-z
-x,1/2+y,1/2-z
-x,-y,-z
x,y,1/2-z
-x,1/2+y,z
x,1/2-y,1/2+z
loop_
_atom_site_type_symbol
_atom_site_label
_atom_site_fract_x
_atom_site_fract_y
_atom_site_fract_z
Si Si1 0.136615 0.884178 0.929954
Si Si2 0.551034 0.338686 0.927651
Si Si3 0.726193 0.305949 0.429549
Si Si4 0.021270 0.188490 0.930926
Si Si5 0.650965 0.808237 0.929959
Si Si6 0.780016 0.003047 0.431090
Si Si7 0.417451 0.532488 0.427920
Si Si8 0.195973 0.121496 0.568732
O O1 0.118331 0.877407 0.750000
O O2 0.147090 0.949294 0.980283
O O3 0.232353 0.857327 0.976238
O O4 0.058497 0.853356 0.023023
O O5 0.569766 0.324186 0.750000
O O6 0.451437 0.320397 0.979071
O O7 0.564941 0.403233 0.962257
O O8 0.619124 0.304694 0.036574
O O9 0.771016 0.250000 0.500000
O O10 0.747506 0.310044 0.250000
O O11 0.021007 0.194944 0.750000
O O12 0.113617 0.159919 0.990859
O O13 0.009222 0.250000 0.000000
O O14 0.663330 0.805770 0.750000
O O15 0.684720 0.750000 0.000000
O O16 0.711316 0.858039 0.994927
O O17 0.769649 0.006499 0.250000
O O18 0.818371 0.942864 0.484214
O O19 0.679456 0.013959 0.500846
O O20 0.500000 0.500000 0.500000
O O21 0.417766 0.518776 0.250000
O O22 0.204531 0.125205 0.750000
#
# Coordination Sequence:
#
# PCOD8231711 Si02
#       8
#     8   8   8   8   8   8   8   8
#     4  11  22  41  66  90 123 162 200 244 303 366
#     4  10  21  38  57  84 121 161 204 253 305 362
#     4  12  24  38  59  87 120 158 201 248 300 361
#     4  11  24  42  64  93 124 157 204 256 307 368
#     4  11  23  38  59  87 122 161 208 260 311 365
#     4   9  19  38  63  89 122 164 201 243 303 366
#     4  10  19  34  56  83 119 161 206 250 296 354
#     4  10  22  41  65  91 123 161 204 253 308 368
#
# _framework density 20.751801
#
# number of rings (size 3 to 8) (size 9 to 14) (size 15 to 20)
#    0.000    1.500    1.250    4.125    0.000    5.000 
#    0.000    1.250    0.000    0.000    0.000    0.000 
#    0.000    0.000    0.000    0.000    0.000    0.000 
#
# Total GULP energy -793696.434177 kJ/mol
# GULP energy per Si atom -12401.506784 kJ/mol
# Density = 2.070457 g / cm^3
# Si number density = 20.751801 Si / 1000 Ang^3
#
#
#
# Elastic Constant Matrix: (Units=GPa)
#
#
# Indices 1 2 3 4 5 6 
#
# 1 87.7550 48.1112 12.8950 0.0000 0.0000 0.0000
# 2 48.1112 132.0535 35.1831 0.0000 0.0000 0.0000
# 3 12.8950 35.1831 39.3537 0.0000 0.0000 0.0000
# 4 0.0000 0.0000 0.0000 19.1171 0.0000 0.0000
# 5 0.0000 0.0000 0.0000 0.0000 29.9071 0.0000
# 6 0.0000 0.0000 0.0000 0.0000 0.0000 40.4874
#
#
#
# Elastic Compliance Matrix: (Units=1/GPa)
#
#
# Indices 1 2 3 4 5 6 
#
# 1 0.014240 -0.005178 -0.000036 0.000000 0.000000 0.000000
# 2 -0.005178 0.011824 -0.008874 0.000000 0.000000 0.000000
# 3 -0.000036 -0.008874 0.033356 0.000000 0.000000 0.000000
# 4 0.000000 0.000000 0.000000 0.052309 0.000000 0.000000
# 5 0.000000 0.000000 0.000000 0.000000 0.033437 0.000000
# 6 0.000000 0.000000 0.000000 0.000000 0.000000 0.024699
#
#
# Mechanical properties :
#
#
# Convention : Reuss Voigt Hill
#
# Bulk Modulus (GPa) = 32.00799 50.17119 41.08959
# Shear Modulus (GPa) = 23.98598 28.76718 26.37658
#
# Velocity S-wave (km/s) = 3.40347 3.72728 3.56905
# Velocity P-wave (km/s) = 5.55900 6.53856 6.06858
#
# Compressibility (1/GPa) = 0.03124220
#
# Stress axis : x y z
#
# Youngs Moduli (GPa) = 70.22640 84.57712 29.97973
#
# Poissons Ratio (x) = 0.43796 0.00109
# Poissons Ratio (y) = 0.36365 0.26603
# Poissons Ratio (z) = 0.00256 0.75052
#
# Static dielectric constant tensor:
#      x y z
#    x 3.845950 0.000000 0.000000 
#    y 0.000000 4.035030 0.000000 
#    z 0.000000 0.000000 3.512980 
# 
# 
# High freq. dielectric constant tensor:
#      x y z
#    x 1.815850 0.000000 0.000000 
#    y 0.000000 1.830380 0.000000 
#    z 0.000000 0.000000 1.794290 
# 
# From -- ./inp_files/5725.got.cif
#   From: 2010.03.12/outbox.cif.g09.slc.cpg/sg57_3_cif.got.tgz:5725.got - 2010.04.16 15:48:40.
