data_PCOD8231077
_publ_section_title
;
Structure prediction by ZEFSAII (Michael W. Deem and Ramdas Pophale) SiO2 
 PCOD8231077
Probable space group: P B C M
;
_chemical_formula_sum "Si O2"
_cell_formula_units_Z 64
_cell_length_a 14.827196
_cell_length_b 29.491542
_cell_length_c 9.024763
_cell_angle_alpha 90.000000
_cell_angle_beta 90.000000
_cell_angle_gamma 90.000000
_cell_volume 3946.320149
_symmetry_space_group_name_H-M "P B C M"
_symmetry_group_IT_number 57
_symmetry_cell_setting 'orthorhombic'
loop_
_space_group_symop_operation_xyz
x,y,z
-x,-y,1/2+z
x,1/2-y,-z
-x,1/2+y,1/2-z
-x,-y,-z
x,y,1/2-z
-x,1/2+y,z
x,1/2-y,1/2+z
loop_
_atom_site_type_symbol
_atom_site_label
_atom_site_fract_x
_atom_site_fract_y
_atom_site_fract_z
Si Si1 0.305440 0.041754 0.078279
Si Si2 0.795505 0.117621 0.925147
Si Si3 0.119403 0.463360 0.078667
Si Si4 0.276587 0.704620 0.423614
Si Si5 0.533283 0.893490 0.921982
Si Si6 0.628635 0.443971 0.076846
Si Si7 0.513790 0.204698 0.421954
Si Si8 0.945884 0.435655 0.578454
O O1 0.276259 0.037736 0.250000
O O2 0.369105 0.084909 0.049484
O O3 0.358609 0.996320 0.030231
O O4 0.218145 0.049277 0.978519
O O5 0.798659 0.124133 0.750000
O O6 0.717546 0.082841 0.974089
O O7 0.779708 0.164875 0.004016
O O8 0.891221 0.100376 0.982641
O O9 0.110408 0.449665 0.250000
O O10 0.102045 0.516292 0.054388
O O11 0.047365 0.435292 0.983186
O O12 0.240724 0.750000 0.500000
O O13 0.257743 0.706660 0.250000
O O14 0.381572 0.697645 0.459943
O O15 0.507301 0.893176 0.750000
O O16 0.535053 0.841291 0.980051
O O17 0.458600 0.924048 0.999017
O O18 0.612292 0.438801 0.250000
O O19 0.475200 0.250000 0.500000
O O20 0.496473 0.212340 0.250000
O O21 0.947425 0.421563 0.750000
#
# Coordination Sequence:
#
# PCOD8231077 Si02
#       8
#     8   8   8   8   8   8   8   8
#     4  10  20  34  49  68  98 134 168 205 245 291
#     4  11  20  31  49  73 101 132 167 203 244 295
#     4  10  20  33  50  72  97 126 163 206 246 290
#     4  10  19  32  49  70  98 130 166 206 250 297
#     4  10  20  33  49  69  96 131 169 204 244 292
#     4  10  20  31  45  68  99 134 169 201 237 284
#     4   9  18  31  47  68  92 123 161 204 247 289
#     4  10  20  33  51  72  96 128 163 201 246 293
#
# _framework density 16.217639999999999
#
# number of rings (size 3 to 8) (size 9 to 14) (size 15 to 20)
#    0.000    2.000    2.500    1.875    0.000    3.500 
#    0.000    0.000    0.000    0.000    0.000    0.875 
#    0.000    2.000    0.000    0.000    0.000    0.000 
#
# Total GULP energy -793747.681015 kJ/mol
# GULP energy per Si atom -12402.307516 kJ/mol
# Density = 1.618073 g / cm^3
# Si number density = 16.217640 Si / 1000 Ang^3
#
#
#
# Elastic Constant Matrix: (Units=GPa)
#
#
# Indices 1 2 3 4 5 6 
#
# 1 80.1952 41.6169 38.4724 0.0000 0.0000 0.0000
# 2 41.6169 102.4351 34.2727 0.0000 0.0000 0.0000
# 3 38.4724 34.2727 64.3104 0.0000 0.0000 0.0000
# 4 0.0000 0.0000 0.0000 27.0635 0.0000 0.0000
# 5 0.0000 0.0000 0.0000 0.0000 27.1044 0.0000
# 6 0.0000 0.0000 0.0000 0.0000 0.0000 26.2221
#
#
#
# Elastic Compliance Matrix: (Units=1/GPa)
#
#
# Indices 1 2 3 4 5 6 
#
# 1 0.019274 -0.004835 -0.008954 0.000000 0.000000 0.000000
# 2 -0.004835 0.013093 -0.004086 0.000000 0.000000 0.000000
# 3 -0.008954 -0.004086 0.023083 0.000000 0.000000 0.000000
# 4 0.000000 0.000000 0.000000 0.036950 0.000000 0.000000
# 5 0.000000 0.000000 0.000000 0.000000 0.036894 0.000000
# 6 0.000000 0.000000 0.000000 0.000000 0.000000 0.038136
#
#
# Mechanical properties :
#
#
# Convention : Reuss Voigt Hill
#
# Bulk Modulus (GPa) = 50.75460 52.85163 51.80312
# Shear Modulus (GPa) = 23.83830 24.91658 24.37744
#
# Velocity S-wave (km/s) = 3.83809 3.92393 3.88125
# Velocity P-wave (km/s) = 7.14178 7.29310 7.21784
#
# Compressibility (1/GPa) = 0.01970265
#
# Stress axis : x y z
#
# Youngs Moduli (GPa) = 51.88351 76.37386 43.32151
#
# Poissons Ratio (x) = 0.36925 0.38789
# Poissons Ratio (y) = 0.25085 0.17699
# Poissons Ratio (z) = 0.46455 0.31203
#
# Static dielectric constant tensor:
#      x y z
#    x 2.885950 0.000000 0.000000 
#    y 0.000000 3.074490 0.000000 
#    z 0.000000 0.000000 3.109450 
# 
# 
# High freq. dielectric constant tensor:
#      x y z
#    x 1.603050 0.000000 0.000000 
#    y 0.000000 1.614850 0.000000 
#    z 0.000000 0.000000 1.632230 
# 
# From -- ./inp_files/5959.got.cif
#   From: 2010.03.12/outbox.cif.g09.slc.cpg/sg57_3_cif.got.tgz:5959.got - 2010.04.16 15:48:40.
