data_PCOD8231039
_publ_section_title
;
Structure prediction by ZEFSAII (Michael W. Deem and Ramdas Pophale) SiO2 
 PCOD8231039
Probable space group: P B C M
;
_chemical_formula_sum "Si O2"
_cell_formula_units_Z 64
_cell_length_a 20.138974
_cell_length_b 19.952779
_cell_length_c 8.860142
_cell_angle_alpha 90.000000
_cell_angle_beta 90.000000
_cell_angle_gamma 90.000000
_cell_volume 3560.257548
_symmetry_space_group_name_H-M "P B C M"
_symmetry_group_IT_number 57
_symmetry_cell_setting 'orthorhombic'
loop_
_space_group_symop_operation_xyz
x,y,z
-x,-y,1/2+z
x,1/2-y,-z
-x,1/2+y,1/2-z
-x,-y,-z
x,y,1/2-z
-x,1/2+y,z
x,1/2-y,1/2+z
loop_
_atom_site_type_symbol
_atom_site_label
_atom_site_fract_x
_atom_site_fract_y
_atom_site_fract_z
Si Si1 0.699488 0.594702 0.070888
Si Si2 0.829628 0.555232 0.925531
Si Si3 0.662638 0.447724 0.072750
Si Si4 0.919855 0.178715 0.573461
Si Si5 0.412082 0.178750 0.570589
Si Si6 0.195473 0.916503 0.427065
Si Si7 0.021114 0.068700 0.574658
Si Si8 0.518619 0.429873 0.071368
O O1 0.695378 0.603340 0.250000
O O2 0.670219 0.523739 0.011215
O O3 0.776126 0.598887 0.018488
O O4 0.658487 0.653820 0.992053
O O5 0.810423 0.556573 0.750000
O O6 0.902015 0.586948 0.955011
O O7 0.833095 0.478827 0.981037
O O8 0.659422 0.454467 0.250000
O O9 0.727268 0.403991 0.025726
O O10 0.594295 0.413533 0.016138
O O11 0.928602 0.250000 0.500000
O O12 0.928234 0.188209 0.750000
O O13 0.847136 0.149011 0.532724
O O14 0.976495 0.129160 0.509126
O O15 0.429621 0.250000 0.500000
O O16 0.408974 0.184259 0.750000
O O17 0.470133 0.128577 0.514465
O O18 0.190095 0.934539 0.250000
O O19 0.005921 0.059631 0.750000
O O20 0.000000 0.000000 0.500000
O O21 0.513854 0.437111 0.250000
O O22 0.500000 0.500000 0.000000
#
# Coordination Sequence:
#
# PCOD8231039 Si02
#       8
#     8   8   8   8   8   8   8   8
#     4  10  19  34  56  79 107 142 179 222 274 332
#     4  10  19  31  52  82 111 136 173 228 278 321
#     4   8  15  29  52  79 104 134 171 216 266 315
#     4  10  21  36  53  76 108 145 184 224 272 328
#     4  11  23  37  55  79 111 149 187 230 279 334
#     4   9  17  32  53  76 105 140 178 220 267 325
#     4  10  20  34  54  80 110 143 182 231 276 325
#     4  10  19  33  54  81 110 141 180 227 273 322
#
# _framework density 17.976227999999999
#
# number of rings (size 3 to 8) (size 9 to 14) (size 15 to 20)
#    0.000    2.250    2.500    1.875    0.000    2.000 
#    0.000    1.250    0.000    1.500    0.000    0.000 
#    0.000    0.000    0.000    0.000    0.000    0.000 
#
# Total GULP energy -793406.812702 kJ/mol
# GULP energy per Si atom -12396.981448 kJ/mol
# Density = 1.793531 g / cm^3
# Si number density = 17.976228 Si / 1000 Ang^3
#
#
#
# Elastic Constant Matrix: (Units=GPa)
#
#
# Indices 1 2 3 4 5 6 
#
# 1 146.9204 77.5023 39.2512 0.0000 0.0000 0.0000
# 2 77.5023 127.1163 36.9695 0.0000 0.0000 0.0000
# 3 39.2512 36.9695 52.0019 0.0000 0.0000 0.0000
# 4 0.0000 0.0000 0.0000 28.2165 0.0000 0.0000
# 5 0.0000 0.0000 0.0000 0.0000 23.0285 0.0000
# 6 0.0000 0.0000 0.0000 0.0000 0.0000 27.1837
#
#
#
# Elastic Compliance Matrix: (Units=1/GPa)
#
#
# Indices 1 2 3 4 5 6 
#
# 1 0.010765 -0.005295 -0.004361 0.000000 0.000000 0.000000
# 2 -0.005295 0.012522 -0.004905 0.000000 0.000000 0.000000
# 3 -0.004361 -0.004905 0.026009 0.000000 0.000000 0.000000
# 4 0.000000 0.000000 0.000000 0.035440 0.000000 0.000000
# 5 0.000000 0.000000 0.000000 0.000000 0.043424 0.000000
# 6 0.000000 0.000000 0.000000 0.000000 0.000000 0.036787
#
#
# Mechanical properties :
#
#
# Convention : Reuss Voigt Hill
#
# Bulk Modulus (GPa) = 49.57120 70.38718 59.97919
# Shear Modulus (GPa) = 24.90121 27.17345 26.03733
#
# Velocity S-wave (km/s) = 3.72591 3.89219 3.80996
# Velocity P-wave (km/s) = 6.79306 7.70971 7.26585
#
# Compressibility (1/GPa) = 0.02017300
#
# Stress axis : x y z
#
# Youngs Moduli (GPa) = 92.89767 79.86139 38.44809
#
# Poissons Ratio (x) = 0.42285 0.16767
# Poissons Ratio (y) = 0.49187 0.18861
# Poissons Ratio (z) = 0.40512 0.39176
#
# Static dielectric constant tensor:
#      x y z
#    x 4.162520 0.000000 0.000000 
#    y 0.000000 3.146480 0.000000 
#    z 0.000000 0.000000 3.190410 
# 
# 
# High freq. dielectric constant tensor:
#      x y z
#    x 1.716360 0.000000 0.000000 
#    y 0.000000 1.664930 0.000000 
#    z 0.000000 0.000000 1.686790 
# 
# From -- ./inp_files/8531.got.cif
#   From: 2010.03.12/outbox.cif.g09.slc.cpg/sg57_5_cif.got.tgz:8531.got - 2010.04.16 15:48:40.
