data_PCOD8231778
_publ_section_title
;
Structure prediction by ZEFSAII (Michael W. Deem and Ramdas Pophale) SiO2 
 PCOD8231778
Probable space group: P B C M
;
_chemical_formula_sum "Si O2"
_cell_formula_units_Z 64
_cell_length_a 23.436227
_cell_length_b 15.417270
_cell_length_c 9.030724
_cell_angle_alpha 90.000000
_cell_angle_beta 90.000000
_cell_angle_gamma 90.000000
_cell_volume 3263.005032
_symmetry_space_group_name_H-M "P B C M"
_symmetry_group_IT_number 57
_symmetry_cell_setting 'orthorhombic'
loop_
_space_group_symop_operation_xyz
x,y,z
-x,-y,1/2+z
x,1/2-y,-z
-x,1/2+y,1/2-z
-x,-y,-z
x,y,1/2-z
-x,1/2+y,z
x,1/2-y,1/2+z
loop_
_atom_site_type_symbol
_atom_site_label
_atom_site_fract_x
_atom_site_fract_y
_atom_site_fract_z
Si Si1 0.629039 0.509267 0.920982
Si Si2 0.942908 0.895134 0.578608
Si Si3 0.820535 0.338023 0.075790
Si Si4 0.433634 0.663095 0.077009
Si Si5 0.167718 0.164579 0.575074
Si Si6 0.435644 0.337887 0.924048
Si Si7 0.056195 0.597690 0.579652
Si Si8 0.237467 0.503901 0.079408
O O1 0.612379 0.525131 0.750000
O O2 0.604700 0.417172 0.976363
O O3 0.696147 0.511355 0.945376
O O4 0.602180 0.583325 0.020583
O O5 0.936365 0.870106 0.750000
O O6 0.896619 0.844185 0.483404
O O7 0.005499 0.866421 0.523017
O O8 0.933445 0.996539 0.550001
O O9 0.812338 0.330422 0.250000
O O10 0.886454 0.353131 0.032813
O O11 0.799059 0.250000 0.000000
O O12 0.781850 0.416192 0.019593
O O13 0.427619 0.678558 0.250000
O O14 0.498867 0.644092 0.030942
O O15 0.410461 0.750000 0.000000
O O16 0.195190 0.250000 0.500000
O O17 0.167397 0.176414 0.750000
O O18 0.204973 0.082248 0.525602
O O19 0.428026 0.327591 0.750000
O O20 0.413523 0.250000 0.000000
O O21 0.039772 0.613934 0.750000
O O22 0.223061 0.524532 0.250000
#
# Coordination Sequence:
#
# PCOD8231778 Si02
#       8
#     8   8   8   8   8   8   8   8
#     4  10  21  38  59  85 117 152 193 241 288 339
#     4  10  19  34  58  86 115 147 184 230 284 343
#     4  11  23  40  62  86 115 151 193 238 287 343
#     4   9  19  35  57  85 120 155 190 235 284 339
#     4  11  23  39  60  83 111 148 190 237 288 345
#     4  10  20  35  57  87 119 155 193 233 285 340
#     4   9  19  35  56  84 116 150 185 227 283 343
#     4  10  23  42  61  83 114 152 195 242 290 336
#
# _framework density 19.613821999999999
#
# number of rings (size 3 to 8) (size 9 to 14) (size 15 to 20)
#    0.000    2.000    1.250    1.875    0.000    5.000 
#    0.000    3.750    0.000    0.000    0.000    0.000 
#    0.000    0.000    0.000    0.000    0.000    0.000 
#
# Total GULP energy -793930.664505 kJ/mol
# GULP energy per Si atom -12405.166633 kJ/mol
# Density = 1.956918 g / cm^3
# Si number density = 19.613822 Si / 1000 Ang^3
#
#
#
# Elastic Constant Matrix: (Units=GPa)
#
#
# Indices 1 2 3 4 5 6 
#
# 1 65.7846 35.7907 27.8017 0.0000 0.0000 0.0000
# 2 35.7907 110.0589 39.8075 0.0000 0.0000 0.0000
# 3 27.8017 39.8075 68.4274 0.0000 0.0000 0.0000
# 4 0.0000 0.0000 0.0000 38.6206 0.0000 0.0000
# 5 0.0000 0.0000 0.0000 0.0000 26.5033 0.0000
# 6 0.0000 0.0000 0.0000 0.0000 0.0000 7.5198
#
#
#
# Elastic Compliance Matrix: (Units=1/GPa)
#
#
# Indices 1 2 3 4 5 6 
#
# 1 0.019976 -0.004509 -0.005493 0.000000 0.000000 0.000000
# 2 -0.004509 0.012525 -0.005454 0.000000 0.000000 0.000000
# 3 -0.005493 -0.005454 0.020019 0.000000 0.000000 0.000000
# 4 0.000000 0.000000 0.000000 0.025893 0.000000 0.000000
# 5 0.000000 0.000000 0.000000 0.000000 0.037731 0.000000
# 6 0.000000 0.000000 0.000000 0.000000 0.000000 0.132983
#
#
# Mechanical properties :
#
#
# Convention : Reuss Voigt Hill
#
# Bulk Modulus (GPa) = 46.28169 50.11897 48.20033
# Shear Modulus (GPa) = 17.40692 23.92012 20.66352
#
# Velocity S-wave (km/s) = 2.98230 3.49600 3.24932
# Velocity P-wave (km/s) = 5.95873 6.47336 6.22137
#
# Compressibility (1/GPa) = 0.02160681
#
# Stress axis : x y z
#
# Youngs Moduli (GPa) = 50.06057 79.83840 49.95293
#
# Poissons Ratio (x) = 0.36002 0.27438
# Poissons Ratio (y) = 0.22574 0.27247
# Poissons Ratio (z) = 0.27497 0.43547
#
# Static dielectric constant tensor:
#      x y z
#    x 3.516110 0.000000 0.000000 
#    y 0.000000 3.686380 0.000000 
#    z 0.000000 0.000000 3.550440 
# 
# 
# High freq. dielectric constant tensor:
#      x y z
#    x 1.757830 0.000000 0.000000 
#    y 0.000000 1.772730 0.000000 
#    z 0.000000 0.000000 1.765380 
# 
# From -- ./inp_files/9392.got.cif
#   From: 2010.03.12/outbox.cif.g09.slc.cpg/sg57_5_cif.got.tgz:9392.got - 2010.04.16 15:48:40.
