data_PCOD8231303
_publ_section_title
;
Structure prediction by ZEFSAII (Michael W. Deem and Ramdas Pophale) SiO2 
 PCOD8231303
Probable space group: P B C M
;
_chemical_formula_sum "Si O2"
_cell_formula_units_Z 40
_cell_length_a 9.235745
_cell_length_b 13.451683
_cell_length_c 17.108706
_cell_angle_alpha 90.000000
_cell_angle_beta 90.000000
_cell_angle_gamma 90.000000
_cell_volume 2125.522571
_symmetry_space_group_name_H-M "P B C M"
_symmetry_group_IT_number 57
_symmetry_cell_setting 'orthorhombic'
loop_
_space_group_symop_operation_xyz
x,y,z
-x,-y,1/2+z
x,1/2-y,-z
-x,1/2+y,1/2-z
-x,-y,-z
x,y,1/2-z
-x,1/2+y,z
x,1/2-y,1/2+z
loop_
_atom_site_type_symbol
_atom_site_label
_atom_site_fract_x
_atom_site_fract_y
_atom_site_fract_z
Si Si1 0.344437 0.536564 0.973842
Si Si2 0.071878 0.052951 0.664725
Si Si3 0.847043 0.857894 0.492912
Si Si4 0.859977 0.357131 0.912438
Si Si5 0.229771 0.649550 0.661896
O O1 0.243036 0.440184 0.960125
O O2 0.352963 0.600301 0.893325
O O3 0.500000 0.500000 0.000000
O O4 0.281908 0.608011 0.041016
O O5 0.132901 0.084390 0.750000
O O6 0.154547 0.114963 0.598629
O O7 0.901490 0.072282 0.661256
O O8 0.097521 0.935575 0.654094
O O9 0.771727 0.750000 0.500000
O O10 0.010278 0.851405 0.524973
O O11 0.828071 0.253389 0.871565
O O12 0.291044 0.664043 0.750000
#
# Coordination Sequence:
#
# PCOD8231303 Si02
#       5
#     8   8   8   8   8
#     4  11  23  39  59  82 118 165 201 242 291 361
#     4  10  19  32  55  89 118 146 184 245 305 345
#     4  11  19  36  58  85 114 146 201 248 293 358
#     4  11  19  38  61  87 115 151 201 245 300 362
#     4  11  21  36  61  92 121 151 194 251 305 356
#
# _framework density 18.818901
#
# number of rings (size 3 to 8) (size 9 to 14) (size 15 to 20)
#    0.000    1.200    6.000    2.400    0.000    1.600 
#    0.000    6.000    0.000    0.000    0.000    0.000 
#    0.000    0.000    0.000    0.000    0.000    0.000 
#
# Total GULP energy -495914.338079 kJ/mol
# GULP energy per Si atom -12397.858452 kJ/mol
# Density = 1.877607 g / cm^3
# Si number density = 18.818901 Si / 1000 Ang^3
#
#
#
# Elastic Constant Matrix: (Units=GPa)
#
#
# Indices 1 2 3 4 5 6 
#
# 1 81.9024 43.4031 45.5925 0.0000 0.0000 0.0000
# 2 43.4031 127.6471 79.0543 0.0000 0.0000 0.0000
# 3 45.5925 79.0543 148.5328 0.0000 0.0000 0.0000
# 4 0.0000 0.0000 0.0000 27.8030 0.0000 0.0000
# 5 0.0000 0.0000 0.0000 0.0000 17.6265 0.0000
# 6 0.0000 0.0000 0.0000 0.0000 0.0000 21.9522
#
#
#
# Elastic Compliance Matrix: (Units=1/GPa)
#
#
# Indices 1 2 3 4 5 6 
#
# 1 0.015716 -0.003515 -0.002953 0.000000 0.000000 0.000000
# 2 -0.003515 0.012472 -0.005559 0.000000 0.000000 0.000000
# 3 -0.002953 -0.005559 0.010598 0.000000 0.000000 0.000000
# 4 0.000000 0.000000 0.000000 0.035967 0.000000 0.000000
# 5 0.000000 0.000000 0.000000 0.000000 0.056733 0.000000
# 6 0.000000 0.000000 0.000000 0.000000 0.000000 0.045553
#
#
# Mechanical properties :
#
#
# Convention : Reuss Voigt Hill
#
# Bulk Modulus (GPa) = 67.88215 77.13135 72.50675
# Shear Modulus (GPa) = 24.27121 26.14519 25.20820
#
# Velocity S-wave (km/s) = 3.59517 3.73138 3.66391
# Velocity P-wave (km/s) = 7.30638 7.72265 7.51740
#
# Compressibility (1/GPa) = 0.01473141
#
# Stress axis : x y z
#
# Youngs Moduli (GPa) = 63.62789 80.17864 94.35828
#
# Poissons Ratio (x) = 0.28181 0.27868
# Poissons Ratio (y) = 0.22364 0.52456
# Poissons Ratio (z) = 0.18792 0.44573
#
# Static dielectric constant tensor:
#      x y z
#    x 3.051930 0.000000 0.000000 
#    y 0.000000 3.824760 0.000000 
#    z 0.000000 0.000000 3.724010 
# 
# 
# High freq. dielectric constant tensor:
#      x y z
#    x 1.683730 0.000000 0.000000 
#    y 0.000000 1.750480 0.000000 
#    z 0.000000 0.000000 1.737400 
# 
# From -- ./inp_files/15887.got.cif
#   From: 2010.03.12/outbox.cif.g09.slc.cpg/sg57_8_cif.got.tgz:15887.got - 2010.04.16 15:48:40.
