data_PCOD8231215
_publ_section_title
;
Structure prediction by ZEFSAII (Michael W. Deem and Ramdas Pophale) SiO2 
 PCOD8231215
Probable space group: P B C M
;
_chemical_formula_sum "Si O2"
_cell_formula_units_Z 48
_cell_length_a 9.244969
_cell_length_b 15.840937
_cell_length_c 18.355726
_cell_angle_alpha 90.000000
_cell_angle_beta 90.000000
_cell_angle_gamma 90.000000
_cell_volume 2688.177194
_symmetry_space_group_name_H-M "P B C M"
_symmetry_group_IT_number 57
_symmetry_cell_setting 'orthorhombic'
loop_
_space_group_symop_operation_xyz
x,y,z
-x,-y,1/2+z
x,1/2-y,-z
-x,1/2+y,1/2-z
-x,-y,-z
x,y,1/2-z
-x,1/2+y,z
x,1/2-y,1/2+z
loop_
_atom_site_type_symbol
_atom_site_label
_atom_site_fract_x
_atom_site_fract_y
_atom_site_fract_z
Si Si1 0.930524 0.661872 0.537642
Si Si2 0.097320 0.234295 0.168406
Si Si3 0.427806 0.666797 0.045185
Si Si4 0.762500 0.246089 0.333039
Si Si5 0.229895 0.592163 0.573937
Si Si6 0.733817 0.902289 0.916242
O O1 0.978493 0.750000 0.500000
O O2 0.865255 0.685619 0.617007
O O3 0.806681 0.613148 0.494622
O O4 0.069012 0.601977 0.541894
O O5 0.140858 0.259935 0.250000
O O6 0.187708 0.152154 0.145757
O O7 0.927198 0.213960 0.161834
O O8 0.330211 0.686113 0.115308
O O9 0.567231 0.621411 0.077174
O O10 0.471900 0.750000 0.000000
O O11 0.342785 0.604343 0.991651
O O12 0.705773 0.241098 0.250000
O O13 0.747037 0.342333 0.360302
O O14 0.250903 0.499393 0.606823
#
# Coordination Sequence:
#
# PCOD8231215 Si02
#       6
#     8   8   8   8   8   8
#     4   9  17  32  51  72  97 130 167 198 238 292
#     4   9  18  33  51  71  96 128 166 202 240 292
#     4  10  19  33  51  71  97 132 168 198 239 294
#     4   9  19  36  54  69  93 133 172 199 234 295
#     4  10  19  32  52  75 100 130 163 202 244 290
#     4  11  20  30  50  80 105 123 156 211 255 283
#
# _framework density 17.855967
#
# number of rings (size 3 to 8) (size 9 to 14) (size 15 to 20)
#    0.000    2.333    0.000    6.000    0.000    1.333 
#    0.000    0.000    0.000    1.000    0.000    0.000 
#    0.000    0.000    0.000    0.000    0.000    0.000 
#
# Total GULP energy -595230.508398 kJ/mol
# GULP energy per Si atom -12400.635592 kJ/mol
# Density = 1.781533 g / cm^3
# Si number density = 17.855967 Si / 1000 Ang^3
#
#
#
# Elastic Constant Matrix: (Units=GPa)
#
#
# Indices 1 2 3 4 5 6 
#
# 1 70.3384 25.1458 27.9425 0.0000 0.0000 0.0000
# 2 25.1458 63.6125 12.3180 0.0000 0.0000 0.0000
# 3 27.9425 12.3180 111.5004 0.0000 0.0000 0.0000
# 4 0.0000 0.0000 0.0000 15.0568 0.0000 0.0000
# 5 0.0000 0.0000 0.0000 0.0000 13.5358 0.0000
# 6 0.0000 0.0000 0.0000 0.0000 0.0000 20.5936
#
#
#
# Elastic Compliance Matrix: (Units=1/GPa)
#
#
# Indices 1 2 3 4 5 6 
#
# 1 0.018012 -0.006382 -0.003809 0.000000 0.000000 0.000000
# 2 -0.006382 0.018325 -0.000425 0.000000 0.000000 0.000000
# 3 -0.003809 -0.000425 0.009970 0.000000 0.000000 0.000000
# 4 0.000000 0.000000 0.000000 0.066415 0.000000 0.000000
# 5 0.000000 0.000000 0.000000 0.000000 0.073878 0.000000
# 6 0.000000 0.000000 0.000000 0.000000 0.000000 0.048559
#
#
# Mechanical properties :
#
#
# Convention : Reuss Voigt Hill
#
# Bulk Modulus (GPa) = 39.88067 41.80708 40.84388
# Shear Modulus (GPa) = 18.88574 21.84025 20.36300
#
# Velocity S-wave (km/s) = 3.25571 3.50113 3.38065
# Velocity P-wave (km/s) = 6.04285 6.30937 6.17755
#
# Compressibility (1/GPa) = 0.02507480
#
# Stress axis : x y z
#
# Youngs Moduli (GPa) = 55.51935 54.56896 100.30082
#
# Poissons Ratio (x) = 0.34828 0.38202
# Poissons Ratio (y) = 0.35435 0.04263
# Poissons Ratio (z) = 0.21146 0.02319
#
# Static dielectric constant tensor:
#      x y z
#    x 3.228160 0.000000 0.000000 
#    y 0.000000 3.116880 0.000000 
#    z 0.000000 0.000000 3.488440 
# 
# 
# High freq. dielectric constant tensor:
#      x y z
#    x 1.690730 0.000000 0.000000 
#    y 0.000000 1.673440 0.000000 
#    z 0.000000 0.000000 1.690830 
# 
# From -- ./inp_files/20928.got.cif
#   From: 2010.03.12/outbox.cif.g09.slc.cpg/sg57_11_cif.got.tgz:20928.got - 2010.04.16 15:48:40.
