data_PCOD8231360
_publ_section_title
;
Structure prediction by ZEFSAII (Michael W. Deem and Ramdas Pophale) SiO2 
 PCOD8231360
Probable space group: P B C M
;
_chemical_formula_sum "Si O2"
_cell_formula_units_Z 48
_cell_length_a 31.074077
_cell_length_b 9.493555
_cell_length_c 8.733877
_cell_angle_alpha 90.000000
_cell_angle_beta 90.000000
_cell_angle_gamma 90.000000
_cell_volume 2576.523926
_symmetry_space_group_name_H-M "P B C M"
_symmetry_group_IT_number 57
_symmetry_cell_setting 'orthorhombic'
loop_
_space_group_symop_operation_xyz
x,y,z
-x,-y,1/2+z
x,1/2-y,-z
-x,1/2+y,1/2-z
-x,-y,-z
x,y,1/2-z
-x,1/2+y,z
x,1/2-y,1/2+z
loop_
_atom_site_type_symbol
_atom_site_label
_atom_site_fract_x
_atom_site_fract_y
_atom_site_fract_z
Si Si1 0.222138 0.405028 0.930949
Si Si2 0.384000 0.601543 0.929658
Si Si3 0.536877 0.904662 0.570739
Si Si4 0.036390 0.404294 0.569727
Si Si5 0.870772 0.899932 0.573218
Si Si6 0.706605 0.100603 0.068908
O O1 0.232158 0.402123 0.750000
O O2 0.174773 0.477136 0.965001
O O3 0.223216 0.250000 0.000000
O O4 0.257666 0.490791 0.020458
O O5 0.377326 0.624431 0.750000
O O6 0.417978 0.479507 0.965867
O O7 0.399895 0.750000 0.000000
O O8 0.339435 0.551514 0.004450
O O9 0.536847 0.750000 0.500000
O O10 0.528450 0.890870 0.750000
O O11 0.500000 0.000000 0.500000
O O12 0.032445 0.250000 0.500000
O O13 0.029367 0.394472 0.750000
O O14 0.083668 0.473543 0.527487
O O15 0.000000 0.500000 0.500000
O O16 0.869281 0.750000 0.500000
O O17 0.872206 0.867942 0.750000
O O18 0.703835 0.111642 0.250000
O O19 0.719913 0.250000 0.000000
#
# Coordination Sequence:
#
# PCOD8231360 Si02
#       6
#     8   8   8   8   8   8
#     4  10  19  34  55  80 107 137 175 220 265 316
#     4  10  21  38  59  83 110 145 185 226 270 322
#     4  11  24  40  61  87 117 150 187 228 273 321
#     4  10  19  33  52  76 103 135 173 215 263 316
#     4   8  16  30  50  73 100 133 171 213 260 313
#     4  11  22  37  57  81 110 146 182 222 270 322
#
# _framework density 18.629752
#
# number of rings (size 3 to 8) (size 9 to 14) (size 15 to 20)
#    0.000    2.000    0.000    5.000    0.000    6.000 
#    0.000    2.500    0.000    0.000    0.000    0.000 
#    0.000    0.000    0.000    0.000    0.000    0.000 
#
# Total GULP energy -594792.439131 kJ/mol
# GULP energy per Si atom -12391.509149 kJ/mol
# Density = 1.858735 g / cm^3
# Si number density = 18.629752 Si / 1000 Ang^3
#
#
#
# Elastic Constant Matrix: (Units=GPa)
#
#
# Indices 1 2 3 4 5 6 
#
# 1 161.7839 88.3728 79.1751 0.0000 0.0000 0.0000
# 2 88.3728 103.3365 54.3224 0.0000 0.0000 0.0000
# 3 79.1751 54.3224 114.7490 0.0000 0.0000 0.0000
# 4 0.0000 0.0000 0.0000 33.8607 0.0000 0.0000
# 5 0.0000 0.0000 0.0000 0.0000 24.7534 0.0000
# 6 0.0000 0.0000 0.0000 0.0000 0.0000 33.0526
#
#
#
# Elastic Compliance Matrix: (Units=1/GPa)
#
#
# Indices 1 2 3 4 5 6 
#
# 1 0.013552 -0.008886 -0.005145 0.000000 0.000000 0.000000
# 2 -0.008886 0.018709 -0.002726 0.000000 0.000000 0.000000
# 3 -0.005145 -0.002726 0.013555 0.000000 0.000000 0.000000
# 4 0.000000 0.000000 0.000000 0.029533 0.000000 0.000000
# 5 0.000000 0.000000 0.000000 0.000000 0.040398 0.000000
# 6 0.000000 0.000000 0.000000 0.000000 0.000000 0.030255
#
#
# Mechanical properties :
#
#
# Convention : Reuss Voigt Hill
#
# Bulk Modulus (GPa) = 81.27374 91.51223 86.39298
# Shear Modulus (GPa) = 27.23080 28.86661 28.04870
#
# Velocity S-wave (km/s) = 3.82734 3.94063 3.88440
# Velocity P-wave (km/s) = 7.95311 8.36259 8.16042
#
# Compressibility (1/GPa) = 0.01230410
#
# Stress axis : x y z
#
# Youngs Moduli (GPa) = 73.78788 53.45029 73.77462
#
# Poissons Ratio (x) = 0.47493 0.37953
# Poissons Ratio (y) = 0.65564 0.20111
# Poissons Ratio (z) = 0.37960 0.14571
#
# Static dielectric constant tensor:
#      x y z
#    x 4.150150 0.000000 0.000000 
#    y 0.000000 3.143510 0.000000 
#    z 0.000000 0.000000 3.635290 
# 
# 
# High freq. dielectric constant tensor:
#      x y z
#    x 1.750040 0.000000 0.000000 
#    y 0.000000 1.694420 0.000000 
#    z 0.000000 0.000000 1.742350 
# 
# From -- ./inp_files/10072.got.cif
#   From: 2010.03.12/outbox.cif.g09.slc.cpg/sg57_6_cif.got.tgz:10072.got - 2010.04.16 15:48:40.
