data_PCOD8231795
_publ_section_title
;
Structure prediction by ZEFSAII (Michael W. Deem and Ramdas Pophale) SiO2 
 PCOD8231795
Probable space group: P B C M
;
_chemical_formula_sum "Si O2"
_cell_formula_units_Z 64
_cell_length_a 15.844932
_cell_length_b 10.872882
_cell_length_c 19.391925
_cell_angle_alpha 90.000000
_cell_angle_beta 90.000000
_cell_angle_gamma 90.000000
_cell_volume 3340.842312
_symmetry_space_group_name_H-M "P B C M"
_symmetry_group_IT_number 57
_symmetry_cell_setting 'orthorhombic'
loop_
_space_group_symop_operation_xyz
x,y,z
-x,-y,1/2+z
x,1/2-y,-z
-x,1/2+y,1/2-z
-x,-y,-z
x,y,1/2-z
-x,1/2+y,z
x,1/2-y,1/2+z
loop_
_atom_site_type_symbol
_atom_site_label
_atom_site_fract_x
_atom_site_fract_y
_atom_site_fract_z
Si Si1 0.369912 0.674538 0.672261
Si Si2 0.653163 0.948579 0.068879
Si Si3 0.054864 0.188876 0.831647
Si Si4 0.794383 0.745749 0.074164
Si Si5 0.250502 0.886346 0.672062
Si Si6 0.518583 0.761645 0.421550
Si Si7 0.938474 0.411584 0.668712
Si Si8 0.341551 0.057378 0.416160
O O1 0.404171 0.662235 0.750000
O O2 0.280336 0.745535 0.671597
O O3 0.438901 0.749686 0.628477
O O4 0.351164 0.541487 0.643012
O O5 0.716459 0.835756 0.064116
O O6 0.561491 0.895676 0.089751
O O7 0.681933 0.043531 0.125902
O O8 0.648776 0.006098 0.991771
O O9 0.065567 0.199836 0.750000
O O10 0.146023 0.211194 0.864333
O O11 0.993392 0.296870 0.861028
O O12 0.025068 0.048324 0.850878
O O13 0.752776 0.614172 0.091974
O O14 0.843449 0.750000 0.000000
O O15 0.251892 0.940550 0.750000
O O16 0.156723 0.898035 0.639918
O O17 0.486896 0.750000 0.500000
O O18 0.585120 0.656059 0.403761
O O19 0.936244 0.395147 0.750000
#
# Coordination Sequence:
#
# PCOD8231795 Si02
#       8
#     8   8   8   8   8   8   8   8
#     4  11  25  37  52  82 117 148 184 239 291 334
#     4   9  18  36  62  81 105 146 192 231 276 340
#     4  10  19  34  59  85 110 152 194 233 285 350
#     4   9  18  36  59  84 111 140 185 241 282 331
#     4  10  21  36  55  82 114 147 184 236 287 335
#     4   9  21  38  58  82 106 146 193 234 282 337
#     4   9  19  35  56  83 113 146 193 235 283 350
#     4   9  21  38  56  81 110 147 188 232 284 343
#
# _framework density 19.156846000000002
#
# number of rings (size 3 to 8) (size 9 to 14) (size 15 to 20)
#    0.000    2.500    1.250    1.500    3.500    3.500 
#    0.000    5.625    2.750    0.000    0.000    0.000 
#    0.000    0.000    0.000    0.000    0.000    0.000 
#
# Total GULP energy -793235.343456 kJ/mol
# GULP energy per Si atom -12394.302241 kJ/mol
# Density = 1.911324 g / cm^3
# Si number density = 19.156846 Si / 1000 Ang^3
#
#
#
# Elastic Constant Matrix: (Units=GPa)
#
#
# Indices 1 2 3 4 5 6 
#
# 1 76.1568 42.2922 33.6879 0.0000 0.0000 0.0000
# 2 42.2922 106.3129 45.1437 0.0000 0.0000 0.0000
# 3 33.6879 45.1437 81.4176 0.0000 0.0000 0.0000
# 4 0.0000 0.0000 0.0000 23.8497 0.0000 0.0000
# 5 0.0000 0.0000 0.0000 0.0000 25.3850 0.0000
# 6 0.0000 0.0000 0.0000 0.0000 0.0000 23.5350
#
#
#
# Elastic Compliance Matrix: (Units=1/GPa)
#
#
# Indices 1 2 3 4 5 6 
#
# 1 0.018064 -0.005248 -0.004565 0.000000 0.000000 0.000000
# 2 -0.005248 0.013827 -0.005496 0.000000 0.000000 0.000000
# 3 -0.004565 -0.005496 0.017218 0.000000 0.000000 0.000000
# 4 0.000000 0.000000 0.000000 0.041929 0.000000 0.000000
# 5 0.000000 0.000000 0.000000 0.000000 0.039393 0.000000
# 6 0.000000 0.000000 0.000000 0.000000 0.000000 0.042490
#
#
# Mechanical properties :
#
#
# Convention : Reuss Voigt Hill
#
# Bulk Modulus (GPa) = 54.07198 56.23719 55.15458
# Shear Modulus (GPa) = 23.84328 24.07152 23.95740
#
# Velocity S-wave (km/s) = 3.53177 3.54863 3.54021
# Velocity P-wave (km/s) = 6.70212 6.79781 6.75013
#
# Compressibility (1/GPa) = 0.01849387
#
# Stress axis : x y z
#
# Youngs Moduli (GPa) = 55.35802 72.32025 58.07827
#
# Poissons Ratio (x) = 0.37952 0.26510
# Poissons Ratio (y) = 0.29051 0.31917
# Poissons Ratio (z) = 0.25269 0.39744
#
# Static dielectric constant tensor:
#      x y z
#    x 3.478800 0.000000 0.000000 
#    y 0.000000 3.629290 0.000000 
#    z 0.000000 0.000000 3.444580 
# 
# 
# High freq. dielectric constant tensor:
#      x y z
#    x 1.735450 0.000000 0.000000 
#    y 0.000000 1.747470 0.000000 
#    z 0.000000 0.000000 1.730280 
# 
# From -- ./inp_files/22684.got.cif
#   From: 2010.03.12/outbox.cif.g09.slc.cpg/sg57_12_cif.got.tgz:22684.got - 2010.04.16 15:48:40.
