data_PCOD8231805
_publ_section_title
;
Structure prediction by ZEFSAII (Michael W. Deem and Ramdas Pophale) SiO2 
 PCOD8231805
Probable space group: P B C M
;
_chemical_formula_sum "Si O2"
_cell_formula_units_Z 40
_cell_length_a 8.700306
_cell_length_b 9.937163
_cell_length_c 21.336083
_cell_angle_alpha 90.000000
_cell_angle_beta 90.000000
_cell_angle_gamma 90.000000
_cell_volume 1844.640049
_symmetry_space_group_name_H-M "P B C M"
_symmetry_group_IT_number 57
_symmetry_cell_setting 'orthorhombic'
loop_
_space_group_symop_operation_xyz
x,y,z
-x,-y,1/2+z
x,1/2-y,-z
-x,1/2+y,1/2-z
-x,-y,-z
x,y,1/2-z
-x,1/2+y,z
x,1/2-y,1/2+z
loop_
_atom_site_type_symbol
_atom_site_label
_atom_site_fract_x
_atom_site_fract_y
_atom_site_fract_z
Si Si1 0.092382 0.238988 0.927365
Si Si2 0.381356 0.895433 0.026409
Si Si3 0.164481 0.946715 0.571449
Si Si4 0.324562 0.282058 0.817510
Si Si5 0.532187 0.516662 0.643494
O O1 0.067682 0.080675 0.913921
O O2 0.220300 0.296215 0.879651
O O3 0.934796 0.315631 0.911723
O O4 0.147417 0.250000 0.000000
O O5 0.403321 0.907377 0.100728
O O6 0.427444 0.750000 0.000000
O O7 0.500000 0.000000 0.000000
O O8 0.208216 0.934601 0.003067
O O9 0.326488 0.944619 0.607174
O O10 0.236345 0.297262 0.750000
O O11 0.401801 0.135014 0.813493
O O12 0.451616 0.399287 0.817719
#
# Coordination Sequence:
#
# PCOD8231805 Si02
#       5
#     8   8   8   8   8
#     4  11  23  40  60  89 124 160 200 248 305 367
#     4  10  19  34  59  93 124 153 194 252 313 367
#     4  10  22  37  60  90 124 159 198 251 305 368
#     4  11  24  42  62  88 122 162 207 257 310 371
#     4  10  21  39  64  90 120 160 206 258 313 369
#
# _framework density 21.684446000000001
#
# number of rings (size 3 to 8) (size 9 to 14) (size 15 to 20)
#    0.000    1.600    0.000    5.400    0.000   10.400 
#    0.000    5.000    0.000    0.000    0.000    0.000 
#    0.000    0.000    0.000    0.000    0.000    0.000 
#
# Total GULP energy -495563.845531 kJ/mol
# GULP energy per Si atom -12389.096138 kJ/mol
# Density = 2.163509 g / cm^3
# Si number density = 21.684446 Si / 1000 Ang^3
#
#
#
# Elastic Constant Matrix: (Units=GPa)
#
#
# Indices 1 2 3 4 5 6 
#
# 1 93.6575 57.6032 35.7145 0.0000 0.0000 0.0000
# 2 57.6032 140.5128 23.5552 0.0000 0.0000 0.0000
# 3 35.7145 23.5552 124.9400 0.0000 0.0000 0.0000
# 4 0.0000 0.0000 0.0000 9.4020 0.0000 0.0000
# 5 0.0000 0.0000 0.0000 0.0000 15.9097 0.0000
# 6 0.0000 0.0000 0.0000 0.0000 0.0000 43.2886
#
#
#
# Elastic Compliance Matrix: (Units=1/GPa)
#
#
# Indices 1 2 3 4 5 6 
#
# 1 0.015521 -0.005802 -0.003343 0.000000 0.000000 0.000000
# 2 -0.005802 0.009518 -0.000136 0.000000 0.000000 0.000000
# 3 -0.003343 -0.000136 0.008985 0.000000 0.000000 0.000000
# 4 0.000000 0.000000 0.000000 0.106361 0.000000 0.000000
# 5 0.000000 0.000000 0.000000 0.000000 0.062855 0.000000
# 6 0.000000 0.000000 0.000000 0.000000 0.000000 0.023101
#
#
# Mechanical properties :
#
#
# Convention : Reuss Voigt Hill
#
# Bulk Modulus (GPa) = 64.67460 65.87290 65.27375
# Shear Modulus (GPa) = 19.99556 29.86921 24.93238
#
# Velocity S-wave (km/s) = 3.03993 3.71543 3.39452
# Velocity P-wave (km/s) = 6.49705 6.98926 6.74764
#
# Compressibility (1/GPa) = 0.01546202
#
# Stress axis : x y z
#
# Youngs Moduli (GPa) = 64.43090 105.06178 111.29691
#
# Poissons Ratio (x) = 0.60960 0.37203
# Poissons Ratio (y) = 0.37385 0.01512
# Poissons Ratio (z) = 0.21537 0.01428
#
# Static dielectric constant tensor:
#      x y z
#    x 4.310010 0.000000 0.000000 
#    y 0.000000 4.071720 0.000000 
#    z 0.000000 0.000000 4.032950 
# 
# 
# High freq. dielectric constant tensor:
#      x y z
#    x 1.832400 0.000000 0.000000 
#    y 0.000000 1.878140 0.000000 
#    z 0.000000 0.000000 1.828360 
# 
# From -- ./inp_files/24134.got.cif
#   From: 2010.03.12/outbox.cif.g09.slc.cpg/sg57_13_cif.got.tgz:24134.got - 2010.04.16 15:48:40.
