data_PCOD8231898
_publ_section_title
;
Structure prediction by ZEFSAII (Michael W. Deem and Ramdas Pophale) SiO2 
 PCOD8231898
Probable space group: P B C M
;
_chemical_formula_sum "Si O2"
_cell_formula_units_Z 64
_cell_length_a 20.920312
_cell_length_b 18.610761
_cell_length_c 8.574379
_cell_angle_alpha 90.000000
_cell_angle_beta 90.000000
_cell_angle_gamma 90.000000
_cell_volume 3338.373814
_symmetry_space_group_name_H-M "P B C M"
_symmetry_group_IT_number 57
_symmetry_cell_setting 'orthorhombic'
loop_
_space_group_symop_operation_xyz
x,y,z
-x,-y,1/2+z
x,1/2-y,-z
-x,1/2+y,1/2-z
-x,-y,-z
x,y,1/2-z
-x,1/2+y,z
x,1/2-y,1/2+z
loop_
_atom_site_type_symbol
_atom_site_label
_atom_site_fract_x
_atom_site_fract_y
_atom_site_fract_z
Si Si1 0.602837 0.674079 0.931306
Si Si2 0.247957 0.326219 0.068908
Si Si3 0.186514 0.465289 0.932818
Si Si4 0.879187 0.173504 0.565336
Si Si5 0.936404 0.033975 0.066751
Si Si6 0.498209 0.921108 0.566777
Si Si7 0.616513 0.171028 0.565144
Si Si8 0.251929 0.892151 0.066328
O O1 0.584321 0.670880 0.750000
O O2 0.677364 0.661138 0.959504
O O3 0.580772 0.750000 0.000000
O O4 0.566474 0.613283 0.027260
O O5 0.230201 0.329405 0.250000
O O6 0.226226 0.250000 0.000000
O O7 0.210172 0.386721 0.976232
O O8 0.171591 0.470348 0.750000
O O9 0.240229 0.524491 0.980235
O O10 0.121796 0.481470 0.024545
O O11 0.901259 0.250000 0.500000
O O12 0.881533 0.174408 0.750000
O O13 0.927762 0.113064 0.505612
O O14 0.807553 0.155301 0.503947
O O15 0.942096 0.041924 0.250000
O O16 0.000000 0.000000 0.000000
O O17 0.486494 0.922343 0.750000
O O18 0.442139 0.877666 0.484798
O O19 0.500000 0.000000 0.500000
O O20 0.606245 0.250000 0.500000
O O21 0.619238 0.174598 0.750000
O O22 0.681829 0.136859 0.493668
O O23 0.256136 0.884431 0.250000
#
# Coordination Sequence:
#
# PCOD8231898 Si02
#       8
#     8   8   8   8   8   8   8   8
#     4  10  21  39  61  85 111 146 190 237 289 349
#     4  10  21  37  59  88 117 150 192 240 292 348
#     4  10  20  37  60  88 120 155 192 237 288 341
#     4  10  19  35  58  88 121 156 196 240 286 341
#     4  11  22  39  61  87 119 159 200 241 287 341
#     4  12  26  42  58  80 109 147 190 241 293 349
#     4  11  22  39  59  84 115 152 190 234 286 344
#     4   8  18  34  56  85 117 152 189 230 282 338
#
# _framework density 19.171009999999999
#
# number of rings (size 3 to 8) (size 9 to 14) (size 15 to 20)
#    0.000    1.750    0.000    5.625    1.750    1.500 
#    0.000    6.875    0.000    0.000    0.000    0.000 
#    0.000    0.000    0.000    0.000    0.000    0.000 
#
# Total GULP energy -793804.970614 kJ/mol
# GULP energy per Si atom -12403.202666 kJ/mol
# Density = 1.912738 g / cm^3
# Si number density = 19.171010 Si / 1000 Ang^3
#
#
#
# Elastic Constant Matrix: (Units=GPa)
#
#
# Indices 1 2 3 4 5 6 
#
# 1 85.6926 65.3209 29.5600 0.0000 0.0000 0.0000
# 2 65.3209 165.1707 41.0889 0.0000 0.0000 0.0000
# 3 29.5600 41.0889 92.6531 0.0000 0.0000 0.0000
# 4 0.0000 0.0000 0.0000 35.7672 0.0000 0.0000
# 5 0.0000 0.0000 0.0000 0.0000 27.4577 0.0000
# 6 0.0000 0.0000 0.0000 0.0000 0.0000 29.3139
#
#
#
# Elastic Compliance Matrix: (Units=1/GPa)
#
#
# Indices 1 2 3 4 5 6 
#
# 1 0.017328 -0.006157 -0.002798 0.000000 0.000000 0.000000
# 2 -0.006157 0.008993 -0.002024 0.000000 0.000000 0.000000
# 3 -0.002798 -0.002024 0.012583 0.000000 0.000000 0.000000
# 4 0.000000 0.000000 0.000000 0.027959 0.000000 0.000000
# 5 0.000000 0.000000 0.000000 0.000000 0.036420 0.000000
# 6 0.000000 0.000000 0.000000 0.000000 0.000000 0.034114
#
#
# Mechanical properties :
#
#
# Convention : Reuss Voigt Hill
#
# Bulk Modulus (GPa) = 59.00831 68.38399 63.69615
# Shear Modulus (GPa) = 30.30286 32.34419 31.32352
#
# Velocity S-wave (km/s) = 3.98007 4.11194 4.04654
# Velocity P-wave (km/s) = 7.20888 7.63492 7.42496
#
# Compressibility (1/GPa) = 0.01694677
#
# Stress axis : x y z
#
# Youngs Moduli (GPa) = 57.71057 111.20262 79.47185
#
# Poissons Ratio (x) = 0.68464 0.22236
# Poissons Ratio (y) = 0.35531 0.16083
# Poissons Ratio (z) = 0.16147 0.22504
#
# Static dielectric constant tensor:
#      x y z
#    x 3.600970 0.000000 0.000000 
#    y 0.000000 3.269880 0.000000 
#    z 0.000000 0.000000 3.535110 
# 
# 
# High freq. dielectric constant tensor:
#      x y z
#    x 1.739620 0.000000 0.000000 
#    y 0.000000 1.757020 0.000000 
#    z 0.000000 0.000000 1.751720 
# 
# From -- ./inp_files/7128.got.cif
#   From: 2010.03.12/outbox.cif.g09.slc.cpg/sg57_4_cif.got.tgz:7128.got - 2010.04.16 15:48:40.
