data_PCOD8231272
_publ_section_title
;
Structure prediction by ZEFSAII (Michael W. Deem and Ramdas Pophale) SiO2 
 PCOD8231272
Probable space group: P B C M
;
_chemical_formula_sum "Si O2"
_cell_formula_units_Z 64
_cell_length_a 20.080978
_cell_length_b 19.868873
_cell_length_c 9.034744
_cell_angle_alpha 90.000000
_cell_angle_beta 90.000000
_cell_angle_gamma 90.000000
_cell_volume 3604.739998
_symmetry_space_group_name_H-M "P B C M"
_symmetry_group_IT_number 57
_symmetry_cell_setting 'orthorhombic'
loop_
_space_group_symop_operation_xyz
x,y,z
-x,-y,1/2+z
x,1/2-y,-z
-x,1/2+y,1/2-z
-x,-y,-z
x,y,1/2-z
-x,1/2+y,z
x,1/2-y,1/2+z
loop_
_atom_site_type_symbol
_atom_site_label
_atom_site_fract_x
_atom_site_fract_y
_atom_site_fract_z
Si Si1 0.517355 0.569424 0.576096
Si Si2 0.305382 0.593688 0.422268
Si Si3 0.920605 0.819657 0.423868
Si Si4 0.841594 0.056058 0.078528
Si Si5 0.336502 0.445327 0.075379
Si Si6 0.026196 0.932884 0.076189
Si Si7 0.197298 0.092266 0.925653
Si Si8 0.589260 0.320524 0.074547
O O1 0.500000 0.500000 0.500000
O O2 0.511186 0.557786 0.750000
O O3 0.593500 0.588859 0.531165
O O4 0.469095 0.628683 0.522694
O O5 0.323159 0.603844 0.250000
O O6 0.226019 0.598283 0.447663
O O7 0.332910 0.522149 0.483198
O O8 0.339931 0.652320 0.516911
O O9 0.937676 0.750000 0.500000
O O10 0.916685 0.807690 0.250000
O O11 0.849927 0.848386 0.486789
O O12 0.978063 0.871797 0.465937
O O13 0.862248 0.057880 0.250000
O O14 0.831567 0.979564 0.024154
O O15 0.900698 0.087744 0.981968
O O16 0.327322 0.450612 0.250000
O O17 0.273743 0.401465 0.013959
O O18 0.028024 0.945614 0.250000
O O19 0.000000 0.000000 0.000000
O O20 0.196059 0.094920 0.750000
O O21 0.591802 0.311974 0.250000
O O22 0.572300 0.250000 0.000000
#
# Coordination Sequence:
#
# PCOD8231272 Si02
#       8
#     8   8   8   8   8   8   8   8
#     4  10  19  32  53  81 107 137 178 223 268 318
#     4   9  17  32  56  80 104 137 173 215 270 329
#     4  10  21  36  53  75 106 141 178 216 262 317
#     4   9  17  32  55  82 107 132 171 219 270 322
#     4   8  14  27  52  79 102 132 169 209 261 317
#     4  11  21  34  54  80 110 143 180 227 271 317
#     4   8  14  29  51  75 103 134 168 209 255 315
#     4  11  23  36  52  76 110 147 184 225 271 326
#
# _framework density 17.7544
#
# number of rings (size 3 to 8) (size 9 to 14) (size 15 to 20)
#    0.000    2.500    2.500    2.250    0.000    2.000 
#    0.000    1.250    0.000    2.250    0.000    0.000 
#    0.000    0.000    0.000    0.000    0.000    0.000 
#
# Total GULP energy -793340.460708 kJ/mol
# GULP energy per Si atom -12395.944699 kJ/mol
# Density = 1.771399 g / cm^3
# Si number density = 17.754400 Si / 1000 Ang^3
#
#
#
# Elastic Constant Matrix: (Units=GPa)
#
#
# Indices 1 2 3 4 5 6 
#
# 1 146.8870 71.0210 47.5167 0.0000 0.0000 0.0000
# 2 71.0210 117.3435 46.1250 0.0000 0.0000 0.0000
# 3 47.5167 46.1250 48.2624 0.0000 0.0000 0.0000
# 4 0.0000 0.0000 0.0000 24.0499 0.0000 0.0000
# 5 0.0000 0.0000 0.0000 0.0000 24.9423 0.0000
# 6 0.0000 0.0000 0.0000 0.0000 0.0000 25.2740
#
#
#
# Elastic Compliance Matrix: (Units=1/GPa)
#
#
# Indices 1 2 3 4 5 6 
#
# 1 0.010971 -0.003835 -0.007136 0.000000 0.000000 0.000000
# 2 -0.003835 0.014990 -0.010551 0.000000 0.000000 0.000000
# 3 -0.007136 -0.010551 0.037829 0.000000 0.000000 0.000000
# 4 0.000000 0.000000 0.000000 0.041580 0.000000 0.000000
# 5 0.000000 0.000000 0.000000 0.000000 0.040093 0.000000
# 6 0.000000 0.000000 0.000000 0.000000 0.000000 0.039566
#
#
# Mechanical properties :
#
#
# Convention : Reuss Voigt Hill
#
# Bulk Modulus (GPa) = 48.20014 71.31315 59.75664
# Shear Modulus (GPa) = 21.27765 24.70858 22.99312
#
# Velocity S-wave (km/s) = 3.46561 3.73458 3.60261
# Velocity P-wave (km/s) = 6.57428 7.67136 7.14391
#
# Compressibility (1/GPa) = 0.02074683
#
# Stress axis : x y z
#
# Youngs Moduli (GPa) = 91.15283 66.71009 26.43446
#
# Poissons Ratio (x) = 0.25582 0.18864
# Poissons Ratio (y) = 0.34955 0.27890
# Poissons Ratio (z) = 0.65048 0.70384
#
# Static dielectric constant tensor:
#      x y z
#    x 3.908760 0.000000 0.000000 
#    y 0.000000 3.144500 0.000000 
#    z 0.000000 0.000000 3.022910 
# 
# 
# High freq. dielectric constant tensor:
#      x y z
#    x 1.706610 0.000000 0.000000 
#    y 0.000000 1.659540 0.000000 
#    z 0.000000 0.000000 1.661410 
# 
# From -- ./inp_files/8458.got.cif
#   From: 2010.03.12/outbox.cif.g09.slc.cpg/sg57_5_cif.got.tgz:8458.got - 2010.04.16 15:48:40.
