data_PCOD8231231
_publ_section_title
;
Structure prediction by ZEFSAII (Michael W. Deem and Ramdas Pophale) SiO2 
 PCOD8231231
Probable space group: P B C M
;
_chemical_formula_sum "Si O2"
_cell_formula_units_Z 64
_cell_length_a 17.278026
_cell_length_b 23.359604
_cell_length_c 9.108683
_cell_angle_alpha 90.000000
_cell_angle_beta 90.000000
_cell_angle_gamma 90.000000
_cell_volume 3676.335919
_symmetry_space_group_name_H-M "P B C M"
_symmetry_group_IT_number 57
_symmetry_cell_setting 'orthorhombic'
loop_
_space_group_symop_operation_xyz
x,y,z
-x,-y,1/2+z
x,1/2-y,-z
-x,1/2+y,1/2-z
-x,-y,-z
x,y,1/2-z
-x,1/2+y,z
x,1/2-y,1/2+z
loop_
_atom_site_type_symbol
_atom_site_label
_atom_site_fract_x
_atom_site_fract_y
_atom_site_fract_z
Si Si1 0.726778 0.807341 0.923704
Si Si2 0.450762 0.193450 0.421107
Si Si3 0.320310 0.971351 0.421404
Si Si4 0.918665 0.490800 0.075248
Si Si5 0.582508 0.390397 0.577400
Si Si6 0.281150 0.807837 0.915931
Si Si7 0.182659 0.590013 0.081798
Si Si8 0.781917 0.572940 0.420139
O O1 0.736317 0.800633 0.750000
O O2 0.637591 0.817067 0.968145
O O3 0.773130 0.862969 0.985994
O O4 0.759842 0.750000 0.000000
O O5 0.484164 0.250000 0.500000
O O6 0.459169 0.205530 0.250000
O O7 0.499368 0.136673 0.464038
O O8 0.312639 0.954843 0.250000
O O9 0.403510 0.949966 0.485681
O O10 0.259252 0.939389 0.522190
O O11 0.299688 0.038662 0.442771
O O12 0.926603 0.490660 0.250000
O O13 0.856564 0.538503 0.017122
O O14 0.889381 0.428669 0.019655
O O15 0.000000 0.500000 0.000000
O O16 0.589176 0.404273 0.750000
O O17 0.646718 0.344647 0.523917
O O18 0.300170 0.791794 0.750000
O O19 0.199662 0.842239 0.928977
O O20 0.269782 0.750000 0.000000
O O21 0.167418 0.571415 0.250000
O O22 0.798169 0.580137 0.250000
#
# Coordination Sequence:
#
# PCOD8231231 Si02
#       8
#     8   8   8   8   8   8   8   8
#     4   9  17  32  51  70  92 121 156 196 236 279
#     4   9  17  28  44  63  87 120 159 201 246 285
#     4   9  16  27  44  65  87 120 159 192 229 277
#     4  10  19  32  52  77  98 120 148 181 224 276
#     4   9  17  28  39  59  90 122 155 197 244 281
#     4   9  17  26  39  59  86 119 154 187 222 262
#     4   9  17  30  45  65  94 123 149 185 227 268
#     4   8  16  31  50  70  95 123 151 183 229 282
#
# _framework density 17.408636999999999
#
# number of rings (size 3 to 8) (size 9 to 14) (size 15 to 20)
#    0.000    3.000    0.000    3.000    0.000    3.000 
#    0.000    4.375    0.000    0.750    0.000    1.750 
#    0.000    0.000    0.000    0.000    0.000    0.000 
#
# Total GULP energy -792878.324753 kJ/mol
# GULP energy per Si atom -12388.723824 kJ/mol
# Density = 1.736901 g / cm^3
# Si number density = 17.408637 Si / 1000 Ang^3
#
#
#
# Elastic Constant Matrix: (Units=GPa)
#
#
# Indices 1 2 3 4 5 6 
#
# 1 60.3310 35.1041 23.2896 0.0000 0.0000 0.0000
# 2 35.1041 99.4709 33.5628 0.0000 0.0000 0.0000
# 3 23.2896 33.5628 52.9963 0.0000 0.0000 0.0000
# 4 0.0000 0.0000 0.0000 28.0611 0.0000 0.0000
# 5 0.0000 0.0000 0.0000 0.0000 19.5643 0.0000
# 6 0.0000 0.0000 0.0000 0.0000 0.0000 20.4208
#
#
#
# Elastic Compliance Matrix: (Units=1/GPa)
#
#
# Indices 1 2 3 4 5 6 
#
# 1 0.022322 -0.005809 -0.006131 0.000000 0.000000 0.000000
# 2 -0.005809 0.014297 -0.006502 0.000000 0.000000 0.000000
# 3 -0.006131 -0.006502 0.025681 0.000000 0.000000 0.000000
# 4 0.000000 0.000000 0.000000 0.035637 0.000000 0.000000
# 5 0.000000 0.000000 0.000000 0.000000 0.051113 0.000000
# 6 0.000000 0.000000 0.000000 0.000000 0.000000 0.048970
#
#
# Mechanical properties :
#
#
# Convention : Reuss Voigt Hill
#
# Bulk Modulus (GPa) = 39.34321 44.07902 41.71112
# Shear Modulus (GPa) = 20.54449 21.66534 21.10491
#
# Velocity S-wave (km/s) = 3.43903 3.53160 3.48562
# Velocity P-wave (km/s) = 6.19824 6.48111 6.34125
#
# Compressibility (1/GPa) = 0.02541735
#
# Stress axis : x y z
#
# Youngs Moduli (GPa) = 44.79909 69.94494 38.93954
#
# Poissons Ratio (x) = 0.40631 0.23872
# Poissons Ratio (y) = 0.26024 0.25317
# Poissons Ratio (z) = 0.27465 0.45475
#
# Static dielectric constant tensor:
#      x y z
#    x 3.227980 0.000000 0.000000 
#    y 0.000000 3.572360 0.000000 
#    z 0.000000 0.000000 3.378520 
# 
# 
# High freq. dielectric constant tensor:
#      x y z
#    x 1.642740 0.000000 0.000000 
#    y 0.000000 1.665740 0.000000 
#    z 0.000000 0.000000 1.665390 
# 
# From -- ./inp_files/7385.got.cif
#   From: 2010.03.12/outbox.cif.g09.slc.cpg/sg57_4_cif.got.tgz:7385.got - 2010.04.16 15:48:40.
