data_PCOD8231907
_publ_section_title
;
Structure prediction by ZEFSAII (Michael W. Deem and Ramdas Pophale) SiO2 
 PCOD8231907
Probable space group: P B C M
;
_chemical_formula_sum "Si O2"
_cell_formula_units_Z 64
_cell_length_a 11.704806
_cell_length_b 30.496716
_cell_length_c 8.892051
_cell_angle_alpha 90.000000
_cell_angle_beta 90.000000
_cell_angle_gamma 90.000000
_cell_volume 3174.090025
_symmetry_space_group_name_H-M "P B C M"
_symmetry_group_IT_number 57
_symmetry_cell_setting 'orthorhombic'
loop_
_space_group_symop_operation_xyz
x,y,z
-x,-y,1/2+z
x,1/2-y,-z
-x,1/2+y,1/2-z
-x,-y,-z
x,y,1/2-z
-x,1/2+y,z
x,1/2-y,1/2+z
loop_
_atom_site_type_symbol
_atom_site_label
_atom_site_fract_x
_atom_site_fract_y
_atom_site_fract_z
Si Si1 0.920534 0.031528 0.087515
Si Si2 0.429376 0.297887 0.430982
Si Si3 0.946885 0.621926 0.416090
Si Si4 0.272713 0.936541 0.088159
Si Si5 0.479805 0.047819 0.572328
Si Si6 0.666817 0.295163 0.573062
Si Si7 0.314089 0.381537 0.928758
Si Si8 0.146783 0.653755 0.914900
O O1 0.908019 0.010743 0.250000
O O2 0.977670 0.078672 0.091341
O O3 0.791313 0.030924 0.024814
O O4 0.000000 0.000000 0.000000
O O5 0.397441 0.250000 0.500000
O O6 0.424743 0.295570 0.250000
O O7 0.555048 0.312351 0.485980
O O8 0.346385 0.335607 0.492166
O O9 0.941217 0.643512 0.250000
O O10 0.818894 0.611541 0.470886
O O11 0.014730 0.654399 0.529150
O O12 0.279236 0.960664 0.250000
O O13 0.402211 0.925759 0.038736
O O14 0.194419 0.894520 0.104825
O O15 0.452975 0.043964 0.750000
O O16 0.381004 0.076267 0.493385
O O17 0.500000 0.000000 0.500000
O O18 0.704176 0.250000 0.500000
O O19 0.640589 0.291404 0.750000
O O20 0.774927 0.325620 0.544004
O O21 0.335411 0.378584 0.750000
O O22 0.151849 0.677178 0.750000
#
# Coordination Sequence:
#
# PCOD8231907 Si02
#       8
#     8   8   8   8   8   8   8   8
#     4  10  20  34  55  81 108 141 185 238 289 345
#     4  11  22  39  63  93 125 158 201 250 301 362
#     4   9  21  39  57  80 113 154 197 242 295 357
#     4   9  20  37  55  76 106 143 183 231 284 337
#     4  11  24  40  58  84 119 158 202 252 303 362
#     4  11  21  35  58  88 121 154 190 237 291 351
#     4  11  23  41  63  87 120 163 205 251 307 368
#     4  10  19  35  59  85 113 145 188 240 293 350
#
# _framework density 20.163257999999999
#
# number of rings (size 3 to 8) (size 9 to 14) (size 15 to 20)
#    0.000    1.750    0.000    5.250    1.750    4.000 
#    0.000    0.625    0.000    3.000    0.000    0.000 
#    0.000    0.000    0.000    0.000    0.000    0.000 
#
# Total GULP energy -793093.108009 kJ/mol
# GULP energy per Si atom -12392.079813 kJ/mol
# Density = 2.011737 g / cm^3
# Si number density = 20.163258 Si / 1000 Ang^3
#
#
#
# Elastic Constant Matrix: (Units=GPa)
#
#
# Indices 1 2 3 4 5 6 
#
# 1 124.4569 18.0816 49.2363 0.0000 0.0000 0.0000
# 2 18.0816 46.8682 30.0388 0.0000 0.0000 0.0000
# 3 49.2363 30.0388 147.7684 0.0000 0.0000 0.0000
# 4 0.0000 0.0000 0.0000 33.3923 0.0000 0.0000
# 5 0.0000 0.0000 0.0000 0.0000 31.6467 0.0000
# 6 0.0000 0.0000 0.0000 0.0000 0.0000 23.6485
#
#
#
# Elastic Compliance Matrix: (Units=1/GPa)
#
#
# Indices 1 2 3 4 5 6 
#
# 1 0.009394 -0.001860 -0.002752 0.000000 0.000000 0.000000
# 2 -0.001860 0.024901 -0.004442 0.000000 0.000000 0.000000
# 3 -0.002752 -0.004442 0.008587 0.000000 0.000000 0.000000
# 4 0.000000 0.000000 0.000000 0.029947 0.000000 0.000000
# 5 0.000000 0.000000 0.000000 0.000000 0.031599 0.000000
# 6 0.000000 0.000000 0.000000 0.000000 0.000000 0.042286
#
#
# Mechanical properties :
#
#
# Convention : Reuss Voigt Hill
#
# Bulk Modulus (GPa) = 40.36551 57.08965 48.72758
# Shear Modulus (GPa) = 28.88825 32.51996 30.70411
#
# Velocity S-wave (km/s) = 3.78923 4.02037 3.90651
# Velocity P-wave (km/s) = 6.26156 7.06585 6.67583
#
# Compressibility (1/GPa) = 0.02477362
#
# Stress axis : x y z
#
# Youngs Moduli (GPa) = 106.45263 40.15873 116.45163
#
# Poissons Ratio (x) = 0.07471 0.32046
# Poissons Ratio (y) = 0.19804 0.51729
# Poissons Ratio (z) = 0.29294 0.17839
#
# Static dielectric constant tensor:
#      x y z
#    x 3.783640 0.000000 0.000000 
#    y 0.000000 3.585810 0.000000 
#    z 0.000000 0.000000 4.164230 
# 
# 
# High freq. dielectric constant tensor:
#      x y z
#    x 1.793390 0.000000 0.000000 
#    y 0.000000 1.764700 0.000000 
#    z 0.000000 0.000000 1.805250 
# 
# From -- ./inp_files/3728.got.cif
#   From: 2010.03.12/outbox.cif.g09.slc.cpg/sg57_2_cif.got.tgz:3728.got - 2010.04.16 15:48:40.
