data_PCOD8231099
_publ_section_title
;
Structure prediction by ZEFSAII (Michael W. Deem and Ramdas Pophale) SiO2 
 PCOD8231099
Probable space group: P B C M
;
_chemical_formula_sum "Si O2"
_cell_formula_units_Z 56
_cell_length_a 18.997980
_cell_length_b 18.322971
_cell_length_c 9.317147
_cell_angle_alpha 90.000000
_cell_angle_beta 90.000000
_cell_angle_gamma 90.000000
_cell_volume 3243.293621
_symmetry_space_group_name_H-M "P B C M"
_symmetry_group_IT_number 57
_symmetry_cell_setting 'orthorhombic'
loop_
_space_group_symop_operation_xyz
x,y,z
-x,-y,1/2+z
x,1/2-y,-z
-x,1/2+y,1/2-z
-x,-y,-z
x,y,1/2-z
-x,1/2+y,z
x,1/2-y,1/2+z
loop_
_atom_site_type_symbol
_atom_site_label
_atom_site_fract_x
_atom_site_fract_y
_atom_site_fract_z
Si Si1 0.860430 0.676941 0.419648
Si Si2 0.722783 0.902699 0.579988
Si Si3 0.566822 0.177296 0.413177
Si Si4 0.719865 0.173268 0.081083
Si Si5 0.789849 0.048996 0.916009
Si Si6 0.934570 0.529722 0.085911
Si Si7 0.415371 0.325866 0.582090
O O1 0.884870 0.750000 0.500000
O O2 0.862786 0.690651 0.250000
O O3 0.781638 0.655253 0.471964
O O4 0.912737 0.611149 0.464073
O O5 0.727854 0.906358 0.750000
O O6 0.645603 0.879512 0.524004
O O7 0.740101 0.983856 0.524139
O O8 0.563810 0.250000 0.500000
O O9 0.567255 0.202770 0.250000
O O10 0.641276 0.137443 0.446026
O O11 0.492468 0.135367 0.444867
O O12 0.735005 0.184218 0.250000
O O13 0.725980 0.250000 0.000000
O O14 0.776927 0.119345 0.013986
O O15 0.773226 0.067452 0.750000
O O16 0.870395 0.025979 0.935628
O O17 0.957591 0.532645 0.250000
O O18 0.000000 0.500000 0.000000
O O19 0.409444 0.250000 0.500000
O O20 0.403161 0.310140 0.750000
#
# Coordination Sequence:
#
# PCOD8231099 Si02
#       7
#     8   8   8   8   8   8   8
#     4   9  17  30  48  73 100 126 157 192 226 269
#     4   8  15  28  46  66  93 127 158 187 227 276
#     4   8  15  26  41  62  89 119 154 194 235 275
#     4  10  19  32  50  71  93 120 156 200 242 281
#     4   9  18  34  52  70  93 123 156 190 230 281
#     4   9  19  35  54  74  99 128 158 191 231 279
#     4   9  15  25  42  64  90 123 159 194 231 273
#
# _framework density 17.266397999999999
#
# number of rings (size 3 to 8) (size 9 to 14) (size 15 to 20)
#    0.000    3.143    0.000    2.571    0.000    1.714 
#    0.000    4.286    0.000    1.714    0.000    0.000 
#    0.000    0.000    0.000    0.000    0.000    0.000 
#
# Total GULP energy -693731.621212 kJ/mol
# GULP energy per Si atom -12388.064664 kJ/mol
# Density = 1.722710 g / cm^3
# Si number density = 17.266398 Si / 1000 Ang^3
#
#
#
# Elastic Constant Matrix: (Units=GPa)
#
#
# Indices 1 2 3 4 5 6 
#
# 1 95.2656 56.3984 43.4316 0.0000 0.0000 0.0000
# 2 56.3984 97.7385 43.7202 0.0000 0.0000 0.0000
# 3 43.4316 43.7202 57.4546 0.0000 0.0000 0.0000
# 4 0.0000 0.0000 0.0000 27.0767 0.0000 0.0000
# 5 0.0000 0.0000 0.0000 0.0000 24.8769 0.0000
# 6 0.0000 0.0000 0.0000 0.0000 0.0000 23.4386
#
#
#
# Elastic Compliance Matrix: (Units=1/GPa)
#
#
# Indices 1 2 3 4 5 6 
#
# 1 0.018526 -0.006710 -0.008899 0.000000 0.000000 0.000000
# 2 -0.006710 0.017941 -0.008580 0.000000 0.000000 0.000000
# 3 -0.008899 -0.008580 0.030661 0.000000 0.000000 0.000000
# 4 0.000000 0.000000 0.000000 0.036932 0.000000 0.000000
# 5 0.000000 0.000000 0.000000 0.000000 0.040198 0.000000
# 6 0.000000 0.000000 0.000000 0.000000 0.000000 0.042665
#
#
# Mechanical properties :
#
#
# Convention : Reuss Voigt Hill
#
# Bulk Modulus (GPa) = 53.33063 59.72879 56.52971
# Shear Modulus (GPa) = 20.69956 22.20567 21.45262
#
# Velocity S-wave (km/s) = 3.46618 3.59006 3.52866
# Velocity P-wave (km/s) = 6.85370 7.20086 7.02942
#
# Compressibility (1/GPa) = 0.01875095
#
# Stress axis : x y z
#
# Youngs Moduli (GPa) = 53.97805 55.73756 32.61451
#
# Poissons Ratio (x) = 0.37398 0.29023
# Poissons Ratio (y) = 0.36217 0.27985
# Poissons Ratio (z) = 0.48034 0.47825
#
# Static dielectric constant tensor:
#      x y z
#    x 3.531070 0.000000 0.000000 
#    y 0.000000 2.904300 0.000000 
#    z 0.000000 0.000000 3.040530 
# 
# 
# High freq. dielectric constant tensor:
#      x y z
#    x 1.672660 0.000000 0.000000 
#    y 0.000000 1.641100 0.000000 
#    z 0.000000 0.000000 1.654470 
# 
# From -- ./inp_files/8368.got.cif
#   From: 2010.03.12/outbox.cif.g09.slc.cpg/sg57_5_cif.got.tgz:8368.got - 2010.04.16 15:48:40.
