data_PCOD8231488
_publ_section_title
;
Structure prediction by ZEFSAII (Michael W. Deem and Ramdas Pophale) SiO2 
 PCOD8231488
Probable space group: P B C M
;
_chemical_formula_sum "Si O2"
_cell_formula_units_Z 40
_cell_length_a 11.558809
_cell_length_b 21.396251
_cell_length_c 8.566999
_cell_angle_alpha 90.000000
_cell_angle_beta 90.000000
_cell_angle_gamma 90.000000
_cell_volume 2118.748888
_symmetry_space_group_name_H-M "P B C M"
_symmetry_group_IT_number 57
_symmetry_cell_setting 'orthorhombic'
loop_
_space_group_symop_operation_xyz
x,y,z
-x,-y,1/2+z
x,1/2-y,-z
-x,1/2+y,1/2-z
-x,-y,-z
x,y,1/2-z
-x,1/2+y,z
x,1/2-y,1/2+z
loop_
_atom_site_type_symbol
_atom_site_label
_atom_site_fract_x
_atom_site_fract_y
_atom_site_fract_z
Si Si1 0.074790 0.057285 0.067455
Si Si2 0.462125 0.584011 0.430153
Si Si3 0.321917 0.462063 0.068998
Si Si4 0.032695 0.819141 0.066225
Si Si5 0.276041 0.815178 0.932008
O O1 0.049897 0.059838 0.250000
O O2 0.209048 0.045278 0.035374
O O3 0.048133 0.125442 0.996259
O O4 0.000000 0.000000 0.000000
O O5 0.496651 0.578073 0.250000
O O6 0.580749 0.589968 0.529147
O O7 0.381530 0.526602 0.481247
O O8 0.387098 0.644004 0.467559
O O9 0.286408 0.459514 0.250000
O O10 0.018559 0.815284 0.250000
O O11 0.001044 0.750000 0.000000
O O12 0.162457 0.839429 0.020868
O O13 0.244411 0.811968 0.750000
O O14 0.315027 0.750000 0.000000
#
# Coordination Sequence:
#
# PCOD8231488 Si02
#       5
#     8   8   8   8   8
#     4  12  24  39  59  85 116 149 190 236 283 335
#     4   9  19  35  54  77 108 142 176 221 275 327
#     4  10  20  35  56  81 108 140 180 225 277 331
#     4  11  22  38  59  84 115 151 190 232 283 337
#     4  10  19  33  54  80 110 143 182 225 270 322
#
# _framework density 18.879066000000002
#
# number of rings (size 3 to 8) (size 9 to 14) (size 15 to 20)
#    0.000    1.600    0.000    7.200    0.000    4.000 
#    0.000    1.000    0.000    2.400    0.000    0.000 
#    0.000    0.000    0.000    0.000    0.000    0.000 
#
# Total GULP energy -495949.772553 kJ/mol
# GULP energy per Si atom -12398.744314 kJ/mol
# Density = 1.883610 g / cm^3
# Si number density = 18.879066 Si / 1000 Ang^3
#
#
#
# Elastic Constant Matrix: (Units=GPa)
#
#
# Indices 1 2 3 4 5 6 
#
# 1 116.8910 57.8954 45.1213 0.0000 0.0000 0.0000
# 2 57.8954 87.7592 44.1501 0.0000 0.0000 0.0000
# 3 45.1213 44.1501 120.0993 0.0000 0.0000 0.0000
# 4 0.0000 0.0000 0.0000 31.8400 0.0000 0.0000
# 5 0.0000 0.0000 0.0000 0.0000 35.8701 0.0000
# 6 0.0000 0.0000 0.0000 0.0000 0.0000 27.4184
#
#
#
# Elastic Compliance Matrix: (Units=1/GPa)
#
#
# Indices 1 2 3 4 5 6 
#
# 1 0.013143 -0.007590 -0.002148 0.000000 0.000000 0.000000
# 2 -0.007590 0.018364 -0.003899 0.000000 0.000000 0.000000
# 3 -0.002148 -0.003899 0.010567 0.000000 0.000000 0.000000
# 4 0.000000 0.000000 0.000000 0.031407 0.000000 0.000000
# 5 0.000000 0.000000 0.000000 0.000000 0.027878 0.000000
# 6 0.000000 0.000000 0.000000 0.000000 0.000000 0.036472
#
#
# Mechanical properties :
#
#
# Convention : Reuss Voigt Hill
#
# Bulk Modulus (GPa) = 67.56902 68.78703 68.17802
# Shear Modulus (GPa) = 29.40504 30.86453 30.13479
#
# Velocity S-wave (km/s) = 3.95086 4.04772 3.99958
# Velocity P-wave (km/s) = 7.52865 7.63938 7.58421
#
# Compressibility (1/GPa) = 0.01479968
#
# Stress axis : x y z
#
# Youngs Moduli (GPa) = 76.08331 54.45493 94.63718
#
# Poissons Ratio (x) = 0.41333 0.20325
# Poissons Ratio (y) = 0.57750 0.36900
# Poissons Ratio (z) = 0.16340 0.21232
#
# Static dielectric constant tensor:
#      x y z
#    x 3.513200 0.000000 0.000000 
#    y 0.000000 3.629700 0.000000 
#    z 0.000000 0.000000 3.604040 
# 
# 
# High freq. dielectric constant tensor:
#      x y z
#    x 1.734200 0.000000 0.000000 
#    y 0.000000 1.731360 0.000000 
#    z 0.000000 0.000000 1.747240 
# 
# From -- ./inp_files/2882.got.cif
#   From: 2010.03.12/outbox.cif.g09.slc.cpg/sg57_2_cif.got.tgz:2882.got - 2010.04.16 15:48:40.
