data_PCOD8231429
_publ_section_title
;
Structure prediction by ZEFSAII (Michael W. Deem and Ramdas Pophale) SiO2 
 PCOD8231429
Probable space group: P B C M
;
_chemical_formula_sum "Si O2"
_cell_formula_units_Z 64
_cell_length_a 20.464085
_cell_length_b 19.238677
_cell_length_c 8.589299
_cell_angle_alpha 90.000000
_cell_angle_beta 90.000000
_cell_angle_gamma 90.000000
_cell_volume 3381.623520
_symmetry_space_group_name_H-M "P B C M"
_symmetry_group_IT_number 57
_symmetry_cell_setting 'orthorhombic'
loop_
_space_group_symop_operation_xyz
x,y,z
-x,-y,1/2+z
x,1/2-y,-z
-x,1/2+y,1/2-z
-x,-y,-z
x,y,1/2-z
-x,1/2+y,z
x,1/2-y,1/2+z
loop_
_atom_site_type_symbol
_atom_site_label
_atom_site_fract_x
_atom_site_fract_y
_atom_site_fract_z
Si Si1 0.005235 0.824834 0.430088
Si Si2 0.605262 0.065927 0.433142
Si Si3 0.247763 0.932450 0.567791
Si Si4 0.500380 0.325751 0.566257
Si Si5 0.386580 0.410352 0.433211
Si Si6 0.752253 0.921324 0.931239
Si Si7 0.146306 0.827343 0.065757
Si Si8 0.136203 0.172533 0.565701
O O1 0.004374 0.750000 0.500000
O O2 0.006967 0.811092 0.250000
O O3 0.936017 0.861551 0.472664
O O4 0.074418 0.861342 0.475854
O O5 0.596196 0.065136 0.250000
O O6 0.678447 0.089505 0.478346
O O7 0.553726 0.120378 0.505850
O O8 0.592570 0.987292 0.494450
O O9 0.243344 0.949819 0.750000
O O10 0.200662 0.870287 0.523656
O O11 0.226810 0.000546 0.473290
O O12 0.514805 0.250000 0.500000
O O13 0.505918 0.321492 0.750000
O O14 0.428785 0.351921 0.519009
O O15 0.396890 0.402807 0.250000
O O16 0.311000 0.397116 0.472321
O O17 0.736207 0.915446 0.750000
O O18 0.811869 0.872351 0.974061
O O19 0.160017 0.827925 0.250000
O O20 0.150318 0.750000 0.000000
O O21 0.140170 0.250000 0.500000
O O22 0.150465 0.172129 0.750000
#
# Coordination Sequence:
#
# PCOD8231429 Si02
#       8
#     8   8   8   8   8   8   8   8
#     4   8  16  30  50  74 104 138 177 219 265 318
#     4   8  18  36  58  79 104 137 177 218 262 314
#     4  10  20  37  57  80 109 143 180 224 270 317
#     4  11  22  37  55  81 112 141 172 215 263 310
#     4  10  20  38  60  81 104 138 178 218 262 315
#     4  11  22  37  56  81 109 141 178 220 266 320
#     4  10  19  33  53  80 109 142 181 224 269 320
#     4  10  19  34  55  80 107 140 178 222 270 320
#
# _framework density 18.925820999999999
#
# number of rings (size 3 to 8) (size 9 to 14) (size 15 to 20)
#    0.000    2.250    0.000    4.125    0.000    2.000 
#    0.000   11.250    0.000    0.000    0.000    0.000 
#    0.000    0.000    0.000    0.000    0.000    0.000 
#
# Total GULP energy -793191.080766 kJ/mol
# GULP energy per Si atom -12393.610637 kJ/mol
# Density = 1.888274 g / cm^3
# Si number density = 18.925821 Si / 1000 Ang^3
#
#
#
# Elastic Constant Matrix: (Units=GPa)
#
#
# Indices 1 2 3 4 5 6 
#
# 1 103.6916 48.2131 22.5855 0.0000 0.0000 0.0000
# 2 48.2131 70.2305 21.7497 0.0000 0.0000 0.0000
# 3 22.5855 21.7497 57.5724 0.0000 0.0000 0.0000
# 4 0.0000 0.0000 0.0000 30.2544 0.0000 0.0000
# 5 0.0000 0.0000 0.0000 0.0000 26.0098 0.0000
# 6 0.0000 0.0000 0.0000 0.0000 0.0000 26.5759
#
#
#
# Elastic Compliance Matrix: (Units=1/GPa)
#
#
# Indices 1 2 3 4 5 6 
#
# 1 0.014401 -0.009215 -0.002168 0.000000 0.000000 0.000000
# 2 -0.009215 0.022022 -0.004704 0.000000 0.000000 0.000000
# 3 -0.002168 -0.004704 0.019997 0.000000 0.000000 0.000000
# 4 0.000000 0.000000 0.000000 0.033053 0.000000 0.000000
# 5 0.000000 0.000000 0.000000 0.000000 0.038447 0.000000
# 6 0.000000 0.000000 0.000000 0.000000 0.000000 0.037628
#
#
# Mechanical properties :
#
#
# Convention : Reuss Voigt Hill
#
# Bulk Modulus (GPa) = 41.24572 46.28792 43.76682
# Shear Modulus (GPa) = 24.29496 25.83111 25.06303
#
# Velocity S-wave (km/s) = 3.58675 3.69841 3.64301
# Velocity P-wave (km/s) = 6.24450 6.53822 6.39304
#
# Compressibility (1/GPa) = 0.02424494
#
# Stress axis : x y z
#
# Youngs Moduli (GPa) = 69.44082 45.41005 50.00679
#
# Poissons Ratio (x) = 0.41844 0.10843
# Poissons Ratio (y) = 0.63987 0.23525
# Poissons Ratio (z) = 0.15057 0.21363
#
# Static dielectric constant tensor:
#      x y z
#    x 3.952410 0.000000 0.000000 
#    y 0.000000 3.373880 0.000000 
#    z 0.000000 0.000000 3.418710 
# 
# 
# High freq. dielectric constant tensor:
#      x y z
#    x 1.754210 0.000000 0.000000 
#    y 0.000000 1.712410 0.000000 
#    z 0.000000 0.000000 1.737060 
# 
# From -- ./inp_files/7207.got.cif
#   From: 2010.03.12/outbox.cif.g09.slc.cpg/sg57_4_cif.got.tgz:7207.got - 2010.04.16 15:48:40.
