data_PCOD8231030
_publ_section_title
;
Structure prediction by ZEFSAII (Michael W. Deem and Ramdas Pophale) SiO2 
 PCOD8231030
Probable space group: P B C M
;
_chemical_formula_sum "Si O2"
_cell_formula_units_Z 56
_cell_length_a 16.518590
_cell_length_b 21.024428
_cell_length_c 8.867783
_cell_angle_alpha 90.000000
_cell_angle_beta 90.000000
_cell_angle_gamma 90.000000
_cell_volume 3079.726997
_symmetry_space_group_name_H-M "P B C M"
_symmetry_group_IT_number 57
_symmetry_cell_setting 'orthorhombic'
loop_
_space_group_symop_operation_xyz
x,y,z
-x,-y,1/2+z
x,1/2-y,-z
-x,1/2+y,1/2-z
-x,-y,-z
x,y,1/2-z
-x,1/2+y,z
x,1/2-y,1/2+z
loop_
_atom_site_type_symbol
_atom_site_label
_atom_site_fract_x
_atom_site_fract_y
_atom_site_fract_z
Si Si1 0.195854 0.021394 0.423875
Si Si2 0.193505 0.874079 0.421112
Si Si3 0.046895 0.682655 0.428790
Si Si4 0.378672 0.019147 0.423588
Si Si5 0.958889 0.937813 0.428898
Si Si6 0.468128 0.594501 0.078466
Si Si7 0.638926 0.314373 0.421685
O O1 0.181774 0.040286 0.250000
O O2 0.287877 0.037253 0.472951
O O3 0.136363 0.061969 0.529693
O O4 0.174778 0.947621 0.449731
O O5 0.170653 0.854534 0.250000
O O6 0.141210 0.830820 0.534143
O O7 0.288668 0.864246 0.449379
O O8 0.020097 0.750000 0.500000
O O9 0.033426 0.684092 0.250000
O O10 0.995108 0.626613 0.503659
O O11 0.378906 0.994731 0.250000
O O12 0.436354 0.080682 0.443299
O O13 0.413528 0.964344 0.527628
O O14 0.971917 0.938783 0.250000
O O15 0.000000 0.000000 0.500000
O O16 0.446618 0.608180 0.250000
O O17 0.444528 0.657155 0.985893
O O18 0.664827 0.250000 0.500000
O O19 0.623346 0.298746 0.250000
#
# Coordination Sequence:
#
# PCOD8231030 Si02
#       7
#     8   8   8   8   8   8   8
#     4  10  19  35  58  83 115 149 184 231 284 331
#     4  10  20  35  56  81 114 151 187 227 277 335
#     4  12  25  41  61  84 114 152 192 236 285 341
#     4   9  18  34  54  78 108 142 177 222 274 320
#     4  12  24  39  59  86 116 150 192 236 285 339
#     4  10  19  31  52  79 107 141 182 221 266 322
#     4  11  22  36  52  75 110 150 187 226 273 326
#
# _framework density 18.183430000000001
#
# number of rings (size 3 to 8) (size 9 to 14) (size 15 to 20)
#    0.000    1.429    2.857    3.857    0.000    3.429 
#    0.000    0.000    0.000    0.857    0.000    4.000 
#    0.000    0.000    0.000    0.000    0.000    0.000 
#
# Total GULP energy -694487.509076 kJ/mol
# GULP energy per Si atom -12401.562662 kJ/mol
# Density = 1.814204 g / cm^3
# Si number density = 18.183430 Si / 1000 Ang^3
#
#
#
# Elastic Constant Matrix: (Units=GPa)
#
#
# Indices 1 2 3 4 5 6 
#
# 1 106.8562 40.4398 51.5243 0.0000 0.0000 0.0000
# 2 40.4398 87.9945 51.7347 0.0000 0.0000 0.0000
# 3 51.5243 51.7347 129.5977 0.0000 0.0000 0.0000
# 4 0.0000 0.0000 0.0000 31.5462 0.0000 0.0000
# 5 0.0000 0.0000 0.0000 0.0000 27.9055 0.0000
# 6 0.0000 0.0000 0.0000 0.0000 0.0000 24.8281
#
#
#
# Elastic Compliance Matrix: (Units=1/GPa)
#
#
# Indices 1 2 3 4 5 6 
#
# 1 0.012421 -0.003665 -0.003475 0.000000 0.000000 0.000000
# 2 -0.003665 0.015931 -0.004902 0.000000 0.000000 0.000000
# 3 -0.003475 -0.004902 0.011055 0.000000 0.000000 0.000000
# 4 0.000000 0.000000 0.000000 0.031700 0.000000 0.000000
# 5 0.000000 0.000000 0.000000 0.000000 0.035835 0.000000
# 6 0.000000 0.000000 0.000000 0.000000 0.000000 0.040277
#
#
# Mechanical properties :
#
#
# Convention : Reuss Voigt Hill
#
# Bulk Modulus (GPa) = 65.26807 67.98292 66.62549
# Shear Modulus (GPa) = 28.34282 28.90593 28.62437
#
# Velocity S-wave (km/s) = 3.95234 3.99141 3.97192
# Velocity P-wave (km/s) = 7.53659 7.66226 7.59969
#
# Compressibility (1/GPa) = 0.01532143
#
# Stress axis : x y z
#
# Youngs Moduli (GPa) = 80.50785 62.77036 90.45840
#
# Poissons Ratio (x) = 0.23007 0.31435
# Poissons Ratio (y) = 0.29508 0.44346
# Poissons Ratio (z) = 0.27978 0.30773
#
# Static dielectric constant tensor:
#      x y z
#    x 3.529660 0.000000 0.000000 
#    y 0.000000 3.274650 0.000000 
#    z 0.000000 0.000000 3.535030 
# 
# 
# High freq. dielectric constant tensor:
#      x y z
#    x 1.705040 0.000000 0.000000 
#    y 0.000000 1.683640 0.000000 
#    z 0.000000 0.000000 1.711750 
# 
# From -- ./inp_files/5275.got.cif
#   From: 2010.03.12/outbox.cif.g09.slc.cpg/sg57_3_cif.got.tgz:5275.got - 2010.04.16 15:48:40.
