data_PCOD8231160
_publ_section_title
;
Structure prediction by ZEFSAII (Michael W. Deem and Ramdas Pophale) SiO2 
 PCOD8231160
Probable space group: P B C M
;
_chemical_formula_sum "Si O2"
_cell_formula_units_Z 64
_cell_length_a 36.156959
_cell_length_b 5.138018
_cell_length_c 18.039468
_cell_angle_alpha 90.000000
_cell_angle_beta 90.000000
_cell_angle_gamma 90.000000
_cell_volume 3351.284083
_symmetry_space_group_name_H-M "P B C M"
_symmetry_group_IT_number 57
_symmetry_cell_setting 'orthorhombic'
loop_
_space_group_symop_operation_xyz
x,y,z
-x,-y,1/2+z
x,1/2-y,-z
-x,1/2+y,1/2-z
-x,-y,-z
x,y,1/2-z
-x,1/2+y,z
x,1/2-y,1/2+z
loop_
_atom_site_type_symbol
_atom_site_label
_atom_site_fract_x
_atom_site_fract_y
_atom_site_fract_z
Si Si1 0.979157 0.222974 0.087719
Si Si2 0.395353 0.528242 0.162298
Si Si3 0.094642 0.942956 0.834022
Si Si4 0.141882 0.069108 0.166104
Si Si5 0.521735 0.011915 0.161515
Si Si6 0.796718 0.005870 0.547887
Si Si7 0.350324 0.468576 0.662250
Si Si8 0.712551 0.007846 0.548158
O O1 0.939184 0.135061 0.114279
O O2 0.991659 0.505793 0.117632
O O3 0.978313 0.250000 0.000000
O O4 0.398167 0.512004 0.250000
O O5 0.436698 0.517897 0.128910
O O6 0.371360 0.286925 0.133184
O O7 0.375778 0.792126 0.137069
O O8 0.080463 0.987127 0.750000
O O9 0.123356 0.710214 0.837780
O O10 0.114266 0.205779 0.864628
O O11 0.152797 0.144444 0.250000
O O12 0.179288 0.047034 0.120299
O O13 0.522845 0.014332 0.250000
O O14 0.499110 0.258249 0.131333
O O15 0.811838 0.250000 0.500000
O O16 0.799158 0.750000 0.500000
O O17 0.754724 0.059392 0.573368
O O18 0.343107 0.465747 0.750000
O O19 0.310752 0.485021 0.623208
O O20 0.708537 0.750000 0.500000
O O21 0.697931 0.250000 0.500000
#
# Coordination Sequence:
#
# PCOD8231160 Si02
#       8
#     8   8   8   8   8   8   8   8
#     4  10  21  36  53  76 106 139 178 222 264 307
#     4   9  17  28  43  68 101 132 167 212 255 303
#     4  10  21  36  55  80 108 140 177 217 264 314
#     4  10  21  37  56  81 112 141 175 220 264 314
#     4   9  15  23  37  59  92 132 164 196 251 311
#     4  10  21  37  57  81 107 138 175 214 259 310
#     4  10  19  32  51  74 102 136 171 209 257 308
#     4  10  21  37  55  77 107 137 171 216 257 303
#
# _framework density 19.097156999999999
#
# number of rings (size 3 to 8) (size 9 to 14) (size 15 to 20)
#    0.000    2.250    0.000    3.000    0.000    5.500 
#    0.000    0.000    0.000    9.000    0.000    0.000 
#    0.000   35.000    0.000    0.000    0.000    0.000 
#
# Total GULP energy -793598.167599 kJ/mol
# GULP energy per Si atom -12399.971369 kJ/mol
# Density = 1.905369 g / cm^3
# Si number density = 19.097157 Si / 1000 Ang^3
#
#
#
# Elastic Constant Matrix: (Units=GPa)
#
#
# Indices 1 2 3 4 5 6 
#
# 1 107.1732 22.4228 46.5937 0.0000 0.0000 0.0000
# 2 22.4228 110.8508 24.4518 0.0000 0.0000 0.0000
# 3 46.5937 24.4518 41.4127 0.0000 0.0000 0.0000
# 4 0.0000 0.0000 0.0000 17.0016 0.0000 0.0000
# 5 0.0000 0.0000 0.0000 0.0000 21.2820 0.0000
# 6 0.0000 0.0000 0.0000 0.0000 0.0000 54.8896
#
#
#
# Elastic Compliance Matrix: (Units=1/GPa)
#
#
# Indices 1 2 3 4 5 6 
#
# 1 0.018355 0.000969 -0.021223 0.000000 0.000000 0.000000
# 2 0.000969 0.010423 -0.007244 0.000000 0.000000 0.000000
# 3 -0.021223 -0.007244 0.052302 0.000000 0.000000 0.000000
# 4 0.000000 0.000000 0.000000 0.058818 0.000000 0.000000
# 5 0.000000 0.000000 0.000000 0.000000 0.046988 0.000000
# 6 0.000000 0.000000 0.000000 0.000000 0.000000 0.018218
#
#
# Mechanical properties :
#
#
# Convention : Reuss Voigt Hill
#
# Bulk Modulus (GPa) = 38.33835 49.59704 43.96769
# Shear Modulus (GPa) = 18.60148 29.69920 24.15034
#
# Velocity S-wave (km/s) = 3.12435 3.94783 3.55998
# Velocity P-wave (km/s) = 5.75625 6.84162 6.32227
#
# Compressibility (1/GPa) = 0.02608354
#
# Stress axis : x y z
#
# Youngs Moduli (GPa) = 54.48194 95.94051 19.11957
#
# Poissons Ratio (x) = -0.09293 0.40577
# Poissons Ratio (y) = -0.05277 0.13850
# Poissons Ratio (z) = 1.15627 0.69500
#
# Static dielectric constant tensor:
#      x y z
#    x 3.551970 0.000000 0.000000 
#    y 0.000000 3.927520 0.000000 
#    z 0.000000 0.000000 3.118880 
# 
# 
# High freq. dielectric constant tensor:
#      x y z
#    x 1.746760 0.000000 0.000000 
#    y 0.000000 1.768570 0.000000 
#    z 0.000000 0.000000 1.702540 
# 
# From -- ./inp_files/23185.got.cif
#   From: 2010.03.12/outbox.cif.g09.slc.cpg/sg57_12_cif.got.tgz:23185.got - 2010.04.16 15:48:40.
