data_PCOD8231650
_publ_section_title
;
Structure prediction by ZEFSAII (Michael W. Deem and Ramdas Pophale) SiO2 
 PCOD8231650
Probable space group: P B C M
;
_chemical_formula_sum "Si O2"
_cell_formula_units_Z 44
_cell_length_a 8.377837
_cell_length_b 22.180511
_cell_length_c 12.151904
_cell_angle_alpha 90.000000
_cell_angle_beta 90.000000
_cell_angle_gamma 90.000000
_cell_volume 2258.123985
_symmetry_space_group_name_H-M "P B C M"
_symmetry_group_IT_number 57
_symmetry_cell_setting 'orthorhombic'
loop_
_space_group_symop_operation_xyz
x,y,z
-x,-y,1/2+z
x,1/2-y,-z
-x,1/2+y,1/2-z
-x,-y,-z
x,y,1/2-z
-x,1/2+y,z
x,1/2-y,1/2+z
loop_
_atom_site_type_symbol
_atom_site_label
_atom_site_fract_x
_atom_site_fract_y
_atom_site_fract_z
Si Si1 0.330396 0.656796 0.377650
Si Si2 0.565086 0.938050 0.959398
Si Si3 0.551441 0.750000 0.500000
Si Si4 0.059185 0.602046 0.514858
Si Si5 0.130324 0.011424 0.370688
Si Si6 0.260809 0.148270 0.881696
O O1 0.285438 0.667788 0.250000
O O2 0.430718 0.595940 0.390328
O O3 0.437259 0.711625 0.420993
O O4 0.169444 0.650078 0.450349
O O5 0.706766 0.951126 0.875102
O O6 0.625757 0.902878 0.067564
O O7 0.500000 0.000000 0.000000
O O8 0.668421 0.788110 0.421595
O O9 0.157286 0.559825 0.600014
O O10 0.999881 0.548530 0.437201
O O11 0.919784 0.640034 0.574152
O O12 0.059440 0.012296 0.250000
O O13 0.262982 0.144360 0.750000
#
# Coordination Sequence:
#
# PCOD8231650 Si02
#       6
#     8   8   4   8   8   8
#     4  11  22  40  63  87 120 159 197 252 303 342
#     4  10  20  37  56  91 122 152 196 237 280 366
#     4  10  24  44  62  86 116 148 216 252 292 366
#     4  10  21  36  56  89 121 149 204 237 287 367
#     4  10  19  34  54  83 125 160 185 231 289 351
#     4  10  22  41  63  84 117 161 196 248 303 345
#
# _framework density 19.485202000000001
#
# number of rings (size 3 to 8) (size 9 to 14) (size 15 to 20)
#    0.000    1.818    1.818    2.182    0.000    2.182 
#    0.000    7.273    0.000    0.000    0.000    0.000 
#    0.000    0.000    0.000    0.000    0.000    0.000 
#
# Total GULP energy -545355.998193 kJ/mol
# GULP energy per Si atom -12394.454504 kJ/mol
# Density = 1.944085 g / cm^3
# Si number density = 19.485202 Si / 1000 Ang^3
#
#
#
# Elastic Constant Matrix: (Units=GPa)
#
#
# Indices 1 2 3 4 5 6 
#
# 1 93.9204 40.5348 43.1052 0.0000 0.0000 0.0000
# 2 40.5348 110.0394 44.3379 0.0000 0.0000 0.0000
# 3 43.1052 44.3379 133.0550 0.0000 0.0000 0.0000
# 4 0.0000 0.0000 0.0000 19.8239 0.0000 0.0000
# 5 0.0000 0.0000 0.0000 0.0000 10.8924 0.0000
# 6 0.0000 0.0000 0.0000 0.0000 0.0000 38.7717
#
#
#
# Elastic Compliance Matrix: (Units=1/GPa)
#
#
# Indices 1 2 3 4 5 6 
#
# 1 0.013743 -0.003775 -0.003194 0.000000 0.000000 0.000000
# 2 -0.003775 0.011534 -0.002620 0.000000 0.000000 0.000000
# 3 -0.003194 -0.002620 0.009424 0.000000 0.000000 0.000000
# 4 0.000000 0.000000 0.000000 0.050444 0.000000 0.000000
# 5 0.000000 0.000000 0.000000 0.000000 0.091807 0.000000
# 6 0.000000 0.000000 0.000000 0.000000 0.000000 0.025792
#
#
# Mechanical properties :
#
#
# Convention : Reuss Voigt Hill
#
# Bulk Modulus (GPa) = 64.42983 65.88562 65.15772
# Shear Modulus (GPa) = 22.01702 27.83341 24.92522
#
# Velocity S-wave (km/s) = 3.36510 3.78357 3.58045
# Velocity P-wave (km/s) = 6.94524 7.27831 7.11372
#
# Compressibility (1/GPa) = 0.01552076
#
# Stress axis : x y z
#
# Youngs Moduli (GPa) = 72.76620 86.69858 106.11570
#
# Poissons Ratio (x) = 0.32732 0.33894
# Poissons Ratio (y) = 0.27472 0.27807
# Poissons Ratio (z) = 0.23242 0.22719
#
# Static dielectric constant tensor:
#      x y z
#    x 2.522880 0.000000 0.000000 
#    y 0.000000 4.153830 0.000000 
#    z 0.000000 0.000000 3.678130 
# 
# 
# High freq. dielectric constant tensor:
#      x y z
#    x 1.763710 0.000000 0.000000 
#    y 0.000000 1.758320 0.000000 
#    z 0.000000 0.000000 1.758660 
# 
# From -- ./inp_files/11898.got.cif
#   From: 2010.03.12/outbox.cif.g09.slc.cpg/sg57_6_cif.got.tgz:11898.got - 2010.04.16 15:48:40.
