data_PCOD8231166
_publ_section_title
;
Structure prediction by ZEFSAII (Michael W. Deem and Ramdas Pophale) SiO2 
 PCOD8231166
Probable space group: P B C M
;
_chemical_formula_sum "Si O2"
_cell_formula_units_Z 64
_cell_length_a 21.335589
_cell_length_b 18.825811
_cell_length_c 9.112522
_cell_angle_alpha 90.000000
_cell_angle_beta 90.000000
_cell_angle_gamma 90.000000
_cell_volume 3660.133455
_symmetry_space_group_name_H-M "P B C M"
_symmetry_group_IT_number 57
_symmetry_cell_setting 'orthorhombic'
loop_
_space_group_symop_operation_xyz
x,y,z
-x,-y,1/2+z
x,1/2-y,-z
-x,1/2+y,1/2-z
-x,-y,-z
x,y,1/2-z
-x,1/2+y,z
x,1/2-y,1/2+z
loop_
_atom_site_type_symbol
_atom_site_label
_atom_site_fract_x
_atom_site_fract_y
_atom_site_fract_z
Si Si1 0.726594 0.136832 0.086721
Si Si2 0.561606 0.472646 0.077814
Si Si3 0.149409 0.922507 0.577053
Si Si4 0.675876 0.978958 0.088755
Si Si5 0.390195 0.681584 0.577872
Si Si6 0.898463 0.824741 0.576037
Si Si7 0.010835 0.573690 0.078145
Si Si8 0.806836 0.574446 0.922961
O O1 0.722491 0.171555 0.250000
O O2 0.798059 0.134535 0.021907
O O3 0.706145 0.055811 0.097647
O O4 0.681981 0.178920 0.975656
O O5 0.553685 0.481024 0.250000
O O6 0.573429 0.390396 0.032861
O O7 0.500000 0.500000 0.000000
O O8 0.619390 0.522401 0.027677
O O9 0.159373 0.927296 0.750000
O O10 0.079828 0.896611 0.533314
O O11 0.161284 0.002056 0.515781
O O12 0.649144 0.958477 0.250000
O O13 0.731949 0.925433 0.043942
O O14 0.422548 0.750000 0.500000
O O15 0.391610 0.693399 0.750000
O O16 0.907355 0.750000 0.500000
O O17 0.892927 0.815921 0.750000
O O18 0.835773 0.860964 0.514325
O O19 0.959224 0.869944 0.528503
O O20 0.007654 0.558708 0.250000
O O21 0.000000 0.500000 0.000000
O O22 0.819719 0.585084 0.750000
#
# Coordination Sequence:
#
# PCOD8231166 Si02
#       8
#     8   8   8   8   8   8   8   8
#     4   8  14  27  47  70  96 128 161 197 243 295
#     4  10  20  33  52  79 110 142 176 215 254 297
#     4   8  14  27  49  73  97 125 159 203 254 304
#     4   8  15  28  49  76 101 128 161 197 246 298
#     4  10  20  33  50  74 103 137 174 212 253 299
#     4  11  23  35  49  71  99 134 172 215 268 320
#     4  10  19  32  51  74  98 129 172 218 262 315
#     4   9  16  30  53  75  97 127 161 205 256 306
#
# _framework density 17.485700999999999
#
# number of rings (size 3 to 8) (size 9 to 14) (size 15 to 20)
#    0.000    2.750    1.250    2.625    0.000    2.500 
#    0.000    3.125    0.000    2.250    0.000    3.500 
#    0.000    0.000    0.000    0.000    0.000    0.000 
#
# Total GULP energy -793218.795494 kJ/mol
# GULP energy per Si atom -12394.043680 kJ/mol
# Density = 1.744590 g / cm^3
# Si number density = 17.485701 Si / 1000 Ang^3
#
#
#
# Elastic Constant Matrix: (Units=GPa)
#
#
# Indices 1 2 3 4 5 6 
#
# 1 129.4402 53.1774 53.6084 0.0000 0.0000 0.0000
# 2 53.1774 89.5531 46.5541 0.0000 0.0000 0.0000
# 3 53.6084 46.5541 72.9486 0.0000 0.0000 0.0000
# 4 0.0000 0.0000 0.0000 25.0813 0.0000 0.0000
# 5 0.0000 0.0000 0.0000 0.0000 25.8514 0.0000
# 6 0.0000 0.0000 0.0000 0.0000 0.0000 19.4600
#
#
#
# Elastic Compliance Matrix: (Units=1/GPa)
#
#
# Indices 1 2 3 4 5 6 
#
# 1 0.011900 -0.003771 -0.006338 0.000000 0.000000 0.000000
# 2 -0.003771 0.017906 -0.008655 0.000000 0.000000 0.000000
# 3 -0.006338 -0.008655 0.023890 0.000000 0.000000 0.000000
# 4 0.000000 0.000000 0.000000 0.039870 0.000000 0.000000
# 5 0.000000 0.000000 0.000000 0.000000 0.038683 0.000000
# 6 0.000000 0.000000 0.000000 0.000000 0.000000 0.051387
#
#
# Mechanical properties :
#
#
# Convention : Reuss Voigt Hill
#
# Bulk Modulus (GPa) = 61.86094 66.51352 64.18723
# Shear Modulus (GPa) = 22.06978 23.31867 22.69422
#
# Velocity S-wave (km/s) = 3.55655 3.65579 3.60651
# Velocity P-wave (km/s) = 7.23327 7.47938 7.35735
#
# Compressibility (1/GPa) = 0.01616529
#
# Stress axis : x y z
#
# Youngs Moduli (GPa) = 84.03378 55.84866 41.85892
#
# Poissons Ratio (x) = 0.21063 0.26531
# Poissons Ratio (y) = 0.31692 0.36230
# Poissons Ratio (z) = 0.53263 0.48339
#
# Static dielectric constant tensor:
#      x y z
#    x 3.602450 0.000000 0.000000 
#    y 0.000000 3.196780 0.000000 
#    z 0.000000 0.000000 3.242220 
# 
# 
# High freq. dielectric constant tensor:
#      x y z
#    x 1.676330 0.000000 0.000000 
#    y 0.000000 1.646690 0.000000 
#    z 0.000000 0.000000 1.666280 
# 
# From -- ./inp_files/9527.got.cif
#   From: 2010.03.12/outbox.cif.g09.slc.cpg/sg57_5_cif.got.tgz:9527.got - 2010.04.16 15:48:40.
