data_PCOD8231661
_publ_section_title
;
Structure prediction by ZEFSAII (Michael W. Deem and Ramdas Pophale) SiO2 
 PCOD8231661
Probable space group: P B C M
;
_chemical_formula_sum "Si O2"
_cell_formula_units_Z 64
_cell_length_a 18.748697
_cell_length_b 9.648529
_cell_length_c 16.571993
_cell_angle_alpha 90.000000
_cell_angle_beta 90.000000
_cell_angle_gamma 90.000000
_cell_volume 2997.829564
_symmetry_space_group_name_H-M "P B C M"
_symmetry_group_IT_number 57
_symmetry_cell_setting 'orthorhombic'
loop_
_space_group_symop_operation_xyz
x,y,z
-x,-y,1/2+z
x,1/2-y,-z
-x,1/2+y,1/2-z
-x,-y,-z
x,y,1/2-z
-x,1/2+y,z
x,1/2-y,1/2+z
loop_
_atom_site_type_symbol
_atom_site_label
_atom_site_fract_x
_atom_site_fract_y
_atom_site_fract_z
Si Si1 0.059893 0.464301 0.846523
Si Si2 0.070751 0.720363 0.154193
Si Si3 0.660217 0.666471 0.342578
Si Si4 0.185801 0.274017 0.655874
Si Si5 0.393687 0.601969 0.588715
Si Si6 0.546793 0.880505 0.342661
Si Si7 0.647009 0.407276 0.908503
Si Si8 0.200808 0.536048 0.343924
O O1 0.059784 0.466421 0.750000
O O2 0.062079 0.622708 0.879951
O O3 0.127587 0.378786 0.881578
O O4 0.990625 0.382102 0.879125
O O5 0.065929 0.724481 0.250000
O O6 0.146622 0.656024 0.127047
O O7 0.665665 0.711897 0.250000
O O8 0.736706 0.696451 0.384201
O O9 0.639965 0.506554 0.349510
O O10 0.597178 0.759953 0.380138
O O11 0.190129 0.308099 0.750000
O O12 0.163787 0.113875 0.641590
O O13 0.478015 0.615182 0.600850
O O14 0.378295 0.552805 0.498086
O O15 0.354196 0.744489 0.607709
O O16 0.523852 0.853665 0.250000
O O17 0.591450 0.022787 0.346883
O O18 0.727246 0.458810 0.895400
O O19 0.220474 0.554545 0.250000
#
# Coordination Sequence:
#
# PCOD8231661 Si02
#       8
#     8   8   8   8   8   8   8   8
#     4   9  16  27  45  77 120 155 188 233 291 348
#     4   9  17  27  46  78 115 157 192 232 289 345
#     4  10  21  37  59  88 115 146 195 246 300 351
#     4   9  17  31  50  76 113 150 187 238 290 344
#     4  11  25  39  57  83 116 151 194 242 300 355
#     4  11  22  41  64  87 113 149 195 245 302 358
#     4  11  24  41  57  82 117 155 198 240 295 355
#     4  10  19  34  55  78 111 155 201 245 290 345
#
# _framework density 21.348780000000001
#
# number of rings (size 3 to 8) (size 9 to 14) (size 15 to 20)
#    0.000    2.000    1.250    2.625    1.750    7.500 
#    0.000    0.000    0.000    0.000    0.000    0.875 
#    0.000    0.000    0.000    0.000    0.000    0.000 
#
# Total GULP energy -793582.043906 kJ/mol
# GULP energy per Si atom -12399.719436 kJ/mol
# Density = 2.130019 g / cm^3
# Si number density = 21.348780 Si / 1000 Ang^3
#
#
#
# Elastic Constant Matrix: (Units=GPa)
#
#
# Indices 1 2 3 4 5 6 
#
# 1 157.7767 55.7294 31.2085 0.0000 0.0000 0.0000
# 2 55.7294 127.6943 15.6936 0.0000 0.0000 0.0000
# 3 31.2085 15.6936 31.6008 0.0000 0.0000 0.0000
# 4 0.0000 0.0000 0.0000 14.5421 0.0000 0.0000
# 5 0.0000 0.0000 0.0000 0.0000 10.5045 0.0000
# 6 0.0000 0.0000 0.0000 0.0000 0.0000 43.3891
#
#
#
# Elastic Compliance Matrix: (Units=1/GPa)
#
#
# Indices 1 2 3 4 5 6 
#
# 1 0.008814 -0.002957 -0.007236 0.000000 0.000000 0.000000
# 2 -0.002957 0.009333 -0.001714 0.000000 0.000000 0.000000
# 3 -0.007236 -0.001714 0.039642 0.000000 0.000000 0.000000
# 4 0.000000 0.000000 0.000000 0.068766 0.000000 0.000000
# 5 0.000000 0.000000 0.000000 0.000000 0.095198 0.000000
# 6 0.000000 0.000000 0.000000 0.000000 0.000000 0.023047
#
#
# Mechanical properties :
#
#
# Convention : Reuss Voigt Hill
#
# Bulk Modulus (GPa) = 29.43435 58.03722 43.73578
# Shear Modulus (GPa) = 17.86108 27.98316 22.92212
#
# Velocity S-wave (km/s) = 2.89560 3.62437 3.28029
# Velocity P-wave (km/s) = 4.99966 6.69022 5.90575
#
# Compressibility (1/GPa) = 0.03397391
#
# Stress axis : x y z
#
# Youngs Moduli (GPa) = 113.45703 107.15198 25.22581
#
# Poissons Ratio (x) = 0.31689 0.18253
# Poissons Ratio (y) = 0.33553 0.04324
# Poissons Ratio (z) = 0.82095 0.18367
#
# Static dielectric constant tensor:
#      x y z
#    x 4.006260 0.000000 0.000000 
#    y 0.000000 4.049830 0.000000 
#    z 0.000000 0.000000 3.272510 
# 
# 
# High freq. dielectric constant tensor:
#      x y z
#    x 1.848020 0.000000 0.000000 
#    y 0.000000 1.852380 0.000000 
#    z 0.000000 0.000000 1.781110 
# 
# From -- ./inp_files/25615.got.cif
#   From: 2010.03.12/outbox.cif.g09.slc.cpg/sg57_13_cif.got.tgz:25615.got - 2010.04.16 15:48:40.
