data_PCOD8231221
_publ_section_title
;
Structure prediction by ZEFSAII (Michael W. Deem and Ramdas Pophale) SiO2 
 PCOD8231221
Probable space group: P B C M
;
_chemical_formula_sum "Si O2"
_cell_formula_units_Z 64
_cell_length_a 21.223740
_cell_length_b 19.065176
_cell_length_c 8.934823
_cell_angle_alpha 90.000000
_cell_angle_beta 90.000000
_cell_angle_gamma 90.000000
_cell_volume 3615.336194
_symmetry_space_group_name_H-M "P B C M"
_symmetry_group_IT_number 57
_symmetry_cell_setting 'orthorhombic'
loop_
_space_group_symop_operation_xyz
x,y,z
-x,-y,1/2+z
x,1/2-y,-z
-x,1/2+y,1/2-z
-x,-y,-z
x,y,1/2-z
-x,1/2+y,z
x,1/2-y,1/2+z
loop_
_atom_site_type_symbol
_atom_site_label
_atom_site_fract_x
_atom_site_fract_y
_atom_site_fract_z
Si Si1 0.436876 0.971862 0.072462
Si Si2 0.891895 0.823378 0.072629
Si Si3 0.966049 0.321322 0.424199
Si Si4 0.846747 0.405262 0.423805
Si Si5 0.270801 0.860623 0.583202
Si Si6 0.315233 0.481023 0.418364
Si Si7 0.607478 0.181435 0.925661
Si Si8 0.194125 0.060487 0.426348
O O1 0.438461 0.980795 0.250000
O O2 0.428321 0.890000 0.027021
O O3 0.500000 0.000000 0.000000
O O4 0.380882 0.019744 0.007533
O O5 0.883514 0.819050 0.250000
O O6 0.963563 0.842625 0.025047
O O7 0.871929 0.750000 0.000000
O O8 0.847212 0.881910 0.006753
O O9 0.943178 0.250000 0.500000
O O10 0.965225 0.306081 0.250000
O O11 0.917901 0.383538 0.467680
O O12 0.832496 0.393364 0.250000
O O13 0.798671 0.354843 0.512738
O O14 0.837779 0.486265 0.466477
O O15 0.270813 0.828234 0.750000
O O16 0.320401 0.819587 0.481110
O O17 0.289227 0.941240 0.588469
O O18 0.325137 0.451378 0.250000
O O19 0.264848 0.434012 0.508109
O O20 0.606538 0.191213 0.750000
O O21 0.574289 0.250000 0.000000
O O22 0.196736 0.074008 0.250000
#
# Coordination Sequence:
#
# PCOD8231221 Si02
#       8
#     8   8   8   8   8   8   8   8
#     4  10  20  34  54  80 108 140 175 209 250 301
#     4  10  20  35  53  72  95 125 165 211 260 314
#     4   9  19  34  49  66  92 128 167 208 254 305
#     4   9  18  32  48  69 100 134 167 205 251 302
#     4   9  17  29  46  69  97 129 164 201 243 291
#     4   9  17  31  51  75 102 130 162 201 243 289
#     4  10  20  33  50  73 102 136 174 213 250 291
#     4  10  19  32  52  76 101 130 164 206 256 304
#
# _framework density 17.702366000000001
#
# number of rings (size 3 to 8) (size 9 to 14) (size 15 to 20)
#    0.000    2.500    0.000    2.250    0.000    7.000 
#    0.000    1.250    0.000    0.750    0.000    3.500 
#    0.000    0.000    0.000    0.000    0.000    0.000 
#
# Total GULP energy -793526.346919 kJ/mol
# GULP energy per Si atom -12398.849171 kJ/mol
# Density = 1.766207 g / cm^3
# Si number density = 17.702366 Si / 1000 Ang^3
#
#
#
# Elastic Constant Matrix: (Units=GPa)
#
#
# Indices 1 2 3 4 5 6 
#
# 1 131.7568 65.5113 56.8037 0.0000 0.0000 0.0000
# 2 65.5113 83.4421 48.0849 0.0000 0.0000 0.0000
# 3 56.8037 48.0849 93.9602 0.0000 0.0000 0.0000
# 4 0.0000 0.0000 0.0000 29.0213 0.0000 0.0000
# 5 0.0000 0.0000 0.0000 0.0000 31.5232 0.0000
# 6 0.0000 0.0000 0.0000 0.0000 0.0000 8.5254
#
#
#
# Elastic Compliance Matrix: (Units=1/GPa)
#
#
# Indices 1 2 3 4 5 6 
#
# 1 0.013361 -0.008276 -0.003842 0.000000 0.000000 0.000000
# 2 -0.008276 0.022123 -0.006318 0.000000 0.000000 0.000000
# 3 -0.003842 -0.006318 0.016199 0.000000 0.000000 0.000000
# 4 0.000000 0.000000 0.000000 0.034457 0.000000 0.000000
# 5 0.000000 0.000000 0.000000 0.000000 0.031723 0.000000
# 6 0.000000 0.000000 0.000000 0.000000 0.000000 0.117296
#
#
# Mechanical properties :
#
#
# Convention : Reuss Voigt Hill
#
# Bulk Modulus (GPa) = 67.52114 72.21764 69.86939
# Shear Modulus (GPa) = 18.05258 23.06461 20.55860
#
# Velocity S-wave (km/s) = 3.19687 3.61350 3.41155
# Velocity P-wave (km/s) = 7.20082 7.63504 7.42111
#
# Compressibility (1/GPa) = 0.01481018
#
# Stress axis : x y z
#
# Youngs Moduli (GPa) = 74.84441 45.20214 61.73160
#
# Poissons Ratio (x) = 0.37408 0.23719
# Poissons Ratio (y) = 0.61939 0.39005
# Poissons Ratio (z) = 0.28757 0.28561
#
# Static dielectric constant tensor:
#      x y z
#    x 3.342650 0.000000 0.000000 
#    y 0.000000 3.193280 0.000000 
#    z 0.000000 0.000000 3.460410 
# 
# 
# High freq. dielectric constant tensor:
#      x y z
#    x 1.676670 0.000000 0.000000 
#    y 0.000000 1.662890 0.000000 
#    z 0.000000 0.000000 1.698790 
# 
# From -- ./inp_files/7136.got.cif
#   From: 2010.03.12/outbox.cif.g09.slc.cpg/sg57_4_cif.got.tgz:7136.got - 2010.04.16 15:48:40.
