data_PCOD8231359
_publ_section_title
;
Structure prediction by ZEFSAII (Michael W. Deem and Ramdas Pophale) SiO2 
 PCOD8231359
Probable space group: P B C M
;
_chemical_formula_sum "Si O2"
_cell_formula_units_Z 56
_cell_length_a 19.152983
_cell_length_b 18.500470
_cell_length_c 8.786590
_cell_angle_alpha 90.000000
_cell_angle_beta 90.000000
_cell_angle_gamma 90.000000
_cell_volume 3113.433161
_symmetry_space_group_name_H-M "P B C M"
_symmetry_group_IT_number 57
_symmetry_cell_setting 'orthorhombic'
loop_
_space_group_symop_operation_xyz
x,y,z
-x,-y,1/2+z
x,1/2-y,-z
-x,1/2+y,1/2-z
-x,-y,-z
x,y,1/2-z
-x,1/2+y,z
x,1/2-y,1/2+z
loop_
_atom_site_type_symbol
_atom_site_label
_atom_site_fract_x
_atom_site_fract_y
_atom_site_fract_z
Si Si1 0.353752 0.556753 0.929447
Si Si2 0.738961 0.623962 0.924350
Si Si3 0.793008 0.482766 0.427125
Si Si4 0.465817 0.671010 0.568466
Si Si5 0.072296 0.476473 0.430031
Si Si6 0.396735 0.397765 0.568598
Si Si7 0.883646 0.820344 0.079522
O O1 0.357435 0.551162 0.750000
O O2 0.272123 0.569007 0.977844
O O3 0.399036 0.624344 0.987037
O O4 0.385467 0.480473 0.989246
O O5 0.729946 0.596241 0.750000
O O6 0.799090 0.684822 0.928333
O O7 0.765011 0.562084 0.037559
O O8 0.665494 0.651105 0.994584
O O9 0.810040 0.474283 0.250000
O O10 0.865294 0.469156 0.517872
O O11 0.456907 0.750000 0.500000
O O12 0.472060 0.675291 0.750000
O O13 0.532289 0.631406 0.500108
O O14 0.068617 0.479020 0.250000
O O15 0.088783 0.395640 0.492018
O O16 0.000000 0.500000 0.500000
O O17 0.397087 0.389209 0.750000
O O18 0.911286 0.817467 0.250000
O O19 0.916221 0.750000 0.000000
#
# Coordination Sequence:
#
# PCOD8231359 Si02
#       7
#     8   8   8   8   8   8   8
#     4   8  17  33  54  75  97 126 166 210 254 302
#     4   9  17  30  46  70 101 131 162 200 242 295
#     4   9  16  30  52  77  99 124 159 203 249 296
#     4  11  22  36  50  69  98 132 168 213 263 310
#     4  10  20  34  52  79 108 136 168 206 250 300
#     4  10  19  33  52  75  98 128 169 211 257 309
#     4   9  19  32  48  71 101 133 168 201 239 292
#
# _framework density 17.986574000000001
#
# number of rings (size 3 to 8) (size 9 to 14) (size 15 to 20)
#    0.000    2.571    0.000    4.286    0.000    4.000 
#    0.000    9.286    0.000    0.857    0.000    2.000 
#    0.000    0.000    0.000    0.000    0.000    0.000 
#
# Total GULP energy -693832.825228 kJ/mol
# GULP energy per Si atom -12389.871879 kJ/mol
# Density = 1.794564 g / cm^3
# Si number density = 17.986574 Si / 1000 Ang^3
#
#
#
# Elastic Constant Matrix: (Units=GPa)
#
#
# Indices 1 2 3 4 5 6 
#
# 1 152.8180 63.6151 49.6517 0.0000 0.0000 0.0000
# 2 63.6151 81.7493 35.2319 0.0000 0.0000 0.0000
# 3 49.6517 35.2319 73.6297 0.0000 0.0000 0.0000
# 4 0.0000 0.0000 0.0000 20.1090 0.0000 0.0000
# 5 0.0000 0.0000 0.0000 0.0000 30.0684 0.0000
# 6 0.0000 0.0000 0.0000 0.0000 0.0000 12.9876
#
#
#
# Elastic Compliance Matrix: (Units=1/GPa)
#
#
# Indices 1 2 3 4 5 6 
#
# 1 0.010542 -0.006475 -0.004011 0.000000 0.000000 0.000000
# 2 -0.006475 0.019388 -0.004911 0.000000 0.000000 0.000000
# 3 -0.004011 -0.004911 0.018636 0.000000 0.000000 0.000000
# 4 0.000000 0.000000 0.000000 0.049729 0.000000 0.000000
# 5 0.000000 0.000000 0.000000 0.000000 0.033258 0.000000
# 6 0.000000 0.000000 0.000000 0.000000 0.000000 0.076996
#
#
# Mechanical properties :
#
#
# Convention : Reuss Voigt Hill
#
# Bulk Modulus (GPa) = 56.26566 67.24383 61.75474
# Shear Modulus (GPa) = 20.38601 23.27954 21.83277
#
# Velocity S-wave (km/s) = 3.37026 3.60150 3.48780
# Velocity P-wave (km/s) = 6.81871 7.40008 7.11533
#
# Compressibility (1/GPa) = 0.01777283
#
# Stress axis : x y z
#
# Youngs Moduli (GPa) = 94.85523 51.57913 53.66014
#
# Poissons Ratio (x) = 0.33399 0.21522
# Poissons Ratio (y) = 0.61421 0.26350
# Poissons Ratio (z) = 0.38044 0.25328
#
# Static dielectric constant tensor:
#      x y z
#    x 3.701930 0.000000 0.000000 
#    y 0.000000 3.320920 0.000000 
#    z 0.000000 0.000000 3.332730 
# 
# 
# High freq. dielectric constant tensor:
#      x y z
#    x 1.700430 0.000000 0.000000 
#    y 0.000000 1.658190 0.000000 
#    z 0.000000 0.000000 1.697790 
# 
# From -- ./inp_files/7035.got.cif
#   From: 2010.03.12/outbox.cif.g09.slc.cpg/sg57_4_cif.got.tgz:7035.got - 2010.04.16 15:48:40.
