data_PCOD8231831
_publ_section_title
;
Structure prediction by ZEFSAII (Michael W. Deem and Ramdas Pophale) SiO2 
 PCOD8231831
Probable space group: P B C M
;
_chemical_formula_sum "Si O2"
_cell_formula_units_Z 64
_cell_length_a 12.030205
_cell_length_b 31.350981
_cell_length_c 9.077323
_cell_angle_alpha 90.000000
_cell_angle_beta 90.000000
_cell_angle_gamma 90.000000
_cell_volume 3423.591600
_symmetry_space_group_name_H-M "P B C M"
_symmetry_group_IT_number 57
_symmetry_cell_setting 'orthorhombic'
loop_
_space_group_symop_operation_xyz
x,y,z
-x,-y,1/2+z
x,1/2-y,-z
-x,1/2+y,1/2-z
-x,-y,-z
x,y,1/2-z
-x,1/2+y,z
x,1/2-y,1/2+z
loop_
_atom_site_type_symbol
_atom_site_label
_atom_site_fract_x
_atom_site_fract_y
_atom_site_fract_z
Si Si1 0.993676 0.206251 0.923526
Si Si2 0.738519 0.447929 0.583438
Si Si3 0.362170 0.109819 0.076649
Si Si4 0.118041 0.128738 0.075297
Si Si5 0.399239 0.636334 0.078757
Si Si6 0.610705 0.984480 0.575888
Si Si7 0.989480 0.045093 0.081221
Si Si8 0.737061 0.207555 0.578587
O O1 0.016051 0.209919 0.750000
O O2 0.864872 0.198208 0.960480
O O3 0.034731 0.250000 0.000000
O O4 0.058480 0.166326 0.988910
O O5 0.717878 0.463944 0.750000
O O6 0.657143 0.409001 0.548579
O O7 0.713212 0.485797 0.470211
O O8 0.866620 0.435011 0.560905
O O9 0.367904 0.105185 0.250000
O O10 0.247914 0.132863 0.030394
O O11 0.472056 0.135368 0.025276
O O12 0.362777 0.062202 0.012311
O O13 0.098484 0.134361 0.250000
O O14 0.072720 0.082180 0.023602
O O15 0.387847 0.649234 0.250000
O O16 0.337941 0.669447 0.976598
O O17 0.594994 0.985310 0.750000
O O18 0.500000 0.000000 0.500000
O O19 0.017046 0.035151 0.250000
O O20 0.000000 0.000000 0.000000
O O21 0.694701 0.250000 0.500000
O O22 0.719000 0.213849 0.750000
#
# Coordination Sequence:
#
# PCOD8231831 Si02
#       8
#     8   8   8   8   8   8   8   8
#     4  10  21  38  61  88 115 142 178 228 282 338
#     4  10  20  34  52  77 108 143 184 228 277 327
#     4   9  19  35  55  78 108 147 188 228 272 325
#     4  10  20  37  59  82 110 150 194 233 281 336
#     4  10  19  35  56  78 108 142 178 223 270 318
#     4  11  20  34  54  77 107 145 188 232 276 324
#     4  10  21  35  53  78 112 152 191 235 284 337
#     4  10  21  37  58  85 112 138 172 216 271 331
#
# _framework density 18.693818
#
# number of rings (size 3 to 8) (size 9 to 14) (size 15 to 20)
#    0.000    2.000    1.250    2.625    0.000    5.000 
#    0.000    2.500    0.000    0.000    0.000    0.000 
#    0.000    0.000    0.000    0.000    0.000    0.000 
#
# Total GULP energy -793577.832906 kJ/mol
# GULP energy per Si atom -12399.653639 kJ/mol
# Density = 1.865127 g / cm^3
# Si number density = 18.693818 Si / 1000 Ang^3
#
#
#
# Elastic Constant Matrix: (Units=GPa)
#
#
# Indices 1 2 3 4 5 6 
#
# 1 108.1049 51.5135 40.3788 0.0000 0.0000 0.0000
# 2 51.5135 113.2698 52.9418 0.0000 0.0000 0.0000
# 3 40.3788 52.9418 68.1022 0.0000 0.0000 0.0000
# 4 0.0000 0.0000 0.0000 37.2553 0.0000 0.0000
# 5 0.0000 0.0000 0.0000 0.0000 27.2530 0.0000
# 6 0.0000 0.0000 0.0000 0.0000 0.0000 17.4117
#
#
#
# Elastic Compliance Matrix: (Units=1/GPa)
#
#
# Indices 1 2 3 4 5 6 
#
# 1 0.012731 -0.003553 -0.004787 0.000000 0.000000 0.000000
# 2 -0.003553 0.014858 -0.009444 0.000000 0.000000 0.000000
# 3 -0.004787 -0.009444 0.024864 0.000000 0.000000 0.000000
# 4 0.000000 0.000000 0.000000 0.026842 0.000000 0.000000
# 5 0.000000 0.000000 0.000000 0.000000 0.036693 0.000000
# 6 0.000000 0.000000 0.000000 0.000000 0.000000 0.057433
#
#
# Mechanical properties :
#
#
# Convention : Reuss Voigt Hill
#
# Bulk Modulus (GPa) = 59.22061 64.34946 61.78504
# Shear Modulus (GPa) = 23.29732 26.02684 24.66208
#
# Velocity S-wave (km/s) = 3.53407 3.73536 3.63611
# Velocity P-wave (km/s) = 6.95707 7.28708 7.12399
#
# Compressibility (1/GPa) = 0.01688601
#
# Stress axis : x y z
#
# Youngs Moduli (GPa) = 78.54824 67.30193 40.21910
#
# Poissons Ratio (x) = 0.23910 0.19251
# Poissons Ratio (y) = 0.27905 0.37984
# Poissons Ratio (z) = 0.37598 0.63562
#
# Static dielectric constant tensor:
#      x y z
#    x 3.829350 0.000000 0.000000 
#    y 0.000000 3.638860 0.000000 
#    z 0.000000 0.000000 3.372080 
# 
# 
# High freq. dielectric constant tensor:
#      x y z
#    x 1.735030 0.000000 0.000000 
#    y 0.000000 1.721470 0.000000 
#    z 0.000000 0.000000 1.713160 
# 
# From -- ./inp_files/3788.got.cif
#   From: 2010.03.12/outbox.cif.g09.slc.cpg/sg57_2_cif.got.tgz:3788.got - 2010.04.16 15:48:40.
