data_PCOD8231701
_publ_section_title
;
Structure prediction by ZEFSAII (Michael W. Deem and Ramdas Pophale) SiO2 
 PCOD8231701
Probable space group: P B C M
;
_chemical_formula_sum "Si O2"
_cell_formula_units_Z 64
_cell_length_a 16.063528
_cell_length_b 24.025139
_cell_length_c 8.788383
_cell_angle_alpha 90.000000
_cell_angle_beta 90.000000
_cell_angle_gamma 90.000000
_cell_volume 3391.687407
_symmetry_space_group_name_H-M "P B C M"
_symmetry_group_IT_number 57
_symmetry_cell_setting 'orthorhombic'
loop_
_space_group_symop_operation_xyz
x,y,z
-x,-y,1/2+z
x,1/2-y,-z
-x,1/2+y,1/2-z
-x,-y,-z
x,y,1/2-z
-x,1/2+y,z
x,1/2-y,1/2+z
loop_
_atom_site_type_symbol
_atom_site_label
_atom_site_fract_x
_atom_site_fract_y
_atom_site_fract_z
Si Si1 0.625305 0.109408 0.573138
Si Si2 0.264108 0.806039 0.920938
Si Si3 0.295659 0.417843 0.430599
Si Si4 0.203745 0.193258 0.928313
Si Si5 0.888022 0.389199 0.578594
Si Si6 0.225983 0.974750 0.071774
Si Si7 0.012786 0.307787 0.070562
Si Si8 0.472631 0.442164 0.570552
O O1 0.601860 0.110743 0.750000
O O2 0.662542 0.168280 0.522698
O O3 0.690615 0.060315 0.536857
O O4 0.542664 0.102361 0.473321
O O5 0.296557 0.795536 0.750000
O O6 0.185531 0.845410 0.919696
O O7 0.234377 0.750000 0.000000
O O8 0.303369 0.422190 0.250000
O O9 0.257258 0.359220 0.484579
O O10 0.234686 0.466351 0.488602
O O11 0.385552 0.422187 0.505003
O O12 0.210505 0.199999 0.750000
O O13 0.108387 0.184101 0.978305
O O14 0.239939 0.250000 0.000000
O O15 0.914494 0.405284 0.750000
O O16 0.856431 0.444402 0.492051
O O17 0.965604 0.361865 0.492472
O O18 0.214014 0.983952 0.250000
O O19 0.999629 0.304664 0.250000
O O20 0.978223 0.250000 0.000000
O O21 0.500000 0.500000 0.500000
O O22 0.464356 0.449026 0.750000
#
# Coordination Sequence:
#
# PCOD8231701 Si02
#       8
#     8   8   8   8   8   8   8   8
#     4  10  20  35  54  78 109 142 182 228 274 323
#     4  10  20  33  50  74 108 148 186 224 273 329
#     4  11  22  38  60  85 114 146 185 231 282 337
#     4   9  21  40  62  86 112 146 185 233 284 333
#     4  10  20  33  52  80 113 148 188 231 280 329
#     4  10  20  34  54  81 113 148 185 226 278 333
#     4  10  19  34  56  82 111 144 189 236 282 332
#     4  12  23  36  57  85 113 143 183 227 275 328
#
# _framework density 18.869662999999999
#
# number of rings (size 3 to 8) (size 9 to 14) (size 15 to 20)
#    0.000    1.750    1.250    3.750    0.000    5.000 
#    0.000    1.250    0.000    1.500    0.000    0.000 
#    0.000    0.000    0.000    0.000    0.000    0.000 
#
# Total GULP energy -793796.076519 kJ/mol
# GULP energy per Si atom -12403.063696 kJ/mol
# Density = 1.882672 g / cm^3
# Si number density = 18.869663 Si / 1000 Ang^3
#
#
#
# Elastic Constant Matrix: (Units=GPa)
#
#
# Indices 1 2 3 4 5 6 
#
# 1 86.0733 49.3795 44.1451 0.0000 0.0000 0.0000
# 2 49.3795 106.7160 54.8857 0.0000 0.0000 0.0000
# 3 44.1451 54.8857 114.9017 0.0000 0.0000 0.0000
# 4 0.0000 0.0000 0.0000 33.5536 0.0000 0.0000
# 5 0.0000 0.0000 0.0000 0.0000 29.2604 0.0000
# 6 0.0000 0.0000 0.0000 0.0000 0.0000 19.9029
#
#
#
# Elastic Compliance Matrix: (Units=1/GPa)
#
#
# Indices 1 2 3 4 5 6 
#
# 1 0.016901 -0.005940 -0.003656 0.000000 0.000000 0.000000
# 2 -0.005940 0.014510 -0.004649 0.000000 0.000000 0.000000
# 3 -0.003656 -0.004649 0.012328 0.000000 0.000000 0.000000
# 4 0.000000 0.000000 0.000000 0.029803 0.000000 0.000000
# 5 0.000000 0.000000 0.000000 0.000000 0.034176 0.000000
# 6 0.000000 0.000000 0.000000 0.000000 0.000000 0.050244
#
#
# Mechanical properties :
#
#
# Convention : Reuss Voigt Hill
#
# Bulk Modulus (GPa) = 65.57553 67.16794 66.37173
# Shear Modulus (GPa) = 26.10484 27.16210 26.63347
#
# Velocity S-wave (km/s) = 3.72348 3.79814 3.76099
# Velocity P-wave (km/s) = 7.30158 7.40996 7.35597
#
# Compressibility (1/GPa) = 0.01524959
#
# Stress axis : x y z
#
# Youngs Moduli (GPa) = 59.16899 68.91646 81.11348
#
# Poissons Ratio (x) = 0.40937 0.29654
# Poissons Ratio (y) = 0.35147 0.37710
# Poissons Ratio (z) = 0.21631 0.32040
#
# Static dielectric constant tensor:
#      x y z
#    x 3.485270 0.000000 0.000000 
#    y 0.000000 3.527490 0.000000 
#    z 0.000000 0.000000 3.650250 
# 
# 
# High freq. dielectric constant tensor:
#      x y z
#    x 1.721370 0.000000 0.000000 
#    y 0.000000 1.727230 0.000000 
#    z 0.000000 0.000000 1.748440 
# 
# From -- ./inp_files/5741.got.cif
#   From: 2010.03.12/outbox.cif.g09.slc.cpg/sg57_3_cif.got.tgz:5741.got - 2010.04.16 15:48:40.
