data_PCOD8231501
_publ_section_title
;
Structure prediction by ZEFSAII (Michael W. Deem and Ramdas Pophale) SiO2 
 PCOD8231501
Probable space group: P B C M
;
_chemical_formula_sum "Si O2"
_cell_formula_units_Z 64
_cell_length_a 5.295984
_cell_length_b 30.064060
_cell_length_c 19.749269
_cell_angle_alpha 90.000000
_cell_angle_beta 90.000000
_cell_angle_gamma 90.000000
_cell_volume 3144.454531
_symmetry_space_group_name_H-M "P B C M"
_symmetry_group_IT_number 57
_symmetry_cell_setting 'orthorhombic'
loop_
_space_group_symop_operation_xyz
x,y,z
-x,-y,1/2+z
x,1/2-y,-z
-x,1/2+y,1/2-z
-x,-y,-z
x,y,1/2-z
-x,1/2+y,z
x,1/2-y,1/2+z
loop_
_atom_site_type_symbol
_atom_site_label
_atom_site_fract_x
_atom_site_fract_y
_atom_site_fract_z
Si Si1 0.561350 0.961080 0.588077
Si Si2 0.714627 0.542326 0.555304
Si Si3 0.867713 0.590478 0.323480
Si Si4 0.699822 0.772750 0.170658
Si Si5 0.742909 0.122505 0.073506
Si Si6 0.471338 0.322764 0.674543
Si Si7 0.198809 0.821725 0.169092
Si Si8 0.207015 0.901099 0.071234
O O1 0.732891 0.974575 0.523019
O O2 0.707629 0.954232 0.659110
O O3 0.491026 0.910647 0.566990
O O4 0.337725 0.997030 0.598511
O O5 0.477170 0.574772 0.570256
O O6 0.979569 0.563401 0.577611
O O7 0.996406 0.583198 0.250000
O O8 0.707922 0.635359 0.320109
O O9 0.064073 0.593841 0.383203
O O10 0.704726 0.779468 0.250000
O O11 0.685729 0.720554 0.151859
O O12 0.451327 0.797372 0.142091
O O13 0.958039 0.793597 0.141514
O O14 0.678094 0.167681 0.115374
O O15 0.836428 0.130041 0.996217
O O16 0.596584 0.314817 0.750000
O O17 0.195503 0.826541 0.250000
O O18 0.190799 0.870516 0.137212
#
# Coordination Sequence:
#
# PCOD8231501 Si02
#       8
#     8   8   8   8   8   8   8   8
#     4   9  20  35  54  82 112 146 194 231 275 329
#     4  10  21  36  62  84 109 147 195 237 273 336
#     4  10  19  33  54  81 116 151 184 229 284 340
#     4   9  19  36  61  85 108 144 191 234 278 337
#     4  10  20  33  56  80 118 150 185 229 283 343
#     4   9  19  34  55  84 112 149 192 230 273 338
#     4  10  21  39  61  83 110 145 191 243 288 335
#     4  11  22  38  60  85 112 151 191 238 288 336
#
# _framework density 20.353294000000002
#
# number of rings (size 3 to 8) (size 9 to 14) (size 15 to 20)
#    0.000    2.250    1.250    1.125    3.500    2.000 
#    0.000    1.875    0.000    0.000    0.000    0.000 
#    0.000    0.000    0.000    0.000    0.000    0.000 
#
# Total GULP energy -792854.271153 kJ/mol
# GULP energy per Si atom -12388.347987 kJ/mol
# Density = 2.030697 g / cm^3
# Si number density = 20.353294 Si / 1000 Ang^3
#
#
#
# Elastic Constant Matrix: (Units=GPa)
#
#
# Indices 1 2 3 4 5 6 
#
# 1 77.7833 9.4302 13.6064 0.0000 0.0000 0.0000
# 2 9.4302 72.6185 26.0561 0.0000 0.0000 0.0000
# 3 13.6064 26.0561 66.4003 0.0000 0.0000 0.0000
# 4 0.0000 0.0000 0.0000 29.9242 0.0000 0.0000
# 5 0.0000 0.0000 0.0000 0.0000 19.4150 0.0000
# 6 0.0000 0.0000 0.0000 0.0000 0.0000 26.2639
#
#
#
# Elastic Compliance Matrix: (Units=1/GPa)
#
#
# Indices 1 2 3 4 5 6 
#
# 1 0.013382 -0.000877 -0.002398 0.000000 0.000000 0.000000
# 2 -0.000877 0.016085 -0.006132 0.000000 0.000000 0.000000
# 3 -0.002398 -0.006132 0.017958 0.000000 0.000000 0.000000
# 4 0.000000 0.000000 0.000000 0.033418 0.000000 0.000000
# 5 0.000000 0.000000 0.000000 0.000000 0.051506 0.000000
# 6 0.000000 0.000000 0.000000 0.000000 0.000000 0.038075
#
#
# Mechanical properties :
#
#
# Convention : Reuss Voigt Hill
#
# Bulk Modulus (GPa) = 34.95280 34.99860 34.97570
# Shear Modulus (GPa) = 25.15405 26.30126 25.72766
#
# Velocity S-wave (km/s) = 3.51931 3.59867 3.55921
# Velocity P-wave (km/s) = 5.80727 5.87368 5.84057
#
# Compressibility (1/GPa) = 0.02861001
#
# Stress axis : x y z
#
# Youngs Moduli (GPa) = 74.72693 62.17070 55.68613
#
# Poissons Ratio (x) = 0.05455 0.13353
# Poissons Ratio (y) = 0.06557 0.34147
# Poissons Ratio (z) = 0.17919 0.38123
#
# Static dielectric constant tensor:
#      x y z
#    x 3.852200 0.000000 0.000000 
#    y 0.000000 3.628570 0.000000 
#    z 0.000000 0.000000 3.965360 
# 
# 
# High freq. dielectric constant tensor:
#      x y z
#    x 1.794090 0.000000 0.000000 
#    y 0.000000 1.785680 0.000000 
#    z 0.000000 0.000000 1.772660 
# 
# From -- ./inp_files/20359.got.cif
#   From: 2010.03.12/outbox.cif.g09.slc.cpg/sg57_11_cif.got.tgz:20359.got - 2010.04.16 15:48:40.
