data_PCOD8231504
_publ_section_title
;
Structure prediction by ZEFSAII (Michael W. Deem and Ramdas Pophale) SiO2 
 PCOD8231504
Probable space group: P B C M
;
_chemical_formula_sum "Si O2"
_cell_formula_units_Z 60
_cell_length_a 13.102605
_cell_length_b 17.395318
_cell_length_c 14.546473
_cell_angle_alpha 90.000000
_cell_angle_beta 90.000000
_cell_angle_gamma 90.000000
_cell_volume 3315.490030
_symmetry_space_group_name_H-M "P B C M"
_symmetry_group_IT_number 57
_symmetry_cell_setting 'orthorhombic'
loop_
_space_group_symop_operation_xyz
x,y,z
-x,-y,1/2+z
x,1/2-y,-z
-x,1/2+y,1/2-z
-x,-y,-z
x,y,1/2-z
-x,1/2+y,z
x,1/2-y,1/2+z
loop_
_atom_site_type_symbol
_atom_site_label
_atom_site_fract_x
_atom_site_fract_y
_atom_site_fract_z
Si Si1 0.909572 0.010077 0.927791
Si Si2 0.394471 0.633371 0.352752
Si Si3 0.071163 0.250000 0.000000
Si Si4 0.060276 0.669689 0.849138
Si Si5 0.311770 0.941926 0.026848
Si Si6 0.387448 0.075419 0.146025
Si Si7 0.169934 0.142643 0.353496
Si Si8 0.726823 0.219237 0.902670
O O1 0.930870 0.078065 0.856415
O O2 0.804346 0.029112 0.980229
O O3 0.897478 0.933490 0.867906
O O4 0.000000 0.000000 0.000000
O O5 0.370648 0.603938 0.250000
O O6 0.341406 0.573708 0.421511
O O7 0.515628 0.630180 0.372840
O O8 0.354856 0.721163 0.360739
O O9 0.141743 0.203865 0.069566
O O10 0.002216 0.304602 0.062273
O O11 0.007921 0.688084 0.750000
O O12 0.170770 0.710832 0.843254
O O13 0.325909 0.863985 0.086150
O O14 0.384929 0.004699 0.074401
O O15 0.389189 0.041772 0.250000
O O16 0.289178 0.128214 0.132457
O O17 0.147627 0.172877 0.250000
O O18 0.765395 0.250000 0.000000
#
# Coordination Sequence:
#
# PCOD8231504 Si02
#       8
#     8   8   4   8   8   8   8   8
#     4  10  19  37  58  78 111 145 186 228 263 319
#     4  10  19  33  54  82 114 143 172 223 280 327
#     4  12  22  36  54  80 116 140 180 228 276 324
#     4  11  21  34  56  82 111 146 181 222 272 326
#     4   9  19  33  56  79 107 141 184 226 266 318
#     4   9  19  36  58  78 102 142 192 227 262 320
#     4  10  21  38  58  79 105 147 190 227 271 322
#     4   9  18  33  50  80 111 139 175 221 269 326
#
# _framework density 18.096872000000001
#
# number of rings (size 3 to 8) (size 9 to 14) (size 15 to 20)
#    0.000    2.133    2.000    1.600    0.000    3.733 
#    3.600    1.333    0.000    0.000    0.000    0.000 
#    0.000    0.000    0.000    0.000    0.000    0.000 
#
# Total GULP energy -743728.560510 kJ/mol
# GULP energy per Si atom -12395.476009 kJ/mol
# Density = 1.805568 g / cm^3
# Si number density = 18.096872 Si / 1000 Ang^3
#
#
#
# Elastic Constant Matrix: (Units=GPa)
#
#
# Indices 1 2 3 4 5 6 
#
# 1 89.7128 45.7986 53.1029 0.0000 0.0000 0.0000
# 2 45.7986 102.8732 53.5944 0.0000 0.0000 0.0000
# 3 53.1029 53.5944 138.8046 0.0000 0.0000 0.0000
# 4 0.0000 0.0000 0.0000 21.8037 0.0000 0.0000
# 5 0.0000 0.0000 0.0000 0.0000 12.4586 0.0000
# 6 0.0000 0.0000 0.0000 0.0000 0.0000 11.1848
#
#
#
# Elastic Compliance Matrix: (Units=1/GPa)
#
#
# Indices 1 2 3 4 5 6 
#
# 1 0.016231 -0.004996 -0.004280 0.000000 0.000000 0.000000
# 2 -0.004996 0.013706 -0.003381 0.000000 0.000000 0.000000
# 3 -0.004280 -0.003381 0.010147 0.000000 0.000000 0.000000
# 4 0.000000 0.000000 0.000000 0.045864 0.000000 0.000000
# 5 0.000000 0.000000 0.000000 0.000000 0.080266 0.000000
# 6 0.000000 0.000000 0.000000 0.000000 0.000000 0.089407
#
#
# Mechanical properties :
#
#
# Convention : Reuss Voigt Hill
#
# Bulk Modulus (GPa) = 67.70513 70.70915 69.20714
# Shear Modulus (GPa) = 17.49115 21.01573 19.25344
#
# Velocity S-wave (km/s) = 3.11228 3.41147 3.26530
# Velocity P-wave (km/s) = 7.09992 7.39425 7.24858
#
# Compressibility (1/GPa) = 0.01476993
#
# Stress axis : x y z
#
# Youngs Moduli (GPa) = 61.61139 72.95986 98.54757
#
# Poissons Ratio (x) = 0.36449 0.42183
# Poissons Ratio (y) = 0.30780 0.33318
# Poissons Ratio (z) = 0.26373 0.24667
#
# Static dielectric constant tensor:
#      x y z
#    x 3.303220 0.000000 0.000000 
#    y 0.000000 3.363130 0.000000 
#    z 0.000000 0.000000 3.403990 
# 
# 
# High freq. dielectric constant tensor:
#      x y z
#    x 1.693260 0.000000 0.000000 
#    y 0.000000 1.694860 0.000000 
#    z 0.000000 0.000000 1.709490 
# 
# From -- ./inp_files/17907.got.cif
#   From: 2010.03.12/outbox.cif.g09.slc.cpg/sg57_9_cif.got.tgz:17907.got - 2010.04.16 15:48:40.
