data_PCOD8231471
_publ_section_title
;
Structure prediction by ZEFSAII (Michael W. Deem and Ramdas Pophale) SiO2 
 PCOD8231471
Probable space group: P B C M
;
_chemical_formula_sum "Si O2"
_cell_formula_units_Z 48
_cell_length_a 17.830026
_cell_length_b 9.741336
_cell_length_c 15.375827
_cell_angle_alpha 90.000000
_cell_angle_beta 90.000000
_cell_angle_gamma 90.000000
_cell_volume 2670.600855
_symmetry_space_group_name_H-M "P B C M"
_symmetry_group_IT_number 57
_symmetry_cell_setting 'orthorhombic'
loop_
_space_group_symop_operation_xyz
x,y,z
-x,-y,1/2+z
x,1/2-y,-z
-x,1/2+y,1/2-z
-x,-y,-z
x,y,1/2-z
-x,1/2+y,z
x,1/2-y,1/2+z
loop_
_atom_site_type_symbol
_atom_site_label
_atom_site_fract_x
_atom_site_fract_y
_atom_site_fract_z
Si Si1 0.319453 0.407690 0.490973
Si Si2 0.180315 0.596514 0.019026
Si Si3 0.558004 0.870191 0.151125
Si Si4 0.581849 0.942201 0.651152
Si Si5 0.944498 0.162930 0.153201
Si Si6 0.044896 0.544452 0.915684
O O1 0.294299 0.250000 0.500000
O O2 0.249109 0.497378 0.461831
O O3 0.380529 0.426681 0.415386
O O4 0.350298 0.462597 0.583539
O O5 0.125655 0.597294 0.102359
O O6 0.210016 0.750000 0.000000
O O7 0.134130 0.537772 0.935393
O O8 0.583921 0.902751 0.250000
O O9 0.545263 0.707886 0.137633
O O10 0.479991 0.943818 0.130091
O O11 0.612406 0.958570 0.750000
O O12 0.916727 0.196259 0.250000
O O13 0.975086 0.299398 0.107311
O O14 0.015790 0.058724 0.158746
O O15 0.000000 0.500000 0.000000
#
# Coordination Sequence:
#
# PCOD8231471 Si02
#       6
#     8   8   8   8   8   8
#     4  10  20  33  50  72 100 134 167 203 250 303
#     4   9  20  35  49  69 101 135 164 199 247 301
#     4   9  18  32  51  73  98 126 162 207 251 296
#     4   9  18  33  50  72  98 126 164 209 251 296
#     4  10  19  33  54  79 102 128 168 216 255 297
#     4   9  18  34  53  73 100 133 166 204 252 303
#
# _framework density 17.973483000000002
#
# number of rings (size 3 to 8) (size 9 to 14) (size 15 to 20)
#    0.000    2.667    0.000    2.500    0.000    4.667 
#    0.000    4.167    0.000    2.000    0.000    0.000 
#    0.000    0.000    0.000    0.000    0.000    0.000 
#
# Total GULP energy -595013.479934 kJ/mol
# GULP energy per Si atom -12396.114165 kJ/mol
# Density = 1.793257 g / cm^3
# Si number density = 17.973483 Si / 1000 Ang^3
#
#
#
# Elastic Constant Matrix: (Units=GPa)
#
#
# Indices 1 2 3 4 5 6 
#
# 1 68.8745 51.6800 37.7400 0.0000 0.0000 0.0000
# 2 51.6800 83.5358 38.5848 0.0000 0.0000 0.0000
# 3 37.7400 38.5848 97.4882 0.0000 0.0000 0.0000
# 4 0.0000 0.0000 0.0000 17.4184 0.0000 0.0000
# 5 0.0000 0.0000 0.0000 0.0000 17.6766 0.0000
# 6 0.0000 0.0000 0.0000 0.0000 0.0000 36.5696
#
#
#
# Elastic Compliance Matrix: (Units=1/GPa)
#
#
# Indices 1 2 3 4 5 6 
#
# 1 0.028996 -0.015607 -0.005048 0.000000 0.000000 0.000000
# 2 -0.015607 0.023049 -0.003081 0.000000 0.000000 0.000000
# 3 -0.005048 -0.003081 0.013431 0.000000 0.000000 0.000000
# 4 0.000000 0.000000 0.000000 0.057411 0.000000 0.000000
# 5 0.000000 0.000000 0.000000 0.000000 0.056572 0.000000
# 6 0.000000 0.000000 0.000000 0.000000 0.000000 0.027345
#
#
# Mechanical properties :
#
#
# Convention : Reuss Voigt Hill
#
# Bulk Modulus (GPa) = 55.54029 56.21202 55.87615
# Shear Modulus (GPa) = 19.21030 22.45916 20.83473
#
# Velocity S-wave (km/s) = 3.27282 3.53876 3.40839
# Velocity P-wave (km/s) = 6.72682 6.93109 6.82972
#
# Compressibility (1/GPa) = 0.01800495
#
# Stress axis : x y z
#
# Youngs Moduli (GPa) = 34.48772 43.38536 74.45345
#
# Poissons Ratio (x) = 0.67711 0.37584
# Poissons Ratio (y) = 0.53824 0.22938
# Poissons Ratio (z) = 0.17409 0.13366
#
# Static dielectric constant tensor:
#      x y z
#    x 3.110340 0.000000 0.000000 
#    y 0.000000 3.566060 0.000000 
#    z 0.000000 0.000000 3.585300 
# 
# 
# High freq. dielectric constant tensor:
#      x y z
#    x 1.669410 0.000000 0.000000 
#    y 0.000000 1.702760 0.000000 
#    z 0.000000 0.000000 1.702350 
# 
# From -- ./inp_files/22471.got.cif
#   From: 2010.03.12/outbox.cif.g09.slc.cpg/sg57_12_cif.got.tgz:22471.got - 2010.04.16 15:48:40.
