data_PCOD8231801
_publ_section_title
;
Structure prediction by ZEFSAII (Michael W. Deem and Ramdas Pophale) SiO2 
 PCOD8231801
Probable space group: P B C M
;
_chemical_formula_sum "Si O2"
_cell_formula_units_Z 48
_cell_length_a 9.791191
_cell_length_b 27.778147
_cell_length_c 9.010440
_cell_angle_alpha 90.000000
_cell_angle_beta 90.000000
_cell_angle_gamma 90.000000
_cell_volume 2450.669769
_symmetry_space_group_name_H-M "P B C M"
_symmetry_group_IT_number 57
_symmetry_cell_setting 'orthorhombic'
loop_
_space_group_symop_operation_xyz
x,y,z
-x,-y,1/2+z
x,1/2-y,-z
-x,1/2+y,1/2-z
-x,-y,-z
x,y,1/2-z
-x,1/2+y,z
x,1/2-y,1/2+z
loop_
_atom_site_type_symbol
_atom_site_label
_atom_site_fract_x
_atom_site_fract_y
_atom_site_fract_z
Si Si1 0.280004 0.606266 0.921804
Si Si2 0.777043 0.897740 0.579458
Si Si3 0.347719 0.798929 0.924903
Si Si4 0.950773 0.048348 0.422310
Si Si5 0.452914 0.452479 0.419808
Si Si6 0.335662 0.202322 0.422506
O O1 0.238726 0.611939 0.750000
O O2 0.435644 0.589297 0.939328
O O3 0.263078 0.657070 0.005052
O O4 0.185269 0.566369 0.997715
O O5 0.729164 0.901879 0.750000
O O6 0.690031 0.935623 0.486556
O O7 0.751191 0.843509 0.521292
O O8 0.935515 0.910166 0.560058
O O9 0.320517 0.796993 0.750000
O O10 0.506578 0.806158 0.964100
O O11 0.293493 0.750000 0.000000
O O12 0.920213 0.037794 0.250000
O O13 0.000000 0.000000 0.500000
O O14 0.500000 0.500000 0.500000
O O15 0.428359 0.465664 0.250000
O O16 0.277222 0.250000 0.500000
O O17 0.316550 0.210767 0.250000
#
# Coordination Sequence:
#
# PCOD8231801 Si02
#       6
#     8   8   8   8   8   8
#     4  11  23  39  58  85 118 153 197 241 287 347
#     4  10  21  39  59  83 114 150 191 237 288 346
#     4  10  19  34  59  88 119 153 189 236 291 345
#     4  11  24  41  61  83 115 157 199 242 296 354
#     4  11  23  36  56  84 113 146 189 242 292 343
#     4   9  18  33  56  85 116 147 182 229 285 340
#
# _framework density 19.586483999999999
#
# number of rings (size 3 to 8) (size 9 to 14) (size 15 to 20)
#    0.000    1.667    1.667    3.000    0.000    8.667 
#    0.000    0.833    0.000    2.000    0.000    0.000 
#    0.000    0.000    0.000    0.000    0.000    0.000 
#
# Total GULP energy -595441.706759 kJ/mol
# GULP energy per Si atom -12405.035557 kJ/mol
# Density = 1.954190 g / cm^3
# Si number density = 19.586484 Si / 1000 Ang^3
#
#
#
# Elastic Constant Matrix: (Units=GPa)
#
#
# Indices 1 2 3 4 5 6 
#
# 1 39.8244 0.1343 21.4493 0.0000 0.0000 0.0000
# 2 0.1343 110.2398 42.7562 0.0000 0.0000 0.0000
# 3 21.4493 42.7562 110.1762 0.0000 0.0000 0.0000
# 4 0.0000 0.0000 0.0000 42.0768 0.0000 0.0000
# 5 0.0000 0.0000 0.0000 0.0000 26.5665 0.0000
# 6 0.0000 0.0000 0.0000 0.0000 0.0000 34.6159
#
#
#
# Elastic Compliance Matrix: (Units=1/GPa)
#
#
# Indices 1 2 3 4 5 6 
#
# 1 0.028627 0.002503 -0.006545 0.000000 0.000000 0.000000
# 2 0.002503 0.010897 -0.004716 0.000000 0.000000 0.000000
# 3 -0.006545 -0.004716 0.012181 0.000000 0.000000 0.000000
# 4 0.000000 0.000000 0.000000 0.023766 0.000000 0.000000
# 5 0.000000 0.000000 0.000000 0.000000 0.037641 0.000000
# 6 0.000000 0.000000 0.000000 0.000000 0.000000 0.028888
#
#
# Mechanical properties :
#
#
# Convention : Reuss Voigt Hill
#
# Bulk Modulus (GPa) = 29.24852 43.21334 36.23093
# Shear Modulus (GPa) = 29.25481 33.71189 31.48335
#
# Velocity S-wave (km/s) = 3.86893 4.15321 4.01359
# Velocity P-wave (km/s) = 5.90962 6.71637 6.32587
#
# Compressibility (1/GPa) = 0.03418976
#
# Stress axis : x y z
#
# Youngs Moduli (GPa) = 34.93248 91.76597 82.09683
#
# Poissons Ratio (x) = -0.22973 0.53729
# Poissons Ratio (y) = -0.08745 0.38719
# Poissons Ratio (z) = 0.22862 0.43280
#
# Static dielectric constant tensor:
#      x y z
#    x 3.442840 0.000000 0.000000 
#    y 0.000000 3.561610 0.000000 
#    z 0.000000 0.000000 3.623250 
# 
# 
# High freq. dielectric constant tensor:
#      x y z
#    x 1.740360 0.000000 0.000000 
#    y 0.000000 1.776650 0.000000 
#    z 0.000000 0.000000 1.772010 
# 
# From -- ./inp_files/2135.got.cif
#   From: 2010.03.12/outbox.cif.g09.slc.cpg/sg57_2_cif.got.tgz:2135.got - 2010.04.16 15:48:40.
