data_PCOD8231894
_publ_section_title
;
Structure prediction by ZEFSAII (Michael W. Deem and Ramdas Pophale) SiO2 
 PCOD8231894
Probable space group: P B C M
;
_chemical_formula_sum "Si O2"
_cell_formula_units_Z 64
_cell_length_a 8.819296
_cell_length_b 22.057296
_cell_length_c 15.268666
_cell_angle_alpha 90.000000
_cell_angle_beta 90.000000
_cell_angle_gamma 90.000000
_cell_volume 2970.210885
_symmetry_space_group_name_H-M "P B C M"
_symmetry_group_IT_number 57
_symmetry_cell_setting 'orthorhombic'
loop_
_space_group_symop_operation_xyz
x,y,z
-x,-y,1/2+z
x,1/2-y,-z
-x,1/2+y,1/2-z
-x,-y,-z
x,y,1/2-z
-x,1/2+y,z
x,1/2-y,1/2+z
loop_
_atom_site_type_symbol
_atom_site_label
_atom_site_fract_x
_atom_site_fract_y
_atom_site_fract_z
Si Si1 0.297080 0.411260 0.086058
Si Si2 0.306217 0.303392 0.650018
Si Si3 0.899577 0.807297 0.150854
Si Si4 0.891430 0.590174 0.415389
Si Si5 0.458419 0.859295 0.532133
Si Si6 0.137605 0.640067 0.970713
Si Si7 0.206497 0.527253 0.650451
Si Si8 0.465875 0.523862 0.350191
O O1 0.199492 0.368553 0.149882
O O2 0.339843 0.472052 0.137539
O O3 0.195143 0.428561 0.003585
O O4 0.446430 0.375280 0.054592
O O5 0.357213 0.293475 0.750000
O O6 0.204671 0.247654 0.616493
O O7 0.209955 0.364869 0.642667
O O8 0.455839 0.308329 0.589728
O O9 0.956220 0.795471 0.250000
O O10 0.042709 0.810569 0.085062
O O11 0.913534 0.528092 0.360983
O O12 0.050292 0.621248 0.440170
O O13 0.298102 0.831931 0.500135
O O14 0.427796 0.919613 0.588660
O O15 0.159355 0.581705 0.910651
O O16 0.204532 0.550698 0.750000
O O17 0.371512 0.502930 0.622499
O O18 0.466689 0.546134 0.250000
#
# Coordination Sequence:
#
# PCOD8231894 Si02
#       8
#     8   8   8   8   8   8   8   8
#     4  10  19  35  58  86 123 168 211 250 293 359
#     4  10  21  43  69  88 116 162 215 258 301 367
#     4  10  23  43  64  89 123 167 211 250 305 375
#     4  10  21  36  60  88 124 169 210 249 307 371
#     4  11  21  37  63  95 123 158 203 261 313 361
#     4  11  23  38  58  92 131 163 197 257 317 372
#     4  11  20  34  58  89 131 172 207 248 307 371
#     4  11  20  33  58  91 130 167 208 257 307 362
#
# _framework density 21.547294000000001
#
# number of rings (size 3 to 8) (size 9 to 14) (size 15 to 20)
#    0.000    1.500    3.750    3.000    0.000    5.500 
#    0.000    7.500    0.000    3.000    0.000    0.000 
#    0.000    0.000    0.000    0.000    0.000    0.000 
#
# Total GULP energy -793796.641738 kJ/mol
# GULP energy per Si atom -12403.072527 kJ/mol
# Density = 2.149825 g / cm^3
# Si number density = 21.547294 Si / 1000 Ang^3
#
#
#
# Elastic Constant Matrix: (Units=GPa)
#
#
# Indices 1 2 3 4 5 6 
#
# 1 132.5857 28.0332 43.3722 0.0000 0.0000 0.0000
# 2 28.0332 79.9530 24.8286 0.0000 0.0000 0.0000
# 3 43.3722 24.8286 68.4387 0.0000 0.0000 0.0000
# 4 0.0000 0.0000 0.0000 29.2354 0.0000 0.0000
# 5 0.0000 0.0000 0.0000 0.0000 26.2307 0.0000
# 6 0.0000 0.0000 0.0000 0.0000 0.0000 31.3033
#
#
#
# Elastic Compliance Matrix: (Units=1/GPa)
#
#
# Indices 1 2 3 4 5 6 
#
# 1 0.009712 -0.001684 -0.005544 0.000000 0.000000 0.000000
# 2 -0.001684 0.014387 -0.004153 0.000000 0.000000 0.000000
# 3 -0.005544 -0.004153 0.019632 0.000000 0.000000 0.000000
# 4 0.000000 0.000000 0.000000 0.034205 0.000000 0.000000
# 5 0.000000 0.000000 0.000000 0.000000 0.038123 0.000000
# 6 0.000000 0.000000 0.000000 0.000000 0.000000 0.031946
#
#
# Mechanical properties :
#
#
# Convention : Reuss Voigt Hill
#
# Bulk Modulus (GPa) = 47.68630 52.60505 50.14568
# Shear Modulus (GPa) = 28.12866 29.67012 28.89939
#
# Velocity S-wave (km/s) = 3.61700 3.71479 3.66622
# Velocity P-wave (km/s) = 6.29465 6.54724 6.42219
#
# Compressibility (1/GPa) = 0.02097038
#
# Stress axis : x y z
#
# Youngs Moduli (GPa) = 102.96718 69.50644 50.93842
#
# Poissons Ratio (x) = 0.11702 0.28240
# Poissons Ratio (y) = 0.17335 0.21152
# Poissons Ratio (z) = 0.57085 0.28863
#
# Static dielectric constant tensor:
#      x y z
#    x 4.048120 0.000000 0.000000 
#    y 0.000000 3.740530 0.000000 
#    z 0.000000 0.000000 3.883710 
# 
# 
# High freq. dielectric constant tensor:
#      x y z
#    x 1.837290 0.000000 0.000000 
#    y 0.000000 1.833690 0.000000 
#    z 0.000000 0.000000 1.846170 
# 
# From -- ./inp_files/16930.got.cif
#   From: 2010.03.12/outbox.cif.g09.slc.cpg/sg57_9_cif.got.tgz:16930.got - 2010.04.16 15:48:40.
