data_PCOD8231083
_publ_section_title
;
Structure prediction by ZEFSAII (Michael W. Deem and Ramdas Pophale) SiO2 
 PCOD8231083
Probable space group: P B C M
;
_chemical_formula_sum "Si O2"
_cell_formula_units_Z 64
_cell_length_a 14.297952
_cell_length_b 30.157371
_cell_length_c 9.033347
_cell_angle_alpha 90.000000
_cell_angle_beta 90.000000
_cell_angle_gamma 90.000000
_cell_volume 3895.076635
_symmetry_space_group_name_H-M "P B C M"
_symmetry_group_IT_number 57
_symmetry_cell_setting 'orthorhombic'
loop_
_space_group_symop_operation_xyz
x,y,z
-x,-y,1/2+z
x,1/2-y,-z
-x,1/2+y,1/2-z
-x,-y,-z
x,y,1/2-z
-x,1/2+y,z
x,1/2-y,1/2+z
loop_
_atom_site_type_symbol
_atom_site_label
_atom_site_fract_x
_atom_site_fract_y
_atom_site_fract_z
Si Si1 0.959894 0.542893 0.920561
Si Si2 0.447391 0.458877 0.076814
Si Si3 0.759545 0.514502 0.581840
Si Si4 0.146418 0.705313 0.076177
Si Si5 0.922932 0.375734 0.416771
Si Si6 0.264190 0.928181 0.084284
Si Si7 0.639041 0.205313 0.076545
Si Si8 0.435567 0.888419 0.575591
O O1 0.990175 0.538734 0.750000
O O2 0.847806 0.547293 0.939365
O O3 0.006413 0.587727 0.985144
O O4 0.000000 0.500000 0.000000
O O5 0.470836 0.460767 0.250000
O O6 0.336789 0.460443 0.045775
O O7 0.500000 0.500000 0.000000
O O8 0.478937 0.411574 0.009815
O O9 0.757830 0.496027 0.750000
O O10 0.776475 0.475052 0.467101
O O11 0.136683 0.710258 0.250000
O O12 0.253944 0.695617 0.028931
O O13 0.111309 0.750000 0.000000
O O14 0.076425 0.667119 0.020983
O O15 0.953095 0.362610 0.250000
O O16 0.817762 0.393081 0.417015
O O17 0.306755 0.932212 0.250000
O O18 0.342454 0.914745 0.967112
O O19 0.632664 0.213149 0.250000
O O20 0.575318 0.163253 0.028552
O O21 0.600601 0.250000 0.000000
O O22 0.451040 0.893172 0.750000
#
# Coordination Sequence:
#
# PCOD8231083 Si02
#       8
#     8   8   8   8   8   8   8   8
#     4  10  20  34  50  71  98 131 167 206 246 291
#     4  11  22  34  49  72  97 131 171 208 248 292
#     4  10  21  35  50  67  97 133 168 208 249 289
#     4  10  19  32  49  71  99 131 163 199 243 294
#     4  10  20  32  47  72 101 131 167 203 244 294
#     4  11  20  29  47  72  99 131 167 205 242 286
#     4   9  19  32  48  70  97 127 160 196 240 291
#     4  11  21  34  49  71 100 134 168 202 246 295
#
# _framework density 16.431000000000001
#
# number of rings (size 3 to 8) (size 9 to 14) (size 15 to 20)
#    0.000    1.750    3.750    1.500    0.000    3.000 
#    0.000    0.000    0.000    0.000    0.000    0.875 
#    0.000    2.000    0.000    0.000    0.000    0.000 
#
# Total GULP energy -793563.744921 kJ/mol
# GULP energy per Si atom -12399.433514 kJ/mol
# Density = 1.639360 g / cm^3
# Si number density = 16.431000 Si / 1000 Ang^3
#
#
#
# Elastic Constant Matrix: (Units=GPa)
#
#
# Indices 1 2 3 4 5 6 
#
# 1 79.2825 44.3250 30.3542 0.0000 0.0000 0.0000
# 2 44.3250 132.6232 55.1581 0.0000 0.0000 0.0000
# 3 30.3542 55.1581 70.7550 0.0000 0.0000 0.0000
# 4 0.0000 0.0000 0.0000 31.3961 0.0000 0.0000
# 5 0.0000 0.0000 0.0000 0.0000 18.2247 0.0000
# 6 0.0000 0.0000 0.0000 0.0000 0.0000 25.2379
#
#
#
# Elastic Compliance Matrix: (Units=1/GPa)
#
#
# Indices 1 2 3 4 5 6 
#
# 1 0.016261 -0.003749 -0.004054 0.000000 0.000000 0.000000
# 2 -0.003749 0.012022 -0.007764 0.000000 0.000000 0.000000
# 3 -0.004054 -0.007764 0.021925 0.000000 0.000000 0.000000
# 4 0.000000 0.000000 0.000000 0.031851 0.000000 0.000000
# 5 0.000000 0.000000 0.000000 0.000000 0.054871 0.000000
# 6 0.000000 0.000000 0.000000 0.000000 0.000000 0.039623
#
#
# Mechanical properties :
#
#
# Convention : Reuss Voigt Hill
#
# Bulk Modulus (GPa) = 52.42356 60.25947 56.34151
# Shear Modulus (GPa) = 23.35981 25.15995 24.25988
#
# Velocity S-wave (km/s) = 3.77462 3.91736 3.84666
# Velocity P-wave (km/s) = 7.13944 7.56405 7.35481
#
# Compressibility (1/GPa) = 0.01907539
#
# Stress axis : x y z
#
# Youngs Moduli (GPa) = 61.49700 83.18090 45.61096
#
# Poissons Ratio (x) = 0.31183 0.18489
# Poissons Ratio (y) = 0.23054 0.35411
# Poissons Ratio (z) = 0.24928 0.64579
#
# Static dielectric constant tensor:
#      x y z
#    x 3.043670 0.000000 0.000000 
#    y 0.000000 3.158710 0.000000 
#    z 0.000000 0.000000 3.198060 
# 
# 
# High freq. dielectric constant tensor:
#      x y z
#    x 1.604640 0.000000 0.000000 
#    y 0.000000 1.623380 0.000000 
#    z 0.000000 0.000000 1.641520 
# 
# From -- ./inp_files/6046.got.cif
#   From: 2010.03.12/outbox.cif.g09.slc.cpg/sg57_4_cif.got.tgz:6046.got - 2010.04.16 15:48:40.
