data_PCOD8231503
_publ_section_title
;
Structure prediction by ZEFSAII (Michael W. Deem and Ramdas Pophale) SiO2 
 PCOD8231503
Probable space group: P B C M
;
_chemical_formula_sum "Si O2"
_cell_formula_units_Z 56
_cell_length_a 21.801254
_cell_length_b 13.967044
_cell_length_c 8.964051
_cell_angle_alpha 90.000000
_cell_angle_beta 90.000000
_cell_angle_gamma 90.000000
_cell_volume 2729.545228
_symmetry_space_group_name_H-M "P B C M"
_symmetry_group_IT_number 57
_symmetry_cell_setting 'orthorhombic'
loop_
_space_group_symop_operation_xyz
x,y,z
-x,-y,1/2+z
x,1/2-y,-z
-x,1/2+y,1/2-z
-x,-y,-z
x,y,1/2-z
-x,1/2+y,z
x,1/2-y,1/2+z
loop_
_atom_site_type_symbol
_atom_site_label
_atom_site_fract_x
_atom_site_fract_y
_atom_site_fract_z
Si Si1 0.937880 0.973821 0.082140
Si Si2 0.136930 0.835553 0.915359
Si Si3 0.834563 0.647234 0.072287
Si Si4 0.736574 0.339395 0.080254
Si Si5 0.533225 0.353307 0.424844
Si Si6 0.410974 0.034437 0.576809
Si Si7 0.707589 0.948937 0.920052
O O1 0.950168 0.934216 0.250000
O O2 0.903392 0.072305 0.091598
O O3 0.896953 0.898535 0.990914
O O4 0.000000 0.000000 0.000000
O O5 0.154680 0.801504 0.750000
O O6 0.100326 0.750000 0.000000
O O7 0.197600 0.856473 0.007947
O O8 0.840589 0.653827 0.250000
O O9 0.774193 0.586871 0.023741
O O10 0.825984 0.750000 0.000000
O O11 0.745524 0.310606 0.250000
O O12 0.699999 0.437050 0.063278
O O13 0.701983 0.250000 0.000000
O O14 0.543528 0.250000 0.500000
O O15 0.547903 0.343763 0.250000
O O16 0.464094 0.388692 0.454825
O O17 0.578114 0.434038 0.491955
O O18 0.405105 0.009997 0.750000
O O19 0.348932 0.088235 0.519889
O O20 0.698432 0.915202 0.750000
#
# Coordination Sequence:
#
# PCOD8231503 Si02
#       7
#     8   8   8   8   8   8   8
#     4  11  24  41  63  90 120 158 202 252 306 362
#     4  10  20  34  56  84 112 145 185 231 287 348
#     4  11  24  44  66  90 123 163 207 256 309 365
#     4  10  19  33  54  82 113 149 188 231 289 351
#     4  10  21  39  62  88 121 161 205 253 307 361
#     4  10  22  38  60  90 122 160 205 254 304 359
#     4  10  22  39  60  86 123 164 201 249 305 362
#
# _framework density 20.516238999999999
#
# number of rings (size 3 to 8) (size 9 to 14) (size 15 to 20)
#    0.000    1.714    1.429    3.429    0.000    7.429 
#    0.000    5.714    0.000    0.000    0.000    0.000 
#    0.000    0.000    0.000    0.000    0.000    0.000 
#
# Total GULP energy -694143.162299 kJ/mol
# GULP energy per Si atom -12395.413612 kJ/mol
# Density = 2.046954 g / cm^3
# Si number density = 20.516239 Si / 1000 Ang^3
#
#
#
# Elastic Constant Matrix: (Units=GPa)
#
#
# Indices 1 2 3 4 5 6 
#
# 1 105.4276 21.7270 56.6299 0.0000 0.0000 0.0000
# 2 21.7270 84.2138 43.8904 0.0000 0.0000 0.0000
# 3 56.6299 43.8904 142.3009 0.0000 0.0000 0.0000
# 4 0.0000 0.0000 0.0000 34.7663 0.0000 0.0000
# 5 0.0000 0.0000 0.0000 0.0000 32.6559 0.0000
# 6 0.0000 0.0000 0.0000 0.0000 0.0000 9.6927
#
#
#
# Elastic Compliance Matrix: (Units=1/GPa)
#
#
# Indices 1 2 3 4 5 6 
#
# 1 0.012101 -0.000729 -0.004591 0.000000 0.000000 0.000000
# 2 -0.000729 0.014193 -0.004087 0.000000 0.000000 0.000000
# 3 -0.004591 -0.004087 0.010115 0.000000 0.000000 0.000000
# 4 0.000000 0.000000 0.000000 0.028764 0.000000 0.000000
# 5 0.000000 0.000000 0.000000 0.000000 0.030622 0.000000
# 6 0.000000 0.000000 0.000000 0.000000 0.000000 0.103171
#
#
# Mechanical properties :
#
#
# Convention : Reuss Voigt Hill
#
# Bulk Modulus (GPa) = 56.83718 64.04855 60.44287
# Shear Modulus (GPa) = 22.35677 29.40264 25.87971
#
# Velocity S-wave (km/s) = 3.30466 3.78979 3.55551
# Velocity P-wave (km/s) = 6.50574 7.10185 6.81032
#
# Compressibility (1/GPa) = 0.01759412
#
# Stress axis : x y z
#
# Youngs Moduli (GPa) = 82.63448 70.45752 98.86308
#
# Poissons Ratio (x) = 0.05140 0.45387
# Poissons Ratio (y) = 0.06028 0.40408
# Poissons Ratio (z) = 0.37937 0.28798
#
# Static dielectric constant tensor:
#      x y z
#    x 3.264940 0.000000 0.000000 
#    y 0.000000 3.886650 0.000000 
#    z 0.000000 0.000000 4.093970 
# 
# 
# High freq. dielectric constant tensor:
#      x y z
#    x 1.800970 0.000000 0.000000 
#    y 0.000000 1.801500 0.000000 
#    z 0.000000 0.000000 1.816410 
# 
# From -- ./inp_files/8065.got.cif
#   From: 2010.03.12/outbox.cif.g09.slc.cpg/sg57_5_cif.got.tgz:8065.got - 2010.04.16 15:48:40.
