data_PCOD8231240
_publ_section_title
;
Structure prediction by ZEFSAII (Michael W. Deem and Ramdas Pophale) SiO2 
 PCOD8231240
Probable space group: P B C M
;
_chemical_formula_sum "Si O2"
_cell_formula_units_Z 64
_cell_length_a 20.777236
_cell_length_b 18.542279
_cell_length_c 8.914242
_cell_angle_alpha 90.000000
_cell_angle_beta 90.000000
_cell_angle_gamma 90.000000
_cell_volume 3434.276865
_symmetry_space_group_name_H-M "P B C M"
_symmetry_group_IT_number 57
_symmetry_cell_setting 'orthorhombic'
loop_
_space_group_symop_operation_xyz
x,y,z
-x,-y,1/2+z
x,1/2-y,-z
-x,1/2+y,1/2-z
-x,-y,-z
x,y,1/2-z
-x,1/2+y,z
x,1/2-y,1/2+z
loop_
_atom_site_type_symbol
_atom_site_label
_atom_site_fract_x
_atom_site_fract_y
_atom_site_fract_z
Si Si1 0.993861 0.674326 0.075087
Si Si2 0.387623 0.062266 0.069817
Si Si3 0.493861 0.325673 0.575088
Si Si4 0.750000 0.401209 0.416498
Si Si5 0.750000 0.927704 0.586288
Si Si6 0.112378 0.437733 0.569817
Si Si7 0.620691 0.409549 0.926200
Si Si8 0.120690 0.590450 0.426200
O O1 0.983262 0.683984 0.250000
O O2 0.942708 0.616024 0.013464
O O3 0.065527 0.648299 0.037087
O O4 0.979456 0.750000 0.000000
O O5 0.385408 0.053647 0.250000
O O6 0.442709 0.116022 0.013464
O O7 0.318029 0.093136 0.008167
O O8 0.401333 0.984456 0.999816
O O9 0.479454 0.250000 0.500000
O O10 0.483262 0.316016 0.750000
O O11 0.565528 0.351700 0.537088
O O12 0.750000 0.366139 0.250000
O O13 0.750000 0.486407 0.401764
O O14 0.686212 0.376710 0.505420
O O15 0.813788 0.376710 0.505420
O O16 0.749999 0.891568 0.750000
O O17 0.818028 0.906864 0.508167
O O18 0.114593 0.446352 0.750000
O O19 0.098667 0.515543 0.499816
O O20 0.629720 0.422035 0.750000
O O21 0.129719 0.577965 0.250000
#
# Coordination Sequence:
#
# PCOD8231240 Si02
#       8
#     8   8   8   8   8   8   8   8
#     4  10  22  36  50  71 103 139 176 215 255 299
#     4   9  17  32  53  77 102 134 172 208 251 305
#     4  10  22  36  50  71 103 139 176 215 255 299
#     4   9  17  31  52  77 102 131 163 203 255 311
#     4   7  12  25  48  73  97 123 157 199 242 289
#     4   9  17  32  53  77 102 134 172 208 251 305
#     4  10  19  32  52  79 104 129 166 215 260 302
#     4  10  19  32  52  79 104 129 166 215 260 302
#
# _framework density 18.635656000000001
#
# number of rings (size 3 to 8) (size 9 to 14) (size 15 to 20)
#    0.000    2.750    0.000    3.375    0.000    3.000 
#    0.000    1.250    0.000    0.000    0.000    0.000 
#    0.000    0.000    0.000    0.000    0.000    0.000 
#
# Total GULP energy -793159.321444 kJ/mol
# GULP energy per Si atom -12393.114398 kJ/mol
# Density = 1.859324 g / cm^3
# Si number density = 18.635656 Si / 1000 Ang^3
#
#
#
# Elastic Constant Matrix: (Units=GPa)
#
#
# Indices 1 2 3 4 5 6 
#
# 1 91.8707 5.3554 29.2481 0.0000 0.0000 0.0000
# 2 5.3554 41.2164 18.3787 0.0000 0.0000 0.0000
# 3 29.2481 18.3787 54.9861 0.0000 0.0000 0.0000
# 4 0.0000 0.0000 0.0000 26.3337 0.0000 0.0000
# 5 0.0000 0.0000 0.0000 0.0000 24.7848 0.0000
# 6 0.0000 0.0000 0.0000 0.0000 0.0000 7.5327
#
#
#
# Elastic Compliance Matrix: (Units=1/GPa)
#
#
# Indices 1 2 3 4 5 6 
#
# 1 0.013200 0.001664 -0.007578 0.000000 0.000000 0.000000
# 2 0.001664 0.028721 -0.010485 0.000000 0.000000 0.000000
# 3 -0.007578 -0.010485 0.025722 0.000000 0.000000 0.000000
# 4 0.000000 0.000000 0.000000 0.037974 0.000000 0.000000
# 5 0.000000 0.000000 0.000000 0.000000 0.040347 0.000000
# 6 0.000000 0.000000 0.000000 0.000000 0.000000 0.132754
#
#
# Mechanical properties :
#
#
# Convention : Reuss Voigt Hill
#
# Bulk Modulus (GPa) = 28.69789 32.67084 30.68437
# Shear Modulus (GPa) = 15.47356 20.73631 18.10494
#
# Velocity S-wave (km/s) = 2.88465 3.33937 3.12031
# Velocity P-wave (km/s) = 5.15052 5.69543 5.42982
#
# Compressibility (1/GPa) = 0.03484577
#
# Stress axis : x y z
#
# Youngs Moduli (GPa) = 75.75586 34.81730 38.87783
#
# Poissons Ratio (x) = -0.05793 0.29460
# Poissons Ratio (y) = -0.12604 0.40763
# Poissons Ratio (z) = 0.57405 0.36506
#
# Static dielectric constant tensor:
#      x y z
#    x 3.988490 0.000000 0.000000 
#    y 0.000000 3.031120 0.000000 
#    z 0.000000 0.000000 3.317320 
# 
# 
# High freq. dielectric constant tensor:
#      x y z
#    x 1.750240 0.000000 0.000000 
#    y 0.000000 1.682770 0.000000 
#    z 0.000000 0.000000 1.709000 
# 
# From -- ./inp_files/8516.got.cif
#   From: 2010.03.12/outbox.cif.g09.slc.cpg/sg57_5_cif.got.tgz:8516.got - 2010.04.16 15:48:40.
