data_PCOD8231483
_publ_section_title
;
Structure prediction by ZEFSAII (Michael W. Deem and Ramdas Pophale) SiO2 
 PCOD8231483
Probable space group: P B C M
;
_chemical_formula_sum "Si O2"
_cell_formula_units_Z 64
_cell_length_a 18.928570
_cell_length_b 18.949486
_cell_length_c 9.234016
_cell_angle_alpha 90.000000
_cell_angle_beta 90.000000
_cell_angle_gamma 90.000000
_cell_volume 3312.118470
_symmetry_space_group_name_H-M "P B C M"
_symmetry_group_IT_number 57
_symmetry_cell_setting 'orthorhombic'
loop_
_space_group_symop_operation_xyz
x,y,z
-x,-y,1/2+z
x,1/2-y,-z
-x,1/2+y,1/2-z
-x,-y,-z
x,y,1/2-z
-x,1/2+y,z
x,1/2-y,1/2+z
loop_
_atom_site_type_symbol
_atom_site_label
_atom_site_fract_x
_atom_site_fract_y
_atom_site_fract_z
Si Si1 0.427713 0.925419 0.915240
Si Si2 0.766429 0.311271 0.591348
Si Si3 0.563122 0.592626 0.585045
Si Si4 0.926473 0.188157 0.093663
Si Si5 0.932114 0.470848 0.578263
Si Si6 0.702312 0.677381 0.916565
Si Si7 0.786256 0.543725 0.917762
Si Si8 0.290647 0.930405 0.422291
O O1 0.418994 0.900077 0.750000
O O2 0.424864 0.009480 0.926039
O O3 0.498481 0.889510 0.978189
O O4 0.363800 0.899003 0.015814
O O5 0.726470 0.250000 0.500000
O O6 0.730364 0.322596 0.750000
O O7 0.846325 0.287785 0.618266
O O8 0.769134 0.381555 0.494298
O O9 0.543700 0.612959 0.750000
O O10 0.631858 0.635731 0.531594
O O11 0.965119 0.186104 0.250000
O O12 0.926509 0.110054 0.023411
O O13 0.964534 0.250000 0.000000
O O14 0.941378 0.473947 0.750000
O O15 0.864552 0.519173 0.533671
O O16 0.000000 0.500000 0.500000
O O17 0.693825 0.697493 0.750000
O O18 0.771727 0.627438 0.938766
O O19 0.713630 0.750000 0.000000
O O20 0.772267 0.522049 0.750000
O O21 0.727069 0.508187 0.019850
O O22 0.290222 0.928021 0.250000
#
# Coordination Sequence:
#
# PCOD8231483 Si02
#       8
#     8   8   8   8   8   8   8   8
#     4  10  19  33  54  79 111 147 185 235 292 346
#     4  10  19  34  53  77 111 146 182 223 274 334
#     4   9  18  34  54  79 109 143 186 237 290 348
#     4   9  18  33  55  81 110 146 184 227 278 343
#     4  10  21  38  60  86 118 155 193 239 297 355
#     4  10  21  38  61  85 115 155 199 246 301 355
#     4  10  20  40  61  81 113 154 193 240 301 355
#     4  12  22  32  53  85 115 147 191 239 284 343
#
# _framework density 19.322980999999999
#
# number of rings (size 3 to 8) (size 9 to 14) (size 15 to 20)
#    0.000    2.000    2.500    1.875    0.000    3.000 
#    0.000    1.250    0.000    4.500    0.000    0.000 
#    0.000    0.000    0.000    0.000    0.000    0.000 
#
# Total GULP energy -793080.540171 kJ/mol
# GULP energy per Si atom -12391.883440 kJ/mol
# Density = 1.927900 g / cm^3
# Si number density = 19.322981 Si / 1000 Ang^3
#
#
#
# Elastic Constant Matrix: (Units=GPa)
#
#
# Indices 1 2 3 4 5 6 
#
# 1 90.5868 43.0364 42.3450 0.0000 0.0000 0.0000
# 2 43.0364 118.1685 50.5339 0.0000 0.0000 0.0000
# 3 42.3450 50.5339 115.6905 0.0000 0.0000 0.0000
# 4 0.0000 0.0000 0.0000 33.3860 0.0000 0.0000
# 5 0.0000 0.0000 0.0000 0.0000 26.1161 0.0000
# 6 0.0000 0.0000 0.0000 0.0000 0.0000 20.5534
#
#
#
# Elastic Compliance Matrix: (Units=1/GPa)
#
#
# Indices 1 2 3 4 5 6 
#
# 1 0.014530 -0.003711 -0.003698 0.000000 0.000000 0.000000
# 2 -0.003711 0.011354 -0.003601 0.000000 0.000000 0.000000
# 3 -0.003698 -0.003601 0.011570 0.000000 0.000000 0.000000
# 4 0.000000 0.000000 0.000000 0.029953 0.000000 0.000000
# 5 0.000000 0.000000 0.000000 0.000000 0.038291 0.000000
# 6 0.000000 0.000000 0.000000 0.000000 0.000000 0.048654
#
#
# Mechanical properties :
#
#
# Convention : Reuss Voigt Hill
#
# Bulk Modulus (GPa) = 64.78554 66.25292 65.51923
# Shear Modulus (GPa) = 27.54578 28.57978 28.06278
#
# Velocity S-wave (km/s) = 3.77974 3.85002 3.81504
# Velocity P-wave (km/s) = 7.25597 7.35698 7.30665
#
# Compressibility (1/GPa) = 0.01543554
#
# Stress axis : x y z
#
# Youngs Moduli (GPa) = 68.82090 88.07506 86.42903
#
# Poissons Ratio (x) = 0.32682 0.31958
# Poissons Ratio (y) = 0.25537 0.31125
# Poissons Ratio (z) = 0.25447 0.31718
#
# Static dielectric constant tensor:
#      x y z
#    x 3.362910 0.000000 0.000000 
#    y 0.000000 3.447210 0.000000 
#    z 0.000000 0.000000 3.791690 
# 
# 
# High freq. dielectric constant tensor:
#      x y z
#    x 1.727420 0.000000 0.000000 
#    y 0.000000 1.739790 0.000000 
#    z 0.000000 0.000000 1.752490 
# 
# From -- ./inp_files/8423.got.cif
#   From: 2010.03.12/outbox.cif.g09.slc.cpg/sg57_5_cif.got.tgz:8423.got - 2010.04.16 15:48:40.
