data_PCOD8231939
_publ_section_title
;
Structure prediction by ZEFSAII (Michael W. Deem and Ramdas Pophale) SiO2 
 PCOD8231939
Probable space group: P B C M
;
_chemical_formula_sum "Si O2"
_cell_formula_units_Z 56
_cell_length_a 8.554354
_cell_length_b 22.606940
_cell_length_c 13.864019
_cell_angle_alpha 90.000000
_cell_angle_beta 90.000000
_cell_angle_gamma 90.000000
_cell_volume 2681.131685
_symmetry_space_group_name_H-M "P B C M"
_symmetry_group_IT_number 57
_symmetry_cell_setting 'orthorhombic'
loop_
_space_group_symop_operation_xyz
x,y,z
-x,-y,1/2+z
x,1/2-y,-z
-x,1/2+y,1/2-z
-x,-y,-z
x,y,1/2-z
-x,1/2+y,z
x,1/2-y,1/2+z
loop_
_atom_site_type_symbol
_atom_site_label
_atom_site_fract_x
_atom_site_fract_y
_atom_site_fract_z
Si Si1 0.876169 0.100923 0.977745
Si Si2 0.492489 0.128433 0.353869
Si Si3 0.309041 0.809048 0.361704
Si Si4 0.361975 0.984224 0.929024
Si Si5 0.367093 0.312643 0.467384
Si Si6 0.818912 0.593884 0.639457
Si Si7 0.817870 0.312943 0.642683
O O1 0.768879 0.130298 0.896002
O O2 0.036656 0.079779 0.930440
O O3 0.787118 0.043182 0.015872
O O4 0.910786 0.147814 0.064603
O O5 0.406814 0.135903 0.250000
O O6 0.566137 0.063094 0.355547
O O7 0.374685 0.142310 0.441233
O O8 0.633453 0.174435 0.361765
O O9 0.354466 0.813954 0.250000
O O10 0.464728 0.798674 0.422715
O O11 0.180125 0.757244 0.380185
O O12 0.308687 0.042122 0.871208
O O13 0.500000 0.000000 0.000000
O O14 0.292444 0.250000 0.500000
O O15 0.256352 0.343098 0.388539
O O16 0.875016 0.597562 0.750000
O O17 0.885576 0.326440 0.750000
#
# Coordination Sequence:
#
# PCOD8231939 Si02
#       7
#     8   8   8   8   8   8   8
#     4  11  22  40  61  90 128 168 210 255 316 387
#     4  10  19  35  61  91 120 153 201 264 319 360
#     4  11  19  34  62  94 125 165 218 267 316 375
#     4  11  21  42  71  90 117 159 214 271 320 365
#     4  12  22  39  63  95 127 166 210 269 315 370
#     4  12  27  44  61  90 133 174 208 255 321 389
#     4   9  18  33  62  92 120 159 208 262 314 366
#
# _framework density 20.886702
#
# number of rings (size 3 to 8) (size 9 to 14) (size 15 to 20)
#    0.000    1.143    5.714    2.143    0.000    2.286 
#    0.000    2.857    0.000    0.000    0.000    0.000 
#    0.000    0.000    0.000    0.000    0.000    0.000 
#
# Total GULP energy -694388.542727 kJ/mol
# GULP energy per Si atom -12399.795406 kJ/mol
# Density = 2.083916 g / cm^3
# Si number density = 20.886702 Si / 1000 Ang^3
#
#
#
# Elastic Constant Matrix: (Units=GPa)
#
#
# Indices 1 2 3 4 5 6 
#
# 1 45.5874 16.5012 27.5745 0.0000 0.0000 0.0000
# 2 16.5012 98.0781 27.8098 0.0000 0.0000 0.0000
# 3 27.5745 27.8098 144.8830 0.0000 0.0000 0.0000
# 4 0.0000 0.0000 0.0000 17.9788 0.0000 0.0000
# 5 0.0000 0.0000 0.0000 0.0000 21.2470 0.0000
# 6 0.0000 0.0000 0.0000 0.0000 0.0000 21.8778
#
#
#
# Elastic Compliance Matrix: (Units=1/GPa)
#
#
# Indices 1 2 3 4 5 6 
#
# 1 0.025651 -0.003100 -0.004287 0.000000 0.000000 0.000000
# 2 -0.003100 0.011157 -0.001552 0.000000 0.000000 0.000000
# 3 -0.004287 -0.001552 0.008016 0.000000 0.000000 0.000000
# 4 0.000000 0.000000 0.000000 0.055621 0.000000 0.000000
# 5 0.000000 0.000000 0.000000 0.000000 0.047065 0.000000
# 6 0.000000 0.000000 0.000000 0.000000 0.000000 0.045709
#
#
# Mechanical properties :
#
#
# Convention : Reuss Voigt Hill
#
# Bulk Modulus (GPa) = 37.10979 48.03550 42.57265
# Shear Modulus (GPa) = 22.71911 26.66493 24.69202
#
# Velocity S-wave (km/s) = 3.30165 3.57689 3.44203
# Velocity P-wave (km/s) = 5.68686 6.33301 6.01861
#
# Compressibility (1/GPa) = 0.02694707
#
# Stress axis : x y z
#
# Youngs Moduli (GPa) = 38.98475 89.62585 124.75291
#
# Poissons Ratio (x) = 0.27785 0.53481
# Poissons Ratio (y) = 0.12086 0.19357
# Poissons Ratio (z) = 0.16712 0.13906
#
# Static dielectric constant tensor:
#      x y z
#    x 3.378000 0.000000 0.000000 
#    y 0.000000 5.312970 0.000000 
#    z 0.000000 0.000000 3.968410 
# 
# 
# High freq. dielectric constant tensor:
#      x y z
#    x 1.774520 0.000000 0.000000 
#    y 0.000000 1.826760 0.000000 
#    z 0.000000 0.000000 1.831370 
# 
# From -- ./inp_files/16767.got.cif
#   From: 2010.03.12/outbox.cif.g09.slc.cpg/sg57_9_cif.got.tgz:16767.got - 2010.04.16 15:48:40.
