data_PCOD8231044
_publ_section_title
;
Structure prediction by ZEFSAII (Michael W. Deem and Ramdas Pophale) SiO2 
 PCOD8231044
Probable space group: P B C M
;
_chemical_formula_sum "Si O2"
_cell_formula_units_Z 56
_cell_length_a 17.013596
_cell_length_b 18.633134
_cell_length_c 9.195325
_cell_angle_alpha 90.000000
_cell_angle_beta 90.000000
_cell_angle_gamma 90.000000
_cell_volume 2915.070797
_symmetry_space_group_name_H-M "P B C M"
_symmetry_group_IT_number 57
_symmetry_cell_setting 'orthorhombic'
loop_
_space_group_symop_operation_xyz
x,y,z
-x,-y,1/2+z
x,1/2-y,-z
-x,1/2+y,1/2-z
-x,-y,-z
x,y,1/2-z
-x,1/2+y,z
x,1/2-y,1/2+z
loop_
_atom_site_type_symbol
_atom_site_label
_atom_site_fract_x
_atom_site_fract_y
_atom_site_fract_z
Si Si1 0.594227 0.078300 0.415424
Si Si2 0.822510 0.553003 0.079974
Si Si3 0.137325 0.611251 0.586238
Si Si4 0.265791 0.683285 0.085429
Si Si5 0.970256 0.569498 0.582055
Si Si6 0.473713 0.175063 0.582181
Si Si7 0.336676 0.429071 0.083020
O O1 0.562815 0.084123 0.250000
O O2 0.678828 0.115009 0.431207
O O3 0.533143 0.115752 0.521621
O O4 0.607329 0.995799 0.462820
O O5 0.826444 0.570789 0.250000
O O6 0.837728 0.469764 0.046009
O O7 0.891261 0.598212 0.997236
O O8 0.738478 0.577348 0.019763
O O9 0.165092 0.627543 0.750000
O O10 0.180285 0.665564 0.478763
O O11 0.043409 0.624816 0.571283
O O12 0.254328 0.707289 0.250000
O O13 0.304301 0.750000 0.000000
O O14 0.951549 0.551371 0.750000
O O15 0.000000 0.500000 0.500000
O O16 0.481884 0.250000 0.500000
O O17 0.494625 0.188598 0.750000
O O18 0.385874 0.144118 0.564074
O O19 0.309515 0.439999 0.250000
#
# Coordination Sequence:
#
# PCOD8231044 Si02
#       7
#     8   8   8   8   8   8   8
#     4  10  21  38  59  84 111 142 185 232 284 337
#     4  10  19  31  52  83 112 143 180 225 277 328
#     4   9  18  32  49  74 107 142 183 225 270 323
#     4  11  22  34  52  76 108 149 186 229 280 336
#     4   9  17  29  48  75 108 143 179 224 272 321
#     4  11  24  40  60  83 112 149 186 229 280 336
#     4  10  21  38  59  85 114 145 185 233 284 332
#
# _framework density 19.210512999999999
#
# number of rings (size 3 to 8) (size 9 to 14) (size 15 to 20)
#    0.000    2.000    1.429    3.429    0.000    6.857 
#    0.000    0.000    0.000    0.857    0.000    4.000 
#    0.000    0.000    0.000    0.000    0.000    0.000 
#
# Total GULP energy -694369.344818 kJ/mol
# GULP energy per Si atom -12399.452586 kJ/mol
# Density = 1.916679 g / cm^3
# Si number density = 19.210513 Si / 1000 Ang^3
#
#
#
# Elastic Constant Matrix: (Units=GPa)
#
#
# Indices 1 2 3 4 5 6 
#
# 1 100.9151 14.1418 57.6909 0.0000 0.0000 0.0000
# 2 14.1418 40.2334 21.7510 0.0000 0.0000 0.0000
# 3 57.6909 21.7510 123.7577 0.0000 0.0000 0.0000
# 4 0.0000 0.0000 0.0000 23.7809 0.0000 0.0000
# 5 0.0000 0.0000 0.0000 0.0000 36.0028 0.0000
# 6 0.0000 0.0000 0.0000 0.0000 0.0000 13.5614
#
#
#
# Elastic Compliance Matrix: (Units=1/GPa)
#
#
# Indices 1 2 3 4 5 6 
#
# 1 0.013590 -0.001494 -0.006073 0.000000 0.000000 0.000000
# 2 -0.001494 0.027629 -0.004160 0.000000 0.000000 0.000000
# 3 -0.006073 -0.004160 0.011642 0.000000 0.000000 0.000000
# 4 0.000000 0.000000 0.000000 0.042051 0.000000 0.000000
# 5 0.000000 0.000000 0.000000 0.000000 0.027776 0.000000
# 6 0.000000 0.000000 0.000000 0.000000 0.000000 0.073739
#
#
# Mechanical properties :
#
#
# Convention : Reuss Voigt Hill
#
# Bulk Modulus (GPa) = 34.00307 50.23039 42.11673
# Shear Modulus (GPa) = 21.76930 26.09052 23.92991
#
# Velocity S-wave (km/s) = 3.36995 3.68929 3.53323
# Velocity P-wave (km/s) = 5.73418 6.65972 6.21421
#
# Compressibility (1/GPa) = 0.02940911
#
# Stress axis : x y z
#
# Youngs Moduli (GPa) = 73.58197 36.19418 85.89440
#
# Poissons Ratio (x) = 0.05407 0.52161
# Poissons Ratio (y) = 0.10992 0.35728
# Poissons Ratio (z) = 0.44684 0.15055
#
# Static dielectric constant tensor:
#      x y z
#    x 3.750780 0.000000 0.000000 
#    y 0.000000 3.236060 0.000000 
#    z 0.000000 0.000000 3.643210 
# 
# 
# High freq. dielectric constant tensor:
#      x y z
#    x 1.753380 0.000000 0.000000 
#    y 0.000000 1.710850 0.000000 
#    z 0.000000 0.000000 1.758490 
# 
# From -- ./inp_files/5170.got.cif
#   From: 2010.03.12/outbox.cif.g09.slc.cpg/sg57_3_cif.got.tgz:5170.got - 2010.04.16 15:48:40.
