data_PCOD8231632
_publ_section_title
;
Structure prediction by ZEFSAII (Michael W. Deem and Ramdas Pophale) SiO2 
 PCOD8231632
Probable space group: P B C M
;
_chemical_formula_sum "Si O2"
_cell_formula_units_Z 64
_cell_length_a 22.763327
_cell_length_b 17.608417
_cell_length_c 8.815104
_cell_angle_alpha 90.000000
_cell_angle_beta 90.000000
_cell_angle_gamma 90.000000
_cell_volume 3533.324235
_symmetry_space_group_name_H-M "P B C M"
_symmetry_group_IT_number 57
_symmetry_cell_setting 'orthorhombic'
loop_
_space_group_symop_operation_xyz
x,y,z
-x,-y,1/2+z
x,1/2-y,-z
-x,1/2+y,1/2-z
-x,-y,-z
x,y,1/2-z
-x,1/2+y,z
x,1/2-y,1/2+z
loop_
_atom_site_type_symbol
_atom_site_label
_atom_site_fract_x
_atom_site_fract_y
_atom_site_fract_z
Si Si1 0.940599 0.330655 0.073182
Si Si2 0.579128 0.630294 0.427425
Si Si3 0.382612 0.535178 0.925176
Si Si4 0.701509 0.673174 0.569601
Si Si5 0.542550 0.173122 0.931055
Si Si6 0.959660 0.562902 0.572943
Si Si7 0.133335 0.526071 0.573050
Si Si8 0.739365 0.523433 0.071232
O O1 0.929972 0.320740 0.250000
O O2 0.895373 0.395406 0.010640
O O3 0.008405 0.356179 0.039012
O O4 0.926705 0.250000 0.000000
O O5 0.578619 0.651520 0.250000
O O6 0.578793 0.539804 0.452533
O O7 0.636128 0.665843 0.504095
O O8 0.523299 0.664730 0.509762
O O9 0.375893 0.553922 0.750000
O O10 0.416806 0.605796 0.999712
O O11 0.316700 0.524161 0.991423
O O12 0.729313 0.750000 0.500000
O O13 0.700200 0.676816 0.750000
O O14 0.742221 0.603524 0.515468
O O15 0.541975 0.175016 0.750000
O O16 0.569513 0.250000 0.000000
O O17 0.955256 0.548791 0.750000
O O18 0.895189 0.550194 0.501454
O O19 0.000000 0.500000 0.500000
O O20 0.120552 0.519671 0.750000
O O21 0.202503 0.525325 0.535994
O O22 0.731906 0.540637 0.250000
#
# Coordination Sequence:
#
# PCOD8231632 Si02
#       8
#     8   8   8   8   8   8   8   8
#     4   9  18  31  48  75 105 135 167 205 248 291
#     4  10  19  34  54  75  96 124 162 205 255 310
#     4   8  17  33  53  72  94 127 166 204 247 297
#     4  11  21  34  52  76 103 130 162 204 252 304
#     4  11  21  33  48  71 100 130 163 204 253 304
#     4   9  17  30  49  73 101 130 165 203 245 293
#     4   9  18  33  54  77 102 133 171 209 252 300
#     4   9  18  36  57  75  98 133 172 210 250 297
#
# _framework density 18.113254999999999
#
# number of rings (size 3 to 8) (size 9 to 14) (size 15 to 20)
#    0.000    2.500    0.000    4.500    0.000    3.000 
#    0.000    6.875    0.000    1.500    0.000    0.000 
#    0.000    0.000    0.000    0.000    0.000    0.000 
#
# Total GULP energy -793245.361290 kJ/mol
# GULP energy per Si atom -12394.458770 kJ/mol
# Density = 1.807203 g / cm^3
# Si number density = 18.113255 Si / 1000 Ang^3
#
#
#
# Elastic Constant Matrix: (Units=GPa)
#
#
# Indices 1 2 3 4 5 6 
#
# 1 77.4715 44.6183 27.4981 0.0000 0.0000 0.0000
# 2 44.6183 114.9313 40.0909 0.0000 0.0000 0.0000
# 3 27.4981 40.0909 74.0084 0.0000 0.0000 0.0000
# 4 0.0000 0.0000 0.0000 28.5161 0.0000 0.0000
# 5 0.0000 0.0000 0.0000 0.0000 21.6479 0.0000
# 6 0.0000 0.0000 0.0000 0.0000 0.0000 20.3441
#
#
#
# Elastic Compliance Matrix: (Units=1/GPa)
#
#
# Indices 1 2 3 4 5 6 
#
# 1 0.017308 -0.005519 -0.003441 0.000000 0.000000 0.000000
# 2 -0.005519 0.012488 -0.004714 0.000000 0.000000 0.000000
# 3 -0.003441 -0.004714 0.017344 0.000000 0.000000 0.000000
# 4 0.000000 0.000000 0.000000 0.035068 0.000000 0.000000
# 5 0.000000 0.000000 0.000000 0.000000 0.046194 0.000000
# 6 0.000000 0.000000 0.000000 0.000000 0.000000 0.049154
#
#
# Mechanical properties :
#
#
# Convention : Reuss Voigt Hill
#
# Bulk Modulus (GPa) = 50.52678 54.53621 52.53149
# Shear Modulus (GPa) = 23.64046 24.38187 24.01116
#
# Velocity S-wave (km/s) = 3.61660 3.67287 3.64485
# Velocity P-wave (km/s) = 6.73760 6.93978 6.83943
#
# Compressibility (1/GPa) = 0.01979148
#
# Stress axis : x y z
#
# Youngs Moduli (GPa) = 57.77708 80.07829 57.65587
#
# Poissons Ratio (x) = 0.44194 0.19841
# Poissons Ratio (y) = 0.31886 0.27180
# Poissons Ratio (z) = 0.19882 0.37750
#
# Static dielectric constant tensor:
#      x y z
#    x 3.505500 0.000000 0.000000 
#    y 0.000000 3.595950 0.000000 
#    z 0.000000 0.000000 3.343950 
# 
# 
# High freq. dielectric constant tensor:
#      x y z
#    x 1.689600 0.000000 0.000000 
#    y 0.000000 1.697630 0.000000 
#    z 0.000000 0.000000 1.694550 
# 
# From -- ./inp_files/9494.got.cif
#   From: 2010.03.12/outbox.cif.g09.slc.cpg/sg57_5_cif.got.tgz:9494.got - 2010.04.16 15:48:40.
