data_PCOD8231936
_publ_section_title
;
Structure prediction by ZEFSAII (Michael W. Deem and Ramdas Pophale) SiO2 
 PCOD8231936
Probable space group: P B C M
;
_chemical_formula_sum "Si O2"
_cell_formula_units_Z 64
_cell_length_a 11.530336
_cell_length_b 15.993309
_cell_length_c 17.318923
_cell_angle_alpha 90.000000
_cell_angle_beta 90.000000
_cell_angle_gamma 90.000000
_cell_volume 3193.751876
_symmetry_space_group_name_H-M "P B C M"
_symmetry_group_IT_number 57
_symmetry_cell_setting 'orthorhombic'
loop_
_space_group_symop_operation_xyz
x,y,z
-x,-y,1/2+z
x,1/2-y,-z
-x,1/2+y,1/2-z
-x,-y,-z
x,y,1/2-z
-x,1/2+y,z
x,1/2-y,1/2+z
loop_
_atom_site_type_symbol
_atom_site_label
_atom_site_fract_x
_atom_site_fract_y
_atom_site_fract_z
Si Si1 0.789457 0.524114 0.409049
Si Si2 0.076584 0.287046 0.419049
Si Si3 0.133533 0.754637 0.840686
Si Si4 0.270548 0.190369 0.159597
Si Si5 0.783363 0.950092 0.418386
Si Si6 0.960455 0.433238 0.659123
Si Si7 0.327933 0.862517 0.158884
Si Si8 0.412293 0.352545 0.341613
O O1 0.708333 0.603436 0.385670
O O2 0.773005 0.502939 0.499717
O O3 0.742905 0.444037 0.364606
O O4 0.923637 0.542871 0.387663
O O5 0.038620 0.250000 0.500000
O O6 0.142943 0.221914 0.363429
O O7 0.154783 0.364536 0.439027
O O8 0.959726 0.311987 0.373740
O O9 0.129262 0.752460 0.750000
O O10 0.096238 0.846174 0.871172
O O11 0.259716 0.721785 0.868548
O O12 0.273388 0.171269 0.250000
O O13 0.365000 0.260268 0.135753
O O14 0.659385 0.928025 0.380771
O O15 0.859615 0.999952 0.356628
O O16 0.989418 0.431180 0.750000
O O17 0.338735 0.862935 0.250000
O O18 0.457714 0.859647 0.124851
O O19 0.403252 0.364760 0.250000
#
# Coordination Sequence:
#
# PCOD8231936 Si02
#       8
#     8   8   8   8   8   8   8   8
#     4  12  22  37  62  91 125 156 202 251 308 367
#     4  11  19  34  57  85 122 156 188 242 300 361
#     4  10  21  37  59  83 119 157 198 250 302 359
#     4  10  19  35  61  88 113 153 201 247 294 357
#     4  11  23  37  60  89 123 159 196 247 308 360
#     4  11  22  38  60  93 126 156 201 250 305 371
#     4  10  22  41  61  85 117 159 206 256 301 357
#     4   9  21  41  62  84 115 156 208 249 297 362
#
# _framework density 20.039127000000001
#
# number of rings (size 3 to 8) (size 9 to 14) (size 15 to 20)
#    0.000    1.500    2.500    3.000    0.000    4.000 
#    2.250    0.000    5.500    0.000    0.000    0.000 
#    0.000    0.000    0.000    0.000    0.000    0.000 
#
# Total GULP energy -793402.107945 kJ/mol
# GULP energy per Si atom -12396.907937 kJ/mol
# Density = 1.999352 g / cm^3
# Si number density = 20.039127 Si / 1000 Ang^3
#
#
#
# Elastic Constant Matrix: (Units=GPa)
#
#
# Indices 1 2 3 4 5 6 
#
# 1 160.7044 60.0806 31.7305 0.0000 0.0000 0.0000
# 2 60.0806 70.2464 17.9034 0.0000 0.0000 0.0000
# 3 31.7305 17.9034 32.5313 0.0000 0.0000 0.0000
# 4 0.0000 0.0000 0.0000 22.5362 0.0000 0.0000
# 5 0.0000 0.0000 0.0000 0.0000 14.7738 0.0000
# 6 0.0000 0.0000 0.0000 0.0000 0.0000 27.0774
#
#
#
# Elastic Compliance Matrix: (Units=1/GPa)
#
#
# Indices 1 2 3 4 5 6 
#
# 1 0.010032 -0.007079 -0.005889 0.000000 0.000000 0.000000
# 2 -0.007079 0.021554 -0.004957 0.000000 0.000000 0.000000
# 3 -0.005889 -0.004957 0.039212 0.000000 0.000000 0.000000
# 4 0.000000 0.000000 0.000000 0.044373 0.000000 0.000000
# 5 0.000000 0.000000 0.000000 0.000000 0.067687 0.000000
# 6 0.000000 0.000000 0.000000 0.000000 0.000000 0.036931
#
#
# Mechanical properties :
#
#
# Convention : Reuss Voigt Hill
#
# Bulk Modulus (GPa) = 28.61478 53.65677 41.13578
# Shear Modulus (GPa) = 18.70635 23.12863 20.91749
#
# Velocity S-wave (km/s) = 3.05862 3.40100 3.23434
# Velocity P-wave (km/s) = 5.17533 6.50050 5.87540
#
# Compressibility (1/GPa) = 0.03494697
#
# Stress axis : x y z
#
# Youngs Moduli (GPa) = 99.68071 46.39556 25.50260
#
# Poissons Ratio (x) = 0.32845 0.15019
# Poissons Ratio (y) = 0.70567 0.12641
# Poissons Ratio (z) = 0.58702 0.22998
#
# Static dielectric constant tensor:
#      x y z
#    x 3.818750 0.000000 0.000000 
#    y 0.000000 3.872450 0.000000 
#    z 0.000000 0.000000 3.521970 
# 
# 
# High freq. dielectric constant tensor:
#      x y z
#    x 1.773760 0.000000 0.000000 
#    y 0.000000 1.781710 0.000000 
#    z 0.000000 0.000000 1.779850 
# 
# From -- ./inp_files/22048.got.cif
#   From: 2010.03.12/outbox.cif.g09.slc.cpg/sg57_12_cif.got.tgz:22048.got - 2010.04.16 15:48:40.
