data_PCOD8231910
_publ_section_title
;
Structure prediction by ZEFSAII (Michael W. Deem and Ramdas Pophale) SiO2 
 PCOD8231910
Probable space group: P B C M
;
_chemical_formula_sum "Si O2"
_cell_formula_units_Z 64
_cell_length_a 8.034018
_cell_length_b 24.539157
_cell_length_c 16.383959
_cell_angle_alpha 90.000000
_cell_angle_beta 90.000000
_cell_angle_gamma 90.000000
_cell_volume 3230.065225
_symmetry_space_group_name_H-M "P B C M"
_symmetry_group_IT_number 57
_symmetry_cell_setting 'orthorhombic'
loop_
_space_group_symop_operation_xyz
x,y,z
-x,-y,1/2+z
x,1/2-y,-z
-x,1/2+y,1/2-z
-x,-y,-z
x,y,1/2-z
-x,1/2+y,z
x,1/2-y,1/2+z
loop_
_atom_site_type_symbol
_atom_site_label
_atom_site_fract_x
_atom_site_fract_y
_atom_site_fract_z
Si Si1 0.628528 0.657967 0.443284
Si Si2 0.310969 0.448015 0.847249
Si Si3 0.377303 0.018182 0.847177
Si Si4 0.878509 0.122299 0.657208
Si Si5 0.015713 0.494868 0.343299
Si Si6 0.518465 0.372529 0.101109
Si Si7 0.629488 0.761780 0.342834
Si Si8 0.918104 0.797915 0.054705
O O1 0.672463 0.614058 0.374748
O O2 0.482460 0.637030 0.503341
O O3 0.562476 0.712840 0.399968
O O4 0.790351 0.667849 0.499344
O O5 0.310326 0.450820 0.750000
O O6 0.468658 0.482491 0.881202
O O7 0.137889 0.472343 0.884959
O O8 0.376609 0.018976 0.750000
O O9 0.385675 0.080455 0.877946
O O10 0.200609 0.992754 0.879633
O O11 0.886856 0.144779 0.750000
O O12 0.992328 0.069608 0.648475
O O13 0.692464 0.105100 0.634111
O O14 0.933634 0.166738 0.591139
O O15 0.013880 0.513360 0.250000
O O16 0.480062 0.315868 0.146701
O O17 0.623316 0.742131 0.250000
O O18 0.819550 0.773266 0.368079
O O19 0.998753 0.750000 0.000000
#
# Coordination Sequence:
#
# PCOD8231910 Si02
#       8
#     8   8   8   8   8   8   8   8
#     4  10  22  38  54  81 118 151 186 231 291 346
#     4  10  20  38  60  83 114 154 198 235 276 346
#     4  10  19  35  59  86 114 149 193 244 289 332
#     4  11  20  35  58  85 112 147 191 239 285 337
#     4   9  18  33  56  84 111 143 190 240 281 326
#     4  11  21  35  55  85 117 143 186 243 293 340
#     4  10  19  36  61  83 105 148 195 232 280 344
#     4   9  20  36  54  80 114 146 184 236 290 342
#
# _framework density 19.813842000000001
#
# number of rings (size 3 to 8) (size 9 to 14) (size 15 to 20)
#    0.000    2.000    1.250    4.500    0.000    2.500 
#    2.250    1.250    0.000    0.000    0.000    0.000 
#    0.000    0.000    0.000    0.000    0.000    0.000 
#
# Total GULP energy -793381.358332 kJ/mol
# GULP energy per Si atom -12396.583724 kJ/mol
# Density = 1.976874 g / cm^3
# Si number density = 19.813842 Si / 1000 Ang^3
#
#
#
# Elastic Constant Matrix: (Units=GPa)
#
#
# Indices 1 2 3 4 5 6 
#
# 1 104.8262 33.8430 23.4444 0.0000 0.0000 0.0000
# 2 33.8430 89.0919 19.5746 0.0000 0.0000 0.0000
# 3 23.4444 19.5746 62.4958 0.0000 0.0000 0.0000
# 4 0.0000 0.0000 0.0000 28.4740 0.0000 0.0000
# 5 0.0000 0.0000 0.0000 0.0000 17.7719 0.0000
# 6 0.0000 0.0000 0.0000 0.0000 0.0000 16.3415
#
#
#
# Elastic Compliance Matrix: (Units=1/GPa)
#
#
# Indices 1 2 3 4 5 6 
#
# 1 0.011420 -0.003648 -0.003141 0.000000 0.000000 0.000000
# 2 -0.003648 0.013219 -0.002772 0.000000 0.000000 0.000000
# 3 -0.003141 -0.002772 0.018048 0.000000 0.000000 0.000000
# 4 0.000000 0.000000 0.000000 0.035120 0.000000 0.000000
# 5 0.000000 0.000000 0.000000 0.000000 0.056269 0.000000
# 6 0.000000 0.000000 0.000000 0.000000 0.000000 0.061194
#
#
# Mechanical properties :
#
#
# Convention : Reuss Voigt Hill
#
# Bulk Modulus (GPa) = 42.43720 45.57088 44.00404
# Shear Modulus (GPa) = 22.49757 24.48760 23.49259
#
# Velocity S-wave (km/s) = 3.37330 3.51933 3.44708
# Velocity P-wave (km/s) = 6.05282 6.28997 6.17253
#
# Compressibility (1/GPa) = 0.02356423
#
# Stress axis : x y z
#
# Youngs Moduli (GPa) = 87.56656 75.64817 55.40849
#
# Poissons Ratio (x) = 0.27595 0.17406
# Poissons Ratio (y) = 0.31943 0.15359
# Poissons Ratio (z) = 0.27509 0.20969
#
# Static dielectric constant tensor:
#      x y z
#    x 3.656560 0.000000 0.000000 
#    y 0.000000 3.498800 0.000000 
#    z 0.000000 0.000000 3.505730 
# 
# 
# High freq. dielectric constant tensor:
#      x y z
#    x 1.762880 0.000000 0.000000 
#    y 0.000000 1.768920 0.000000 
#    z 0.000000 0.000000 1.763330 
# 
# From -- ./inp_files/16993.got.cif
#   From: 2010.03.12/outbox.cif.g09.slc.cpg/sg57_9_cif.got.tgz:16993.got - 2010.04.16 15:48:40.
