data_PCOD8231988
_publ_section_title
;
Structure prediction by ZEFSAII (Michael W. Deem and Ramdas Pophale) SiO2 
 PCOD8231988
Probable space group: P B C M
;
_chemical_formula_sum "Si O2"
_cell_formula_units_Z 48
_cell_length_a 13.494678
_cell_length_b 19.354951
_cell_length_c 8.895442
_cell_angle_alpha 90.000000
_cell_angle_beta 90.000000
_cell_angle_gamma 90.000000
_cell_volume 2323.390101
_symmetry_space_group_name_H-M "P B C M"
_symmetry_group_IT_number 57
_symmetry_cell_setting 'orthorhombic'
loop_
_space_group_symop_operation_xyz
x,y,z
-x,-y,1/2+z
x,1/2-y,-z
-x,1/2+y,1/2-z
-x,-y,-z
x,y,1/2-z
-x,1/2+y,z
x,1/2-y,1/2+z
loop_
_atom_site_type_symbol
_atom_site_label
_atom_site_fract_x
_atom_site_fract_y
_atom_site_fract_z
Si Si1 0.003377 0.178577 0.071085
Si Si2 0.305826 0.046129 0.571901
Si Si3 0.084031 0.452618 0.071370
Si Si4 0.218652 0.816536 0.581258
Si Si5 0.571208 0.825349 0.072524
Si Si6 0.401023 0.589875 0.077765
O O1 0.019250 0.176422 0.250000
O O2 0.890059 0.162671 0.021413
O O3 0.038759 0.250000 0.000000
O O4 0.072054 0.124156 0.988409
O O5 0.306680 0.042828 0.750000
O O6 0.195097 0.027324 0.516414
O O7 0.340352 0.122889 0.520105
O O8 0.386951 0.988874 0.516043
O O9 0.074163 0.457047 0.250000
O O10 0.000000 0.500000 0.000000
O O11 0.264619 0.750000 0.500000
O O12 0.205327 0.791477 0.750000
O O13 0.289806 0.881323 0.566155
O O14 0.569221 0.814455 0.250000
O O15 0.584659 0.750000 0.000000
O O16 0.469870 0.862917 0.025107
O O17 0.439771 0.592453 0.250000
#
# Coordination Sequence:
#
# PCOD8231988 Si02
#       6
#     8   8   8   8   8   8
#     4  10  20  36  56  82 115 154 196 242 292 347
#     4   9  21  40  61  83 114 151 189 234 287 339
#     4  11  22  39  61  87 117 153 194 240 291 347
#     4   9  18  31  51  78 112 149 186 229 284 340
#     4  11  23  40  60  85 115 151 190 232 280 336
#     4  10  19  36  60  85 112 146 185 233 287 341
#
# _framework density 20.659468
#
# number of rings (size 3 to 8) (size 9 to 14) (size 15 to 20)
#    0.000    2.000    0.000    3.500    0.000    6.000 
#    0.000    9.167    0.000    0.000    0.000    0.000 
#    0.000    0.000    0.000    0.000    0.000    0.000 
#
# Total GULP energy -594968.281295 kJ/mol
# GULP energy per Si atom -12395.172527 kJ/mol
# Density = 2.061245 g / cm^3
# Si number density = 20.659468 Si / 1000 Ang^3
#
#
#
# Elastic Constant Matrix: (Units=GPa)
#
#
# Indices 1 2 3 4 5 6 
#
# 1 92.9627 50.2298 30.0159 0.0000 0.0000 0.0000
# 2 50.2298 142.9170 39.8799 0.0000 0.0000 0.0000
# 3 30.0159 39.8799 69.2378 0.0000 0.0000 0.0000
# 4 0.0000 0.0000 0.0000 31.4342 0.0000 0.0000
# 5 0.0000 0.0000 0.0000 0.0000 19.7170 0.0000
# 6 0.0000 0.0000 0.0000 0.0000 0.0000 30.7782
#
#
#
# Elastic Compliance Matrix: (Units=1/GPa)
#
#
# Indices 1 2 3 4 5 6 
#
# 1 0.014104 -0.003873 -0.003883 0.000000 0.000000 0.000000
# 2 -0.003873 0.009401 -0.003736 0.000000 0.000000 0.000000
# 3 -0.003883 -0.003736 0.018278 0.000000 0.000000 0.000000
# 4 0.000000 0.000000 0.000000 0.031812 0.000000 0.000000
# 5 0.000000 0.000000 0.000000 0.000000 0.050718 0.000000
# 6 0.000000 0.000000 0.000000 0.000000 0.000000 0.032491
#
#
# Mechanical properties :
#
#
# Convention : Reuss Voigt Hill
#
# Bulk Modulus (GPa) = 53.19630 60.59652 56.89641
# Shear Modulus (GPa) = 26.87401 28.71867 27.79634
#
# Velocity S-wave (km/s) = 3.61058 3.73245 3.67202
# Velocity P-wave (km/s) = 6.57166 6.92601 6.75116
#
# Compressibility (1/GPa) = 0.01879830
#
# Stress axis : x y z
#
# Youngs Moduli (GPa) = 70.90354 106.37440 54.71037
#
# Poissons Ratio (x) = 0.41202 0.21245
# Poissons Ratio (y) = 0.27463 0.20437
# Poissons Ratio (z) = 0.27534 0.39737
#
# Static dielectric constant tensor:
#      x y z
#    x 3.825160 0.000000 0.000000 
#    y 0.000000 3.980680 0.000000 
#    z 0.000000 0.000000 3.650480 
# 
# 
# High freq. dielectric constant tensor:
#      x y z
#    x 1.807820 0.000000 0.000000 
#    y 0.000000 1.823950 0.000000 
#    z 0.000000 0.000000 1.790920 
# 
# From -- ./inp_files/4680.got.cif
#   From: 2010.03.12/outbox.cif.g09.slc.cpg/sg57_3_cif.got.tgz:4680.got - 2010.04.16 15:48:40.
