data_PCOD8231442
_publ_section_title
;
Structure prediction by ZEFSAII (Michael W. Deem and Ramdas Pophale) SiO2 
 PCOD8231442
Probable space group: P B C M
;
_chemical_formula_sum "Si O2"
_cell_formula_units_Z 56
_cell_length_a 21.329452
_cell_length_b 15.084447
_cell_length_c 8.706320
_cell_angle_alpha 90.000000
_cell_angle_beta 90.000000
_cell_angle_gamma 90.000000
_cell_volume 2801.197413
_symmetry_space_group_name_H-M "P B C M"
_symmetry_group_IT_number 57
_symmetry_cell_setting 'orthorhombic'
loop_
_space_group_symop_operation_xyz
x,y,z
-x,-y,1/2+z
x,1/2-y,-z
-x,1/2+y,1/2-z
-x,-y,-z
x,y,1/2-z
-x,1/2+y,z
x,1/2-y,1/2+z
loop_
_atom_site_type_symbol
_atom_site_label
_atom_site_fract_x
_atom_site_fract_y
_atom_site_fract_z
Si Si1 0.410134 0.162853 0.069003
Si Si2 0.848574 0.652138 0.570561
Si Si3 0.888136 0.348457 0.568696
Si Si4 0.210206 0.517087 0.567914
Si Si5 0.012190 0.154599 0.572558
Si Si6 0.524479 0.409427 0.431131
Si Si7 0.349911 0.983556 0.430437
O O1 0.408463 0.165922 0.250000
O O2 0.373757 0.077577 0.000841
O O3 0.376669 0.250000 0.000000
O O4 0.483140 0.165876 0.012596
O O5 0.840472 0.750000 0.500000
O O6 0.831532 0.657480 0.750000
O O7 0.803854 0.583382 0.483982
O O8 0.919193 0.611642 0.549818
O O9 0.880338 0.250000 0.500000
O O10 0.886575 0.342126 0.750000
O O11 0.832737 0.410982 0.513447
O O12 0.954448 0.393428 0.514960
O O13 0.202091 0.524465 0.750000
O O14 0.280662 0.540264 0.510127
O O15 0.018371 0.250000 0.500000
O O16 0.993654 0.161803 0.750000
O O17 0.500000 0.500000 0.500000
O O18 0.513293 0.406413 0.250000
O O19 0.599554 0.405582 0.469826
O O20 0.346376 0.997822 0.250000
#
# Coordination Sequence:
#
# PCOD8231442 Si02
#       7
#     8   8   8   8   8   8   8
#     4  10  19  33  53  81 110 138 174 216 263 313
#     4  10  21  37  56  82 114 148 187 231 278 332
#     4  11  22  38  59  83 109 139 181 233 285 338
#     4  11  22  38  58  81 111 150 190 229 276 329
#     4   9  17  32  55  80 107 140 179 227 283 334
#     4   9  16  31  53  76 100 129 165 207 253 300
#     4   8  18  35  54  75 104 140 178 218 262 315
#
# _framework density 19.99145
#
# number of rings (size 3 to 8) (size 9 to 14) (size 15 to 20)
#    0.000    2.286    0.000    5.143    0.000    2.857 
#    0.000   10.714    0.000    0.000    0.000    0.000 
#    0.000    0.000    0.000    0.000    0.000    0.000 
#
# Total GULP energy -693847.607959 kJ/mol
# GULP energy per Si atom -12390.135856 kJ/mol
# Density = 1.994595 g / cm^3
# Si number density = 19.991450 Si / 1000 Ang^3
#
#
#
# Elastic Constant Matrix: (Units=GPa)
#
#
# Indices 1 2 3 4 5 6 
#
# 1 97.0790 0.0845 27.5521 0.0000 0.0000 0.0000
# 2 0.0845 35.2100 12.1054 0.0000 0.0000 0.0000
# 3 27.5521 12.1054 108.4143 0.0000 0.0000 0.0000
# 4 0.0000 0.0000 0.0000 31.5461 0.0000 0.0000
# 5 0.0000 0.0000 0.0000 0.0000 22.2319 0.0000
# 6 0.0000 0.0000 0.0000 0.0000 0.0000 23.6063
#
#
#
# Elastic Compliance Matrix: (Units=1/GPa)
#
#
# Indices 1 2 3 4 5 6 
#
# 1 0.011134 0.000984 -0.002940 0.000000 0.000000 0.000000
# 2 0.000984 0.029622 -0.003558 0.000000 0.000000 0.000000
# 3 -0.002940 -0.003558 0.010368 0.000000 0.000000 0.000000
# 4 0.000000 0.000000 0.000000 0.031700 0.000000 0.000000
# 5 0.000000 0.000000 0.000000 0.000000 0.044980 0.000000
# 6 0.000000 0.000000 0.000000 0.000000 0.000000 0.042361
#
#
# Mechanical properties :
#
#
# Convention : Reuss Voigt Hill
#
# Bulk Modulus (GPa) = 24.93899 35.57637 30.25768
# Shear Modulus (GPa) = 25.69927 28.87429 27.28678
#
# Velocity S-wave (km/s) = 3.58930 3.80456 3.69849
# Velocity P-wave (km/s) = 5.44787 6.09377 5.77985
#
# Compressibility (1/GPa) = 0.04009786
#
# Stress axis : x y z
#
# Youngs Moduli (GPa) = 89.81256 33.75897 96.44923
#
# Poissons Ratio (x) = -0.03322 0.28351
# Poissons Ratio (y) = -0.08837 0.34312
# Poissons Ratio (z) = 0.26400 0.12010
#
# Static dielectric constant tensor:
#      x y z
#    x 4.381370 0.000000 0.000000 
#    y 0.000000 3.529040 0.000000 
#    z 0.000000 0.000000 3.731890 
# 
# 
# High freq. dielectric constant tensor:
#      x y z
#    x 1.786080 0.000000 0.000000 
#    y 0.000000 1.757970 0.000000 
#    z 0.000000 0.000000 1.781230 
# 
# From -- ./inp_files/8185.got.cif
#   From: 2010.03.12/outbox.cif.g09.slc.cpg/sg57_5_cif.got.tgz:8185.got - 2010.04.16 15:48:40.
