data_PCOD8231194
_publ_section_title
;
Structure prediction by ZEFSAII (Michael W. Deem and Ramdas Pophale) SiO2 
 PCOD8231194
Probable space group: P B C M
;
_chemical_formula_sum "Si O2"
_cell_formula_units_Z 48
_cell_length_a 31.608502
_cell_length_b 9.102551
_cell_length_c 8.691153
_cell_angle_alpha 90.000000
_cell_angle_beta 90.000000
_cell_angle_gamma 90.000000
_cell_volume 2500.601172
_symmetry_space_group_name_H-M "P B C M"
_symmetry_group_IT_number 57
_symmetry_cell_setting 'orthorhombic'
loop_
_space_group_symop_operation_xyz
x,y,z
-x,-y,1/2+z
x,1/2-y,-z
-x,1/2+y,1/2-z
-x,-y,-z
x,y,1/2-z
-x,1/2+y,z
x,1/2-y,1/2+z
loop_
_atom_site_type_symbol
_atom_site_label
_atom_site_fract_x
_atom_site_fract_y
_atom_site_fract_z
Si Si1 0.714143 0.089515 0.070211
Si Si2 0.377498 0.910713 0.930220
Si Si3 0.121035 0.089911 0.431377
Si Si4 0.961148 0.411447 0.432267
Si Si5 0.461224 0.587582 0.567997
Si Si6 0.201890 0.587630 0.568068
O O1 0.723663 0.101616 0.250000
O O2 0.668333 0.009973 0.041512
O O3 0.711405 0.250000 0.000000
O O4 0.754097 0.010428 0.988669
O O5 0.387650 0.900018 0.750000
O O6 0.373953 0.750000 0.000000
O O7 0.416963 0.990881 0.015002
O O8 0.116241 0.250000 0.500000
O O9 0.122238 0.105133 0.250000
O O10 0.081652 0.991739 0.485159
O O11 0.163691 0.012958 0.493110
O O12 0.960796 0.250000 0.500000
O O13 0.965403 0.403312 0.250000
O O14 0.000000 0.500000 0.500000
O O15 0.462529 0.750000 0.500000
O O16 0.500000 0.500000 0.500000
O O17 0.464398 0.590863 0.750000
O O18 0.196798 0.750000 0.500000
O O19 0.201608 0.599240 0.750000
#
# Coordination Sequence:
#
# PCOD8231194 Si02
#       6
#     8   8   8   8   8   8
#     4   9  16  26  44  71 101 132 166 209 258 307
#     4   9  16  27  44  69  99 130 167 210 257 309
#     4  10  23  39  56  79 108 143 182 222 264 313
#     4  11  23  40  61  87 116 147 184 225 272 322
#     4  11  21  34  52  75 103 136 174 216 264 316
#     4  10  19  32  51  77 105 134 170 212 259 311
#
# _framework density 19.195384000000001
#
# number of rings (size 3 to 8) (size 9 to 14) (size 15 to 20)
#    0.000    2.000    0.000    6.500    0.000    6.000 
#    0.000    0.000    0.000    1.000    0.000    2.333 
#    0.000    0.000    0.000    0.000    0.000    0.000 
#
# Total GULP energy -594867.206153 kJ/mol
# GULP energy per Si atom -12393.066795 kJ/mol
# Density = 1.915169 g / cm^3
# Si number density = 19.195384 Si / 1000 Ang^3
#
#
#
# Elastic Constant Matrix: (Units=GPa)
#
#
# Indices 1 2 3 4 5 6 
#
# 1 222.8304 70.8260 72.1905 0.0000 0.0000 0.0000
# 2 70.8260 87.1708 36.3078 0.0000 0.0000 0.0000
# 3 72.1905 36.3078 114.1302 0.0000 0.0000 0.0000
# 4 0.0000 0.0000 0.0000 25.6875 0.0000 0.0000
# 5 0.0000 0.0000 0.0000 0.0000 35.8708 0.0000
# 6 0.0000 0.0000 0.0000 0.0000 0.0000 28.7746
#
#
#
# Elastic Compliance Matrix: (Units=1/GPa)
#
#
# Indices 1 2 3 4 5 6 
#
# 1 0.006808 -0.004309 -0.002936 0.000000 0.000000 0.000000
# 2 -0.004309 0.015951 -0.002349 0.000000 0.000000 0.000000
# 3 -0.002936 -0.002349 0.011366 0.000000 0.000000 0.000000
# 4 0.000000 0.000000 0.000000 0.038929 0.000000 0.000000
# 5 0.000000 0.000000 0.000000 0.000000 0.027878 0.000000
# 6 0.000000 0.000000 0.000000 0.000000 0.000000 0.034753
#
#
# Mechanical properties :
#
#
# Convention : Reuss Voigt Hill
#
# Bulk Modulus (GPa) = 66.94161 86.97555 76.95858
# Shear Modulus (GPa) = 31.27884 34.38706 32.83295
#
# Velocity S-wave (km/s) = 4.04108 4.23711 4.14026
# Velocity P-wave (km/s) = 7.53149 8.32746 7.93945
#
# Compressibility (1/GPa) = 0.01493839
#
# Stress axis : x y z
#
# Youngs Moduli (GPa) = 146.87695 62.69126 87.98118
#
# Poissons Ratio (x) = 0.27014 0.25828
# Poissons Ratio (y) = 0.63290 0.20666
# Poissons Ratio (z) = 0.43118 0.14725
#
# Static dielectric constant tensor:
#      x y z
#    x 5.007020 0.000000 0.000000 
#    y 0.000000 3.104040 0.000000 
#    z 0.000000 0.000000 3.638360 
# 
# 
# High freq. dielectric constant tensor:
#      x y z
#    x 1.784200 0.000000 0.000000 
#    y 0.000000 1.693340 0.000000 
#    z 0.000000 0.000000 1.760660 
# 
# From -- ./inp_files/10045.got.cif
#   From: 2010.03.12/outbox.cif.g09.slc.cpg/sg57_6_cif.got.tgz:10045.got - 2010.04.16 15:48:40.
