data_PCOD8231142
_publ_section_title
;
Structure prediction by ZEFSAII (Michael W. Deem and Ramdas Pophale) SiO2 
 PCOD8231142
Probable space group: P B C M
;
_chemical_formula_sum "Si O2"
_cell_formula_units_Z 64
_cell_length_a 22.868231
_cell_length_b 17.589151
_cell_length_c 8.925465
_cell_angle_alpha 90.000000
_cell_angle_beta 90.000000
_cell_angle_gamma 90.000000
_cell_volume 3590.114494
_symmetry_space_group_name_H-M "P B C M"
_symmetry_group_IT_number 57
_symmetry_cell_setting 'orthorhombic'
loop_
_space_group_symop_operation_xyz
x,y,z
-x,-y,1/2+z
x,1/2-y,-z
-x,1/2+y,1/2-z
-x,-y,-z
x,y,1/2-z
-x,1/2+y,z
x,1/2-y,1/2+z
loop_
_atom_site_type_symbol
_atom_site_label
_atom_site_fract_x
_atom_site_fract_y
_atom_site_fract_z
Si Si1 0.364940 0.455482 0.923721
Si Si2 0.683610 0.327367 0.422475
Si Si3 0.933572 0.331446 0.572264
Si Si4 0.738849 0.472494 0.927630
Si Si5 0.545105 0.829956 0.577750
Si Si6 0.563108 0.099904 0.580255
Si Si7 0.862260 0.029818 0.573341
Si Si8 0.033078 0.434003 0.921337
O O1 0.348590 0.469876 0.750000
O O2 0.394158 0.373884 0.950866
O O3 0.411490 0.519313 0.974634
O O4 0.306159 0.461291 0.021650
O O5 0.703063 0.250000 0.500000
O O6 0.704075 0.328342 0.250000
O O7 0.716513 0.392596 0.511585
O O8 0.613742 0.336831 0.434210
O O9 0.919629 0.250000 0.500000
O O10 0.922307 0.326302 0.750000
O O11 0.891024 0.395843 0.503398
O O12 0.002085 0.353699 0.533627
O O13 0.743489 0.470681 0.750000
O O14 0.801134 0.489999 0.998600
O O15 0.549943 0.750000 0.500000
O O16 0.534166 0.814236 0.750000
O O17 0.490798 0.879363 0.523238
O O18 0.540229 0.094663 0.750000
O O19 0.855724 0.046726 0.750000
O O20 0.898485 0.950271 0.545537
O O21 0.019394 0.446789 0.750000
O O22 0.000000 0.500000 0.000000
#
# Coordination Sequence:
#
# PCOD8231142 Si02
#       8
#     8   8   8   8   8   8   8   8
#     4   9  20  38  55  73  99 134 171 211 255 303
#     4  10  20  34  50  71 101 136 170 207 250 301
#     4  10  19  32  50  78 111 139 168 203 245 294
#     4  11  22  35  53  76  99 130 171 214 255 299
#     4  11  22  34  52  77 104 131 163 205 258 311
#     4   9  18  33  53  75 100 129 165 205 250 304
#     4  10  19  34  54  75 100 134 172 210 250 294
#     4   8  16  30  50  73  99 131 166 201 239 282
#
# _framework density 17.826730000000001
#
# number of rings (size 3 to 8) (size 9 to 14) (size 15 to 20)
#    0.000    2.250    0.000    4.125    0.000    6.000 
#    0.000    2.500    0.000    0.750    0.000    1.750 
#    0.000    0.000    0.000    0.000    0.000    0.000 
#
# Total GULP energy -793173.844853 kJ/mol
# GULP energy per Si atom -12393.341326 kJ/mol
# Density = 1.778616 g / cm^3
# Si number density = 17.826730 Si / 1000 Ang^3
#
#
#
# Elastic Constant Matrix: (Units=GPa)
#
#
# Indices 1 2 3 4 5 6 
#
# 1 113.0236 39.0728 62.0494 0.0000 0.0000 0.0000
# 2 39.0728 48.5466 33.4165 0.0000 0.0000 0.0000
# 3 62.0494 33.4165 108.4861 0.0000 0.0000 0.0000
# 4 0.0000 0.0000 0.0000 22.0676 0.0000 0.0000
# 5 0.0000 0.0000 0.0000 0.0000 29.1236 0.0000
# 6 0.0000 0.0000 0.0000 0.0000 0.0000 26.3025
#
#
#
# Elastic Compliance Matrix: (Units=1/GPa)
#
#
# Indices 1 2 3 4 5 6 
#
# 1 0.014899 -0.007774 -0.006127 0.000000 0.000000 0.000000
# 2 -0.007774 0.030198 -0.004855 0.000000 0.000000 0.000000
# 3 -0.006127 -0.004855 0.014218 0.000000 0.000000 0.000000
# 4 0.000000 0.000000 0.000000 0.045315 0.000000 0.000000
# 5 0.000000 0.000000 0.000000 0.000000 0.034336 0.000000
# 6 0.000000 0.000000 0.000000 0.000000 0.000000 0.038019
#
#
# Mechanical properties :
#
#
# Convention : Reuss Voigt Hill
#
# Bulk Modulus (GPa) = 45.86763 59.90375 52.88569
# Shear Modulus (GPa) = 22.54641 24.53325 23.53983
#
# Velocity S-wave (km/s) = 3.56019 3.71375 3.63778
# Velocity P-wave (km/s) = 6.53342 7.21564 6.88299
#
# Compressibility (1/GPa) = 0.02180187
#
# Stress axis : x y z
#
# Youngs Moduli (GPa) = 67.11928 33.11511 70.33499
#
# Poissons Ratio (x) = 0.25743 0.43094
# Poissons Ratio (y) = 0.52178 0.34150
# Poissons Ratio (z) = 0.41124 0.16078
#
# Static dielectric constant tensor:
#      x y z
#    x 4.135390 0.000000 0.000000 
#    y 0.000000 3.431110 0.000000 
#    z 0.000000 0.000000 3.412560 
# 
# 
# High freq. dielectric constant tensor:
#      x y z
#    x 1.683960 0.000000 0.000000 
#    y 0.000000 1.671670 0.000000 
#    z 0.000000 0.000000 1.702700 
# 
# From -- ./inp_files/8454.got.cif
#   From: 2010.03.12/outbox.cif.g09.slc.cpg/sg57_5_cif.got.tgz:8454.got - 2010.04.16 15:48:40.
