data_PCOD8231167
_publ_section_title
;
Structure prediction by ZEFSAII (Michael W. Deem and Ramdas Pophale) SiO2 
 PCOD8231167
Probable space group: P B C M
;
_chemical_formula_sum "Si O2"
_cell_formula_units_Z 40
_cell_length_a 13.032652
_cell_length_b 19.329015
_cell_length_c 9.056910
_cell_angle_alpha 90.000000
_cell_angle_beta 90.000000
_cell_angle_gamma 90.000000
_cell_volume 2281.511037
_symmetry_space_group_name_H-M "P B C M"
_symmetry_group_IT_number 57
_symmetry_cell_setting 'orthorhombic'
loop_
_space_group_symop_operation_xyz
x,y,z
-x,-y,1/2+z
x,1/2-y,-z
-x,1/2+y,1/2-z
-x,-y,-z
x,y,1/2-z
-x,1/2+y,z
x,1/2-y,1/2+z
loop_
_atom_site_type_symbol
_atom_site_label
_atom_site_fract_x
_atom_site_fract_y
_atom_site_fract_z
Si Si1 0.601516 0.578715 0.578228
Si Si2 0.393608 0.581627 0.078256
Si Si3 0.772345 0.175449 0.575885
Si Si4 0.216612 0.323701 0.423305
Si Si5 0.005041 0.678780 0.580408
O O1 0.577481 0.591689 0.750000
O O2 0.627133 0.498902 0.548667
O O3 0.504320 0.603414 0.483828
O O4 0.698266 0.622623 0.520369
O O5 0.388850 0.600633 0.250000
O O6 0.307745 0.622831 0.991383
O O7 0.760531 0.250000 0.500000
O O8 0.752352 0.184011 0.750000
O O9 0.886249 0.141567 0.543669
O O10 0.232444 0.250000 0.500000
O O11 0.228961 0.311374 0.250000
O O12 0.103709 0.358096 0.460470
O O13 0.005695 0.750000 0.500000
O O14 0.003736 0.698073 0.750000
#
# Coordination Sequence:
#
# PCOD8231167 Si02
#       5
#     8   8   8   8   8
#     4   9  19  35  52  69  95 131 165 199 242 291
#     4  10  20  34  51  70  95 129 166 202 242 287
#     4  10  19  32  51  74  99 126 159 198 239 285
#     4   9  17  31  51  74  98 124 157 196 238 284
#     4   8  15  28  47  70  96 125 154 189 235 284
#
# _framework density 17.532242
#
# number of rings (size 3 to 8) (size 9 to 14) (size 15 to 20)
#    0.000    2.800    0.000    1.200    0.000    3.200 
#    0.000    3.000    0.000    0.000    0.000    0.000 
#    0.000    0.000    0.000    0.000    0.000    0.000 
#
# Total GULP energy -495541.428841 kJ/mol
# GULP energy per Si atom -12388.535721 kJ/mol
# Density = 1.749234 g / cm^3
# Si number density = 17.532242 Si / 1000 Ang^3
#
#
#
# Elastic Constant Matrix: (Units=GPa)
#
#
# Indices 1 2 3 4 5 6 
#
# 1 199.1680 79.7919 71.2931 0.0000 0.0000 0.0000
# 2 79.7919 63.2320 36.9906 0.0000 0.0000 0.0000
# 3 71.2931 36.9906 68.8332 0.0000 0.0000 0.0000
# 4 0.0000 0.0000 0.0000 25.6175 0.0000 0.0000
# 5 0.0000 0.0000 0.0000 0.0000 12.7042 0.0000
# 6 0.0000 0.0000 0.0000 0.0000 0.0000 -12.8965
#
#
#
# Elastic Compliance Matrix: (Units=1/GPa)
#
#
# Indices 1 2 3 4 5 6 
#
# 1 0.011677 -0.011172 -0.006090 0.000000 0.000000 0.000000
# 2 -0.011172 0.033755 -0.006569 0.000000 0.000000 0.000000
# 3 -0.006090 -0.006569 0.024366 0.000000 0.000000 0.000000
# 4 0.000000 0.000000 0.000000 0.039036 0.000000 0.000000
# 5 0.000000 0.000000 0.000000 0.000000 0.078714 0.000000
# 6 0.000000 0.000000 0.000000 0.000000 0.000000 -0.077540
#
#
# Mechanical properties :
#
#
# Convention : Reuss Voigt Hill
#
# Bulk Modulus (GPa) = 45.17544 78.59827 61.88686
# Shear Modulus (GPa) = 30.29421 14.62886 22.46154
#
# Velocity S-wave (km/s) = 4.16133 2.89173 3.58321
# Velocity P-wave (km/s) = 6.99370 7.48849 7.24532
#
# Compressibility (1/GPa) = 0.02213592
#
# Stress axis : x y z
#
# Youngs Moduli (GPa) = 85.64072 29.62499 41.04117
#
# Poissons Ratio (x) = 0.33097 0.24995
# Poissons Ratio (y) = 0.95677 0.26959
# Poissons Ratio (z) = 0.52157 0.19460
#
# Static dielectric constant tensor:
#      x y z
#    x 4.092210 0.000000 0.000000 
#    y 0.000000 2.944290 0.000000 
#    z 0.000000 0.000000 3.287540 
# 
# 
# High freq. dielectric constant tensor:
#      x y z
#    x 1.703520 0.000000 0.000000 
#    y 0.000000 1.640360 0.000000 
#    z 0.000000 0.000000 1.684570 
# 
# From -- ./inp_files/2682.got.cif
#   From: 2010.03.12/outbox.cif.g09.slc.cpg/sg57_2_cif.got.tgz:2682.got - 2010.04.16 15:48:40.
