data_PCOD8231904
_publ_section_title
;
Structure prediction by ZEFSAII (Michael W. Deem and Ramdas Pophale) SiO2 
 PCOD8231904
Probable space group: P B C M
;
_chemical_formula_sum "Si O2"
_cell_formula_units_Z 40
_cell_length_a 12.036919
_cell_length_b 8.911582
_cell_length_c 13.902528
_cell_angle_alpha 90.000000
_cell_angle_beta 90.000000
_cell_angle_gamma 90.000000
_cell_volume 1491.296244
_symmetry_space_group_name_H-M "P B C M"
_symmetry_group_IT_number 57
_symmetry_cell_setting 'orthorhombic'
loop_
_space_group_symop_operation_xyz
x,y,z
-x,-y,1/2+z
x,1/2-y,-z
-x,1/2+y,1/2-z
-x,-y,-z
x,y,1/2-z
-x,1/2+y,z
x,1/2-y,1/2+z
loop_
_atom_site_type_symbol
_atom_site_label
_atom_site_fract_x
_atom_site_fract_y
_atom_site_fract_z
Si Si1 0.283205 0.211067 0.352932
Si Si2 0.636633 0.079113 0.560050
Si Si3 0.413033 0.002770 0.858503
Si Si4 0.053198 0.147342 0.089636
Si Si5 0.863408 0.341902 0.360552
O O1 0.338708 0.166978 0.250000
O O2 0.327155 0.096440 0.433905
O O3 0.312590 0.382385 0.374746
O O4 0.151068 0.194581 0.337814
O O5 0.603852 0.118045 0.447166
O O6 0.527718 0.095694 0.626741
O O7 0.739602 0.180660 0.597062
O O8 0.408279 0.931764 0.750000
O O9 0.929919 0.185429 0.129959
O O10 0.065535 0.965643 0.077076
O O11 0.082178 0.250000 0.000000
O O12 0.854936 0.392551 0.250000
#
# Coordination Sequence:
#
# PCOD8231904 Si02
#       5
#     8   8   8   8   8
#     4  10  19  35  59  84 112 151 196 240 296 363
#     4  10  20  37  59  83 115 155 195 242 301 359
#     4  10  20  34  56  85 113 146 194 244 293 356
#     4  11  22  38  61  89 123 164 206 252 305 364
#     4  11  22  40  64  91 124 163 207 254 308 368
#
# _framework density 26.822302000000001
#
# number of rings (size 3 to 8) (size 9 to 14) (size 15 to 20)
#    0.000    1.600    0.000    8.400    0.000    0.000 
#    0.000    6.000    0.000    9.600    0.000    0.000 
#    0.000    0.000    0.000    0.000    0.000    0.000 
#
# Total GULP energy -495615.311301 kJ/mol
# GULP energy per Si atom -12390.382783 kJ/mol
# Density = 2.676125 g / cm^3
# Si number density = 26.822302 Si / 1000 Ang^3
#
#
#
# Elastic Constant Matrix: (Units=GPa)
#
#
# Indices 1 2 3 4 5 6 
#
# 1 125.5881 15.8289 -14.1233 0.0000 0.0000 0.0000
# 2 15.8289 26.4410 -2.9776 0.0000 0.0000 0.0000
# 3 -14.1233 -2.9776 162.3402 0.0000 0.0000 0.0000
# 4 0.0000 0.0000 0.0000 28.1250 0.0000 0.0000
# 5 0.0000 0.0000 0.0000 0.0000 27.4146 0.0000
# 6 0.0000 0.0000 0.0000 0.0000 0.0000 34.8184
#
#
#
# Elastic Compliance Matrix: (Units=1/GPa)
#
#
# Indices 1 2 3 4 5 6 
#
# 1 0.008683 -0.005123 0.000661 0.000000 0.000000 0.000000
# 2 -0.005123 0.040921 0.000305 0.000000 0.000000 0.000000
# 3 0.000661 0.000305 0.006223 0.000000 0.000000 0.000000
# 4 0.000000 0.000000 0.000000 0.035556 0.000000 0.000000
# 5 0.000000 0.000000 0.000000 0.000000 0.036477 0.000000
# 6 0.000000 0.000000 0.000000 0.000000 0.000000 0.028720
#
#
# Mechanical properties :
#
#
# Convention : Reuss Voigt Hill
#
# Bulk Modulus (GPa) = 21.04693 34.64725 27.84709
# Shear Modulus (GPa) = 27.66529 39.11436 33.38982
#
# Velocity S-wave (km/s) = 3.21507 3.82288 3.53208
# Velocity P-wave (km/s) = 4.65253 5.69485 5.19987
#
# Compressibility (1/GPa) = 0.04751286
#
# Stress axis : x y z
#
# Youngs Moduli (GPa) = 115.17208 24.43708 160.69325
#
# Poissons Ratio (x) = 0.12520 -0.10628
# Poissons Ratio (y) = 0.59007 -0.04899
# Poissons Ratio (z) = -0.07618 -0.00745
#
# Static dielectric constant tensor:
#      x y z
#    x 5.036770 0.000000 0.000000 
#    y 0.000000 4.346590 0.000000 
#    z 0.000000 0.000000 4.967970 
# 
# 
# High freq. dielectric constant tensor:
#      x y z
#    x 2.086890 0.000000 0.000000 
#    y 0.000000 2.053830 0.000000 
#    z 0.000000 0.000000 2.089980 
# 
# From -- ./inp_files/17388.got.cif
#   From: 2010.03.12/outbox.cif.g09.slc.cpg/sg57_9_cif.got.tgz:17388.got - 2010.04.16 15:48:40.
