data_PCOD8231350
_publ_section_title
;
Structure prediction by ZEFSAII (Michael W. Deem and Ramdas Pophale) SiO2 
 PCOD8231350
Probable space group: P B C M
;
_chemical_formula_sum "Si O2"
_cell_formula_units_Z 64
_cell_length_a 20.923652
_cell_length_b 9.369639
_cell_length_c 18.003534
_cell_angle_alpha 90.000000
_cell_angle_beta 90.000000
_cell_angle_gamma 90.000000
_cell_volume 3529.540015
_symmetry_space_group_name_H-M "P B C M"
_symmetry_group_IT_number 57
_symmetry_cell_setting 'orthorhombic'
loop_
_space_group_symop_operation_xyz
x,y,z
-x,-y,1/2+z
x,1/2-y,-z
-x,1/2+y,1/2-z
-x,-y,-z
x,y,1/2-z
-x,1/2+y,z
x,1/2-y,1/2+z
loop_
_atom_site_type_symbol
_atom_site_label
_atom_site_fract_x
_atom_site_fract_y
_atom_site_fract_z
Si Si1 0.553954 0.751973 0.161880
Si Si2 0.333738 0.048830 0.835885
Si Si3 0.432191 0.570619 0.661625
Si Si4 0.941765 0.265262 0.661942
Si Si5 0.182200 0.761143 0.584966
Si Si6 0.193981 0.049796 0.834535
Si Si7 0.675589 0.255319 0.413224
Si Si8 0.058194 0.088323 0.836041
O O1 0.555747 0.751139 0.250000
O O2 0.615089 0.839780 0.131266
O O3 0.555452 0.590084 0.132181
O O4 0.489969 0.829426 0.133445
O O5 0.349006 0.013954 0.750000
O O6 0.263335 0.123988 0.843823
O O7 0.337824 0.900237 0.879156
O O8 0.425985 0.573867 0.750000
O O9 0.367074 0.626462 0.626456
O O10 0.940339 0.257607 0.750000
O O11 0.875991 0.192413 0.632337
O O12 0.945307 0.427555 0.632531
O O13 0.003753 0.186216 0.626579
O O14 0.162024 0.750000 0.500000
O O15 0.251454 0.689543 0.599652
O O16 0.191200 0.925118 0.606140
O O17 0.187957 0.987789 0.750000
O O18 0.131045 0.149373 0.848984
O O19 0.659312 0.250000 0.500000
O O20 0.041072 0.085112 0.750000
#
# Coordination Sequence:
#
# PCOD8231350 Si02
#       8
#     8   8   8   8   8   8   8   8
#     4   9  18  32  52  77 100 124 157 196 235 277
#     4   9  16  30  52  72  91 123 164 198 233 284
#     4  10  19  33  52  73  99 127 155 191 235 282
#     4   9  16  28  45  65  90 120 152 186 227 274
#     4   9  17  29  45  65  90 119 153 193 231 271
#     4   8  14  26  45  65  86 117 154 187 225 278
#     4  10  20  33  49  71  97 125 160 201 242 282
#     4   8  14  25  42  64  88 113 144 182 222 264
#
# _framework density 18.132674999999999
#
# number of rings (size 3 to 8) (size 9 to 14) (size 15 to 20)
#    0.000    3.000    0.000    2.250    0.000    3.500 
#    0.000    6.875    0.000    4.500    0.000    5.250 
#    0.000    0.000    0.000    0.000    0.000    0.000 
#
# Total GULP energy -792891.722071 kJ/mol
# GULP energy per Si atom -12388.933157 kJ/mol
# Density = 1.809140 g / cm^3
# Si number density = 18.132675 Si / 1000 Ang^3
#
#
#
# Elastic Constant Matrix: (Units=GPa)
#
#
# Indices 1 2 3 4 5 6 
#
# 1 153.4232 56.6025 26.3551 0.0000 0.0000 0.0000
# 2 56.6025 82.4317 17.3187 0.0000 0.0000 0.0000
# 3 26.3551 17.3187 30.0547 0.0000 0.0000 0.0000
# 4 0.0000 0.0000 0.0000 7.1287 0.0000 0.0000
# 5 0.0000 0.0000 0.0000 0.0000 16.2110 0.0000
# 6 0.0000 0.0000 0.0000 0.0000 0.0000 33.9495
#
#
#
# Elastic Compliance Matrix: (Units=1/GPa)
#
#
# Indices 1 2 3 4 5 6 
#
# 1 0.009378 -0.005360 -0.005134 0.000000 0.000000 0.000000
# 2 -0.005360 0.016866 -0.005018 0.000000 0.000000 0.000000
# 3 -0.005134 -0.005018 0.040667 0.000000 0.000000 0.000000
# 4 0.000000 0.000000 0.000000 0.140278 0.000000 0.000000
# 5 0.000000 0.000000 0.000000 0.000000 0.061686 0.000000
# 6 0.000000 0.000000 0.000000 0.000000 0.000000 0.029456
#
#
# Mechanical properties :
#
#
# Convention : Reuss Voigt Hill
#
# Bulk Modulus (GPa) = 27.86733 51.82913 39.84823
# Shear Modulus (GPa) = 14.64906 22.50005 18.57456
#
# Velocity S-wave (km/s) = 2.84541 3.52640 3.20405
# Velocity P-wave (km/s) = 5.11831 6.72503 5.97591
#
# Compressibility (1/GPa) = 0.03588431
#
# Stress axis : x y z
#
# Youngs Moduli (GPa) = 106.63795 59.28931 24.59005
#
# Poissons Ratio (x) = 0.31782 0.12625
# Poissons Ratio (y) = 0.57163 0.12341
# Poissons Ratio (z) = 0.54751 0.29754
#
# Static dielectric constant tensor:
#      x y z
#    x 3.949020 0.000000 0.000000 
#    y 0.000000 3.176550 0.000000 
#    z 0.000000 0.000000 3.018450 
# 
# 
# High freq. dielectric constant tensor:
#      x y z
#    x 1.732620 0.000000 0.000000 
#    y 0.000000 1.663920 0.000000 
#    z 0.000000 0.000000 1.667520 
# 
# From -- ./inp_files/23134.got.cif
#   From: 2010.03.12/outbox.cif.g09.slc.cpg/sg57_12_cif.got.tgz:23134.got - 2010.04.16 15:48:40.
