data_PCOD8231789
_publ_section_title
;
Structure prediction by ZEFSAII (Michael W. Deem and Ramdas Pophale) SiO2 
 PCOD8231789
Probable space group: P B C M
;
_chemical_formula_sum "Si O2"
_cell_formula_units_Z 48
_cell_length_a 10.163144
_cell_length_b 27.901361
_cell_length_c 8.608243
_cell_angle_alpha 90.000000
_cell_angle_beta 90.000000
_cell_angle_gamma 90.000000
_cell_volume 2441.001158
_symmetry_space_group_name_H-M "P B C M"
_symmetry_group_IT_number 57
_symmetry_cell_setting 'orthorhombic'
loop_
_space_group_symop_operation_xyz
x,y,z
-x,-y,1/2+z
x,1/2-y,-z
-x,1/2+y,1/2-z
-x,-y,-z
x,y,1/2-z
-x,1/2+y,z
x,1/2-y,1/2+z
loop_
_atom_site_type_symbol
_atom_site_label
_atom_site_fract_x
_atom_site_fract_y
_atom_site_fract_z
Si Si1 0.775339 0.656020 0.933969
Si Si2 0.272881 0.863595 0.931770
Si Si3 0.496376 0.198127 0.933560
Si Si4 0.047286 0.800900 0.434280
Si Si5 0.135461 0.446509 0.432717
Si Si6 0.831332 0.045295 0.930718
O O1 0.769415 0.654184 0.750000
O O2 0.642975 0.679551 0.002597
O O3 0.897950 0.688613 0.986914
O O4 0.793279 0.601588 0.994102
O O5 0.291971 0.855910 0.750000
O O6 0.394104 0.839887 0.020100
O O7 0.265552 0.919810 0.973742
O O8 0.137412 0.840941 0.989768
O O9 0.490164 0.202351 0.750000
O O10 0.531973 0.250000 0.000000
O O11 0.092174 0.750000 0.500000
O O12 0.065226 0.802602 0.250000
O O13 0.153921 0.454362 0.250000
O O14 0.202014 0.490845 0.521920
O O15 0.981694 0.442673 0.474841
O O16 0.804010 0.053018 0.750000
#
# Coordination Sequence:
#
# PCOD8231789 Si02
#       6
#     8   8   8   8   8   8
#     4   9  19  37  61  86 116 152 191 237 290 344
#     4  12  24  39  58  84 115 154 198 241 288 343
#     4  11  23  41  62  84 115 156 196 238 292 348
#     4  11  21  37  58  86 116 147 189 242 293 345
#     4   9  17  34  58  87 120 152 187 233 290 349
#     4  10  19  34  58  88 120 152 189 238 292 345
#
# _framework density 19.664062999999999
#
# number of rings (size 3 to 8) (size 9 to 14) (size 15 to 20)
#    0.000    1.667    1.667    4.000    0.000    0.667 
#    0.000    5.000    0.000    0.000    0.000    0.000 
#    0.000    0.000    0.000    0.000    0.000    0.000 
#
# Total GULP energy -595366.902750 kJ/mol
# GULP energy per Si atom -12403.477141 kJ/mol
# Density = 1.961931 g / cm^3
# Si number density = 19.664063 Si / 1000 Ang^3
#
#
#
# Elastic Constant Matrix: (Units=GPa)
#
#
# Indices 1 2 3 4 5 6 
#
# 1 65.9682 14.0583 11.9431 0.0000 0.0000 0.0000
# 2 14.0583 96.1670 23.5672 0.0000 0.0000 0.0000
# 3 11.9431 23.5672 54.6611 0.0000 0.0000 0.0000
# 4 0.0000 0.0000 0.0000 30.4225 0.0000 0.0000
# 5 0.0000 0.0000 0.0000 0.0000 14.1063 0.0000
# 6 0.0000 0.0000 0.0000 0.0000 0.0000 32.9932
#
#
#
# Elastic Compliance Matrix: (Units=1/GPa)
#
#
# Indices 1 2 3 4 5 6 
#
# 1 0.016016 -0.001659 -0.002784 0.000000 0.000000 0.000000
# 2 -0.001659 0.011799 -0.004725 0.000000 0.000000 0.000000
# 3 -0.002784 -0.004725 0.020940 0.000000 0.000000 0.000000
# 4 0.000000 0.000000 0.000000 0.032870 0.000000 0.000000
# 5 0.000000 0.000000 0.000000 0.000000 0.070890 0.000000
# 6 0.000000 0.000000 0.000000 0.000000 0.000000 0.030309
#
#
# Mechanical properties :
#
#
# Convention : Reuss Voigt Hill
#
# Bulk Modulus (GPa) = 32.87362 35.10370 33.98866
# Shear Modulus (GPa) = 23.66295 26.65293 25.15794
#
# Velocity S-wave (km/s) = 3.47271 3.68559 3.58073
# Velocity P-wave (km/s) = 5.73006 6.00016 5.86666
#
# Compressibility (1/GPa) = 0.03041953
#
# Stress axis : x y z
#
# Youngs Moduli (GPa) = 62.43587 84.75328 47.75575
#
# Poissons Ratio (x) = 0.14061 0.13296
# Poissons Ratio (y) = 0.10359 0.22563
# Poissons Ratio (z) = 0.17383 0.40043
#
# Static dielectric constant tensor:
#      x y z
#    x 3.601820 0.000000 0.000000 
#    y 0.000000 3.764340 0.000000 
#    z 0.000000 0.000000 3.440460 
# 
# 
# High freq. dielectric constant tensor:
#      x y z
#    x 1.749590 0.000000 0.000000 
#    y 0.000000 1.783380 0.000000 
#    z 0.000000 0.000000 1.756700 
# 
# From -- ./inp_files/2099.got.cif
#   From: 2010.03.12/outbox.cif.g09.slc.cpg/sg57_2_cif.got.tgz:2099.got - 2010.04.16 15:48:40.
