data_PCOD8231990
_publ_section_title
;
Structure prediction by ZEFSAII (Michael W. Deem and Ramdas Pophale) SiO2 
 PCOD8231990
Probable space group: P B C M
;
_chemical_formula_sum "Si O2"
_cell_formula_units_Z 64
_cell_length_a 20.950466
_cell_length_b 8.759006
_cell_length_c 17.058839
_cell_angle_alpha 90.000000
_cell_angle_beta 90.000000
_cell_angle_gamma 90.000000
_cell_volume 3130.386642
_symmetry_space_group_name_H-M "P B C M"
_symmetry_group_IT_number 57
_symmetry_cell_setting 'orthorhombic'
loop_
_space_group_symop_operation_xyz
x,y,z
-x,-y,1/2+z
x,1/2-y,-z
-x,1/2+y,1/2-z
-x,-y,-z
x,y,1/2-z
-x,1/2+y,z
x,1/2-y,1/2+z
loop_
_atom_site_type_symbol
_atom_site_label
_atom_site_fract_x
_atom_site_fract_y
_atom_site_fract_z
Si Si1 0.801018 0.806708 0.914972
Si Si2 0.685937 0.194381 0.089837
Si Si3 0.058863 0.853793 0.338808
Si Si4 0.436462 0.313876 0.657007
Si Si5 0.436883 0.654546 0.657479
Si Si6 0.688698 0.867435 0.158134
Si Si7 0.069124 0.212739 0.339919
Si Si8 0.187717 0.668871 0.916798
O O1 0.747681 0.748144 0.854436
O O2 0.869042 0.735903 0.888927
O O3 0.805374 0.988011 0.917724
O O4 0.781883 0.750000 0.000000
O O5 0.624351 0.245850 0.137161
O O6 0.749676 0.268773 0.128431
O O7 0.694059 0.012877 0.100766
O O8 0.679025 0.250000 0.000000
O O9 0.059455 0.796183 0.250000
O O10 0.121671 0.780152 0.377054
O O11 0.993413 0.792193 0.377790
O O12 0.059283 0.033590 0.346327
O O13 0.440464 0.322933 0.750000
O O14 0.431025 0.484583 0.621755
O O15 0.499942 0.234580 0.622266
O O16 0.375195 0.218222 0.630943
O O17 0.443353 0.645827 0.750000
O O18 0.686276 0.914512 0.250000
O O19 0.079469 0.263785 0.250000
O O20 0.188007 0.750000 0.000000
#
# Coordination Sequence:
#
# PCOD8231990 Si02
#       8
#     8   8   8   8   8   8   8   8
#     4  11  22  38  59  84 116 153 193 243 297 350
#     4  11  23  39  57  84 119 155 196 244 298 354
#     4   9  19  35  57  81 108 143 188 238 286 338
#     4   9  19  35  59  87 114 147 192 242 294 349
#     4  10  19  36  60  85 115 153 195 243 294 352
#     4  11  23  40  62  89 118 156 203 248 295 355
#     4   9  19  36  56  81 111 146 187 236 290 348
#     4  10  22  39  56  79 115 153 191 234 291 356
#
# _framework density 20.444759000000001
#
# number of rings (size 3 to 8) (size 9 to 14) (size 15 to 20)
#    0.000    2.000    0.000    3.750    0.000    6.000 
#    0.000    6.875    0.000    0.000    0.000    0.000 
#    0.000    0.000    0.000    0.000    0.000    0.000 
#
# Total GULP energy -793517.174024 kJ/mol
# GULP energy per Si atom -12398.705844 kJ/mol
# Density = 2.039823 g / cm^3
# Si number density = 20.444759 Si / 1000 Ang^3
#
#
#
# Elastic Constant Matrix: (Units=GPa)
#
#
# Indices 1 2 3 4 5 6 
#
# 1 178.6318 48.2012 25.2363 0.0000 0.0000 0.0000
# 2 48.2012 97.6991 21.3443 0.0000 0.0000 0.0000
# 3 25.2363 21.3443 37.8564 0.0000 0.0000 0.0000
# 4 0.0000 0.0000 0.0000 26.5156 0.0000 0.0000
# 5 0.0000 0.0000 0.0000 0.0000 20.2109 0.0000
# 6 0.0000 0.0000 0.0000 0.0000 0.0000 48.6395
#
#
#
# Elastic Compliance Matrix: (Units=1/GPa)
#
#
# Indices 1 2 3 4 5 6 
#
# 1 0.006741 -0.002673 -0.002987 0.000000 0.000000 0.000000
# 2 -0.002673 0.012734 -0.005397 0.000000 0.000000 0.000000
# 3 -0.002987 -0.005397 0.031450 0.000000 0.000000 0.000000
# 4 0.000000 0.000000 0.000000 0.037714 0.000000 0.000000
# 5 0.000000 0.000000 0.000000 0.000000 0.049478 0.000000
# 6 0.000000 0.000000 0.000000 0.000000 0.000000 0.020559
#
#
# Mechanical properties :
#
#
# Convention : Reuss Voigt Hill
#
# Bulk Modulus (GPa) = 34.71025 55.97232 45.34129
# Shear Modulus (GPa) = 26.26124 33.70021 29.98073
#
# Velocity S-wave (km/s) = 3.58788 4.06440 3.83355
# Velocity P-wave (km/s) = 5.84622 7.03296 6.46687
#
# Compressibility (1/GPa) = 0.02880993
#
# Stress axis : x y z
#
# Youngs Moduli (GPa) = 148.33585 78.53200 31.79669
#
# Poissons Ratio (x) = 0.20995 0.09497
# Poissons Ratio (y) = 0.39657 0.17162
# Poissons Ratio (z) = 0.44304 0.42386
#
# Static dielectric constant tensor:
#      x y z
#    x 4.236350 0.000000 0.000000 
#    y 0.000000 3.793750 0.000000 
#    z 0.000000 0.000000 3.457560 
# 
# 
# High freq. dielectric constant tensor:
#      x y z
#    x 1.824970 0.000000 0.000000 
#    y 0.000000 1.804490 0.000000 
#    z 0.000000 0.000000 1.768580 
# 
# From -- ./inp_files/23024.got.cif
#   From: 2010.03.12/outbox.cif.g09.slc.cpg/sg57_12_cif.got.tgz:23024.got - 2010.04.16 15:48:40.
