data_PCOD8231331
_publ_section_title
;
Structure prediction by ZEFSAII (Michael W. Deem and Ramdas Pophale) SiO2 
 PCOD8231331
Probable space group: P B C M
;
_chemical_formula_sum "Si O2"
_cell_formula_units_Z 64
_cell_length_a 14.737804
_cell_length_b 29.674742
_cell_length_c 8.559777
_cell_angle_alpha 90.000000
_cell_angle_beta 90.000000
_cell_angle_gamma 90.000000
_cell_volume 3743.537421
_symmetry_space_group_name_H-M "P B C M"
_symmetry_group_IT_number 57
_symmetry_cell_setting 'orthorhombic'
loop_
_space_group_symop_operation_xyz
x,y,z
-x,-y,1/2+z
x,1/2-y,-z
-x,1/2+y,1/2-z
-x,-y,-z
x,y,1/2-z
-x,1/2+y,z
x,1/2-y,1/2+z
loop_
_atom_site_type_symbol
_atom_site_label
_atom_site_fract_x
_atom_site_fract_y
_atom_site_fract_z
Si Si1 0.998122 0.202692 0.934844
Si Si2 0.793490 0.795861 0.066098
Si Si3 0.172025 0.959265 0.431875
Si Si4 0.961608 0.391388 0.932954
Si Si5 0.290078 0.114122 0.564588
Si Si6 0.539483 0.937156 0.068176
Si Si7 0.366590 0.531235 0.070049
Si Si8 0.872767 0.947009 0.434464
O O1 0.985421 0.201197 0.750000
O O2 0.102759 0.198715 0.987341
O O3 0.957970 0.250000 0.000000
O O4 0.947452 0.160184 0.011653
O O5 0.786309 0.794889 0.250000
O O6 0.736193 0.837264 0.994703
O O7 0.750892 0.750000 0.000000
O O8 0.155344 0.951017 0.250000
O O9 0.130732 0.917696 0.528296
O O10 0.278784 0.960648 0.465772
O O11 0.120218 0.005004 0.480547
O O12 0.982196 0.392847 0.750000
O O13 0.043296 0.414992 0.025816
O O14 0.281433 0.114829 0.750000
O O15 0.393087 0.102880 0.514399
O O16 0.219357 0.076594 0.504319
O O17 0.515109 0.934602 0.250000
O O18 0.593728 0.982556 0.028917
O O19 0.445891 0.932965 0.972106
O O20 0.338503 0.535516 0.250000
O O21 0.870499 0.955612 0.250000
#
# Coordination Sequence:
#
# PCOD8231331 Si02
#       8
#     8   8   8   8   8   8   8   8
#     4  10  19  34  54  76 103 135 172 216 262 306
#     4   9  17  30  48  71  99 133 167 206 252 298
#     4  12  24  37  52  73 101 138 179 219 260 309
#     4  12  24  37  52  75 103 139 179 216 259 311
#     4   9  16  30  51  72  99 136 171 204 249 301
#     4   9  17  31  51  73  98 131 167 204 250 303
#     4  10  19  33  51  73 100 130 165 210 256 300
#     4  11  20  36  53  72 103 140 177 215 254 302
#
# _framework density 17.096131
#
# number of rings (size 3 to 8) (size 9 to 14) (size 15 to 20)
#    0.000    1.750    2.500    3.750    0.000    1.000 
#    0.000    0.625    0.000    0.000    0.000    0.875 
#    0.000    2.000    0.000    0.000    0.000    0.000 
#
# Total GULP energy -793634.944598 kJ/mol
# GULP energy per Si atom -12400.546009 kJ/mol
# Density = 1.705722 g / cm^3
# Si number density = 17.096131 Si / 1000 Ang^3
#
#
#
# Elastic Constant Matrix: (Units=GPa)
#
#
# Indices 1 2 3 4 5 6 
#
# 1 58.7417 29.4178 16.4640 0.0000 0.0000 0.0000
# 2 29.4178 120.0005 25.1946 0.0000 0.0000 0.0000
# 3 16.4640 25.1946 48.6155 0.0000 0.0000 0.0000
# 4 0.0000 0.0000 0.0000 26.7765 0.0000 0.0000
# 5 0.0000 0.0000 0.0000 0.0000 23.9870 0.0000
# 6 0.0000 0.0000 0.0000 0.0000 0.0000 18.5045
#
#
#
# Elastic Compliance Matrix: (Units=1/GPa)
#
#
# Indices 1 2 3 4 5 6 
#
# 1 0.020372 -0.003979 -0.004837 0.000000 0.000000 0.000000
# 2 -0.003979 0.010128 -0.003901 0.000000 0.000000 0.000000
# 3 -0.004837 -0.003901 0.024230 0.000000 0.000000 0.000000
# 4 0.000000 0.000000 0.000000 0.037346 0.000000 0.000000
# 5 0.000000 0.000000 0.000000 0.000000 0.041689 0.000000
# 6 0.000000 0.000000 0.000000 0.000000 0.000000 0.054041
#
#
# Mechanical properties :
#
#
# Convention : Reuss Voigt Hill
#
# Bulk Modulus (GPa) = 34.13542 41.05675 37.59609
# Shear Modulus (GPa) = 22.42106 24.27235 23.34670
#
# Velocity S-wave (km/s) = 3.62535 3.77205 3.69943
# Velocity P-wave (km/s) = 6.12653 6.56038 6.34716
#
# Compressibility (1/GPa) = 0.02929508
#
# Stress axis : x y z
#
# Youngs Moduli (GPa) = 49.08719 98.73905 41.27191
#
# Poissons Ratio (x) = 0.39284 0.19964
# Poissons Ratio (y) = 0.19529 0.16101
# Poissons Ratio (z) = 0.23745 0.38521
#
# Static dielectric constant tensor:
#      x y z
#    x 3.165890 0.000000 0.000000 
#    y 0.000000 3.424940 0.000000 
#    z 0.000000 0.000000 3.100880 
# 
# 
# High freq. dielectric constant tensor:
#      x y z
#    x 1.638670 0.000000 0.000000 
#    y 0.000000 1.649240 0.000000 
#    z 0.000000 0.000000 1.658930 
# 
# From -- ./inp_files/6031.got.cif
#   From: 2010.03.12/outbox.cif.g09.slc.cpg/sg57_4_cif.got.tgz:6031.got - 2010.04.16 15:48:40.
