data_PCOD8231089
_publ_section_title
;
Structure prediction by ZEFSAII (Michael W. Deem and Ramdas Pophale) SiO2 
 PCOD8231089
Probable space group: P B C M
;
_chemical_formula_sum "Si O2"
_cell_formula_units_Z 64
_cell_length_a 14.137550
_cell_length_b 28.034334
_cell_length_c 9.198842
_cell_angle_alpha 90.000000
_cell_angle_beta 90.000000
_cell_angle_gamma 90.000000
_cell_volume 3645.839589
_symmetry_space_group_name_H-M "P B C M"
_symmetry_group_IT_number 57
_symmetry_cell_setting 'orthorhombic'
loop_
_space_group_symop_operation_xyz
x,y,z
-x,-y,1/2+z
x,1/2-y,-z
-x,1/2+y,1/2-z
-x,-y,-z
x,y,1/2-z
-x,1/2+y,z
x,1/2-y,1/2+z
loop_
_atom_site_type_symbol
_atom_site_label
_atom_site_fract_x
_atom_site_fract_y
_atom_site_fract_z
Si Si1 0.378933 0.125234 0.082713
Si Si2 0.598455 0.985484 0.920557
Si Si3 0.012292 0.202781 0.081606
Si Si4 0.698700 0.063035 0.078513
Si Si5 0.703618 0.292695 0.092982
Si Si6 0.774010 0.797667 0.919886
Si Si7 0.161478 0.856640 0.582637
Si Si8 0.557162 0.126872 0.590288
O O1 0.405794 0.134861 0.250000
O O2 0.370491 0.068855 0.052823
O O3 0.285117 0.154842 0.039912
O O4 0.459472 0.144797 0.977020
O O5 0.587814 0.996859 0.750000
O O6 0.500000 0.000000 0.000000
O O7 0.688349 0.013930 0.989375
O O8 0.009329 0.216151 0.250000
O O9 0.118607 0.191032 0.029873
O O10 0.949758 0.154258 0.054242
O O11 0.973132 0.250000 0.000000
O O12 0.690500 0.053403 0.250000
O O13 0.797820 0.090629 0.038631
O O14 0.607620 0.092954 0.026655
O O15 0.740993 0.275168 0.250000
O O16 0.616781 0.326749 0.116489
O O17 0.662604 0.250000 0.000000
O O18 0.789932 0.316426 0.011107
O O19 0.768174 0.786751 0.750000
O O20 0.736021 0.750000 0.000000
O O21 0.189013 0.848947 0.750000
O O22 0.543433 0.101910 0.750000
#
# Coordination Sequence:
#
# PCOD8231089 Si02
#       8
#     8   8   8   8   8   8   8   8
#     4  10  21  35  52  73  99 132 168 206 252 301
#     4  11  21  33  52  76 101 133 173 213 254 296
#     4   9  17  31  52  76 100 128 166 209 253 303
#     4  10  19  32  49  72 102 132 163 203 252 300
#     4  10  20  31  43  64  94 129 164 200 243 296
#     4   9  19  36  55  76 102 132 167 209 254 301
#     4   9  18  31  49  72  98 129 163 202 250 301
#     4  10  20  32  47  67  93 127 167 206 246 295
#
# _framework density 17.554255999999999
#
# number of rings (size 3 to 8) (size 9 to 14) (size 15 to 20)
#    0.000    2.250    1.250    1.875    0.000    5.000 
#    0.000    2.500    0.000    0.750    0.000    0.000 
#    0.000    0.000    0.000    0.000    0.000    0.500 
#
# Total GULP energy -792981.340371 kJ/mol
# GULP energy per Si atom -12390.333443 kJ/mol
# Density = 1.751430 g / cm^3
# Si number density = 17.554256 Si / 1000 Ang^3
#
#
#
# Elastic Constant Matrix: (Units=GPa)
#
#
# Indices 1 2 3 4 5 6 
#
# 1 88.9831 52.8997 34.9305 0.0000 0.0000 0.0000
# 2 52.8997 96.2463 40.9741 0.0000 0.0000 0.0000
# 3 34.9305 40.9741 77.1608 0.0000 0.0000 0.0000
# 4 0.0000 0.0000 0.0000 27.4551 0.0000 0.0000
# 5 0.0000 0.0000 0.0000 0.0000 55.4248 0.0000
# 6 0.0000 0.0000 0.0000 0.0000 0.0000 324.8930
#
#
#
# Elastic Compliance Matrix: (Units=1/GPa)
#
#
# Indices 1 2 3 4 5 6 
#
# 1 0.017443 -0.008044 -0.003625 0.000000 0.000000 0.000000
# 2 -0.008044 0.017135 -0.005457 0.000000 0.000000 0.000000
# 3 -0.003625 -0.005457 0.017499 0.000000 0.000000 0.000000
# 4 0.000000 0.000000 0.000000 0.036423 0.000000 0.000000
# 5 0.000000 0.000000 0.000000 0.000000 0.018042 0.000000
# 6 0.000000 0.000000 0.000000 0.000000 0.000000 0.003078
#
#
# Mechanical properties :
#
#
# Convention : Reuss Voigt Hill
#
# Bulk Modulus (GPa) = 56.10390 57.77762 56.94076
# Shear Modulus (GPa) = 33.37474 90.46032 61.91753
#
# Velocity S-wave (km/s) = 4.36504 7.18636 5.94547
# Velocity P-wave (km/s) = 7.57855 10.09175 8.92407
#
# Compressibility (1/GPa) = 0.01782407
#
# Stress axis : x y z
#
# Youngs Moduli (GPa) = 57.32901 58.36167 57.14656
#
# Poissons Ratio (x) = 0.46946 0.20715
# Poissons Ratio (y) = 0.46116 0.31186
# Poissons Ratio (z) = 0.20781 0.31850
#
# Static dielectric constant tensor:
#      x y z
#    x 3.288650 0.000000 0.000000 
#    y 0.000000 3.431050 0.000000 
#    z 0.000000 0.000000 3.932130 
# 
# 
# High freq. dielectric constant tensor:
#      x y z
#    x 1.657730 0.000000 0.000000 
#    y 0.000000 1.667550 0.000000 
#    z 0.000000 0.000000 1.691770 
# 
# From -- ./inp_files/6049.got.cif
#   From: 2010.03.12/outbox.cif.g09.slc.cpg/sg57_4_cif.got.tgz:6049.got - 2010.04.16 15:48:40.
