data_PCOD8231477
_publ_section_title
;
Structure prediction by ZEFSAII (Michael W. Deem and Ramdas Pophale) SiO2 
 PCOD8231477
Probable space group: P B C M
;
_chemical_formula_sum "Si O2"
_cell_formula_units_Z 64
_cell_length_a 20.214290
_cell_length_b 19.340578
_cell_length_c 8.727748
_cell_angle_alpha 90.000000
_cell_angle_beta 90.000000
_cell_angle_gamma 90.000000
_cell_volume 3412.165905
_symmetry_space_group_name_H-M "P B C M"
_symmetry_group_IT_number 57
_symmetry_cell_setting 'orthorhombic'
loop_
_space_group_symop_operation_xyz
x,y,z
-x,-y,1/2+z
x,1/2-y,-z
-x,1/2+y,1/2-z
-x,-y,-z
x,y,1/2-z
-x,1/2+y,z
x,1/2-y,1/2+z
loop_
_atom_site_type_symbol
_atom_site_label
_atom_site_fract_x
_atom_site_fract_y
_atom_site_fract_z
Si Si1 0.994101 0.823970 0.427952
Si Si2 0.606782 0.078110 0.430505
Si Si3 0.240902 0.925180 0.572767
Si Si4 0.500113 0.325842 0.432004
Si Si5 0.399745 0.431740 0.571895
Si Si6 0.753736 0.932118 0.926753
Si Si7 0.136542 0.825146 0.070389
Si Si8 0.148587 0.173924 0.568800
O O1 0.991631 0.750000 0.500000
O O2 0.996178 0.810731 0.250000
O O3 0.924068 0.861550 0.467719
O O4 0.064325 0.858896 0.477756
O O5 0.594086 0.072770 0.250000
O O6 0.683356 0.091347 0.469280
O O7 0.567584 0.142408 0.500938
O O8 0.581647 0.007226 0.507374
O O9 0.226276 0.915342 0.750000
O O10 0.195082 0.873751 0.481200
O O11 0.223108 0.002897 0.526150
O O12 0.489163 0.250000 0.500000
O O13 0.504801 0.321187 0.250000
O O14 0.438781 0.373536 0.479736
O O15 0.419827 0.429280 0.750000
O O16 0.322940 0.415370 0.545729
O O17 0.767952 0.948401 0.750000
O O18 0.794887 0.867079 0.982129
O O19 0.141606 0.816375 0.250000
O O20 0.146238 0.750000 0.000000
O O21 0.150444 0.250000 0.500000
O O22 0.162831 0.175590 0.750000
#
# Coordination Sequence:
#
# PCOD8231477 Si02
#       8
#     8   8   8   8   8   8   8   8
#     4   8  16  30  49  74 103 138 178 220 266 318
#     4  10  21  39  61  83 109 143 182 220 263 319
#     4  10  21  37  57  81 109 142 180 222 268 318
#     4  12  25  40  59  84 114 144 178 222 269 314
#     4  10  21  39  61  83 109 143 182 220 263 319
#     4  10  21  37  57  81 109 142 180 222 268 318
#     4  10  19  33  54  79 108 141 180 224 270 321
#     4  10  19  33  54  79 108 141 180 224 270 321
#
# _framework density 18.756415000000001
#
# number of rings (size 3 to 8) (size 9 to 14) (size 15 to 20)
#    0.000    2.000    0.000    3.750    0.000    5.000 
#    0.000    0.625    0.000    0.000    0.000    0.000 
#    0.000    0.000    0.000    0.000    0.000    0.000 
#
# Total GULP energy -793313.143613 kJ/mol
# GULP energy per Si atom -12395.517869 kJ/mol
# Density = 1.871372 g / cm^3
# Si number density = 18.756415 Si / 1000 Ang^3
#
#
#
# Elastic Constant Matrix: (Units=GPa)
#
#
# Indices 1 2 3 4 5 6 
#
# 1 93.9411 36.9020 32.1811 0.0000 0.0000 0.0000
# 2 36.9020 58.4727 9.3574 0.0000 0.0000 0.0000
# 3 32.1811 9.3574 55.6982 0.0000 0.0000 0.0000
# 4 0.0000 0.0000 0.0000 35.8121 0.0000 0.0000
# 5 0.0000 0.0000 0.0000 0.0000 33.0186 0.0000
# 6 0.0000 0.0000 0.0000 0.0000 0.0000 32.0499
#
#
#
# Elastic Compliance Matrix: (Units=1/GPa)
#
#
# Indices 1 2 3 4 5 6 
#
# 1 0.017267 -0.009558 -0.008371 0.000000 0.000000 0.000000
# 2 -0.009558 0.022865 0.001681 0.000000 0.000000 0.000000
# 3 -0.008371 0.001681 0.022508 0.000000 0.000000 0.000000
# 4 0.000000 0.000000 0.000000 0.027924 0.000000 0.000000
# 5 0.000000 0.000000 0.000000 0.000000 0.030286 0.000000
# 6 0.000000 0.000000 0.000000 0.000000 0.000000 0.031201
#
#
# Mechanical properties :
#
#
# Convention : Reuss Voigt Hill
#
# Bulk Modulus (GPa) = 33.17337 40.55477 36.86407
# Shear Modulus (GPa) = 25.69458 28.82088 27.25773
#
# Velocity S-wave (km/s) = 3.70524 3.92419 3.81629
# Velocity P-wave (km/s) = 6.00249 6.49623 6.25424
#
# Compressibility (1/GPa) = 0.03014466
#
# Stress axis : x y z
#
# Youngs Moduli (GPa) = 57.91433 43.73542 44.42879
#
# Poissons Ratio (x) = 0.41800 0.37190
# Poissons Ratio (y) = 0.55352 -0.07467
# Poissons Ratio (z) = 0.48478 -0.07351
#
# Static dielectric constant tensor:
#      x y z
#    x 3.917340 0.000000 0.000000 
#    y 0.000000 3.218770 0.000000 
#    z 0.000000 0.000000 3.614530 
# 
# 
# High freq. dielectric constant tensor:
#      x y z
#    x 1.748570 0.000000 0.000000 
#    y 0.000000 1.705850 0.000000 
#    z 0.000000 0.000000 1.745600 
# 
# From -- ./inp_files/7206.got.cif
#   From: 2010.03.12/outbox.cif.g09.slc.cpg/sg57_4_cif.got.tgz:7206.got - 2010.04.16 15:48:40.
