data_PCOD8231337
_publ_section_title
;
Structure prediction by ZEFSAII (Michael W. Deem and Ramdas Pophale) SiO2 
 PCOD8231337
Probable space group: P B C M
;
_chemical_formula_sum "Si O2"
_cell_formula_units_Z 56
_cell_length_a 16.578529
_cell_length_b 12.622476
_cell_length_c 14.372124
_cell_angle_alpha 90.000000
_cell_angle_beta 90.000000
_cell_angle_gamma 90.000000
_cell_volume 3007.540626
_symmetry_space_group_name_H-M "P B C M"
_symmetry_group_IT_number 57
_symmetry_cell_setting 'orthorhombic'
loop_
_space_group_symop_operation_xyz
x,y,z
-x,-y,1/2+z
x,1/2-y,-z
-x,1/2+y,1/2-z
-x,-y,-z
x,y,1/2-z
-x,1/2+y,z
x,1/2-y,1/2+z
loop_
_atom_site_type_symbol
_atom_site_label
_atom_site_fract_x
_atom_site_fract_y
_atom_site_fract_z
Si Si1 0.105281 0.261451 0.143799
Si Si2 0.251853 0.496285 0.517284
Si Si3 0.500113 0.517439 0.359328
Si Si4 0.922486 0.571562 0.490654
Si Si5 0.725389 0.855699 0.352113
Si Si6 0.651580 0.653385 0.355832
Si Si7 0.598482 0.125296 0.988601
O O1 0.072291 0.264837 0.250000
O O2 0.074464 0.153348 0.095736
O O3 0.201722 0.270634 0.140889
O O4 0.076436 0.364459 0.087282
O O5 0.154782 0.507248 0.524963
O O6 0.269238 0.458673 0.413247
O O7 0.280327 0.404556 0.585320
O O8 0.306300 0.601510 0.534344
O O9 0.478996 0.498165 0.250000
O O10 0.562421 0.612711 0.374853
O O11 0.422690 0.556706 0.418266
O O12 0.540878 0.411854 0.403248
O O13 0.000000 0.500000 0.500000
O O14 0.716863 0.903787 0.250000
O O15 0.649657 0.779799 0.378685
O O16 0.677350 0.633458 0.250000
O O17 0.587534 0.250000 0.000000
#
# Coordination Sequence:
#
# PCOD8231337 Si02
#       7
#     8   8   8   8   8   8   8
#     4   9  18  34  54  78 108 139 176 225 279 321
#     4  10  19  33  51  74 108 141 175 217 270 324
#     4   9  20  37  57  79 106 142 187 228 262 314
#     4  10  20  34  54  84 108 143 185 227 271 327
#     4   9  16  28  51  79 103 130 168 217 272 321
#     4   9  16  28  51  81 104 129 170 218 267 316
#     4  10  22  38  54  79 110 150 184 219 274 329
#
# _framework density 18.619864
#
# number of rings (size 3 to 8) (size 9 to 14) (size 15 to 20)
#    0.000    2.571    1.429    0.429    0.000    5.143 
#    2.571    1.429    0.000    0.000    0.000    0.000 
#    0.000    0.000    0.000    0.000    0.000    0.000 
#
# Total GULP energy -693764.984281 kJ/mol
# GULP energy per Si atom -12388.660434 kJ/mol
# Density = 1.857748 g / cm^3
# Si number density = 18.619864 Si / 1000 Ang^3
#
#
#
# Elastic Constant Matrix: (Units=GPa)
#
#
# Indices 1 2 3 4 5 6 
#
# 1 93.6642 27.2938 17.1696 0.0000 0.0000 0.0000
# 2 27.2938 61.3778 14.9245 0.0000 0.0000 0.0000
# 3 17.1696 14.9245 93.5893 0.0000 0.0000 0.0000
# 4 0.0000 0.0000 0.0000 24.9384 0.0000 0.0000
# 5 0.0000 0.0000 0.0000 0.0000 18.5254 0.0000
# 6 0.0000 0.0000 0.0000 0.0000 0.0000 22.9664
#
#
#
# Elastic Compliance Matrix: (Units=1/GPa)
#
#
# Indices 1 2 3 4 5 6 
#
# 1 0.012454 -0.005184 -0.001458 0.000000 0.000000 0.000000
# 2 -0.005184 0.019107 -0.002096 0.000000 0.000000 0.000000
# 3 -0.001458 -0.002096 0.011287 0.000000 0.000000 0.000000
# 4 0.000000 0.000000 0.000000 0.040099 0.000000 0.000000
# 5 0.000000 0.000000 0.000000 0.000000 0.053980 0.000000
# 6 0.000000 0.000000 0.000000 0.000000 0.000000 0.043542
#
#
# Mechanical properties :
#
#
# Convention : Reuss Voigt Hill
#
# Bulk Modulus (GPa) = 39.41266 40.82300 40.11783
# Shear Modulus (GPa) = 24.22457 25.90228 25.06342
#
# Velocity S-wave (km/s) = 3.61086 3.73380 3.67285
# Velocity P-wave (km/s) = 6.21268 6.36871 6.29118
#
# Compressibility (1/GPa) = 0.02537256
#
# Stress axis : x y z
#
# Youngs Moduli (GPa) = 80.29382 52.33608 88.59952
#
# Poissons Ratio (x) = 0.27129 0.12920
# Poissons Ratio (y) = 0.41621 0.18571
# Poissons Ratio (z) = 0.11708 0.10970
#
# Static dielectric constant tensor:
#      x y z
#    x 3.361440 0.000000 0.000000 
#    y 0.000000 3.198180 0.000000 
#    z 0.000000 0.000000 3.690810 
# 
# 
# High freq. dielectric constant tensor:
#      x y z
#    x 1.707770 0.000000 0.000000 
#    y 0.000000 1.696580 0.000000 
#    z 0.000000 0.000000 1.734150 
# 
# From -- ./inp_files/19162.got.cif
#   From: 2010.03.12/outbox.cif.g09.slc.cpg/sg57_10_cif.got.tgz:19162.got - 2010.04.16 15:48:40.
