data_PCOD8231812
_publ_section_title
;
Structure prediction by ZEFSAII (Michael W. Deem and Ramdas Pophale) SiO2 
 PCOD8231812
Probable space group: P B C M
;
_chemical_formula_sum "Si O2"
_cell_formula_units_Z 32
_cell_length_a 16.997846
_cell_length_b 5.134828
_cell_length_c 17.104241
_cell_angle_alpha 90.000000
_cell_angle_beta 90.000000
_cell_angle_gamma 90.000000
_cell_volume 1492.875525
_symmetry_space_group_name_H-M "P B C M"
_symmetry_group_IT_number 57
_symmetry_cell_setting 'orthorhombic'
loop_
_space_group_symop_operation_xyz
x,y,z
-x,-y,1/2+z
x,1/2-y,-z
-x,1/2+y,1/2-z
-x,-y,-z
x,y,1/2-z
-x,1/2+y,z
x,1/2-y,1/2+z
loop_
_atom_site_type_symbol
_atom_site_label
_atom_site_fract_x
_atom_site_fract_y
_atom_site_fract_z
Si Si1 0.532737 0.060096 0.913127
Si Si2 0.214961 0.322882 0.339712
Si Si3 0.714052 0.322093 0.086108
Si Si4 0.049000 0.251800 0.590474
O O1 0.521303 0.781547 0.870265
O O2 0.620313 0.167887 0.911694
O O3 0.500000 0.000000 0.000000
O O4 0.229883 0.251324 0.250000
O O5 0.252658 0.605411 0.355299
O O6 0.122354 0.323831 0.356124
O O7 0.254993 0.107004 0.393680
O O8 0.744533 0.250000 0.000000
O O9 0.074489 0.250000 0.500000
O O10 0.018400 0.540799 0.610128
#
# Coordination Sequence:
#
# PCOD8231812 Si02
#       4
#     8   8   8   8
#     4  10  19  34  61  99 122 150 210 291 319 366
#     4  12  27  43  62  97 143 178 213 263 336 410
#     4  12  23  40  70  97 127 170 226 280 325 381
#     4  10  21  40  67  95 126 164 220 279 321 374
#
# _framework density 21.435143
#
# number of rings (size 3 to 8) (size 9 to 14) (size 15 to 20)
#    0.000    1.000    2.500    6.000    3.500    3.000 
#    0.000    0.000    0.000   15.000    0.000    0.000 
#    0.000    0.000    0.000    0.000    0.000    0.000 
#
# Total GULP energy -396743.285397 kJ/mol
# GULP energy per Si atom -12398.227669 kJ/mol
# Density = 2.138636 g / cm^3
# Si number density = 21.435143 Si / 1000 Ang^3
#
#
#
# Elastic Constant Matrix: (Units=GPa)
#
#
# Indices 1 2 3 4 5 6 
#
# 1 106.1653 27.1418 26.5554 0.0000 0.0000 0.0000
# 2 27.1418 143.0929 8.0945 0.0000 0.0000 0.0000
# 3 26.5554 8.0945 65.7446 0.0000 0.0000 0.0000
# 4 0.0000 0.0000 0.0000 25.6885 0.0000 0.0000
# 5 0.0000 0.0000 0.0000 0.0000 1.3697 0.0000
# 6 0.0000 0.0000 0.0000 0.0000 0.0000 43.6812
#
#
#
# Elastic Compliance Matrix: (Units=1/GPa)
#
#
# Indices 1 2 3 4 5 6 
#
# 1 0.010938 -0.001838 -0.004192 0.000000 0.000000 0.000000
# 2 -0.001838 0.007346 -0.000162 0.000000 0.000000 0.000000
# 3 -0.004192 -0.000162 0.016923 0.000000 0.000000 0.000000
# 4 0.000000 0.000000 0.000000 0.038928 0.000000 0.000000
# 5 0.000000 0.000000 0.000000 0.000000 0.730065 0.000000
# 6 0.000000 0.000000 0.000000 0.000000 0.000000 0.022893
#
#
# Mechanical properties :
#
#
# Convention : Reuss Voigt Hill
#
# Bulk Modulus (GPa) = 43.81290 48.73181 46.27235
# Shear Modulus (GPa) = 5.90260 31.02863 18.46561
#
# Velocity S-wave (km/s) = 1.66123 3.80881 2.93826
# Velocity P-wave (km/s) = 4.91566 6.49050 5.75718
#
# Compressibility (1/GPa) = 0.02282433
#
# Stress axis : x y z
#
# Youngs Moduli (GPa) = 91.42855 136.12512 59.08972
#
# Poissons Ratio (x) = 0.25013 0.24768
# Poissons Ratio (y) = 0.16800 0.00959
# Poissons Ratio (z) = 0.38323 0.02209
#
# Static dielectric constant tensor:
#      x y z
#    x 3.897680 0.000000 0.000000 
#    y 0.000000 -2.875650 0.000000 
#    z 0.000000 0.000000 3.515820 
# 
# 
# High freq. dielectric constant tensor:
#      x y z
#    x 1.848160 0.000000 0.000000 
#    y 0.000000 1.876550 0.000000 
#    z 0.000000 0.000000 1.800660 
# 
# From -- ./inp_files/18772.got.cif
#   From: 2010.03.12/outbox.cif.g09.slc.cpg/sg57_10_cif.got.tgz:18772.got - 2010.04.16 15:48:40.
