data_PCOD8231849
_publ_section_title
;
Structure prediction by ZEFSAII (Michael W. Deem and Ramdas Pophale) SiO2 
 PCOD8231849
Probable space group: P B C M
;
_chemical_formula_sum "Si O2"
_cell_formula_units_Z 48
_cell_length_a 4.999356
_cell_length_b 18.139502
_cell_length_c 26.989856
_cell_angle_alpha 90.000000
_cell_angle_beta 90.000000
_cell_angle_gamma 90.000000
_cell_volume 2447.597443
_symmetry_space_group_name_H-M "P B C M"
_symmetry_group_IT_number 57
_symmetry_cell_setting 'orthorhombic'
loop_
_space_group_symop_operation_xyz
x,y,z
-x,-y,1/2+z
x,1/2-y,-z
-x,1/2+y,1/2-z
-x,-y,-z
x,y,1/2-z
-x,1/2+y,z
x,1/2-y,1/2+z
loop_
_atom_site_type_symbol
_atom_site_label
_atom_site_fract_x
_atom_site_fract_y
_atom_site_fract_z
Si Si1 0.792290 0.020591 0.142059
Si Si2 0.229817 0.831926 0.119469
Si Si3 0.818302 0.825725 0.971636
Si Si4 0.290592 0.542932 0.692203
Si Si5 0.269550 0.394954 0.069598
Si Si6 0.680309 0.171582 0.404923
O O1 0.739666 0.106172 0.133133
O O2 0.586763 0.986698 0.181622
O O3 0.771816 0.978007 0.089407
O O4 0.086635 0.011749 0.164603
O O5 0.257345 0.873700 0.171910
O O6 0.429311 0.868319 0.079588
O O7 0.294405 0.746114 0.127175
O O8 0.930625 0.839423 0.098199
O O9 0.617587 0.837076 0.926057
O O10 0.118400 0.826959 0.951284
O O11 0.754505 0.750000 0.000000
O O12 0.783996 0.892679 0.010772
O O13 0.232755 0.544275 0.750000
#
# Coordination Sequence:
#
# PCOD8231849 Si02
#       6
#     8   8   8   8   8   8
#     4  10  23  38  57  85 115 144 181 234 291 328
#     4  10  19  35  57  80 108 140 186 229 272 324
#     4  12  21  33  56  82 115 159 198 223 259 321
#     4  10  21  41  63  79 103 143 183 224 287 359
#     4  10  20  35  53  79 113 155 190 221 261 325
#     4  12  22  35  56  84 117 149 187 234 277 314
#
# _framework density 19.611069000000001
#
# number of rings (size 3 to 8) (size 9 to 14) (size 15 to 20)
#    0.000    1.333    3.333    3.000    0.000    1.333 
#    0.000    1.667    0.000    0.000    0.000    0.000 
#    0.000    0.000    0.000    0.000    0.000    0.000 
#
# Total GULP energy -595473.789952 kJ/mol
# GULP energy per Si atom -12405.703957 kJ/mol
# Density = 1.956643 g / cm^3
# Si number density = 19.611069 Si / 1000 Ang^3
#
#
#
# Elastic Constant Matrix: (Units=GPa)
#
#
# Indices 1 2 3 4 5 6 
#
# 1 68.8309 -0.0531 2.2892 0.0000 0.0000 0.0000
# 2 -0.0531 98.1958 35.0512 0.0000 0.0000 0.0000
# 3 2.2892 35.0512 74.0690 0.0000 0.0000 0.0000
# 4 0.0000 0.0000 0.0000 17.7478 0.0000 0.0000
# 5 0.0000 0.0000 0.0000 0.0000 20.8001 0.0000
# 6 0.0000 0.0000 0.0000 0.0000 0.0000 20.5985
#
#
#
# Elastic Compliance Matrix: (Units=1/GPa)
#
#
# Indices 1 2 3 4 5 6 
#
# 1 0.014547 0.000203 -0.000545 0.000000 0.000000 0.000000
# 2 0.000203 0.012256 -0.005806 0.000000 0.000000 0.000000
# 3 -0.000545 -0.005806 0.016265 0.000000 0.000000 0.000000
# 4 0.000000 0.000000 0.000000 0.056345 0.000000 0.000000
# 5 0.000000 0.000000 0.000000 0.000000 0.048077 0.000000
# 6 0.000000 0.000000 0.000000 0.000000 0.000000 0.048547
#
#
# Mechanical properties :
#
#
# Convention : Reuss Voigt Hill
#
# Bulk Modulus (GPa) = 32.49899 35.07449 33.78674
# Shear Modulus (GPa) = 22.87361 25.41651 24.14506
#
# Velocity S-wave (km/s) = 3.41891 3.60395 3.51265
# Velocity P-wave (km/s) = 5.67389 5.93648 5.80667
#
# Compressibility (1/GPa) = 0.03077019
#
# Stress axis : x y z
#
# Youngs Moduli (GPa) = 68.74428 81.58994 61.48000
#
# Poissons Ratio (x) = -0.01653 0.03353
# Poissons Ratio (y) = -0.01393 0.35697
# Poissons Ratio (z) = 0.03750 0.47373
#
# Static dielectric constant tensor:
#      x y z
#    x 3.734060 0.000000 0.000000 
#    y 0.000000 3.530810 0.000000 
#    z 0.000000 0.000000 3.279760 
# 
# 
# High freq. dielectric constant tensor:
#      x y z
#    x 1.786890 0.000000 0.000000 
#    y 0.000000 1.756450 0.000000 
#    z 0.000000 0.000000 1.733170 
# 
# From -- ./inp_files/29115.got.cif
#   From: 2010.03.12/outbox.cif.g09.slc.cpg/sg57_15_cif.got.tgz:29115.got - 2010.04.16 15:48:40.
