data_PCOD8231218
_publ_section_title
;
Structure prediction by ZEFSAII (Michael W. Deem and Ramdas Pophale) SiO2 
 PCOD8231218
Probable space group: P B C M
;
_chemical_formula_sum "Si O2"
_cell_formula_units_Z 56
_cell_length_a 33.033773
_cell_length_b 5.096155
_cell_length_c 17.991695
_cell_angle_alpha 90.000000
_cell_angle_beta 90.000000
_cell_angle_gamma 90.000000
_cell_volume 3028.815987
_symmetry_space_group_name_H-M "P B C M"
_symmetry_group_IT_number 57
_symmetry_cell_setting 'orthorhombic'
loop_
_space_group_symop_operation_xyz
x,y,z
-x,-y,1/2+z
x,1/2-y,-z
-x,1/2+y,1/2-z
-x,-y,-z
x,y,1/2-z
-x,1/2+y,z
x,1/2-y,1/2+z
loop_
_atom_site_type_symbol
_atom_site_label
_atom_site_fract_x
_atom_site_fract_y
_atom_site_fract_z
Si Si1 0.773275 0.999591 0.051806
Si Si2 0.314427 0.499221 0.049851
Si Si3 0.155395 0.942362 0.834280
Si Si4 0.023013 0.223235 0.412072
Si Si5 0.597971 0.498751 0.947961
Si Si6 0.103347 0.046812 0.334069
Si Si7 0.474187 0.968188 0.663819
O O1 0.804608 0.045516 0.117264
O O2 0.728782 0.967600 0.092334
O O3 0.774807 0.250000 0.000000
O O4 0.783662 0.750000 0.000000
O O5 0.357436 0.521687 0.093119
O O6 0.320962 0.250000 0.000000
O O7 0.308622 0.750000 0.000000
O O8 0.167478 0.866394 0.750000
O O9 0.123656 0.722587 0.864026
O O10 0.136524 0.228319 0.837887
O O11 0.023685 0.250000 0.500000
O O12 0.066860 0.133738 0.386164
O O13 0.009390 0.507798 0.381794
O O14 0.566389 0.512512 0.881725
O O15 0.590172 0.250000 0.000000
O O16 0.593194 0.750000 0.000000
O O17 0.087261 0.008291 0.250000
O O18 0.462260 0.986899 0.750000
O O19 0.506955 0.188523 0.642894
#
# Coordination Sequence:
#
# PCOD8231218 Si02
#       7
#     8   8   8   8   8   8   8
#     4  10  19  33  54  78 102 133 172 205 245 304
#     4   8  16  30  48  72 101 128 159 206 253 292
#     4  10  21  36  52  76 108 135 165 210 256 293
#     4  10  21  36  53  75 102 130 163 207 251 289
#     4  10  19  32  52  75  98 128 168 211 251 295
#     4  10  21  36  54  75 102 136 169 204 249 300
#     4  10  21  35  49  69 101 135 165 206 258 304
#
# _framework density 18.489072
#
# number of rings (size 3 to 8) (size 9 to 14) (size 15 to 20)
#    0.000    2.286    0.000    2.571    0.000    4.000 
#    0.000    0.714    0.000    0.000    0.000   18.000 
#    0.000    0.000    0.000    0.000    0.000    0.000 
#
# Total GULP energy -693867.910488 kJ/mol
# GULP energy per Si atom -12390.498402 kJ/mol
# Density = 1.844699 g / cm^3
# Si number density = 18.489072 Si / 1000 Ang^3
#
#
#
# Elastic Constant Matrix: (Units=GPa)
#
#
# Indices 1 2 3 4 5 6 
#
# 1 131.3614 15.9168 56.8389 0.0000 0.0000 0.0000
# 2 15.9168 106.0929 25.8637 0.0000 0.0000 0.0000
# 3 56.8389 25.8637 47.6859 0.0000 0.0000 0.0000
# 4 0.0000 0.0000 0.0000 19.8509 0.0000 0.0000
# 5 0.0000 0.0000 0.0000 0.0000 0.0797 0.0000
# 6 0.0000 0.0000 0.0000 0.0000 0.0000 26.4536
#
#
#
# Elastic Compliance Matrix: (Units=1/GPa)
#
#
# Indices 1 2 3 4 5 6 
#
# 1 0.016341 0.002647 -0.020912 0.000000 0.000000 0.000000
# 2 0.002647 0.011291 -0.009278 0.000000 0.000000 0.000000
# 3 -0.020912 -0.009278 0.050929 0.000000 0.000000 0.000000
# 4 0.000000 0.000000 0.000000 0.050376 0.000000 0.000000
# 5 0.000000 0.000000 0.000000 0.000000 12.542897 0.000000
# 6 0.000000 0.000000 0.000000 0.000000 0.000000 0.037802
#
#
# Mechanical properties :
#
#
# Convention : Reuss Voigt Hill
#
# Bulk Modulus (GPa) = 42.60378 53.59768 48.10073
# Shear Modulus (GPa) = 0.39146 21.71157 11.05151
#
# Velocity S-wave (km/s) = 0.46064 3.43051 2.44751
# Velocity P-wave (km/s) = 4.83483 6.68902 5.83603
#
# Compressibility (1/GPa) = 0.02347210
#
# Stress axis : x y z
#
# Youngs Moduli (GPa) = 61.19754 88.56965 19.63504
#
# Poissons Ratio (x) = -0.23441 0.41062
# Poissons Ratio (y) = -0.16196 0.18218
# Poissons Ratio (z) = 1.27979 0.82178
#
# Static dielectric constant tensor:
#      x y z
#    x 3.749860 0.000000 0.000000 
#    y 0.000000 3.831210 0.000000 
#    z 0.000000 0.000000 3.071480 
# 
# 
# High freq. dielectric constant tensor:
#      x y z
#    x 1.731820 0.000000 0.000000 
#    y 0.000000 1.748030 0.000000 
#    z 0.000000 0.000000 1.674600 
# 
# From -- ./inp_files/19641.got.cif
#   From: 2010.03.12/outbox.cif.g09.slc.cpg/sg57_10_cif.got.tgz:19641.got - 2010.04.16 15:48:40.
