data_PCOD8231590
_publ_section_title
;
Structure prediction by ZEFSAII (Michael W. Deem and Ramdas Pophale) SiO2 
 PCOD8231590
Probable space group: P B C M
;
_chemical_formula_sum "Si O2"
_cell_formula_units_Z 64
_cell_length_a 26.078039
_cell_length_b 13.923699
_cell_length_c 8.989516
_cell_angle_alpha 90.000000
_cell_angle_beta 90.000000
_cell_angle_gamma 90.000000
_cell_volume 3264.118121
_symmetry_space_group_name_H-M "P B C M"
_symmetry_group_IT_number 57
_symmetry_cell_setting 'orthorhombic'
loop_
_space_group_symop_operation_xyz
x,y,z
-x,-y,1/2+z
x,1/2-y,-z
-x,1/2+y,1/2-z
-x,-y,-z
x,y,1/2-z
-x,1/2+y,z
x,1/2-y,1/2+z
loop_
_atom_site_type_symbol
_atom_site_label
_atom_site_fract_x
_atom_site_fract_y
_atom_site_fract_z
Si Si1 0.388232 0.657311 0.917086
Si Si2 0.974854 0.147188 0.424835
Si Si3 0.554334 0.993078 0.077330
Si Si4 0.733408 0.155322 0.582011
Si Si5 0.927103 0.525590 0.422071
Si Si6 0.170293 0.151408 0.425062
Si Si7 0.260270 0.458016 0.073675
Si Si8 0.360971 0.150253 0.579199
O O1 0.410691 0.653474 0.750000
O O2 0.327502 0.659748 0.914632
O O3 0.410838 0.750000 0.000000
O O4 0.406182 0.567566 0.010387
O O5 0.967190 0.250000 0.500000
O O6 0.968090 0.160525 0.250000
O O7 0.030404 0.104508 0.468199
O O8 0.932220 0.071990 0.483226
O O9 0.546716 0.014667 0.250000
O O10 0.581709 0.890471 0.049877
O O11 0.500000 0.000000 0.000000
O O12 0.755252 0.250000 0.500000
O O13 0.755250 0.151746 0.750000
O O14 0.752220 0.062005 0.493983
O O15 0.933779 0.498238 0.250000
O O16 0.871923 0.570243 0.456380
O O17 0.151577 0.250000 0.500000
O O18 0.178911 0.167363 0.250000
O O19 0.222817 0.120067 0.502425
O O20 0.252578 0.462887 0.250000
O O21 0.317845 0.426254 0.028042
O O22 0.353678 0.250000 0.500000
O O23 0.352194 0.172487 0.750000
#
# Coordination Sequence:
#
# PCOD8231590 Si02
#       8
#     8   8   8   8   8   8   8   8
#     4  10  20  35  58  85 110 142 179 222 273 330
#     4  10  19  33  57  86 117 156 200 246 298 352
#     4  11  23  40  58  82 114 148 186 232 283 338
#     4  10  20  35  59  88 115 145 183 229 280 336
#     4   9  20  37  56  82 118 157 199 247 295 349
#     4  11  23  39  59  86 119 156 198 244 295 348
#     4  11  22  39  61  87 118 153 193 240 289 341
#     4  10  23  40  60  83 112 147 186 230 280 335
#
# _framework density 19.607133999999999
#
# number of rings (size 3 to 8) (size 9 to 14) (size 15 to 20)
#    0.000    1.750    1.250    3.000    0.000    6.000 
#    0.000    1.875    0.000    3.000    0.000    0.000 
#    0.000    0.000    0.000    0.000    0.000    0.000 
#
# Total GULP energy -793737.126107 kJ/mol
# GULP energy per Si atom -12402.142595 kJ/mol
# Density = 1.956251 g / cm^3
# Si number density = 19.607134 Si / 1000 Ang^3
#
#
#
# Elastic Constant Matrix: (Units=GPa)
#
#
# Indices 1 2 3 4 5 6 
#
# 1 68.5877 24.4576 42.1614 0.0000 0.0000 0.0000
# 2 24.4576 135.3622 69.9213 0.0000 0.0000 0.0000
# 3 42.1614 69.9213 126.9617 0.0000 0.0000 0.0000
# 4 0.0000 0.0000 0.0000 42.9397 0.0000 0.0000
# 5 0.0000 0.0000 0.0000 0.0000 26.8767 0.0000
# 6 0.0000 0.0000 0.0000 0.0000 0.0000 21.9260
#
#
#
# Elastic Compliance Matrix: (Units=1/GPa)
#
#
# Indices 1 2 3 4 5 6 
#
# 1 0.018325 -0.000234 -0.005956 0.000000 0.000000 0.000000
# 2 -0.000234 0.010328 -0.005610 0.000000 0.000000 0.000000
# 3 -0.005956 -0.005610 0.012944 0.000000 0.000000 0.000000
# 4 0.000000 0.000000 0.000000 0.023288 0.000000 0.000000
# 5 0.000000 0.000000 0.000000 0.000000 0.037207 0.000000
# 6 0.000000 0.000000 0.000000 0.000000 0.000000 0.045608
#
#
# Mechanical properties :
#
#
# Convention : Reuss Voigt Hill
#
# Bulk Modulus (GPa) = 55.56972 67.11024 61.33998
# Shear Modulus (GPa) = 28.20088 31.30655 29.75371
#
# Velocity S-wave (km/s) = 3.79660 4.00020 3.89973
# Velocity P-wave (km/s) = 6.90087 7.45904 7.18538
#
# Compressibility (1/GPa) = 0.01799541
#
# Stress axis : x y z
#
# Youngs Moduli (GPa) = 54.57094 96.82659 77.25632
#
# Poissons Ratio (x) = 0.02268 0.46016
# Poissons Ratio (y) = 0.01278 0.43341
# Poissons Ratio (z) = 0.32504 0.54320
#
# Static dielectric constant tensor:
#      x y z
#    x 3.455640 0.000000 0.000000 
#    y 0.000000 3.564610 0.000000 
#    z 0.000000 0.000000 3.742920 
# 
# 
# High freq. dielectric constant tensor:
#      x y z
#    x 1.745610 0.000000 0.000000 
#    y 0.000000 1.772850 0.000000 
#    z 0.000000 0.000000 1.776760 
# 
# From -- ./inp_files/9473.got.cif
#   From: 2010.03.12/outbox.cif.g09.slc.cpg/sg57_5_cif.got.tgz:9473.got - 2010.04.16 15:48:40.
