data_PCOD8231618
_publ_section_title
;
Structure prediction by ZEFSAII (Michael W. Deem and Ramdas Pophale) SiO2 
 PCOD8231618
Probable space group: P B C M
;
_chemical_formula_sum "Si O2"
_cell_formula_units_Z 56
_cell_length_a 20.209761
_cell_length_b 5.075067
_cell_length_c 30.878170
_cell_angle_alpha 90.000000
_cell_angle_beta 90.000000
_cell_angle_gamma 90.000000
_cell_volume 3167.047022
_symmetry_space_group_name_H-M "P B C M"
_symmetry_group_IT_number 57
_symmetry_cell_setting 'orthorhombic'
loop_
_space_group_symop_operation_xyz
x,y,z
-x,-y,1/2+z
x,1/2-y,-z
-x,1/2+y,1/2-z
-x,-y,-z
x,y,1/2-z
-x,1/2+y,z
x,1/2-y,1/2+z
loop_
_atom_site_type_symbol
_atom_site_label
_atom_site_fract_x
_atom_site_fract_y
_atom_site_fract_z
Si Si1 0.747764 0.204657 0.656128
Si Si2 0.456256 0.115944 0.831626
Si Si3 0.327717 0.197937 0.626185
Si Si4 0.972142 0.051286 0.951067
Si Si5 0.248934 0.145549 0.954287
Si Si6 0.364410 0.106259 0.750000
Si Si7 0.175061 0.647561 0.572392
Si Si8 0.275962 0.893786 0.250000
O O1 0.711245 0.486994 0.656048
O O2 0.811806 0.208224 0.623820
O O3 0.768156 0.148463 0.706276
O O4 0.694797 0.989401 0.639945
O O5 0.516536 0.319998 0.832677
O O6 0.406868 0.166366 0.871686
O O7 0.410831 0.163142 0.790353
O O8 0.312635 0.139581 0.576167
O O9 0.980164 0.768668 0.927989
O O10 0.899441 0.169920 0.944807
O O11 0.000000 0.000000 0.000000
O O12 0.194906 0.347242 0.935749
O O13 0.216395 0.855726 0.956458
O O14 0.274208 0.250000 0.000000
O O15 0.303757 0.310464 0.750000
O O16 0.337602 0.808291 0.750000
#
# Coordination Sequence:
#
# PCOD8231618 Si02
#       8
#     8   8   8   8   8   4   8   4
#     4  10  19  34  53  73 100 137 169 218 256 302
#     4  12  22  34  50  72 103 140 169 206 259 323
#     4  10  20  37  49  73 102 132 172 214 266 303
#     4  10  21  32  48  73 108 146 165 198 240 306
#     4  10  21  33  57  75  99 134 171 224 258 300
#     4  12  22  33  50  74 110 129 176 204 254 334
#     4  10  21  34  51  78 107 134 179 205 250 308
#     4  12  18  33  56  74 102 139 162 218 268 300
#
# _framework density 17.682086000000002
#
# number of rings (size 3 to 8) (size 9 to 14) (size 15 to 20)
#    0.000    1.429    2.857    3.429    6.000    0.000 
#    0.000    0.000    0.000    0.857    0.000    1.000 
#    0.000    0.000    0.000    0.000    0.000    0.000 
#
# Total GULP energy -693970.089424 kJ/mol
# GULP energy per Si atom -12392.323025 kJ/mol
# Density = 1.764184 g / cm^3
# Si number density = 17.682086 Si / 1000 Ang^3
#
#
#
# Elastic Constant Matrix: (Units=GPa)
#
#
# Indices 1 2 3 4 5 6 
#
# 1 68.3667 14.6674 40.7773 0.0000 0.0000 0.0000
# 2 14.6674 96.3792 8.9372 0.0000 0.0000 0.0000
# 3 40.7773 8.9372 98.5894 0.0000 0.0000 0.0000
# 4 0.0000 0.0000 0.0000 16.0972 0.0000 0.0000
# 5 0.0000 0.0000 0.0000 0.0000 40.2955 0.0000
# 6 0.0000 0.0000 0.0000 0.0000 0.0000 24.5540
#
#
#
# Elastic Compliance Matrix: (Units=1/GPa)
#
#
# Indices 1 2 3 4 5 6 
#
# 1 0.019904 -0.002285 -0.008025 0.000000 0.000000 0.000000
# 2 -0.002285 0.010726 -0.000027 0.000000 0.000000 0.000000
# 3 -0.008025 -0.000027 0.013465 0.000000 0.000000 0.000000
# 4 0.000000 0.000000 0.000000 0.062123 0.000000 0.000000
# 5 0.000000 0.000000 0.000000 0.000000 0.024817 0.000000
# 6 0.000000 0.000000 0.000000 0.000000 0.000000 0.040727
#
#
# Mechanical properties :
#
#
# Convention : Reuss Voigt Hill
#
# Bulk Modulus (GPa) = 42.69886 43.56659 43.13272
# Shear Modulus (GPa) = 24.96978 29.45288 27.21133
#
# Velocity S-wave (km/s) = 3.76194 4.08571 3.92716
# Velocity P-wave (km/s) = 6.56278 6.85199 6.70894
#
# Compressibility (1/GPa) = 0.02341983
#
# Stress axis : x y z
#
# Youngs Moduli (GPa) = 50.24151 93.23201 74.26744
#
# Poissons Ratio (x) = 0.21302 0.59602
# Poissons Ratio (y) = 0.11480 0.00203
# Poissons Ratio (z) = 0.40320 0.00254
#
# Static dielectric constant tensor:
#      x y z
#    x 3.065870 0.000000 0.000000 
#    y 0.000000 1.525730 0.000000 
#    z 0.000000 0.000000 3.694640 
# 
# 
# High freq. dielectric constant tensor:
#      x y z
#    x 1.645330 0.000000 0.000000 
#    y 0.000000 1.719100 0.000000 
#    z 0.000000 0.000000 1.666290 
# 
# From -- ./inp_files/28913.got.cif
#   From: 2010.03.12/outbox.cif.g09.slc.cpg/sg57_15_cif.got.tgz:28913.got - 2010.04.16 15:48:40.
