data_PCOD8231760
_publ_section_title
;
Structure prediction by ZEFSAII (Michael W. Deem and Ramdas Pophale) SiO2 
 PCOD8231760
Probable space group: P B C M
;
_chemical_formula_sum "Si O2"
_cell_formula_units_Z 48
_cell_length_a 11.967624
_cell_length_b 21.529994
_cell_length_c 9.170455
_cell_angle_alpha 90.000000
_cell_angle_beta 90.000000
_cell_angle_gamma 90.000000
_cell_volume 2362.885781
_symmetry_space_group_name_H-M "P B C M"
_symmetry_group_IT_number 57
_symmetry_cell_setting 'orthorhombic'
loop_
_space_group_symop_operation_xyz
x,y,z
-x,-y,1/2+z
x,1/2-y,-z
-x,1/2+y,1/2-z
-x,-y,-z
x,y,1/2-z
-x,1/2+y,z
x,1/2-y,1/2+z
loop_
_atom_site_type_symbol
_atom_site_label
_atom_site_fract_x
_atom_site_fract_y
_atom_site_fract_z
Si Si1 0.737364 0.086856 0.582129
Si Si2 0.910226 0.192228 0.579612
Si Si3 0.106805 0.478131 0.584578
Si Si4 0.130687 0.338546 0.581996
Si Si5 0.381893 0.189078 0.419224
Si Si6 0.482668 0.567232 0.423158
O O1 0.699744 0.097349 0.750000
O O2 0.839153 0.131909 0.538958
O O3 0.782523 0.017929 0.555320
O O4 0.634958 0.096420 0.473240
O O5 0.850136 0.250000 0.500000
O O6 0.914692 0.204261 0.750000
O O7 0.036922 0.189532 0.522137
O O8 0.068940 0.483990 0.750000
O O9 0.143430 0.410087 0.540103
O O10 0.000000 0.500000 0.500000
O O11 0.094533 0.329331 0.750000
O O12 0.249821 0.308144 0.549542
O O13 0.434348 0.250000 0.500000
O O14 0.410248 0.197081 0.250000
O O15 0.429544 0.121479 0.470210
O O16 0.500000 0.500000 0.500000
O O17 0.485977 0.555862 0.250000
#
# Coordination Sequence:
#
# PCOD8231760 Si02
#       6
#     8   8   8   8   8   8
#     4  10  22  40  60  86 121 156 194 244 299 356
#     4  11  23  38  57  83 119 158 197 243 293 354
#     4  10  19  34  57  86 121 155 191 241 296 357
#     4  10  20  36  60  87 120 156 194 246 301 360
#     4  10  23  42  63  90 123 162 208 261 316 370
#     4  11  24  43  67  93 124 161 207 260 314 373
#
# _framework density 20.314143999999999
#
# number of rings (size 3 to 8) (size 9 to 14) (size 15 to 20)
#    0.000    1.667    1.667    2.500    0.000    8.667 
#    0.000    5.000    0.000    0.000    0.000    0.000 
#    0.000    0.000    0.000    0.000    0.000    0.000 
#
# Total GULP energy -595056.375639 kJ/mol
# GULP energy per Si atom -12397.007826 kJ/mol
# Density = 2.026791 g / cm^3
# Si number density = 20.314144 Si / 1000 Ang^3
#
#
#
# Elastic Constant Matrix: (Units=GPa)
#
#
# Indices 1 2 3 4 5 6 
#
# 1 72.3524 31.3270 36.3208 0.0000 0.0000 0.0000
# 2 31.3270 140.2597 58.2911 0.0000 0.0000 0.0000
# 3 36.3208 58.2911 78.3414 0.0000 0.0000 0.0000
# 4 0.0000 0.0000 0.0000 36.6943 0.0000 0.0000
# 5 0.0000 0.0000 0.0000 0.0000 35.9532 0.0000
# 6 0.0000 0.0000 0.0000 0.0000 0.0000 18.3777
#
#
#
# Elastic Compliance Matrix: (Units=1/GPa)
#
#
# Indices 1 2 3 4 5 6 
#
# 1 0.018076 -0.000803 -0.007783 0.000000 0.000000 0.000000
# 2 -0.000803 0.010357 -0.007334 0.000000 0.000000 0.000000
# 3 -0.007783 -0.007334 0.021830 0.000000 0.000000 0.000000
# 4 0.000000 0.000000 0.000000 0.027252 0.000000 0.000000
# 5 0.000000 0.000000 0.000000 0.000000 0.027814 0.000000
# 6 0.000000 0.000000 0.000000 0.000000 0.000000 0.054414
#
#
# Mechanical properties :
#
#
# Convention : Reuss Voigt Hill
#
# Bulk Modulus (GPa) = 54.27953 60.31458 57.29705
# Shear Modulus (GPa) = 25.28779 29.20601 27.24690
#
# Velocity S-wave (km/s) = 3.53205 3.79584 3.66632
# Velocity P-wave (km/s) = 6.58877 6.99761 6.79627
#
# Compressibility (1/GPa) = 0.01842315
#
# Stress axis : x y z
#
# Youngs Moduli (GPa) = 55.32218 96.55395 45.80815
#
# Poissons Ratio (x) = 0.07749 0.35654
# Poissons Ratio (y) = 0.04440 0.33596
# Poissons Ratio (z) = 0.43058 0.70814
#
# Static dielectric constant tensor:
#      x y z
#    x 0.934730 0.000000 0.000000 
#    y 0.000000 4.067310 0.000000 
#    z 0.000000 0.000000 3.716860 
# 
# 
# High freq. dielectric constant tensor:
#      x y z
#    x 1.786420 0.000000 0.000000 
#    y 0.000000 1.816900 0.000000 
#    z 0.000000 0.000000 1.786300 
# 
# From -- ./inp_files/3107.got.cif
#   From: 2010.03.12/outbox.cif.g09.slc.cpg/sg57_2_cif.got.tgz:3107.got - 2010.04.16 15:48:40.
