data_PCOD8231081
_publ_section_title
;
Structure prediction by ZEFSAII (Michael W. Deem and Ramdas Pophale) SiO2 
 PCOD8231081
Probable space group: P B C M
;
_chemical_formula_sum "Si O2"
_cell_formula_units_Z 64
_cell_length_a 20.076058
_cell_length_b 7.719511
_cell_length_c 24.377688
_cell_angle_alpha 90.000000
_cell_angle_beta 90.000000
_cell_angle_gamma 90.000000
_cell_volume 3777.989499
_symmetry_space_group_name_H-M "P B C M"
_symmetry_group_IT_number 57
_symmetry_cell_setting 'orthorhombic'
loop_
_space_group_symop_operation_xyz
x,y,z
-x,-y,1/2+z
x,1/2-y,-z
-x,1/2+y,1/2-z
-x,-y,-z
x,y,1/2-z
-x,1/2+y,z
x,1/2-y,1/2+z
loop_
_atom_site_type_symbol
_atom_site_label
_atom_site_fract_x
_atom_site_fract_y
_atom_site_fract_z
Si Si1 0.628241 0.801167 0.562844
Si Si2 0.927822 0.293818 0.184885
Si Si3 0.309399 0.504295 0.369014
Si Si4 0.562396 0.457114 0.689004
Si Si5 0.494518 0.786487 0.384754
Si Si6 0.832756 0.513229 0.815119
Si Si7 0.357882 0.812032 0.060421
Si Si8 0.071229 0.319225 0.684895
O O1 0.617411 0.750000 0.500000
O O2 0.673925 0.656510 0.591465
O O3 0.555977 0.824440 0.591006
O O4 0.664494 0.988005 0.568288
O O5 0.932119 0.291505 0.250000
O O6 0.871689 0.159046 0.165434
O O7 0.910155 0.487576 0.163802
O O8 0.999383 0.236036 0.160775
O O9 0.358863 0.508045 0.316468
O O10 0.235896 0.480955 0.346989
O O11 0.316335 0.689073 0.399067
O O12 0.539914 0.513325 0.750000
O O13 0.527372 0.534268 0.634118
O O14 0.538200 0.263606 0.675141
O O15 0.437367 0.797706 0.430351
O O16 0.820891 0.513158 0.750000
O O17 0.873458 0.682496 0.834552
O O18 0.340989 0.750000 0.000000
O O19 0.066929 0.317449 0.750000
#
# Coordination Sequence:
#
# PCOD8231081 Si02
#       8
#     8   8   8   8   8   8   8   8
#     4  11  21  36  56  77  99 124 163 222 277 318
#     4   9  15  25  45  73 101 135 174 207 240 280
#     4  10  23  35  50  75 102 138 171 207 252 309
#     4  10  19  33  49  68 100 138 174 204 240 293
#     4  10  20  32  52  78  98 124 168 216 266 304
#     4  10  19  32  49  71 110 148 170 199 244 295
#     4  11  21  36  56  77  99 124 163 222 277 318
#     4   9  15  25  45  73 101 135 174 207 240 280
#
# _framework density 16.940225999999999
#
# number of rings (size 3 to 8) (size 9 to 14) (size 15 to 20)
#    0.000    2.000    3.750    1.125    0.000    2.000 
#    0.000    0.000    0.000    0.000    0.000    0.000 
#    0.000    3.000    0.000    0.000    0.000    0.000 
#
# Total GULP energy -792964.271595 kJ/mol
# GULP energy per Si atom -12390.066744 kJ/mol
# Density = 1.690167 g / cm^3
# Si number density = 16.940226 Si / 1000 Ang^3
#
#
#
# Elastic Constant Matrix: (Units=GPa)
#
#
# Indices 1 2 3 4 5 6 
#
# 1 121.3525 49.6787 31.9260 0.0000 0.0000 0.0000
# 2 49.6787 133.8868 26.7536 0.0000 0.0000 0.0000
# 3 31.9260 26.7536 63.6725 0.0000 0.0000 0.0000
# 4 0.0000 0.0000 0.0000 13.9459 0.0000 0.0000
# 5 0.0000 0.0000 0.0000 0.0000 15.2478 0.0000
# 6 0.0000 0.0000 0.0000 0.0000 0.0000 19.5284
#
#
#
# Elastic Compliance Matrix: (Units=1/GPa)
#
#
# Indices 1 2 3 4 5 6 
#
# 1 0.010568 -0.003125 -0.003986 0.000000 0.000000 0.000000
# 2 -0.003125 0.009078 -0.002247 0.000000 0.000000 0.000000
# 3 -0.003986 -0.002247 0.018648 0.000000 0.000000 0.000000
# 4 0.000000 0.000000 0.000000 0.071706 0.000000 0.000000
# 5 0.000000 0.000000 0.000000 0.000000 0.065583 0.000000
# 6 0.000000 0.000000 0.000000 0.000000 0.000000 0.051208
#
#
# Mechanical properties :
#
#
# Convention : Reuss Voigt Hill
#
# Bulk Modulus (GPa) = 51.07864 59.51428 55.29646
# Shear Modulus (GPa) = 19.83866 23.78132 21.80999
#
# Velocity S-wave (km/s) = 3.42584 3.75085 3.59202
# Velocity P-wave (km/s) = 6.77246 7.34620 7.06516
#
# Compressibility (1/GPa) = 0.01957765
#
# Stress axis : x y z
#
# Youngs Moduli (GPa) = 94.62184 110.16191 53.62416
#
# Poissons Ratio (x) = 0.34424 0.21375
# Poissons Ratio (y) = 0.29568 0.12051
# Poissons Ratio (z) = 0.37717 0.24757
#
# Static dielectric constant tensor:
#      x y z
#    x 3.035440 0.000000 0.000000 
#    y 0.000000 3.500030 0.000000 
#    z 0.000000 0.000000 2.766750 
# 
# 
# High freq. dielectric constant tensor:
#      x y z
#    x 1.634300 0.000000 0.000000 
#    y 0.000000 1.675230 0.000000 
#    z 0.000000 0.000000 1.613370 
# 
# From -- ./inp_files/27587.got.cif
#   From: 2010.03.12/outbox.cif.g09.slc.cpg/sg57_14_cif.got.tgz:27587.got - 2010.04.16 15:48:40.
