data_PCOD8231916
_publ_section_title
;
Structure prediction by ZEFSAII (Michael W. Deem and Ramdas Pophale) SiO2 
 PCOD8231916
Probable space group: P B C M
;
_chemical_formula_sum "Si O2"
_cell_formula_units_Z 64
_cell_length_a 23.471597
_cell_length_b 15.423072
_cell_length_c 8.725309
_cell_angle_alpha 90.000000
_cell_angle_beta 90.000000
_cell_angle_gamma 90.000000
_cell_volume 3158.597898
_symmetry_space_group_name_H-M "P B C M"
_symmetry_group_IT_number 57
_symmetry_cell_setting 'orthorhombic'
loop_
_space_group_symop_operation_xyz
x,y,z
-x,-y,1/2+z
x,1/2-y,-z
-x,1/2+y,1/2-z
-x,-y,-z
x,y,1/2-z
-x,1/2+y,z
x,1/2-y,1/2+z
loop_
_atom_site_type_symbol
_atom_site_label
_atom_site_fract_x
_atom_site_fract_y
_atom_site_fract_z
Si Si1 0.633329 0.487229 0.931382
Si Si2 0.941441 0.902402 0.572752
Si Si3 0.830848 0.339146 0.930529
Si Si4 0.444618 0.660159 0.931120
Si Si5 0.180253 0.160275 0.431030
Si Si6 0.425462 0.338742 0.069812
Si Si7 0.057465 0.605949 0.573964
Si Si8 0.244109 0.510781 0.568311
O O1 0.629912 0.478981 0.750000
O O2 0.613215 0.581943 0.988361
O O3 0.591816 0.417697 0.004121
O O4 0.696663 0.469343 0.987259
O O5 0.953125 0.881955 0.750000
O O6 0.884136 0.856913 0.511312
O O7 0.993881 0.865522 0.474044
O O8 0.934006 0.004313 0.546492
O O9 0.819420 0.343095 0.750000
O O10 0.805918 0.250000 0.000000
O O11 0.898103 0.343777 0.966611
O O12 0.800862 0.418044 0.016146
O O13 0.438639 0.663321 0.750000
O O14 0.509716 0.645534 0.984900
O O15 0.421111 0.750000 0.000000
O O16 0.203401 0.250000 0.500000
O O17 0.180840 0.165673 0.250000
O O18 0.221541 0.083119 0.486174
O O19 0.422761 0.329677 0.250000
O O20 0.400663 0.250000 0.000000
O O21 0.068307 0.631747 0.750000
O O22 0.251310 0.515196 0.750000
#
# Coordination Sequence:
#
# PCOD8231916 Si02
#       8
#     8   8   8   8   8   8   8   8
#     4  11  23  39  60  90 122 158 202 249 294 353
#     4   9  18  35  57  85 120 157 194 239 295 354
#     4  12  25  42  65  90 117 154 197 246 302 363
#     4  10  20  37  61  91 124 163 200 244 297 350
#     4  10  22  40  62  86 117 154 196 245 297 353
#     4   9  20  37  60  90 127 162 201 245 294 350
#     4  10  19  35  59  88 121 155 193 241 295 356
#     4  11  24  45  64  85 118 157 201 253 300 349
#
# _framework density 20.262153999999999
#
# number of rings (size 3 to 8) (size 9 to 14) (size 15 to 20)
#    0.000    1.750    1.250    3.000    0.000    5.000 
#    0.000    6.250    0.000    0.000    0.000    0.000 
#    0.000    0.000    0.000    0.000    0.000    0.000 
#
# Total GULP energy -793888.496089 kJ/mol
# GULP energy per Si atom -12404.507751 kJ/mol
# Density = 2.021604 g / cm^3
# Si number density = 20.262154 Si / 1000 Ang^3
#
#
#
# Elastic Constant Matrix: (Units=GPa)
#
#
# Indices 1 2 3 4 5 6 
#
# 1 57.2327 12.8891 17.8790 0.0000 0.0000 0.0000
# 2 12.8891 90.7668 27.2410 0.0000 0.0000 0.0000
# 3 17.8790 27.2410 48.6851 0.0000 0.0000 0.0000
# 4 0.0000 0.0000 0.0000 35.8480 0.0000 0.0000
# 5 0.0000 0.0000 0.0000 0.0000 25.0420 0.0000
# 6 0.0000 0.0000 0.0000 0.0000 0.0000 -66.9362
#
#
#
# Elastic Compliance Matrix: (Units=1/GPa)
#
#
# Indices 1 2 3 4 5 6 
#
# 1 0.019780 -0.000756 -0.006841 0.000000 0.000000 0.000000
# 2 -0.000756 0.013270 -0.007147 0.000000 0.000000 0.000000
# 3 -0.006841 -0.007147 0.027052 0.000000 0.000000 0.000000
# 4 0.000000 0.000000 0.000000 0.027896 0.000000 0.000000
# 5 0.000000 0.000000 0.000000 0.000000 0.039933 0.000000
# 6 0.000000 0.000000 0.000000 0.000000 0.000000 -0.014940
#
#
# Mechanical properties :
#
#
# Convention : Reuss Voigt Hill
#
# Bulk Modulus (GPa) = 32.66588 34.74476 33.70532
# Shear Modulus (GPa) = 32.74772 8.03578 20.39175
#
# Velocity S-wave (km/s) = 4.02456 1.99362 3.17582
# Velocity P-wave (km/s) = 6.14433 4.74175 5.48803
#
# Compressibility (1/GPa) = 0.03061298
#
# Stress axis : x y z
#
# Youngs Moduli (GPa) = 50.55657 75.36015 36.96631
#
# Poissons Ratio (x) = 0.05694 0.25289
# Poissons Ratio (y) = 0.03820 0.26421
# Poissons Ratio (z) = 0.34586 0.53862
#
# Static dielectric constant tensor:
#      x y z
#    x 3.695030 0.000000 0.000000 
#    y 0.000000 3.869950 0.000000 
#    z 0.000000 0.000000 3.619010 
# 
# 
# High freq. dielectric constant tensor:
#      x y z
#    x 1.787860 0.000000 0.000000 
#    y 0.000000 1.800090 0.000000 
#    z 0.000000 0.000000 1.791610 
# 
# From -- ./inp_files/9393.got.cif
#   From: 2010.03.12/outbox.cif.g09.slc.cpg/sg57_5_cif.got.tgz:9393.got - 2010.04.16 15:48:40.
