data_PCOD8231325
_publ_section_title
;
Structure prediction by ZEFSAII (Michael W. Deem and Ramdas Pophale) SiO2 
 PCOD8231325
Probable space group: P B C M
;
_chemical_formula_sum "Si O2"
_cell_formula_units_Z 40
_cell_length_a 12.971255
_cell_length_b 19.711075
_cell_length_c 8.727917
_cell_angle_alpha 90.000000
_cell_angle_beta 90.000000
_cell_angle_gamma 90.000000
_cell_volume 2231.530953
_symmetry_space_group_name_H-M "P B C M"
_symmetry_group_IT_number 57
_symmetry_cell_setting 'orthorhombic'
loop_
_space_group_symop_operation_xyz
x,y,z
-x,-y,1/2+z
x,1/2-y,-z
-x,1/2+y,1/2-z
-x,-y,-z
x,y,1/2-z
-x,1/2+y,z
x,1/2-y,1/2+z
loop_
_atom_site_type_symbol
_atom_site_label
_atom_site_fract_x
_atom_site_fract_y
_atom_site_fract_z
Si Si1 0.782226 0.424999 0.070340
Si Si2 0.610608 0.177045 0.566903
Si Si3 0.607166 0.677603 0.432219
Si Si4 0.787723 0.921997 0.930813
Si Si5 0.007311 0.426506 0.428998
O O1 0.764290 0.430544 0.250000
O O2 0.694848 0.375989 0.001765
O O3 0.771930 0.501567 0.003209
O O4 0.895631 0.392307 0.035693
O O5 0.640130 0.250000 0.500000
O O6 0.608095 0.180842 0.750000
O O7 0.500313 0.152824 0.504057
O O8 0.639744 0.750000 0.500000
O O9 0.596483 0.683040 0.250000
O O10 0.692528 0.623634 0.484643
O O11 0.798030 0.922772 0.750000
O O12 0.894182 0.888951 0.996048
O O13 0.026785 0.431931 0.250000
O O14 0.000000 0.500000 0.500000
#
# Coordination Sequence:
#
# PCOD8231325 Si02
#       5
#     8   8   8   8   8
#     4   8  16  31  50  71  96 125 155 193 238 279
#     4  10  19  33  51  69  94 127 160 194 236 286
#     4  10  20  34  51  70  96 127 159 198 241 287
#     4   9  18  33  51  72  97 125 160 200 239 280
#     4   9  16  29  49  72  99 128 158 193 238 287
#
# _framework density 17.924914999999999
#
# number of rings (size 3 to 8) (size 9 to 14) (size 15 to 20)
#    0.000    2.800    0.000    4.200    0.000    2.400 
#    0.000   11.000    0.000    4.800    0.000    0.000 
#    0.000    0.000    0.000    0.000    0.000    0.000 
#
# Total GULP energy -495691.001972 kJ/mol
# GULP energy per Si atom -12392.275049 kJ/mol
# Density = 1.788412 g / cm^3
# Si number density = 17.924915 Si / 1000 Ang^3
#
#
#
# Elastic Constant Matrix: (Units=GPa)
#
#
# Indices 1 2 3 4 5 6 
#
# 1 189.6958 94.8386 47.4102 0.0000 0.0000 0.0000
# 2 94.8386 83.4939 26.5785 0.0000 0.0000 0.0000
# 3 47.4102 26.5785 52.1377 0.0000 0.0000 0.0000
# 4 0.0000 0.0000 0.0000 18.8162 0.0000 0.0000
# 5 0.0000 0.0000 0.0000 0.0000 30.0812 0.0000
# 6 0.0000 0.0000 0.0000 0.0000 0.0000 13.7967
#
#
#
# Elastic Compliance Matrix: (Units=1/GPa)
#
#
# Indices 1 2 3 4 5 6 
#
# 1 0.013301 -0.013439 -0.005244 0.000000 0.000000 0.000000
# 2 -0.013439 0.027875 -0.001990 0.000000 0.000000 0.000000
# 3 -0.005244 -0.001990 0.024963 0.000000 0.000000 0.000000
# 4 0.000000 0.000000 0.000000 0.053146 0.000000 0.000000
# 5 0.000000 0.000000 0.000000 0.000000 0.033243 0.000000
# 6 0.000000 0.000000 0.000000 0.000000 0.000000 0.072481
#
#
# Mechanical properties :
#
#
# Convention : Reuss Voigt Hill
#
# Bulk Modulus (GPa) = 40.33296 73.66464 56.99880
# Shear Modulus (GPa) = 18.20700 22.97218 20.58959
#
# Velocity S-wave (km/s) = 3.19052 3.58380 3.39286
# Velocity P-wave (km/s) = 6.01020 7.63611 6.87142
#
# Compressibility (1/GPa) = 0.02479362
#
# Stress axis : x y z
#
# Youngs Moduli (GPa) = 75.18169 35.87403 40.05939
#
# Poissons Ratio (x) = 0.48211 0.21008
# Poissons Ratio (y) = 1.01037 0.07971
# Poissons Ratio (z) = 0.39427 0.07138
#
# Static dielectric constant tensor:
#      x y z
#    x 3.939840 0.000000 0.000000 
#    y 0.000000 3.307120 0.000000 
#    z 0.000000 0.000000 3.286480 
# 
# 
# High freq. dielectric constant tensor:
#      x y z
#    x 1.713520 0.000000 0.000000 
#    y 0.000000 1.663070 0.000000 
#    z 0.000000 0.000000 1.686410 
# 
# From -- ./inp_files/2915.got.cif
#   From: 2010.03.12/outbox.cif.g09.slc.cpg/sg57_2_cif.got.tgz:2915.got - 2010.04.16 15:48:40.
