data_PCOD8231959
_publ_section_title
;
Structure prediction by ZEFSAII (Michael W. Deem and Ramdas Pophale) SiO2 
 PCOD8231959
Probable space group: P B C M
;
_chemical_formula_sum "Si O2"
_cell_formula_units_Z 64
_cell_length_a 24.045818
_cell_length_b 15.123770
_cell_length_c 8.825661
_cell_angle_alpha 90.000000
_cell_angle_beta 90.000000
_cell_angle_gamma 90.000000
_cell_volume 3209.570071
_symmetry_space_group_name_H-M "P B C M"
_symmetry_group_IT_number 57
_symmetry_cell_setting 'orthorhombic'
loop_
_space_group_symop_operation_xyz
x,y,z
-x,-y,1/2+z
x,1/2-y,-z
-x,1/2+y,1/2-z
-x,-y,-z
x,y,1/2-z
-x,1/2+y,z
x,1/2-y,1/2+z
loop_
_atom_site_type_symbol
_atom_site_label
_atom_site_fract_x
_atom_site_fract_y
_atom_site_fract_z
Si Si1 0.503198 0.340206 0.070683
Si Si2 0.078673 0.513957 0.927978
Si Si3 0.616281 0.884870 0.081037
Si Si4 0.395706 0.587306 0.080843
Si Si5 0.197774 0.507270 0.071123
Si Si6 0.718699 0.340005 0.929274
Si Si7 0.996888 0.849382 0.570470
Si Si8 0.734155 0.837471 0.429782
O O1 0.500492 0.338576 0.250000
O O2 0.442121 0.360524 0.998852
O O3 0.525957 0.250000 0.000000
O O4 0.549076 0.411721 0.021861
O O5 0.071884 0.529482 0.750000
O O6 0.053435 0.417221 0.972979
O O7 0.142177 0.514950 0.975892
O O8 0.051138 0.598783 0.010476
O O9 0.612259 0.845904 0.250000
O O10 0.671322 0.845819 0.000619
O O11 0.626217 0.988497 0.087432
O O12 0.411075 0.620545 0.250000
O O13 0.344175 0.642329 0.010736
O O14 0.184869 0.509603 0.250000
O O15 0.238541 0.585183 0.019177
O O16 0.227149 0.417314 0.019517
O O17 0.716780 0.334387 0.750000
O O18 0.741307 0.250000 0.000000
O O19 0.989512 0.750000 0.500000
O O20 0.001657 0.836341 0.750000
O O21 0.761645 0.750000 0.500000
O O22 0.730872 0.833286 0.250000
#
# Coordination Sequence:
#
# PCOD8231959 Si02
#       8
#     8   8   8   8   8   8   8   8
#     4  11  22  34  50  76 106 137 178 228 285 348
#     4  10  22  39  61  91 126 161 200 247 293 340
#     4   9  18  35  57  77 103 141 183 229 285 350
#     4  10  19  36  58  77 103 139 181 230 287 348
#     4  10  21  39  60  82 115 158 199 237 287 348
#     4  10  21  37  58  81 107 146 191 235 287 344
#     4  10  21  39  64  93 126 164 203 242 289 341
#     4  10  20  37  59  82 110 149 194 238 290 347
#
# _framework density 19.940365
#
# number of rings (size 3 to 8) (size 9 to 14) (size 15 to 20)
#    0.000    2.000    1.250    2.250    0.000    5.000 
#    0.000    5.625    0.000    0.000    0.000    0.000 
#    0.000    0.000    0.000    0.000    0.000    0.000 
#
# Total GULP energy -793286.218844 kJ/mol
# GULP energy per Si atom -12395.097169 kJ/mol
# Density = 1.989498 g / cm^3
# Si number density = 19.940365 Si / 1000 Ang^3
#
#
#
# Elastic Constant Matrix: (Units=GPa)
#
#
# Indices 1 2 3 4 5 6 
#
# 1 121.0368 40.7339 32.9551 0.0000 0.0000 0.0000
# 2 40.7339 123.7180 30.5169 0.0000 0.0000 0.0000
# 3 32.9551 30.5169 49.5625 0.0000 0.0000 0.0000
# 4 0.0000 0.0000 0.0000 30.2102 0.0000 0.0000
# 5 0.0000 0.0000 0.0000 0.0000 24.8617 0.0000
# 6 0.0000 0.0000 0.0000 0.0000 0.0000 -20.1254
#
#
#
# Elastic Compliance Matrix: (Units=1/GPa)
#
#
# Indices 1 2 3 4 5 6 
#
# 1 0.010511 -0.002048 -0.005728 0.000000 0.000000 0.000000
# 2 -0.002048 0.009929 -0.004752 0.000000 0.000000 0.000000
# 3 -0.005728 -0.004752 0.026911 0.000000 0.000000 0.000000
# 4 0.000000 0.000000 0.000000 0.033101 0.000000 0.000000
# 5 0.000000 0.000000 0.000000 0.000000 0.040223 0.000000
# 6 0.000000 0.000000 0.000000 0.000000 0.000000 -0.049688
#
#
# Mechanical properties :
#
#
# Convention : Reuss Voigt Hill
#
# Bulk Modulus (GPa) = 44.85199 55.85878 50.35538
# Shear Modulus (GPa) = 48.32131 19.66340 33.99236
#
# Velocity S-wave (km/s) = 4.92803 3.14365 4.13328
# Velocity P-wave (km/s) = 7.41098 6.42265 6.93444
#
# Compressibility (1/GPa) = 0.02229556
#
# Stress axis : x y z
#
# Youngs Moduli (GPa) = 95.14155 100.71213 37.15932
#
# Poissons Ratio (x) = 0.20623 0.21285
# Poissons Ratio (y) = 0.19482 0.17659
# Poissons Ratio (z) = 0.54496 0.47860
#
# Static dielectric constant tensor:
#      x y z
#    x 3.682530 0.000000 0.000000 
#    y 0.000000 -3.855080 0.000000 
#    z 0.000000 0.000000 3.386650 
# 
# 
# High freq. dielectric constant tensor:
#      x y z
#    x 1.782060 0.000000 0.000000 
#    y 0.000000 1.787100 0.000000 
#    z 0.000000 0.000000 1.755970 
# 
# From -- ./inp_files/9367.got.cif
#   From: 2010.03.12/outbox.cif.g09.slc.cpg/sg57_5_cif.got.tgz:9367.got - 2010.04.16 15:48:40.
