data_PCOD8231770
_publ_section_title
;
Structure prediction by ZEFSAII (Michael W. Deem and Ramdas Pophale) SiO2 
 PCOD8231770
Probable space group: P B C M
;
_chemical_formula_sum "Si O2"
_cell_formula_units_Z 64
_cell_length_a 11.989604
_cell_length_b 30.805900
_cell_length_c 9.100576
_cell_angle_alpha 90.000000
_cell_angle_beta 90.000000
_cell_angle_gamma 90.000000
_cell_volume 3361.302677
_symmetry_space_group_name_H-M "P B C M"
_symmetry_group_IT_number 57
_symmetry_cell_setting 'orthorhombic'
loop_
_space_group_symop_operation_xyz
x,y,z
-x,-y,1/2+z
x,1/2-y,-z
-x,1/2+y,1/2-z
-x,-y,-z
x,y,1/2-z
-x,1/2+y,z
x,1/2-y,1/2+z
loop_
_atom_site_type_symbol
_atom_site_label
_atom_site_fract_x
_atom_site_fract_y
_atom_site_fract_z
Si Si1 0.988382 0.795990 0.077768
Si Si2 0.534576 0.794439 0.917432
Si Si3 0.486906 0.064731 0.914318
Si Si4 0.906706 0.471529 0.076777
Si Si5 0.139824 0.624804 0.923955
Si Si6 0.260450 0.203832 0.922359
Si Si7 0.627921 0.131015 0.083819
Si Si8 0.328680 0.009227 0.414178
O O1 0.005575 0.787730 0.250000
O O2 0.068636 0.834080 0.017829
O O3 0.863485 0.814183 0.045761
O O4 0.013414 0.750000 0.000000
O O5 0.570995 0.785525 0.750000
O O6 0.419056 0.820438 0.922313
O O7 0.507501 0.750000 0.000000
O O8 0.636458 0.821344 0.999119
O O9 0.465493 0.082667 0.750000
O O10 0.579790 0.027966 0.910665
O O11 0.529000 0.101796 0.021564
O O12 0.369268 0.047073 0.976819
O O13 0.921672 0.475930 0.250000
O O14 0.916778 0.420873 0.028629
O O15 0.786598 0.489431 0.025693
O O16 0.000000 0.500000 0.000000
O O17 0.151143 0.626343 0.750000
O O18 0.262653 0.627750 0.987334
O O19 0.282909 0.206789 0.750000
O O20 0.268749 0.250000 0.000000
O O21 0.655573 0.116611 0.250000
O O22 0.312713 0.028238 0.250000
#
# Coordination Sequence:
#
# PCOD8231770 Si02
#       8
#     8   8   8   8   8   8   8   8
#     4   9  19  35  58  85 115 148 187 235 281 330
#     4  10  21  36  54  79 111 147 184 228 277 329
#     4  10  19  34  58  84 108 141 181 223 275 331
#     4  10  21  39  60  82 114 151 190 234 284 337
#     4  10  21  40  60  80 112 152 192 234 280 337
#     4   9  16  30  53  78 104 139 180 223 274 330
#     4  11  23  37  55  81 114 147 185 234 283 334
#     4   9  18  35  57  82 111 141 179 226 273 324
#
# _framework density 19.040237000000001
#
# number of rings (size 3 to 8) (size 9 to 14) (size 15 to 20)
#    0.000    2.250    1.250    2.250    0.000    5.000 
#    2.250    2.500    0.000    0.000    0.000    0.000 
#    0.000    0.000    0.000    0.000    0.000    0.000 
#
# Total GULP energy -793248.032764 kJ/mol
# GULP energy per Si atom -12394.500512 kJ/mol
# Density = 1.899690 g / cm^3
# Si number density = 19.040237 Si / 1000 Ang^3
#
#
#
# Elastic Constant Matrix: (Units=GPa)
#
#
# Indices 1 2 3 4 5 6 
#
# 1 95.6247 56.4711 35.5036 0.0000 0.0000 0.0000
# 2 56.4711 92.0167 36.8535 0.0000 0.0000 0.0000
# 3 35.5036 36.8535 67.6788 0.0000 0.0000 0.0000
# 4 0.0000 0.0000 0.0000 25.2815 0.0000 0.0000
# 5 0.0000 0.0000 0.0000 0.0000 32.5899 0.0000
# 6 0.0000 0.0000 0.0000 0.0000 0.0000 31.8150
#
#
#
# Elastic Compliance Matrix: (Units=1/GPa)
#
#
# Indices 1 2 3 4 5 6 
#
# 1 0.017292 -0.008926 -0.004211 0.000000 0.000000 0.000000
# 2 -0.008926 0.018506 -0.005395 0.000000 0.000000 0.000000
# 3 -0.004211 -0.005395 0.019922 0.000000 0.000000 0.000000
# 4 0.000000 0.000000 0.000000 0.039555 0.000000 0.000000
# 5 0.000000 0.000000 0.000000 0.000000 0.030684 0.000000
# 6 0.000000 0.000000 0.000000 0.000000 0.000000 0.031432
#
#
# Mechanical properties :
#
#
# Convention : Reuss Voigt Hill
#
# Bulk Modulus (GPa) = 53.59759 56.99739 55.29749
# Shear Modulus (GPa) = 24.91614 26.37008 25.64311
#
# Velocity S-wave (km/s) = 3.62139 3.72555 3.67384
# Velocity P-wave (km/s) = 6.75993 6.96466 6.86306
#
# Compressibility (1/GPa) = 0.01865756
#
# Stress axis : x y z
#
# Youngs Moduli (GPa) = 57.83009 54.03636 50.19490
#
# Poissons Ratio (x) = 0.48231 0.21136
# Poissons Ratio (y) = 0.51618 0.27080
# Poissons Ratio (z) = 0.24351 0.29152
#
# Static dielectric constant tensor:
#      x y z
#    x 3.873330 0.000000 0.000000 
#    y 0.000000 3.440080 0.000000 
#    z 0.000000 0.000000 3.606800 
# 
# 
# High freq. dielectric constant tensor:
#      x y z
#    x 1.743570 0.000000 0.000000 
#    y 0.000000 1.723330 0.000000 
#    z 0.000000 0.000000 1.744650 
# 
# From -- ./inp_files/3887.got.cif
#   From: 2010.03.12/outbox.cif.g09.slc.cpg/sg57_2_cif.got.tgz:3887.got - 2010.04.16 15:48:40.
