data_PCOD8231872
_publ_section_title
;
Structure prediction by ZEFSAII (Michael W. Deem and Ramdas Pophale) SiO2 
 PCOD8231872
Probable space group: P B C M
;
_chemical_formula_sum "Si O2"
_cell_formula_units_Z 64
_cell_length_a 20.258063
_cell_length_b 8.974796
_cell_length_c 17.620572
_cell_angle_alpha 90.000000
_cell_angle_beta 90.000000
_cell_angle_gamma 90.000000
_cell_volume 3203.631133
_symmetry_space_group_name_H-M "P B C M"
_symmetry_group_IT_number 57
_symmetry_cell_setting 'orthorhombic'
loop_
_space_group_symop_operation_xyz
x,y,z
-x,-y,1/2+z
x,1/2-y,-z
-x,1/2+y,1/2-z
-x,-y,-z
x,y,1/2-z
-x,1/2+y,z
x,1/2-y,1/2+z
loop_
_atom_site_type_symbol
_atom_site_label
_atom_site_fract_x
_atom_site_fract_y
_atom_site_fract_z
Si Si1 0.076037 0.102497 0.840027
Si Si2 0.695152 0.328084 0.079525
Si Si3 0.446632 0.330018 0.160791
Si Si4 0.825490 0.413841 0.340139
Si Si5 0.664382 0.672967 0.423032
Si Si6 0.187810 0.226983 0.087656
Si Si7 0.951035 0.277762 0.660169
Si Si8 0.423553 0.834962 0.659526
O O1 0.075541 0.098402 0.750000
O O2 0.149079 0.147141 0.866266
O O3 0.019831 0.213353 0.872152
O O4 0.059420 0.941049 0.874168
O O5 0.760587 0.329008 0.130780
O O6 0.668866 0.495531 0.066605
O O7 0.642303 0.229563 0.123476
O O8 0.711795 0.250000 0.000000
O O9 0.451180 0.336943 0.250000
O O10 0.388513 0.214840 0.140648
O O11 0.515570 0.264952 0.129429
O O12 0.433871 0.496192 0.129129
O O13 0.819928 0.440088 0.250000
O O14 0.836254 0.568147 0.383065
O O15 0.889168 0.321036 0.364125
O O16 0.639764 0.750000 0.500000
O O17 0.734163 0.743852 0.397623
O O18 0.171006 0.250000 0.000000
O O19 0.955947 0.284383 0.750000
O O20 0.417124 0.830611 0.750000
#
# Coordination Sequence:
#
# PCOD8231872 Si02
#       8
#     8   8   8   8   8   8   8   8
#     4  10  19  35  58  82 111 148 191 239 288 346
#     4  11  23  38  59  86 117 153 192 240 294 347
#     4  10  21  37  60  86 114 147 190 240 285 337
#     4  10  21  39  61  85 115 155 197 238 287 348
#     4  10  22  39  57  79 113 151 190 232 284 349
#     4  10  22  38  56  83 116 151 190 237 290 345
#     4   9  19  34  57  85 110 143 190 239 286 340
#     4  10  21  38  59  86 117 150 189 237 290 348
#
# _framework density 19.977332000000001
#
# number of rings (size 3 to 8) (size 9 to 14) (size 15 to 20)
#    0.000    2.000    0.000    3.000    0.000   10.500 
#    0.000    8.125    0.000    0.000    0.000    0.000 
#    0.000    0.000    0.000    0.000    0.000    0.000 
#
# Total GULP energy -793682.235140 kJ/mol
# GULP energy per Si atom -12401.284924 kJ/mol
# Density = 1.993186 g / cm^3
# Si number density = 19.977332 Si / 1000 Ang^3
#
#
#
# Elastic Constant Matrix: (Units=GPa)
#
#
# Indices 1 2 3 4 5 6 
#
# 1 89.1103 30.1578 39.8249 0.0000 0.0000 0.0000
# 2 30.1578 98.0455 43.7971 0.0000 0.0000 0.0000
# 3 39.8249 43.7971 47.1889 0.0000 0.0000 0.0000
# 4 0.0000 0.0000 0.0000 33.2135 0.0000 0.0000
# 5 0.0000 0.0000 0.0000 0.0000 14.5401 0.0000
# 6 0.0000 0.0000 0.0000 0.0000 0.0000 38.3291
#
#
#
# Elastic Compliance Matrix: (Units=1/GPa)
#
#
# Indices 1 2 3 4 5 6 
#
# 1 0.018284 0.002168 -0.017442 0.000000 0.000000 0.000000
# 2 0.002168 0.017680 -0.018238 0.000000 0.000000 0.000000
# 3 -0.017442 -0.018238 0.052839 0.000000 0.000000 0.000000
# 4 0.000000 0.000000 0.000000 0.030108 0.000000 0.000000
# 5 0.000000 0.000000 0.000000 0.000000 0.068775 0.000000
# 6 0.000000 0.000000 0.000000 0.000000 0.000000 0.026090
#
#
# Mechanical properties :
#
#
# Convention : Reuss Voigt Hill
#
# Bulk Modulus (GPa) = 45.92071 51.32268 48.62170
# Shear Modulus (GPa) = 17.35746 25.25420 21.30583
#
# Velocity S-wave (km/s) = 2.95084 3.55934 3.26927
# Velocity P-wave (km/s) = 5.88610 6.52978 6.21628
#
# Compressibility (1/GPa) = 0.02177667
#
# Stress axis : x y z
#
# Youngs Moduli (GPa) = 54.69352 56.56219 18.92539
#
# Poissons Ratio (x) = -0.12260 0.33010
# Poissons Ratio (y) = -0.11855 0.34517
# Poissons Ratio (z) = 0.95398 1.03159
#
# Static dielectric constant tensor:
#      x y z
#    x 3.752280 0.000000 0.000000 
#    y 0.000000 3.938220 0.000000 
#    z 0.000000 0.000000 3.426880 
# 
# 
# High freq. dielectric constant tensor:
#      x y z
#    x 1.792660 0.000000 0.000000 
#    y 0.000000 1.793300 0.000000 
#    z 0.000000 0.000000 1.758890 
# 
# From -- ./inp_files/23081.got.cif
#   From: 2010.03.12/outbox.cif.g09.slc.cpg/sg57_12_cif.got.tgz:23081.got - 2010.04.16 15:48:40.
