data_PCOD8231806
_publ_section_title
;
Structure prediction by ZEFSAII (Michael W. Deem and Ramdas Pophale) SiO2 
 PCOD8231806
Probable space group: P B C M
;
_chemical_formula_sum "Si O2"
_cell_formula_units_Z 48
_cell_length_a 6.910851
_cell_length_b 25.419585
_cell_length_c 13.506604
_cell_angle_alpha 90.000000
_cell_angle_beta 90.000000
_cell_angle_gamma 90.000000
_cell_volume 2372.718151
_symmetry_space_group_name_H-M "P B C M"
_symmetry_group_IT_number 57
_symmetry_cell_setting 'orthorhombic'
loop_
_space_group_symop_operation_xyz
x,y,z
-x,-y,1/2+z
x,1/2-y,-z
-x,1/2+y,1/2-z
-x,-y,-z
x,y,1/2-z
-x,1/2+y,z
x,1/2-y,1/2+z
loop_
_atom_site_type_symbol
_atom_site_label
_atom_site_fract_x
_atom_site_fract_y
_atom_site_fract_z
Si Si1 0.078094 0.093014 0.861273
Si Si2 0.768984 0.707311 0.634265
Si Si3 0.607242 0.505217 0.861223
Si Si4 0.153271 0.761254 0.638431
Si Si5 0.702594 0.065562 0.530724
Si Si6 0.380404 0.816602 0.461658
O O1 0.993924 0.089581 0.750000
O O2 0.130477 0.152069 0.889508
O O3 0.264690 0.056928 0.872561
O O4 0.923408 0.071681 0.938941
O O5 0.703528 0.709127 0.750000
O O6 0.586482 0.711919 0.559994
O O7 0.923049 0.754993 0.613557
O O8 0.587439 0.485426 0.750000
O O9 0.396019 0.521357 0.900706
O O10 0.695127 0.455271 0.918615
O O11 0.180618 0.782391 0.750000
O O12 0.275568 0.798235 0.564015
O O13 0.240581 0.702111 0.627944
O O14 0.591793 0.121142 0.538941
#
# Coordination Sequence:
#
# PCOD8231806 Si02
#       6
#     8   8   8   8   8   8
#     4  10  19  34  60  86 116 154 196 244 295 350
#     4  10  20  37  62  90 119 154 202 252 300 356
#     4  10  22  37  56  87 122 158 198 244 297 357
#     4  10  23  40  59  86 118 156 199 248 302 358
#     4  11  21  36  59  87 120 157 198 249 297 357
#     4  11  22  37  62  88 117 159 201 250 302 358
#
# _framework density 20.229963000000001
#
# number of rings (size 3 to 8) (size 9 to 14) (size 15 to 20)
#    0.000    1.667    3.333    1.500    0.000    4.667 
#    0.000    0.000    0.000    2.000    0.000    0.000 
#    0.000    0.000    0.000    0.000    0.000    0.000 
#
# Total GULP energy -594880.878676 kJ/mol
# GULP energy per Si atom -12393.351639 kJ/mol
# Density = 2.018392 g / cm^3
# Si number density = 20.229963 Si / 1000 Ang^3
#
#
#
# Elastic Constant Matrix: (Units=GPa)
#
#
# Indices 1 2 3 4 5 6 
#
# 1 86.4705 -5.9437 36.0651 0.0000 0.0000 0.0000
# 2 -5.9437 32.8842 -4.3759 0.0000 0.0000 0.0000
# 3 36.0651 -4.3759 82.5177 0.0000 0.0000 0.0000
# 4 0.0000 0.0000 0.0000 27.1281 0.0000 0.0000
# 5 0.0000 0.0000 0.0000 0.0000 27.2038 0.0000
# 6 0.0000 0.0000 0.0000 0.0000 0.0000 28.2909
#
#
#
# Elastic Compliance Matrix: (Units=1/GPa)
#
#
# Indices 1 2 3 4 5 6 
#
# 1 0.014243 0.001758 -0.006132 0.000000 0.000000 0.000000
# 2 0.001758 0.030843 0.000867 0.000000 0.000000 0.000000
# 3 -0.006132 0.000867 0.014845 0.000000 0.000000 0.000000
# 4 0.000000 0.000000 0.000000 0.036862 0.000000 0.000000
# 5 0.000000 0.000000 0.000000 0.000000 0.036760 0.000000
# 6 0.000000 0.000000 0.000000 0.000000 0.000000 0.035347
#
#
# Mechanical properties :
#
#
# Convention : Reuss Voigt Hill
#
# Bulk Modulus (GPa) = 18.89719 28.15147 23.52433
# Shear Modulus (GPa) = 25.83298 28.26636 27.04967
#
# Velocity S-wave (km/s) = 3.57734 3.74204 3.66062
# Velocity P-wave (km/s) = 5.14049 5.71108 5.43328
#
# Compressibility (1/GPa) = 0.05291792
#
# Stress axis : x y z
#
# Youngs Moduli (GPa) = 70.21020 32.42229 67.36486
#
# Poissons Ratio (x) = -0.05701 0.41307
# Poissons Ratio (y) = -0.12346 -0.05841
# Poissons Ratio (z) = 0.43051 -0.02811
#
# Static dielectric constant tensor:
#      x y z
#    x 3.717270 0.000000 0.000000 
#    y 0.000000 3.479370 0.000000 
#    z 0.000000 0.000000 3.666470 
# 
# 
# High freq. dielectric constant tensor:
#      x y z
#    x 1.799310 0.000000 0.000000 
#    y 0.000000 1.770270 0.000000 
#    z 0.000000 0.000000 1.787820 
# 
# From -- ./inp_files/15203.got.cif
#   From: 2010.03.12/outbox.cif.g09.slc.cpg/sg57_8_cif.got.tgz:15203.got - 2010.04.16 15:48:40.
