data_PCOD8231454
_publ_section_title
;
Structure prediction by ZEFSAII (Michael W. Deem and Ramdas Pophale) SiO2 
 PCOD8231454
Probable space group: P B C M
;
_chemical_formula_sum "Si O2"
_cell_formula_units_Z 48
_cell_length_a 8.830332
_cell_length_b 8.771337
_cell_length_c 31.115945
_cell_angle_alpha 90.000000
_cell_angle_beta 90.000000
_cell_angle_gamma 90.000000
_cell_volume 2410.048735
_symmetry_space_group_name_H-M "P B C M"
_symmetry_group_IT_number 57
_symmetry_cell_setting 'orthorhombic'
loop_
_space_group_symop_operation_xyz
x,y,z
-x,-y,1/2+z
x,1/2-y,-z
-x,1/2+y,1/2-z
-x,-y,-z
x,y,1/2-z
-x,1/2+y,z
x,1/2-y,1/2+z
loop_
_atom_site_type_symbol
_atom_site_label
_atom_site_fract_x
_atom_site_fract_y
_atom_site_fract_z
Si Si1 0.389398 0.528548 0.619455
Si Si2 0.695709 0.127618 0.398239
Si Si3 0.919815 0.977289 0.045479
Si Si4 0.805729 0.450485 0.202096
Si Si5 0.142706 0.176849 0.089272
Si Si6 0.952566 0.331879 0.665923
O O1 0.565467 0.492270 0.614634
O O2 0.355210 0.695800 0.599977
O O3 0.331396 0.520512 0.668739
O O4 0.311505 0.388607 0.593752
O O5 0.819745 0.091624 0.362064
O O6 0.770106 0.082201 0.444841
O O7 0.870759 0.800983 0.051420
O O8 0.047323 0.023834 0.079650
O O9 0.000000 0.000000 0.000000
O O10 0.741056 0.477736 0.250000
O O11 0.869910 0.281215 0.198302
O O12 0.953555 0.551895 0.194522
O O13 0.073239 0.248524 0.133130
#
# Coordination Sequence:
#
# PCOD8231454 Si02
#       6
#     8   8   8   8   8   8
#     4  10  21  37  59  82 115 159 197 232 287 354
#     4  10  20  37  57  82 111 151 197 233 281 353
#     4  11  21  35  58  87 113 141 183 236 286 334
#     4  10  19  33  53  83 115 148 195 249 288 328
#     4  10  19  35  57  82 112 149 189 230 278 347
#     4   9  18  33  55  78 107 150 193 232 283 340
#
# _framework density 19.916608
#
# number of rings (size 3 to 8) (size 9 to 14) (size 15 to 20)
#    0.000    2.000    0.000    7.000    0.000    1.333 
#    0.000    5.000    0.000    4.000    0.000    0.000 
#    0.000    0.000    0.000    0.000    0.000    0.000 
#
# Total GULP energy -594645.141698 kJ/mol
# GULP energy per Si atom -12388.440452 kJ/mol
# Density = 1.987128 g / cm^3
# Si number density = 19.916608 Si / 1000 Ang^3
#
#
#
# Elastic Constant Matrix: (Units=GPa)
#
#
# Indices 1 2 3 4 5 6 
#
# 1 111.1198 43.6407 51.6263 0.0000 0.0000 0.0000
# 2 43.6407 100.5082 49.8629 0.0000 0.0000 0.0000
# 3 51.6263 49.8629 109.2207 0.0000 0.0000 0.0000
# 4 0.0000 0.0000 0.0000 24.3507 0.0000 0.0000
# 5 0.0000 0.0000 0.0000 0.0000 24.2398 0.0000
# 6 0.0000 0.0000 0.0000 0.0000 0.0000 30.0479
#
#
#
# Elastic Compliance Matrix: (Units=1/GPa)
#
#
# Indices 1 2 3 4 5 6 
#
# 1 0.012265 -0.003166 -0.004352 0.000000 0.000000 0.000000
# 2 -0.003166 0.013680 -0.004749 0.000000 0.000000 0.000000
# 3 -0.004352 -0.004749 0.013381 0.000000 0.000000 0.000000
# 4 0.000000 0.000000 0.000000 0.041067 0.000000 0.000000
# 5 0.000000 0.000000 0.000000 0.000000 0.041255 0.000000
# 6 0.000000 0.000000 0.000000 0.000000 0.000000 0.033280
#
#
# Mechanical properties :
#
#
# Convention : Reuss Voigt Hill
#
# Bulk Modulus (GPa) = 67.60488 67.90093 67.75291
# Shear Modulus (GPa) = 27.11627 27.44226 27.27926
#
# Velocity S-wave (km/s) = 3.69384 3.71598 3.70493
# Velocity P-wave (km/s) = 7.22567 7.25107 7.23838
#
# Compressibility (1/GPa) = 0.01479183
#
# Stress axis : x y z
#
# Youngs Moduli (GPa) = 81.53526 73.09833 74.73462
#
# Poissons Ratio (x) = 0.23146 0.32522
# Poissons Ratio (y) = 0.25817 0.35490
# Poissons Ratio (z) = 0.35481 0.34713
#
# Static dielectric constant tensor:
#      x y z
#    x 3.600660 0.000000 0.000000 
#    y 0.000000 3.665520 0.000000 
#    z 0.000000 0.000000 3.518190 
# 
# 
# High freq. dielectric constant tensor:
#      x y z
#    x 1.771690 0.000000 0.000000 
#    y 0.000000 1.784800 0.000000 
#    z 0.000000 0.000000 1.753180 
# 
# From -- ./inp_files/29436.got.cif
#   From: 2010.03.12/outbox.cif.g09.slc.cpg/sg57_15_cif.got.tgz:29436.got - 2010.04.16 15:48:40.
