data_PCOD8231960
_publ_section_title
;
Structure prediction by ZEFSAII (Michael W. Deem and Ramdas Pophale) SiO2 
 PCOD8231960
Probable space group: P B C M
;
_chemical_formula_sum "Si O2"
_cell_formula_units_Z 64
_cell_length_a 23.957888
_cell_length_b 15.100348
_cell_length_c 8.837979
_cell_angle_alpha 90.000000
_cell_angle_beta 90.000000
_cell_angle_gamma 90.000000
_cell_volume 3197.337282
_symmetry_space_group_name_H-M "P B C M"
_symmetry_group_IT_number 57
_symmetry_cell_setting 'orthorhombic'
loop_
_space_group_symop_operation_xyz
x,y,z
-x,-y,1/2+z
x,1/2-y,-z
-x,1/2+y,1/2-z
-x,-y,-z
x,y,1/2-z
-x,1/2+y,z
x,1/2-y,1/2+z
loop_
_atom_site_type_symbol
_atom_site_label
_atom_site_fract_x
_atom_site_fract_y
_atom_site_fract_z
Si Si1 0.498293 0.159911 0.929129
Si Si2 0.079488 0.498416 0.427769
Si Si3 0.602837 0.912491 0.919021
Si Si4 0.381855 0.614772 0.918838
Si Si5 0.197426 0.490165 0.928719
Si Si6 0.736800 0.337836 0.070356
Si Si7 0.009959 0.650086 0.929217
Si Si8 0.717426 0.839753 0.570905
O O1 0.500972 0.161452 0.750000
O O2 0.559733 0.140627 0.000682
O O3 0.475029 0.250000 0.000000
O O4 0.452554 0.087699 0.978096
O O5 0.076206 0.516055 0.250000
O O6 0.141206 0.474378 0.479860
O O7 0.043738 0.410601 0.471524
O O8 0.061313 0.590490 0.509043
O O9 0.586720 0.880373 0.750000
O O10 0.653994 0.855682 0.987799
O O11 0.626402 0.010624 0.913248
O O12 0.385232 0.653725 0.750000
O O13 0.326218 0.652599 0.999047
O O14 0.185508 0.486254 0.750000
O O15 0.223452 0.583090 0.980287
O O16 0.240947 0.416122 0.982268
O O17 0.733428 0.333809 0.250000
O O18 0.763907 0.250000 0.000000
O O19 0.016588 0.662373 0.750000
O O20 0.006907 0.750000 0.000000
O O21 0.740694 0.750000 0.500000
O O22 0.716450 0.834151 0.750000
#
# Coordination Sequence:
#
# PCOD8231960 Si02
#       8
#     8   8   8   8   8   8   8   8
#     4  11  22  34  50  76 106 137 177 228 285 348
#     4  10  22  39  61  91 126 161 200 246 293 340
#     4  10  19  36  58  77 103 140 182 231 288 348
#     4   9  18  35  57  77 103 140 182 228 284 350
#     4  10  21  39  60  82 115 158 199 237 287 347
#     4  10  20  37  59  82 109 147 192 235 286 344
#     4  10  21  39  64  93 126 164 202 243 289 341
#     4  10  21  37  58  81 108 148 193 238 291 348
#
# _framework density 20.016655
#
# number of rings (size 3 to 8) (size 9 to 14) (size 15 to 20)
#    0.000    2.000    1.250    2.250    0.000    5.000 
#    0.000    5.625    0.000    0.000    0.000    0.000 
#    0.000    0.000    0.000    0.000    0.000    0.000 
#
# Total GULP energy -793310.796222 kJ/mol
# GULP energy per Si atom -12395.481191 kJ/mol
# Density = 1.997110 g / cm^3
# Si number density = 20.016655 Si / 1000 Ang^3
#
#
#
# Elastic Constant Matrix: (Units=GPa)
#
#
# Indices 1 2 3 4 5 6 
#
# 1 108.6891 33.6468 32.0940 0.0000 0.0000 0.0000
# 2 33.6468 119.8542 31.0076 0.0000 0.0000 0.0000
# 3 32.0940 31.0076 51.1177 0.0000 0.0000 0.0000
# 4 0.0000 0.0000 0.0000 31.4776 0.0000 0.0000
# 5 0.0000 0.0000 0.0000 0.0000 26.3962 0.0000
# 6 0.0000 0.0000 0.0000 0.0000 0.0000 5.3366
#
#
#
# Elastic Compliance Matrix: (Units=1/GPa)
#
#
# Indices 1 2 3 4 5 6 
#
# 1 0.011554 -0.001621 -0.006271 0.000000 0.000000 0.000000
# 2 -0.001621 0.010124 -0.005123 0.000000 0.000000 0.000000
# 3 -0.006271 -0.005123 0.026607 0.000000 0.000000 0.000000
# 4 0.000000 0.000000 0.000000 0.031769 0.000000 0.000000
# 5 0.000000 0.000000 0.000000 0.000000 0.037884 0.000000
# 6 0.000000 0.000000 0.000000 0.000000 0.000000 0.187384
#
#
# Mechanical properties :
#
#
# Convention : Reuss Voigt Hill
#
# Bulk Modulus (GPa) = 44.93355 52.57310 48.75333
# Shear Modulus (GPa) = 14.75923 24.83626 19.79774
#
# Velocity S-wave (km/s) = 2.71836 3.52629 3.14835
# Velocity P-wave (km/s) = 5.68766 6.54991 6.13395
#
# Compressibility (1/GPa) = 0.02225508
#
# Stress axis : x y z
#
# Youngs Moduli (GPa) = 86.54943 98.77459 37.58339
#
# Poissons Ratio (x) = 0.16014 0.23568
# Poissons Ratio (y) = 0.14032 0.19255
# Poissons Ratio (z) = 0.54273 0.50605
#
# Static dielectric constant tensor:
#      x y z
#    x 3.707320 0.000000 0.000000 
#    y 0.000000 4.078270 0.000000 
#    z 0.000000 0.000000 3.393630 
# 
# 
# High freq. dielectric constant tensor:
#      x y z
#    x 1.785830 0.000000 0.000000 
#    y 0.000000 1.789100 0.000000 
#    z 0.000000 0.000000 1.758690 
# 
# From -- ./inp_files/9362.got.cif
#   From: 2010.03.12/outbox.cif.g09.slc.cpg/sg57_5_cif.got.tgz:9362.got - 2010.04.16 15:48:40.
