data_PCOD8231124
_publ_section_title
;
Structure prediction by ZEFSAII (Michael W. Deem and Ramdas Pophale) SiO2 
 PCOD8231124
Probable space group: P B C M
;
_chemical_formula_sum "Si O2"
_cell_formula_units_Z 48
_cell_length_a 18.452495
_cell_length_b 15.679796
_cell_length_c 8.894222
_cell_angle_alpha 90.000000
_cell_angle_beta 90.000000
_cell_angle_gamma 90.000000
_cell_volume 2573.377323
_symmetry_space_group_name_H-M "P B C M"
_symmetry_group_IT_number 57
_symmetry_cell_setting 'orthorhombic'
loop_
_space_group_symop_operation_xyz
x,y,z
-x,-y,1/2+z
x,1/2-y,-z
-x,1/2+y,1/2-z
-x,-y,-z
x,y,1/2-z
-x,1/2+y,z
x,1/2-y,1/2+z
loop_
_atom_site_type_symbol
_atom_site_label
_atom_site_fract_x
_atom_site_fract_y
_atom_site_fract_z
Si Si1 0.334953 0.488981 0.071106
Si Si2 0.424490 0.337544 0.572677
Si Si3 0.173465 0.497926 0.074424
Si Si4 0.093254 0.665963 0.071659
Si Si5 0.408801 0.836423 0.574260
Si Si6 0.031485 0.084135 0.572993
O O1 0.341258 0.477599 0.250000
O O2 0.252845 0.479180 0.008332
O O3 0.363362 0.581784 0.019681
O O4 0.381325 0.416845 0.992167
O O5 0.394977 0.250000 0.500000
O O6 0.413343 0.332468 0.750000
O O7 0.508017 0.351214 0.527036
O O8 0.182668 0.512771 0.250000
O O9 0.139986 0.586098 0.010568
O O10 0.118636 0.418490 0.042005
O O11 0.091029 0.671602 0.250000
O O12 0.129420 0.750000 0.000000
O O13 0.010154 0.661402 0.008512
O O14 0.377848 0.750000 0.500000
O O15 0.400729 0.823657 0.750000
O O16 0.015604 0.085774 0.750000
O O17 0.000000 0.000000 0.500000
#
# Coordination Sequence:
#
# PCOD8231124 Si02
#       6
#     8   8   8   8   8   8
#     4  10  19  34  54  77 105 139 171 209 260 311
#     4  10  20  35  53  76 101 132 174 219 260 305
#     4   8  17  32  50  71  99 130 161 197 246 300
#     4  10  19  32  50  74 100 129 164 205 247 295
#     4   9  19  33  52  76 105 137 172 212 256 303
#     4   9  16  30  50  70  92 123 159 196 234 282
#
# _framework density 18.652531
#
# number of rings (size 3 to 8) (size 9 to 14) (size 15 to 20)
#    0.000    2.667    0.000    3.000    0.000    2.000 
#    0.000    5.833    0.000    0.000    0.000    0.000 
#    0.000    0.000    0.000    0.000    0.000    0.000 
#
# Total GULP energy -594901.913260 kJ/mol
# GULP energy per Si atom -12393.789860 kJ/mol
# Density = 1.861008 g / cm^3
# Si number density = 18.652531 Si / 1000 Ang^3
#
#
#
# Elastic Constant Matrix: (Units=GPa)
#
#
# Indices 1 2 3 4 5 6 
#
# 1 90.0285 28.0476 25.9078 0.0000 0.0000 0.0000
# 2 28.0476 72.4076 24.7684 0.0000 0.0000 0.0000
# 3 25.9078 24.7684 58.9712 0.0000 0.0000 0.0000
# 4 0.0000 0.0000 0.0000 34.9888 0.0000 0.0000
# 5 0.0000 0.0000 0.0000 0.0000 17.1734 0.0000
# 6 0.0000 0.0000 0.0000 0.0000 0.0000 13.8765
#
#
#
# Elastic Compliance Matrix: (Units=1/GPa)
#
#
# Indices 1 2 3 4 5 6 
#
# 1 0.013533 -0.003747 -0.004372 0.000000 0.000000 0.000000
# 2 -0.003747 0.017165 -0.005563 0.000000 0.000000 0.000000
# 3 -0.004372 -0.005563 0.021215 0.000000 0.000000 0.000000
# 4 0.000000 0.000000 0.000000 0.028581 0.000000 0.000000
# 5 0.000000 0.000000 0.000000 0.000000 0.058229 0.000000
# 6 0.000000 0.000000 0.000000 0.000000 0.000000 0.072064
#
#
# Mechanical properties :
#
#
# Convention : Reuss Voigt Hill
#
# Bulk Modulus (GPa) = 40.73485 42.09500 41.41492
# Shear Modulus (GPa) = 20.29768 22.72000 21.50884
#
# Velocity S-wave (km/s) = 3.30237 3.49387 3.39946
# Velocity P-wave (km/s) = 6.03548 6.23643 6.13678
#
# Compressibility (1/GPa) = 0.02454900
#
# Stress axis : x y z
#
# Youngs Moduli (GPa) = 73.89396 58.25780 47.13693
#
# Poissons Ratio (x) = 0.21827 0.20607
# Poissons Ratio (y) = 0.27685 0.26224
# Poissons Ratio (z) = 0.32305 0.32412
#
# Static dielectric constant tensor:
#      x y z
#    x 3.810390 0.000000 0.000000 
#    y 0.000000 3.548940 0.000000 
#    z 0.000000 0.000000 3.367350 
# 
# 
# High freq. dielectric constant tensor:
#      x y z
#    x 1.719020 0.000000 0.000000 
#    y 0.000000 1.719330 0.000000 
#    z 0.000000 0.000000 1.712580 
# 
# From -- ./inp_files/6542.got.cif
#   From: 2010.03.12/outbox.cif.g09.slc.cpg/sg57_4_cif.got.tgz:6542.got - 2010.04.16 15:48:40.
