data_PCOD8231469
_publ_section_title
;
Structure prediction by ZEFSAII (Michael W. Deem and Ramdas Pophale) SiO2 
 PCOD8231469
Probable space group: P B C M
;
_chemical_formula_sum "Si O2"
_cell_formula_units_Z 64
_cell_length_a 19.738038
_cell_length_b 19.958934
_cell_length_c 9.004299
_cell_angle_alpha 90.000000
_cell_angle_beta 90.000000
_cell_angle_gamma 90.000000
_cell_volume 3547.245371
_symmetry_space_group_name_H-M "P B C M"
_symmetry_group_IT_number 57
_symmetry_cell_setting 'orthorhombic'
loop_
_space_group_symop_operation_xyz
x,y,z
-x,-y,1/2+z
x,1/2-y,-z
-x,1/2+y,1/2-z
-x,-y,-z
x,y,1/2-z
-x,1/2+y,z
x,1/2-y,1/2+z
loop_
_atom_site_type_symbol
_atom_site_label
_atom_site_fract_x
_atom_site_fract_y
_atom_site_fract_z
Si Si1 0.575069 0.180810 0.425877
Si Si2 0.054524 0.682958 0.077050
Si Si3 0.099612 0.181369 0.425500
Si Si4 0.170260 0.582940 0.422415
Si Si5 0.188720 0.429878 0.422894
Si Si6 0.694473 0.392048 0.078116
Si Si7 0.526307 0.934069 0.576908
Si Si8 0.676640 0.546262 0.079597
O O1 0.553743 0.250000 0.500000
O O2 0.578986 0.188710 0.250000
O O3 0.647895 0.157984 0.485384
O O4 0.517259 0.128955 0.476923
O O5 0.057619 0.697315 0.250000
O O6 0.100541 0.619496 0.032964
O O7 0.977907 0.667169 0.026496
O O8 0.082411 0.750000 0.000000
O O9 0.125525 0.250000 0.500000
O O10 0.108175 0.187730 0.250000
O O11 0.143388 0.120087 0.483365
O O12 0.188662 0.593176 0.250000
O O13 0.161990 0.504458 0.458674
O O14 0.229136 0.615854 0.520255
O O15 0.183304 0.412292 0.250000
O O16 0.266673 0.422281 0.473133
O O17 0.691696 0.371559 0.250000
O O18 0.668510 0.467209 0.051044
O O19 0.517334 0.946840 0.750000
O O20 0.605025 0.919852 0.538417
O O21 0.500000 0.000000 0.500000
O O22 0.697552 0.559926 0.250000
#
# Coordination Sequence:
#
# PCOD8231469 Si02
#       8
#     8   8   8   8   8   8   8   8
#     4  11  23  37  54  78 110 145 181 223 272 322
#     4   9  19  35  54  76 104 141 181 223 269 322
#     4  10  20  36  57  79 105 139 180 224 274 329
#     4   9  19  35  53  77 112 146 180 222 268 319
#     4  10  20  34  54  81 110 142 180 223 270 320
#     4  10  19  33  54  78 106 141 180 219 266 320
#     4  10  20  35  58  83 106 139 181 225 273 323
#     4   9  18  34  55  80 108 138 175 221 268 319
#
# _framework density 18.042168
#
# number of rings (size 3 to 8) (size 9 to 14) (size 15 to 20)
#    0.000    2.250    1.250    1.500    0.000    4.000 
#    0.000    1.875    0.000    1.500    0.000    0.000 
#    0.000    0.000    0.000    0.000    0.000    0.000 
#
# Total GULP energy -793797.558469 kJ/mol
# GULP energy per Si atom -12403.086851 kJ/mol
# Density = 1.800110 g / cm^3
# Si number density = 18.042168 Si / 1000 Ang^3
#
#
#
# Elastic Constant Matrix: (Units=GPa)
#
#
# Indices 1 2 3 4 5 6 
#
# 1 103.0879 73.3159 46.1189 0.0000 0.0000 0.0000
# 2 73.3159 116.7681 53.1728 0.0000 0.0000 0.0000
# 3 46.1189 53.1728 73.9812 0.0000 0.0000 0.0000
# 4 0.0000 0.0000 0.0000 32.2008 0.0000 0.0000
# 5 0.0000 0.0000 0.0000 0.0000 28.4380 0.0000
# 6 0.0000 0.0000 0.0000 0.0000 0.0000 27.1881
#
#
#
# Elastic Compliance Matrix: (Units=1/GPa)
#
#
# Indices 1 2 3 4 5 6 
#
# 1 0.018588 -0.009506 -0.004756 0.000000 0.000000 0.000000
# 2 -0.009506 0.017591 -0.006718 0.000000 0.000000 0.000000
# 3 -0.004756 -0.006718 0.021310 0.000000 0.000000 0.000000
# 4 0.000000 0.000000 0.000000 0.031055 0.000000 0.000000
# 5 0.000000 0.000000 0.000000 0.000000 0.035164 0.000000
# 6 0.000000 0.000000 0.000000 0.000000 0.000000 0.036781
#
#
# Mechanical properties :
#
#
# Convention : Reuss Voigt Hill
#
# Bulk Modulus (GPa) = 64.38599 71.00583 67.69591
# Shear Modulus (GPa) = 24.08177 25.64734 24.86456
#
# Velocity S-wave (km/s) = 3.65739 3.77440 3.71635
# Velocity P-wave (km/s) = 7.32114 7.64432 7.48448
#
# Compressibility (1/GPa) = 0.01553133
#
# Stress axis : x y z
#
# Youngs Moduli (GPa) = 53.79685 56.84572 46.92620
#
# Poissons Ratio (x) = 0.54035 0.22317
# Poissons Ratio (y) = 0.51137 0.31525
# Poissons Ratio (z) = 0.25585 0.38189
#
# Static dielectric constant tensor:
#      x y z
#    x 3.455580 0.000000 0.000000 
#    y 0.000000 3.312310 0.000000 
#    z 0.000000 0.000000 3.374000 
# 
# 
# High freq. dielectric constant tensor:
#      x y z
#    x 1.702160 0.000000 0.000000 
#    y 0.000000 1.687900 0.000000 
#    z 0.000000 0.000000 1.705110 
# 
# From -- ./inp_files/8606.got.cif
#   From: 2010.03.12/outbox.cif.g09.slc.cpg/sg57_5_cif.got.tgz:8606.got - 2010.04.16 15:48:40.
