data_PCOD8231655
_publ_section_title
;
Structure prediction by ZEFSAII (Michael W. Deem and Ramdas Pophale) SiO2 
 PCOD8231655
Probable space group: P B C M
;
_chemical_formula_sum "Si O2"
_cell_formula_units_Z 48
_cell_length_a 9.018105
_cell_length_b 18.161209
_cell_length_c 16.086388
_cell_angle_alpha 90.000000
_cell_angle_beta 90.000000
_cell_angle_gamma 90.000000
_cell_volume 2634.623635
_symmetry_space_group_name_H-M "P B C M"
_symmetry_group_IT_number 57
_symmetry_cell_setting 'orthorhombic'
loop_
_space_group_symop_operation_xyz
x,y,z
-x,-y,1/2+z
x,1/2-y,-z
-x,1/2+y,1/2-z
-x,-y,-z
x,y,1/2-z
-x,1/2+y,z
x,1/2-y,1/2+z
loop_
_atom_site_type_symbol
_atom_site_label
_atom_site_fract_x
_atom_site_fract_y
_atom_site_fract_z
Si Si1 0.405372 0.324358 0.656705
Si Si2 0.100253 0.209943 0.415016
Si Si3 0.581183 0.922669 0.501970
Si Si4 0.397127 0.796560 0.080146
Si Si5 0.089562 0.832743 0.153308
Si Si6 0.923974 0.576045 0.980365
O O1 0.424299 0.353909 0.750000
O O2 0.241170 0.292065 0.644764
O O3 0.428335 0.393562 0.596264
O O4 0.522229 0.258932 0.642781
O O5 0.151459 0.250000 0.500000
O O6 0.040476 0.129617 0.441566
O O7 0.969899 0.250919 0.366240
O O8 0.507536 0.862538 0.442404
O O9 0.748230 0.933766 0.470231
O O10 0.500000 0.000000 0.500000
O O11 0.258778 0.835283 0.124076
O O12 0.344521 0.750000 0.000000
O O13 0.078669 0.851566 0.250000
O O14 0.991441 0.892739 0.105063
O O15 0.000000 0.500000 0.000000
#
# Coordination Sequence:
#
# PCOD8231655 Si02
#       6
#     8   8   8   8   8   8
#     4  10  19  34  55  81 106 133 173 225 268 310
#     4   9  18  34  55  77 104 140 175 209 265 328
#     4  10  21  37  56  77 106 147 183 212 262 329
#     4  10  19  34  55  77 107 143 177 213 263 323
#     4  11  21  34  54  83 108 134 177 228 266 306
#     4  10  20  37  57  77 106 145 181 215 265 328
#
# _framework density 18.218921000000002
#
# number of rings (size 3 to 8) (size 9 to 14) (size 15 to 20)
#    0.000    2.000    0.000    7.000    0.000    1.333 
#    0.000   10.833    0.000    0.000    0.000    0.000 
#    0.000    0.000    0.000    0.000    0.000    0.000 
#
# Total GULP energy -595284.499999 kJ/mol
# GULP energy per Si atom -12401.760417 kJ/mol
# Density = 1.817745 g / cm^3
# Si number density = 18.218921 Si / 1000 Ang^3
#
#
#
# Elastic Constant Matrix: (Units=GPa)
#
#
# Indices 1 2 3 4 5 6 
#
# 1 134.6811 65.9478 67.1590 0.0000 0.0000 0.0000
# 2 65.9478 121.3817 47.1331 0.0000 0.0000 0.0000
# 3 67.1590 47.1331 130.0781 0.0000 0.0000 0.0000
# 4 0.0000 0.0000 0.0000 14.2111 0.0000 0.0000
# 5 0.0000 0.0000 0.0000 0.0000 19.7275 0.0000
# 6 0.0000 0.0000 0.0000 0.0000 0.0000 35.5989
#
#
#
# Elastic Compliance Matrix: (Units=1/GPa)
#
#
# Indices 1 2 3 4 5 6 
#
# 1 0.011990 -0.004783 -0.004457 0.000000 0.000000 0.000000
# 2 -0.004783 0.011496 -0.001696 0.000000 0.000000 0.000000
# 3 -0.004457 -0.001696 0.010603 0.000000 0.000000 0.000000
# 4 0.000000 0.000000 0.000000 0.070367 0.000000 0.000000
# 5 0.000000 0.000000 0.000000 0.000000 0.050691 0.000000
# 6 0.000000 0.000000 0.000000 0.000000 0.000000 0.028091
#
#
# Mechanical properties :
#
#
# Convention : Reuss Voigt Hill
#
# Bulk Modulus (GPa) = 81.85724 82.95784 82.40754
# Shear Modulus (GPa) = 23.90261 27.63423 25.76842
#
# Velocity S-wave (km/s) = 3.62604 3.89882 3.76490
# Velocity P-wave (km/s) = 7.90937 8.11791 8.01432
#
# Compressibility (1/GPa) = 0.01221639
#
# Stress axis : x y z
#
# Youngs Moduli (GPa) = 83.40501 86.98804 94.31038
#
# Poissons Ratio (x) = 0.41610 0.42034
# Poissons Ratio (y) = 0.39896 0.15993
# Poissons Ratio (z) = 0.37174 0.14751
#
# Static dielectric constant tensor:
#      x y z
#    x 3.432990 0.000000 0.000000 
#    y 0.000000 3.430830 0.000000 
#    z 0.000000 0.000000 3.257550 
# 
# 
# High freq. dielectric constant tensor:
#      x y z
#    x 1.718540 0.000000 0.000000 
#    y 0.000000 1.702540 0.000000 
#    z 0.000000 0.000000 1.693620 
# 
# From -- ./inp_files/16353.got.cif
#   From: 2010.03.12/outbox.cif.g09.slc.cpg/sg57_9_cif.got.tgz:16353.got - 2010.04.16 15:48:40.
