data_PCOD8231242
_publ_section_title
;
Structure prediction by ZEFSAII (Michael W. Deem and Ramdas Pophale) SiO2 
 PCOD8231242
Probable space group: P B C M
;
_chemical_formula_sum "Si O2"
_cell_formula_units_Z 56
_cell_length_a 19.569270
_cell_length_b 18.695368
_cell_length_c 8.698372
_cell_angle_alpha 90.000000
_cell_angle_beta 90.000000
_cell_angle_gamma 90.000000
_cell_volume 3182.340315
_symmetry_space_group_name_H-M "P B C M"
_symmetry_group_IT_number 57
_symmetry_cell_setting 'orthorhombic'
loop_
_space_group_symop_operation_xyz
x,y,z
-x,-y,1/2+z
x,1/2-y,-z
-x,1/2+y,1/2-z
-x,-y,-z
x,y,1/2-z
-x,1/2+y,z
x,1/2-y,1/2+z
loop_
_atom_site_type_symbol
_atom_site_label
_atom_site_fract_x
_atom_site_fract_y
_atom_site_fract_z
Si Si1 0.379628 0.676562 0.070857
Si Si2 0.056699 0.829514 0.067328
Si Si3 0.959384 0.934462 0.930694
Si Si4 0.303844 0.555735 0.570208
Si Si5 0.151099 0.539816 0.929437
Si Si6 0.523198 0.825741 0.068718
Si Si7 0.433913 0.461946 0.570414
O O1 0.395828 0.684455 0.250000
O O2 0.354129 0.750000 0.000000
O O3 0.318389 0.623313 0.036802
O O4 0.447737 0.650275 0.984412
O O5 0.057333 0.822755 0.250000
O O6 0.112302 0.888629 0.003915
O O7 0.070510 0.750000 0.000000
O O8 0.982133 0.860282 0.013058
O O9 0.972712 0.925804 0.750000
O O10 0.882092 0.961694 0.967000
O O11 0.000000 0.000000 0.000000
O O12 0.305193 0.576368 0.750000
O O13 0.229049 0.531280 0.514685
O O14 0.361819 0.498103 0.531919
O O15 0.148001 0.553377 0.750000
O O16 0.525674 0.822051 0.250000
O O17 0.544378 0.750000 0.000000
O O18 0.575544 0.884019 0.004431
O O19 0.500000 0.500000 0.500000
O O20 0.447382 0.456164 0.750000
#
# Coordination Sequence:
#
# PCOD8231242 Si02
#       7
#     8   8   8   8   8   8   8
#     4  11  21  33  49  70  99 131 169 209 256 312
#     4  10  19  32  52  79 109 139 173 212 251 299
#     4   9  16  30  52  76 102 133 170 210 249 295
#     4  10  20  35  53  74 102 138 174 211 260 310
#     4   8  17  33  52  74 103 138 174 210 253 307
#     4  11  21  35  54  74  98 127 165 214 268 318
#     4  11  21  33  53  77 104 134 174 221 266 313
#
# _framework density 17.597113
#
# number of rings (size 3 to 8) (size 9 to 14) (size 15 to 20)
#    0.000    2.000    1.429    5.571    0.000    1.143 
#    0.000    5.714    0.000    0.857    0.000    0.000 
#    0.000    0.000    0.000    0.000    0.000    0.000 
#
# Total GULP energy -693880.625190 kJ/mol
# GULP energy per Si atom -12390.725450 kJ/mol
# Density = 1.755706 g / cm^3
# Si number density = 17.597113 Si / 1000 Ang^3
#
#
#
# Elastic Constant Matrix: (Units=GPa)
#
#
# Indices 1 2 3 4 5 6 
#
# 1 109.6485 73.9361 49.3502 0.0000 0.0000 0.0000
# 2 73.9361 96.3490 34.8618 0.0000 0.0000 0.0000
# 3 49.3502 34.8618 91.6054 0.0000 0.0000 0.0000
# 4 0.0000 0.0000 0.0000 32.1359 0.0000 0.0000
# 5 0.0000 0.0000 0.0000 0.0000 18.0320 0.0000
# 6 0.0000 0.0000 0.0000 0.0000 0.0000 27.2491
#
#
#
# Elastic Compliance Matrix: (Units=1/GPa)
#
#
# Indices 1 2 3 4 5 6 
#
# 1 0.021530 -0.014293 -0.006159 0.000000 0.000000 0.000000
# 2 -0.014293 0.021525 -0.000492 0.000000 0.000000 0.000000
# 3 -0.006159 -0.000492 0.014422 0.000000 0.000000 0.000000
# 4 0.000000 0.000000 0.000000 0.031118 0.000000 0.000000
# 5 0.000000 0.000000 0.000000 0.000000 0.055457 0.000000
# 6 0.000000 0.000000 0.000000 0.000000 0.000000 0.036698
#
#
# Mechanical properties :
#
#
# Convention : Reuss Voigt Hill
#
# Bulk Modulus (GPa) = 64.14919 68.21102 66.18010
# Shear Modulus (GPa) = 21.94576 24.78037 23.36306
#
# Velocity S-wave (km/s) = 3.53529 3.75668 3.64767
# Velocity P-wave (km/s) = 7.29369 7.59366 7.44518
#
# Compressibility (1/GPa) = 0.01558866
#
# Stress axis : x y z
#
# Youngs Moduli (GPa) = 46.44663 46.45756 69.33998
#
# Poissons Ratio (x) = 0.66402 0.42709
# Poissons Ratio (y) = 0.66387 0.03409
# Poissons Ratio (z) = 0.28608 0.02284
#
# Static dielectric constant tensor:
#      x y z
#    x 3.522850 0.000000 0.000000 
#    y 0.000000 3.522650 0.000000 
#    z 0.000000 0.000000 3.271420 
# 
# 
# High freq. dielectric constant tensor:
#      x y z
#    x 1.657340 0.000000 0.000000 
#    y 0.000000 1.679180 0.000000 
#    z 0.000000 0.000000 1.683760 
# 
# From -- ./inp_files/7081.got.cif
#   From: 2010.03.12/outbox.cif.g09.slc.cpg/sg57_4_cif.got.tgz:7081.got - 2010.04.16 15:48:40.
