data_PCOD8231291
_publ_section_title
;
Structure prediction by ZEFSAII (Michael W. Deem and Ramdas Pophale) SiO2 
 PCOD8231291
Probable space group: P B C M
;
_chemical_formula_sum "Si O2"
_cell_formula_units_Z 56
_cell_length_a 22.690780
_cell_length_b 14.145250
_cell_length_c 8.771678
_cell_angle_alpha 90.000000
_cell_angle_beta 90.000000
_cell_angle_gamma 90.000000
_cell_volume 2815.417031
_symmetry_space_group_name_H-M "P B C M"
_symmetry_group_IT_number 57
_symmetry_cell_setting 'orthorhombic'
loop_
_space_group_symop_operation_xyz
x,y,z
-x,-y,1/2+z
x,1/2-y,-z
-x,1/2+y,1/2-z
-x,-y,-z
x,y,1/2-z
-x,1/2+y,z
x,1/2-y,1/2+z
loop_
_atom_site_type_symbol
_atom_site_label
_atom_site_fract_x
_atom_site_fract_y
_atom_site_fract_z
Si Si1 0.850550 0.848564 0.569630
Si Si2 0.526994 0.850848 0.070931
Si Si3 0.812621 0.030110 0.069017
Si Si4 0.299724 0.647094 0.428982
Si Si5 0.419165 0.547082 0.071489
Si Si6 0.982706 0.599348 0.069138
Si Si7 0.904197 0.340643 0.430343
O O1 0.830073 0.750000 0.500000
O O2 0.843001 0.849040 0.750000
O O3 0.917753 0.868760 0.519234
O O4 0.805998 0.924269 0.494430
O O5 0.525649 0.835675 0.250000
O O6 0.571700 0.936566 0.024749
O O7 0.546521 0.750000 0.000000
O O8 0.462463 0.881968 0.016195
O O9 0.817707 0.030079 0.250000
O O10 0.758686 0.094487 0.010721
O O11 0.873098 0.066063 0.993287
O O12 0.306666 0.750000 0.500000
O O13 0.296386 0.661475 0.250000
O O14 0.353726 0.578908 0.474402
O O15 0.431762 0.559744 0.250000
O O16 0.989192 0.596756 0.250000
O O17 0.000000 0.500000 0.000000
O O18 0.029622 0.670154 0.994461
O O19 0.869437 0.250000 0.500000
O O20 0.903082 0.341546 0.250000
#
# Coordination Sequence:
#
# PCOD8231291 Si02
#       7
#     8   8   8   8   8   8   8
#     4  11  24  41  62  86 112 147 188 232 284 343
#     4  10  19  32  54  84 119 157 195 238 286 338
#     4  11  23  40  61  83 112 147 188 236 285 339
#     4  10  22  39  60  86 114 150 190 235 287 338
#     4   9  19  36  56  82 118 155 196 240 285 340
#     4  11  22  37  59  86 115 146 182 227 282 342
#     4  12  24  38  57  83 114 147 185 229 282 341
#
# _framework density 19.890481000000001
#
# number of rings (size 3 to 8) (size 9 to 14) (size 15 to 20)
#    0.000    1.429    1.429    4.286    0.000    7.429 
#    0.000    0.714    0.000    1.714    0.000    0.000 
#    0.000    0.000    0.000    0.000    0.000    0.000 
#
# Total GULP energy -694388.519798 kJ/mol
# GULP energy per Si atom -12399.794996 kJ/mol
# Density = 1.984521 g / cm^3
# Si number density = 19.890481 Si / 1000 Ang^3
#
#
#
# Elastic Constant Matrix: (Units=GPa)
#
#
# Indices 1 2 3 4 5 6 
#
# 1 89.1751 48.9675 35.3975 0.0000 0.0000 0.0000
# 2 48.9675 161.6685 49.7890 0.0000 0.0000 0.0000
# 3 35.3975 49.7890 90.6458 0.0000 0.0000 0.0000
# 4 0.0000 0.0000 0.0000 39.2251 0.0000 0.0000
# 5 0.0000 0.0000 0.0000 0.0000 22.3625 0.0000
# 6 0.0000 0.0000 0.0000 0.0000 0.0000 29.7393
#
#
#
# Elastic Compliance Matrix: (Units=1/GPa)
#
#
# Indices 1 2 3 4 5 6 
#
# 1 0.014522 -0.003192 -0.003918 0.000000 0.000000 0.000000
# 2 -0.003192 0.008146 -0.003228 0.000000 0.000000 0.000000
# 3 -0.003918 -0.003228 0.014335 0.000000 0.000000 0.000000
# 4 0.000000 0.000000 0.000000 0.025494 0.000000 0.000000
# 5 0.000000 0.000000 0.000000 0.000000 0.044718 0.000000
# 6 0.000000 0.000000 0.000000 0.000000 0.000000 0.033625
#
#
# Mechanical properties :
#
#
# Convention : Reuss Voigt Hill
#
# Bulk Modulus (GPa) = 61.24528 67.75527 64.50027
# Shear Modulus (GPa) = 29.94765 32.08775 31.01770
#
# Velocity S-wave (km/s) = 3.88445 4.02085 3.95324
# Velocity P-wave (km/s) = 7.13980 7.46287 7.30312
#
# Compressibility (1/GPa) = 0.01632779
#
# Stress axis : x y z
#
# Youngs Moduli (GPa) = 68.86247 122.75241 69.75989
#
# Poissons Ratio (x) = 0.39182 0.27329
# Poissons Ratio (y) = 0.21981 0.22519
# Poissons Ratio (z) = 0.26977 0.39626
#
# Static dielectric constant tensor:
#      x y z
#    x 3.621710 0.000000 0.000000 
#    y 0.000000 3.938430 0.000000 
#    z 0.000000 0.000000 3.562690 
# 
# 
# High freq. dielectric constant tensor:
#      x y z
#    x 1.752520 0.000000 0.000000 
#    y 0.000000 1.798130 0.000000 
#    z 0.000000 0.000000 1.779980 
# 
# From -- ./inp_files/8116.got.cif
#   From: 2010.03.12/outbox.cif.g09.slc.cpg/sg57_5_cif.got.tgz:8116.got - 2010.04.16 15:48:40.
