data_PCOD8231945
_publ_section_title
;
Structure prediction by ZEFSAII (Michael W. Deem and Ramdas Pophale) SiO2 
 PCOD8231945
Probable space group: P B C M
;
_chemical_formula_sum "Si O2"
_cell_formula_units_Z 48
_cell_length_a 14.207555
_cell_length_b 8.446061
_cell_length_c 17.797474
_cell_angle_alpha 90.000000
_cell_angle_beta 90.000000
_cell_angle_gamma 90.000000
_cell_volume 2135.659082
_symmetry_space_group_name_H-M "P B C M"
_symmetry_group_IT_number 57
_symmetry_cell_setting 'orthorhombic'
loop_
_space_group_symop_operation_xyz
x,y,z
-x,-y,1/2+z
x,1/2-y,-z
-x,1/2+y,1/2-z
-x,-y,-z
x,y,1/2-z
-x,1/2+y,z
x,1/2-y,1/2+z
loop_
_atom_site_type_symbol
_atom_site_label
_atom_site_fract_x
_atom_site_fract_y
_atom_site_fract_z
Si Si1 0.284404 0.012046 0.562653
Si Si2 0.216357 0.736318 0.833087
Si Si3 0.446927 0.282669 0.087116
Si Si4 0.365780 0.540119 0.601839
Si Si5 0.046842 0.986526 0.163352
Si Si6 0.100730 0.296498 0.080012
O O1 0.377038 0.072288 0.607745
O O2 0.208203 0.152857 0.564802
O O3 0.241496 0.859745 0.602660
O O4 0.312931 0.967173 0.478117
O O5 0.221646 0.813143 0.750000
O O6 0.289269 0.589722 0.836574
O O7 0.112660 0.667078 0.847028
O O8 0.554649 0.323470 0.102554
O O9 0.414799 0.122532 0.129050
O O10 0.431837 0.250000 0.000000
O O11 0.020327 0.015072 0.250000
O O12 0.952682 0.946314 0.116902
O O13 0.097714 0.144196 0.133877
O O14 0.054276 0.250000 0.000000
#
# Coordination Sequence:
#
# PCOD8231945 Si02
#       6
#     8   8   8   8   8   8
#     4  11  22  38  63  92 123 158 202 255 311 368
#     4  11  24  41  60  87 123 164 208 252 303 367
#     4  10  19  35  62  92 119 155 200 246 305 374
#     4  11  21  39  64  91 122 159 203 253 307 367
#     4  11  25  44  65  89 126 173 210 249 314 387
#     4  12  24  41  66  97 125 155 208 269 315 361
#
# _framework density 22.475498000000002
#
# number of rings (size 3 to 8) (size 9 to 14) (size 15 to 20)
#    0.000    1.000    0.000   10.000    0.000    4.000 
#    0.000    4.167    0.000    0.000    0.000    0.000 
#    0.000    0.000    0.000    0.000    0.000    0.000 
#
# Total GULP energy -595264.747366 kJ/mol
# GULP energy per Si atom -12401.348903 kJ/mol
# Density = 2.242434 g / cm^3
# Si number density = 22.475498 Si / 1000 Ang^3
#
#
#
# Elastic Constant Matrix: (Units=GPa)
#
#
# Indices 1 2 3 4 5 6 
#
# 1 97.9719 4.0762 32.5516 0.0000 0.0000 0.0000
# 2 4.0762 68.4151 19.4745 0.0000 0.0000 0.0000
# 3 32.5516 19.4745 78.3231 0.0000 0.0000 0.0000
# 4 0.0000 0.0000 0.0000 23.7216 0.0000 0.0000
# 5 0.0000 0.0000 0.0000 0.0000 14.7181 0.0000
# 6 0.0000 0.0000 0.0000 0.0000 0.0000 45.6996
#
#
#
# Elastic Compliance Matrix: (Units=1/GPa)
#
#
# Indices 1 2 3 4 5 6 
#
# 1 0.011878 0.000751 -0.005123 0.000000 0.000000 0.000000
# 2 0.000751 0.015777 -0.004235 0.000000 0.000000 0.000000
# 3 -0.005123 -0.004235 0.015950 0.000000 0.000000 0.000000
# 4 0.000000 0.000000 0.000000 0.042156 0.000000 0.000000
# 5 0.000000 0.000000 0.000000 0.000000 0.067944 0.000000
# 6 0.000000 0.000000 0.000000 0.000000 0.000000 0.021882
#
#
# Mechanical properties :
#
#
# Convention : Reuss Voigt Hill
#
# Bulk Modulus (GPa) = 37.89276 39.65719 38.77497
# Shear Modulus (GPa) = 24.80181 29.40171 27.10176
#
# Velocity S-wave (km/s) = 3.32551 3.62078 3.47628
# Velocity P-wave (km/s) = 5.62508 5.92984 5.77947
#
# Compressibility (1/GPa) = 0.02639027
#
# Stress axis : x y z
#
# Youngs Moduli (GPa) = 84.18932 63.38180 62.69651
#
# Poissons Ratio (x) = -0.04758 0.32121
# Poissons Ratio (y) = -0.06320 0.26551
# Poissons Ratio (z) = 0.43132 0.26842
#
# Static dielectric constant tensor:
#      x y z
#    x 4.233370 0.000000 0.000000 
#    y 0.000000 4.259500 0.000000 
#    z 0.000000 0.000000 3.720430 
# 
# 
# High freq. dielectric constant tensor:
#      x y z
#    x 1.902570 0.000000 0.000000 
#    y 0.000000 1.899930 0.000000 
#    z 0.000000 0.000000 1.852650 
# 
# From -- ./inp_files/22470.got.cif
#   From: 2010.03.12/outbox.cif.g09.slc.cpg/sg57_12_cif.got.tgz:22470.got - 2010.04.16 15:48:40.
