data_PCOD8231314
_publ_section_title
;
Structure prediction by ZEFSAII (Michael W. Deem and Ramdas Pophale) SiO2 
 PCOD8231314
Probable space group: P B C M
;
_chemical_formula_sum "Si O2"
_cell_formula_units_Z 40
_cell_length_a 14.288919
_cell_length_b 15.622100
_cell_length_c 9.072354
_cell_angle_alpha 90.000000
_cell_angle_beta 90.000000
_cell_angle_gamma 90.000000
_cell_volume 2025.157365
_symmetry_space_group_name_H-M "P B C M"
_symmetry_group_IT_number 57
_symmetry_cell_setting 'orthorhombic'
loop_
_space_group_symop_operation_xyz
x,y,z
-x,-y,1/2+z
x,1/2-y,-z
-x,1/2+y,1/2-z
-x,-y,-z
x,y,1/2-z
-x,1/2+y,z
x,1/2-y,1/2+z
loop_
_atom_site_type_symbol
_atom_site_label
_atom_site_fract_x
_atom_site_fract_y
_atom_site_fract_z
Si Si1 0.599347 0.999441 0.075932
Si Si2 0.281016 0.334920 0.075832
Si Si3 0.710855 0.334724 0.580343
Si Si4 0.899977 0.417909 0.581993
Si Si5 0.109301 0.092643 0.080172
O O1 0.585826 0.000965 0.250000
O O2 0.655665 0.914983 0.027299
O O3 0.656650 0.082024 0.019970
O O4 0.500000 0.000000 0.000000
O O5 0.278698 0.322549 0.250000
O O6 0.323519 0.250000 0.000000
O O7 0.175386 0.347752 0.017988
O O8 0.674423 0.250000 0.500000
O O9 0.687348 0.321700 0.750000
O O10 0.821783 0.346164 0.552293
O O11 0.890063 0.453374 0.750000
O O12 0.882311 0.494623 0.469588
O O13 0.002083 0.376263 0.557652
O O14 0.140226 0.099482 0.250000
#
# Coordination Sequence:
#
# PCOD8231314 Si02
#       5
#     8   8   8   8   8
#     4  10  23  43  65  85 115 152 190 243 303 353
#     4  11  23  41  62  87 121 158 196 245 297 351
#     4  10  21  39  60  86 119 155 192 236 289 345
#     4   9  18  35  56  82 122 161 197 240 290 344
#     4  10  19  32  57  89 118 158 202 240 287 347
#
# _framework density 19.751550000000002
#
# number of rings (size 3 to 8) (size 9 to 14) (size 15 to 20)
#    0.000    2.000    2.000    1.200    0.000    5.600 
#    0.000    6.000    0.000    0.000    0.000    0.000 
#    0.000    0.000    0.000    0.000    0.000    0.000 
#
# Total GULP energy -496072.842268 kJ/mol
# GULP energy per Si atom -12401.821057 kJ/mol
# Density = 1.970659 g / cm^3
# Si number density = 19.751550 Si / 1000 Ang^3
#
#
#
# Elastic Constant Matrix: (Units=GPa)
#
#
# Indices 1 2 3 4 5 6 
#
# 1 124.1334 69.1889 47.2028 0.0000 0.0000 0.0000
# 2 69.1889 155.6165 54.8211 0.0000 0.0000 0.0000
# 3 47.2028 54.8211 68.5680 0.0000 0.0000 0.0000
# 4 0.0000 0.0000 0.0000 36.7316 0.0000 0.0000
# 5 0.0000 0.0000 0.0000 0.0000 33.4782 0.0000
# 6 0.0000 0.0000 0.0000 0.0000 0.0000 12.7269
#
#
#
# Elastic Compliance Matrix: (Units=1/GPa)
#
#
# Indices 1 2 3 4 5 6 
#
# 1 0.012079 -0.003398 -0.005598 0.000000 0.000000 0.000000
# 2 -0.003398 0.009902 -0.005577 0.000000 0.000000 0.000000
# 3 -0.005598 -0.005577 0.022897 0.000000 0.000000 0.000000
# 4 0.000000 0.000000 0.000000 0.027225 0.000000 0.000000
# 5 0.000000 0.000000 0.000000 0.000000 0.029870 0.000000
# 6 0.000000 0.000000 0.000000 0.000000 0.000000 0.078574
#
#
# Mechanical properties :
#
#
# Convention : Reuss Voigt Hill
#
# Bulk Modulus (GPa) = 63.57201 76.74928 70.16065
# Shear Modulus (GPa) = 23.26268 28.39432 25.82850
#
# Velocity S-wave (km/s) = 3.43558 3.79565 3.62009
# Velocity P-wave (km/s) = 6.92772 7.62568 7.28506
#
# Compressibility (1/GPa) = 0.01573019
#
# Stress axis : x y z
#
# Youngs Moduli (GPa) = 82.79061 100.99295 43.67398
#
# Poissons Ratio (x) = 0.34319 0.24449
# Poissons Ratio (y) = 0.28134 0.24358
# Poissons Ratio (z) = 0.46348 0.56326
#
# Static dielectric constant tensor:
#      x y z
#    x 3.650290 0.000000 0.000000 
#    y 0.000000 3.536070 0.000000 
#    z 0.000000 0.000000 3.548040 
# 
# 
# High freq. dielectric constant tensor:
#      x y z
#    x 1.770410 0.000000 0.000000 
#    y 0.000000 1.762480 0.000000 
#    z 0.000000 0.000000 1.768130 
# 
# From -- ./inp_files/4260.got.cif
#   From: 2010.03.12/outbox.cif.g09.slc.cpg/sg57_3_cif.got.tgz:4260.got - 2010.04.16 15:48:40.
