data_PCOD8231899
_publ_section_title
;
Structure prediction by ZEFSAII (Michael W. Deem and Ramdas Pophale) SiO2 
 PCOD8231899
Probable space group: P B C M
;
_chemical_formula_sum "Si O2"
_cell_formula_units_Z 64
_cell_length_a 20.127383
_cell_length_b 18.326107
_cell_length_c 9.288823
_cell_angle_alpha 90.000000
_cell_angle_beta 90.000000
_cell_angle_gamma 90.000000
_cell_volume 3426.243433
_symmetry_space_group_name_H-M "P B C M"
_symmetry_group_IT_number 57
_symmetry_cell_setting 'orthorhombic'
loop_
_space_group_symop_operation_xyz
x,y,z
-x,-y,1/2+z
x,1/2-y,-z
-x,1/2+y,1/2-z
-x,-y,-z
x,y,1/2-z
-x,1/2+y,z
x,1/2-y,1/2+z
loop_
_atom_site_type_symbol
_atom_site_label
_atom_site_fract_x
_atom_site_fract_y
_atom_site_fract_z
Si Si1 0.677020 0.080625 0.081125
Si Si2 0.178390 0.321357 0.084809
Si Si3 0.304980 0.083736 0.915421
Si Si4 0.201417 0.674157 0.420974
Si Si5 0.529210 0.431116 0.583047
Si Si6 0.588440 0.825319 0.583117
Si Si7 0.053939 0.088942 0.918982
Si Si8 0.924055 0.076495 0.082196
O O1 0.676368 0.091916 0.250000
O O2 0.729220 0.139843 0.019225
O O3 0.601973 0.090617 0.021105
O O4 0.702443 0.000310 0.040831
O O5 0.173414 0.298982 0.250000
O O6 0.233287 0.382516 0.059552
O O7 0.108744 0.353129 0.028950
O O8 0.199729 0.250000 0.000000
O O9 0.328998 0.092688 0.750000
O O10 0.357828 0.119717 0.020443
O O11 0.188400 0.750000 0.500000
O O12 0.203098 0.687009 0.250000
O O13 0.142889 0.618021 0.463354
O O14 0.500000 0.500000 0.500000
O O15 0.534054 0.454265 0.750000
O O16 0.483921 0.360244 0.561660
O O17 0.591533 0.750000 0.500000
O O18 0.604548 0.811103 0.750000
O O19 0.041158 0.094008 0.750000
O O20 0.081024 0.008642 0.960511
O O21 0.986333 0.110991 0.998565
O O22 0.938044 0.086218 0.250000
#
# Coordination Sequence:
#
# PCOD8231899 Si02
#       8
#     8   8   8   8   8   8   8   8
#     4   9  18  35  60  82 104 140 181 221 270 324
#     4  10  21  34  50  75 105 138 174 213 259 312
#     4  10  19  35  59  80 103 140 182 223 269 321
#     4  10  21  37  56  80 111 145 184 227 273 329
#     4  10  20  36  58  83 109 140 182 226 271 324
#     4  11  23  36  53  81 114 145 179 221 270 324
#     4   9  18  34  55  78 104 135 178 222 264 319
#     4   9  18  34  56  79 103 135 176 223 269 315
#
# _framework density 18.679348999999998
#
# number of rings (size 3 to 8) (size 9 to 14) (size 15 to 20)
#    0.000    2.250    1.250    1.500    0.000    7.000 
#    0.000    3.750    0.000    3.000    0.000    0.000 
#    0.000    0.000    0.000    0.000    0.000    0.000 
#
# Total GULP energy -793618.725138 kJ/mol
# GULP energy per Si atom -12400.292580 kJ/mol
# Density = 1.863683 g / cm^3
# Si number density = 18.679349 Si / 1000 Ang^3
#
#
#
# Elastic Constant Matrix: (Units=GPa)
#
#
# Indices 1 2 3 4 5 6 
#
# 1 120.0762 35.9295 38.7177 0.0000 0.0000 0.0000
# 2 35.9295 73.0927 28.7810 0.0000 0.0000 0.0000
# 3 38.7177 28.7810 49.2573 0.0000 0.0000 0.0000
# 4 0.0000 0.0000 0.0000 27.5204 0.0000 0.0000
# 5 0.0000 0.0000 0.0000 0.0000 23.4768 0.0000
# 6 0.0000 0.0000 0.0000 0.0000 0.0000 60.5916
#
#
#
# Elastic Compliance Matrix: (Units=1/GPa)
#
#
# Indices 1 2 3 4 5 6 
#
# 1 0.011561 -0.002734 -0.007490 0.000000 0.000000 0.000000
# 2 -0.002734 0.018416 -0.008612 0.000000 0.000000 0.000000
# 3 -0.007490 -0.008612 0.031221 0.000000 0.000000 0.000000
# 4 0.000000 0.000000 0.000000 0.036337 0.000000 0.000000
# 5 0.000000 0.000000 0.000000 0.000000 0.042595 0.000000
# 6 0.000000 0.000000 0.000000 0.000000 0.000000 0.016504
#
#
# Mechanical properties :
#
#
# Convention : Reuss Voigt Hill
#
# Bulk Modulus (GPa) = 42.50443 49.92029 46.21236
# Shear Modulus (GPa) = 24.73446 31.58430 28.15938
#
# Velocity S-wave (km/s) = 3.64285 4.11648 3.88688
# Velocity P-wave (km/s) = 6.36380 7.02686 6.70353
#
# Compressibility (1/GPa) = 0.02352696
#
# Stress axis : x y z
#
# Youngs Moduli (GPa) = 86.49655 54.30067 32.02991
#
# Poissons Ratio (x) = 0.14844 0.23991
# Poissons Ratio (y) = 0.23646 0.27583
# Poissons Ratio (z) = 0.64787 0.46762
#
# Static dielectric constant tensor:
#      x y z
#    x 3.779140 0.000000 0.000000 
#    y 0.000000 3.378570 0.000000 
#    z 0.000000 0.000000 3.291310 
# 
# 
# High freq. dielectric constant tensor:
#      x y z
#    x 1.740420 0.000000 0.000000 
#    y 0.000000 1.724700 0.000000 
#    z 0.000000 0.000000 1.705060 
# 
# From -- ./inp_files/7216.got.cif
#   From: 2010.03.12/outbox.cif.g09.slc.cpg/sg57_4_cif.got.tgz:7216.got - 2010.04.16 15:48:40.
