data_PCOD8231783
_publ_section_title
;
Structure prediction by ZEFSAII (Michael W. Deem and Ramdas Pophale) SiO2 
 PCOD8231783
Probable space group: P B C M
;
_chemical_formula_sum "Si O2"
_cell_formula_units_Z 48
_cell_length_a 10.160712
_cell_length_b 27.992451
_cell_length_c 8.710015
_cell_angle_alpha 90.000000
_cell_angle_beta 90.000000
_cell_angle_gamma 90.000000
_cell_volume 2477.330624
_symmetry_space_group_name_H-M "P B C M"
_symmetry_group_IT_number 57
_symmetry_cell_setting 'orthorhombic'
loop_
_space_group_symop_operation_xyz
x,y,z
-x,-y,1/2+z
x,1/2-y,-z
-x,1/2+y,1/2-z
-x,-y,-z
x,y,1/2-z
-x,1/2+y,z
x,1/2-y,1/2+z
loop_
_atom_site_type_symbol
_atom_site_label
_atom_site_fract_x
_atom_site_fract_y
_atom_site_fract_z
Si Si1 0.104653 0.701517 0.930758
Si Si2 0.596769 0.298718 0.069402
Si Si3 0.526527 0.394181 0.570872
Si Si4 0.022553 0.103530 0.931193
Si Si5 0.215597 0.951265 0.569607
Si Si6 0.738810 0.947348 0.929625
O O1 0.104287 0.706074 0.750000
O O2 0.253700 0.694487 0.991372
O O3 0.019195 0.656490 0.984949
O O4 0.043032 0.750000 0.000000
O O5 0.590044 0.294987 0.250000
O O6 0.536594 0.250000 0.000000
O O7 0.511684 0.343800 0.015106
O O8 0.530655 0.383386 0.750000
O O9 0.657683 0.421283 0.515775
O O10 0.403587 0.426994 0.526757
O O11 0.048630 0.100686 0.750000
O O12 0.909227 0.066077 0.973631
O O13 0.153750 0.092048 0.024932
O O14 0.188173 0.945511 0.750000
O O15 0.238824 0.006290 0.532089
O O16 0.749436 0.959843 0.750000
#
# Coordination Sequence:
#
# PCOD8231783 Si02
#       6
#     8   8   8   8   8   8
#     4   9  19  34  56  85 113 143 182 231 280 330
#     4  10  19  34  58  87 116 147 186 235 284 334
#     4  10  22  39  59  85 116 150 192 236 284 339
#     4  11  22  39  59  85 117 151 192 234 282 339
#     4  11  22  38  61  86 111 149 194 239 286 335
#     4  11  24  40  57  82 117 154 190 235 286 338
#
# _framework density 19.375693999999999
#
# number of rings (size 3 to 8) (size 9 to 14) (size 15 to 20)
#    0.000    1.667    1.667    3.000    0.000    4.000 
#    0.000    0.833    0.000    2.000    0.000    0.000 
#    0.000    0.000    0.000    0.000    0.000    0.000 
#
# Total GULP energy -595455.749380 kJ/mol
# GULP energy per Si atom -12405.328112 kJ/mol
# Density = 1.933159 g / cm^3
# Si number density = 19.375694 Si / 1000 Ang^3
#
#
#
# Elastic Constant Matrix: (Units=GPa)
#
#
# Indices 1 2 3 4 5 6 
#
# 1 59.2960 7.4403 18.5480 0.0000 0.0000 0.0000
# 2 7.4403 114.5954 22.4432 0.0000 0.0000 0.0000
# 3 18.5480 22.4432 33.9420 0.0000 0.0000 0.0000
# 4 0.0000 0.0000 0.0000 37.9582 0.0000 0.0000
# 5 0.0000 0.0000 0.0000 0.0000 24.1927 0.0000
# 6 0.0000 0.0000 0.0000 0.0000 0.0000 8.5273
#
#
#
# Elastic Compliance Matrix: (Units=1/GPa)
#
#
# Indices 1 2 3 4 5 6 
#
# 1 0.020439 0.000988 -0.011822 0.000000 0.000000 0.000000
# 2 0.000988 0.010072 -0.007200 0.000000 0.000000 0.000000
# 3 -0.011822 -0.007200 0.040683 0.000000 0.000000 0.000000
# 4 0.000000 0.000000 0.000000 0.026345 0.000000 0.000000
# 5 0.000000 0.000000 0.000000 0.000000 0.041335 0.000000
# 6 0.000000 0.000000 0.000000 0.000000 0.000000 0.117270
#
#
# Mechanical properties :
#
#
# Convention : Reuss Voigt Hill
#
# Bulk Modulus (GPa) = 28.46900 33.85515 31.16207
# Shear Modulus (GPa) = 16.45165 24.76245 20.60705
#
# Velocity S-wave (km/s) = 2.91707 3.57881 3.26475
# Velocity P-wave (km/s) = 5.10596 5.88117 5.50722
#
# Compressibility (1/GPa) = 0.03512593
#
# Stress axis : x y z
#
# Youngs Moduli (GPa) = 48.92695 99.28208 24.58000
#
# Poissons Ratio (x) = -0.09813 0.29060
# Poissons Ratio (y) = -0.04836 0.17698
# Poissons Ratio (z) = 0.57844 0.71485
#
# Static dielectric constant tensor:
#      x y z
#    x 3.524870 0.000000 0.000000 
#    y 0.000000 3.678800 0.000000 
#    z 0.000000 0.000000 3.456180 
# 
# 
# High freq. dielectric constant tensor:
#      x y z
#    x 1.737220 0.000000 0.000000 
#    y 0.000000 1.768430 0.000000 
#    z 0.000000 0.000000 1.757700 
# 
# From -- ./inp_files/2121.got.cif
#   From: 2010.03.12/outbox.cif.g09.slc.cpg/sg57_2_cif.got.tgz:2121.got - 2010.04.16 15:48:40.
