data_PCOD8231119
_publ_section_title
;
Structure prediction by ZEFSAII (Michael W. Deem and Ramdas Pophale) SiO2 
 PCOD8231119
Probable space group: P B C M
;
_chemical_formula_sum "Si O2"
_cell_formula_units_Z 56
_cell_length_a 18.846403
_cell_length_b 18.519813
_cell_length_c 9.036633
_cell_angle_alpha 90.000000
_cell_angle_beta 90.000000
_cell_angle_gamma 90.000000
_cell_volume 3154.072818
_symmetry_space_group_name_H-M "P B C M"
_symmetry_group_IT_number 57
_symmetry_cell_setting 'orthorhombic'
loop_
_space_group_symop_operation_xyz
x,y,z
-x,-y,1/2+z
x,1/2-y,-z
-x,1/2+y,1/2-z
-x,-y,-z
x,y,1/2-z
-x,1/2+y,z
x,1/2-y,1/2+z
loop_
_atom_site_type_symbol
_atom_site_label
_atom_site_fract_x
_atom_site_fract_y
_atom_site_fract_z
Si Si1 0.850779 0.058918 0.422856
Si Si2 0.753374 0.877610 0.085853
Si Si3 0.718829 0.015816 0.919687
Si Si4 0.392037 0.179873 0.581437
Si Si5 0.034144 0.672651 0.425217
Si Si6 0.431385 0.467782 0.924886
Si Si7 0.094238 0.099735 0.918016
O O1 0.841496 0.064596 0.250000
O O2 0.900202 0.123764 0.480643
O O3 0.771619 0.068551 0.490647
O O4 0.886352 0.982237 0.466305
O O5 0.747432 0.915365 0.250000
O O6 0.694330 0.815068 0.076648
O O7 0.834548 0.850405 0.068866
O O8 0.738564 0.933704 0.955872
O O9 0.733548 0.031966 0.750000
O O10 0.634704 0.022653 0.956948
O O11 0.423250 0.250000 0.500000
O O12 0.419834 0.178260 0.750000
O O13 0.418762 0.109665 0.497270
O O14 0.040729 0.750000 0.500000
O O15 0.033452 0.682615 0.250000
O O16 0.962440 0.632165 0.470706
O O17 0.442310 0.457742 0.750000
O O18 0.500000 0.500000 0.000000
O O19 0.064544 0.101286 0.750000
#
# Coordination Sequence:
#
# PCOD8231119 Si02
#       7
#     8   8   8   8   8   8   8
#     4   9  19  35  54  73  96 128 167 208 254 305
#     4   8  16  30  47  69  99 131 162 197 242 294
#     4   9  17  29  50  78 101 122 157 201 242 288
#     4  10  19  32  50  73 104 141 175 209 249 299
#     4  11  23  36  49  69  97 131 169 211 259 307
#     4  10  20  34  53  80 109 137 169 207 252 302
#     4   9  17  32  52  74  99 128 165 209 253 301
#
# _framework density 17.754822999999998
#
# number of rings (size 3 to 8) (size 9 to 14) (size 15 to 20)
#    0.000    2.571    0.000    3.000    0.000    6.286 
#    0.000    1.429    0.000    0.857    0.000    2.000 
#    0.000    0.000    0.000    0.000    0.000    0.000 
#
# Total GULP energy -693911.341748 kJ/mol
# GULP energy per Si atom -12391.273960 kJ/mol
# Density = 1.771441 g / cm^3
# Si number density = 17.754823 Si / 1000 Ang^3
#
#
#
# Elastic Constant Matrix: (Units=GPa)
#
#
# Indices 1 2 3 4 5 6 
#
# 1 123.1034 58.1196 59.3538 0.0000 0.0000 0.0000
# 2 58.1196 79.3939 47.0699 0.0000 0.0000 0.0000
# 3 59.3538 47.0699 82.0356 0.0000 0.0000 0.0000
# 4 0.0000 0.0000 0.0000 24.7737 0.0000 0.0000
# 5 0.0000 0.0000 0.0000 0.0000 30.4231 0.0000
# 6 0.0000 0.0000 0.0000 0.0000 0.0000 15.1723
#
#
#
# Elastic Compliance Matrix: (Units=1/GPa)
#
#
# Indices 1 2 3 4 5 6 
#
# 1 0.014470 -0.006647 -0.006656 0.000000 0.000000 0.000000
# 2 -0.006647 0.022142 -0.007895 0.000000 0.000000 0.000000
# 3 -0.006656 -0.007895 0.021535 0.000000 0.000000 0.000000
# 4 0.000000 0.000000 0.000000 0.040365 0.000000 0.000000
# 5 0.000000 0.000000 0.000000 0.000000 0.032870 0.000000
# 6 0.000000 0.000000 0.000000 0.000000 0.000000 0.065909
#
#
# Mechanical properties :
#
#
# Convention : Reuss Voigt Hill
#
# Bulk Modulus (GPa) = 63.48434 68.17997 65.83216
# Shear Modulus (GPa) = 20.41318 22.07313 21.24316
#
# Velocity S-wave (km/s) = 3.39444 3.52976 3.46276
# Velocity P-wave (km/s) = 7.15519 7.42270 7.29017
#
# Compressibility (1/GPa) = 0.01575192
#
# Stress axis : x y z
#
# Youngs Moduli (GPa) = 69.10625 45.16244 46.43497
#
# Poissons Ratio (x) = 0.30020 0.30906
# Poissons Ratio (y) = 0.45935 0.36662
# Poissons Ratio (z) = 0.45995 0.35658
#
# Static dielectric constant tensor:
#      x y z
#    x 3.538830 0.000000 0.000000 
#    y 0.000000 3.083690 0.000000 
#    z 0.000000 0.000000 3.354680 
# 
# 
# High freq. dielectric constant tensor:
#      x y z
#    x 1.686300 0.000000 0.000000 
#    y 0.000000 1.648540 0.000000 
#    z 0.000000 0.000000 1.697420 
# 
# From -- ./inp_files/7084.got.cif
#   From: 2010.03.12/outbox.cif.g09.slc.cpg/sg57_4_cif.got.tgz:7084.got - 2010.04.16 15:48:40.
