data_PCOD8231179
_publ_section_title
;
Structure prediction by ZEFSAII (Michael W. Deem and Ramdas Pophale) SiO2 
 PCOD8231179
Probable space group: P B C M
;
_chemical_formula_sum "Si O2"
_cell_formula_units_Z 64
_cell_length_a 16.143797
_cell_length_b 24.093494
_cell_length_c 8.684229
_cell_angle_alpha 90.000000
_cell_angle_beta 90.000000
_cell_angle_gamma 90.000000
_cell_volume 3377.821847
_symmetry_space_group_name_H-M "P B C M"
_symmetry_group_IT_number 57
_symmetry_cell_setting 'orthorhombic'
loop_
_space_group_symop_operation_xyz
x,y,z
-x,-y,1/2+z
x,1/2-y,-z
-x,1/2+y,1/2-z
-x,-y,-z
x,y,1/2-z
-x,1/2+y,z
x,1/2-y,1/2+z
loop_
_atom_site_type_symbol
_atom_site_label
_atom_site_fract_x
_atom_site_fract_y
_atom_site_fract_z
Si Si1 0.049567 0.585376 0.430192
Si Si2 0.276089 0.077641 0.431844
Si Si3 0.654816 0.694545 0.077102
Si Si4 0.510104 0.141216 0.076008
Si Si5 0.684923 0.308137 0.570813
Si Si6 0.857316 0.188703 0.567757
Si Si7 0.563716 0.541131 0.927007
Si Si8 0.890851 0.534439 0.569816
O O1 0.054970 0.597761 0.250000
O O2 0.955544 0.572046 0.476436
O O3 0.078636 0.641191 0.516382
O O4 0.103610 0.530900 0.475957
O O5 0.259149 0.074634 0.250000
O O6 0.301447 0.139304 0.490840
O O7 0.351456 0.037046 0.476396
O O8 0.198388 0.057146 0.527641
O O9 0.684914 0.698569 0.250000
O O10 0.554142 0.692708 0.064585
O O11 0.689221 0.750000 0.000000
O O12 0.501794 0.116105 0.250000
O O13 0.605515 0.153809 0.041721
O O14 0.479855 0.100379 0.943777
O O15 0.659697 0.250000 0.500000
O O16 0.705599 0.301584 0.750000
O O17 0.766520 0.331812 0.487436
O O18 0.878538 0.250000 0.500000
O O19 0.859282 0.193985 0.750000
O O20 0.582320 0.527544 0.750000
O O21 0.500000 0.500000 0.000000
O O22 0.909047 0.541536 0.750000
#
# Coordination Sequence:
#
# PCOD8231179 Si02
#       8
#     8   8   8   8   8   8   8   8
#     4  10  21  39  62  87 115 145 180 225 277 331
#     4  10  21  38  57  80 112 146 182 228 279 328
#     4   9  18  32  51  75 104 140 180 224 272 321
#     4   9  19  34  50  72 103 138 178 223 269 318
#     4  10  19  32  51  75 106 141 178 221 266 315
#     4  11  22  37  57  82 115 151 188 229 278 335
#     4  11  22  36  54  75 103 140 180 223 271 324
#     4  10  21  38  62  90 115 143 183 228 274 328
#
# _framework density 18.947120000000002
#
# number of rings (size 3 to 8) (size 9 to 14) (size 15 to 20)
#    0.000    2.000    0.000    5.625    0.000    6.000 
#    0.000    1.875    0.000    1.500    0.000    0.000 
#    0.000    0.000    0.000    0.000    0.000    0.000 
#
# Total GULP energy -793297.711306 kJ/mol
# GULP energy per Si atom -12395.276739 kJ/mol
# Density = 1.890400 g / cm^3
# Si number density = 18.947120 Si / 1000 Ang^3
#
#
#
# Elastic Constant Matrix: (Units=GPa)
#
#
# Indices 1 2 3 4 5 6 
#
# 1 104.6856 57.3253 27.4836 0.0000 0.0000 0.0000
# 2 57.3253 88.0254 34.2848 0.0000 0.0000 0.0000
# 3 27.4836 34.2848 83.8896 0.0000 0.0000 0.0000
# 4 0.0000 0.0000 0.0000 32.6990 0.0000 0.0000
# 5 0.0000 0.0000 0.0000 0.0000 34.4400 0.0000
# 6 0.0000 0.0000 0.0000 0.0000 0.0000 23.2848
#
#
#
# Elastic Compliance Matrix: (Units=1/GPa)
#
#
# Indices 1 2 3 4 5 6 
#
# 1 0.014931 -0.009298 -0.001091 0.000000 0.000000 0.000000
# 2 -0.009298 0.019302 -0.004842 0.000000 0.000000 0.000000
# 3 -0.001091 -0.004842 0.014257 0.000000 0.000000 0.000000
# 4 0.000000 0.000000 0.000000 0.030582 0.000000 0.000000
# 5 0.000000 0.000000 0.000000 0.000000 0.029036 0.000000
# 6 0.000000 0.000000 0.000000 0.000000 0.000000 0.042946
#
#
# Mechanical properties :
#
#
# Convention : Reuss Voigt Hill
#
# Bulk Modulus (GPa) = 55.47665 57.19867 56.33766
# Shear Modulus (GPa) = 26.66301 28.58523 27.62412
#
# Velocity S-wave (km/s) = 3.75538 3.88839 3.82247
# Velocity P-wave (km/s) = 6.93881 7.10025 7.02000
#
# Compressibility (1/GPa) = 0.01802560
#
# Stress axis : x y z
#
# Youngs Moduli (GPa) = 66.97644 51.80897 70.14140
#
# Poissons Ratio (x) = 0.48173 0.07655
# Poissons Ratio (y) = 0.62276 0.33963
# Poissons Ratio (z) = 0.07310 0.25087
#
# Static dielectric constant tensor:
#      x y z
#    x 3.403490 0.000000 0.000000 
#    y 0.000000 3.471440 0.000000 
#    z 0.000000 0.000000 3.454730 
# 
# 
# High freq. dielectric constant tensor:
#      x y z
#    x 1.731690 0.000000 0.000000 
#    y 0.000000 1.728390 0.000000 
#    z 0.000000 0.000000 1.745720 
# 
# From -- ./inp_files/5592.got.cif
#   From: 2010.03.12/outbox.cif.g09.slc.cpg/sg57_3_cif.got.tgz:5592.got - 2010.04.16 15:48:40.
