data_PCOD8231294
_publ_section_title
;
Structure prediction by ZEFSAII (Michael W. Deem and Ramdas Pophale) SiO2 
 PCOD8231294
Probable space group: P B C M
;
_chemical_formula_sum "Si O2"
_cell_formula_units_Z 48
_cell_length_a 10.165716
_cell_length_b 27.721021
_cell_length_c 8.829474
_cell_angle_alpha 90.000000
_cell_angle_beta 90.000000
_cell_angle_gamma 90.000000
_cell_volume 2488.181327
_symmetry_space_group_name_H-M "P B C M"
_symmetry_group_IT_number 57
_symmetry_cell_setting 'orthorhombic'
loop_
_space_group_symop_operation_xyz
x,y,z
-x,-y,1/2+z
x,1/2-y,-z
-x,1/2+y,1/2-z
-x,-y,-z
x,y,1/2-z
-x,1/2+y,z
x,1/2-y,1/2+z
loop_
_atom_site_type_symbol
_atom_site_label
_atom_site_fract_x
_atom_site_fract_y
_atom_site_fract_z
Si Si1 0.491316 0.801358 0.571410
Si Si2 0.736054 0.635525 0.427946
Si Si3 0.789851 0.160840 0.426144
Si Si4 0.045619 0.300027 0.428808
Si Si5 0.165443 0.047559 0.575514
Si Si6 0.891822 0.442121 0.576355
O O1 0.522970 0.750000 0.500000
O O2 0.492852 0.795475 0.750000
O O3 0.602802 0.838784 0.517660
O O4 0.351765 0.821697 0.515164
O O5 0.756524 0.640409 0.250000
O O6 0.861983 0.657792 0.510678
O O7 0.732284 0.579265 0.476871
O O8 0.811997 0.173380 0.250000
O O9 0.797911 0.103420 0.454106
O O10 0.896297 0.189645 0.523181
O O11 0.094997 0.250000 0.500000
O O12 0.055798 0.296476 0.250000
O O13 0.187538 0.060397 0.750000
O O14 0.016064 0.061028 0.533280
O O15 0.190985 0.990856 0.542659
O O16 0.942977 0.442649 0.750000
#
# Coordination Sequence:
#
# PCOD8231294 Si02
#       6
#     8   8   8   8   8   8
#     4  10  23  40  59  81 110 150 193 232 283 343
#     4  11  22  38  57  81 113 151 190 235 285 334
#     4  10  20  38  60  84 113 148 187 232 284 338
#     4  12  24  37  56  84 112 143 186 237 285 339
#     4  10  19  32  54  86 116 147 189 234 281 336
#     4   9  18  33  56  83 116 151 184 229 285 338
#
# _framework density 19.291198999999999
#
# number of rings (size 3 to 8) (size 9 to 14) (size 15 to 20)
#    0.000    1.667    1.667    3.500    0.000    5.333 
#    0.000    0.833    0.000    0.000    0.000    0.000 
#    0.000    0.000    0.000    0.000    0.000    0.000 
#
# Total GULP energy -595367.549723 kJ/mol
# GULP energy per Si atom -12403.490619 kJ/mol
# Density = 1.924729 g / cm^3
# Si number density = 19.291199 Si / 1000 Ang^3
#
#
#
# Elastic Constant Matrix: (Units=GPa)
#
#
# Indices 1 2 3 4 5 6 
#
# 1 65.9714 5.4242 20.8722 0.0000 0.0000 0.0000
# 2 5.4242 85.9165 24.8603 0.0000 0.0000 0.0000
# 3 20.8722 24.8603 75.6989 0.0000 0.0000 0.0000
# 4 0.0000 0.0000 0.0000 32.8129 0.0000 0.0000
# 5 0.0000 0.0000 0.0000 0.0000 14.2585 0.0000
# 6 0.0000 0.0000 0.0000 0.0000 0.0000 20.2683
#
#
#
# Elastic Compliance Matrix: (Units=1/GPa)
#
#
# Indices 1 2 3 4 5 6 
#
# 1 0.016614 0.000306 -0.004681 0.000000 0.000000 0.000000
# 2 0.000306 0.012867 -0.004310 0.000000 0.000000 0.000000
# 3 -0.004681 -0.004310 0.015916 0.000000 0.000000 0.000000
# 4 0.000000 0.000000 0.000000 0.030476 0.000000 0.000000
# 5 0.000000 0.000000 0.000000 0.000000 0.070134 0.000000
# 6 0.000000 0.000000 0.000000 0.000000 0.000000 0.049338
#
#
# Mechanical properties :
#
#
# Convention : Reuss Voigt Hill
#
# Bulk Modulus (GPa) = 35.68080 36.65559 36.16820
# Shear Modulus (GPa) = 22.51659 25.22994 23.87326
#
# Velocity S-wave (km/s) = 3.42013 3.62034 3.52166
# Velocity P-wave (km/s) = 5.84230 6.04303 5.94351
#
# Compressibility (1/GPa) = 0.02802628
#
# Stress axis : x y z
#
# Youngs Moduli (GPa) = 60.19003 77.71812 62.82822
#
# Poissons Ratio (x) = -0.02375 0.29412
# Poissons Ratio (y) = -0.01840 0.27079
# Poissons Ratio (z) = 0.28177 0.33496
#
# Static dielectric constant tensor:
#      x y z
#    x 3.388220 0.000000 0.000000 
#    y 0.000000 3.865830 0.000000 
#    z 0.000000 0.000000 3.485710 
# 
# 
# High freq. dielectric constant tensor:
#      x y z
#    x 1.725270 0.000000 0.000000 
#    y 0.000000 1.770510 0.000000 
#    z 0.000000 0.000000 1.750370 
# 
# From -- ./inp_files/2050.got.cif
#   From: 2010.03.12/outbox.cif.g09.slc.cpg/sg57_2_cif.got.tgz:2050.got - 2010.04.16 15:48:40.
