data_PCOD8231718
_publ_section_title
;
Structure prediction by ZEFSAII (Michael W. Deem and Ramdas Pophale) SiO2 
 PCOD8231718
Probable space group: P B C M
;
_chemical_formula_sum "Si O2"
_cell_formula_units_Z 48
_cell_length_a 14.763049
_cell_length_b 19.145991
_cell_length_c 8.646771
_cell_angle_alpha 90.000000
_cell_angle_beta 90.000000
_cell_angle_gamma 90.000000
_cell_volume 2444.037521
_symmetry_space_group_name_H-M "P B C M"
_symmetry_group_IT_number 57
_symmetry_cell_setting 'orthorhombic'
loop_
_space_group_symop_operation_xyz
x,y,z
-x,-y,1/2+z
x,1/2-y,-z
-x,1/2+y,1/2-z
-x,-y,-z
x,y,1/2-z
-x,1/2+y,z
x,1/2-y,1/2+z
loop_
_atom_site_type_symbol
_atom_site_label
_atom_site_fract_x
_atom_site_fract_y
_atom_site_fract_z
Si Si1 0.133219 0.094827 0.432108
Si Si2 0.034713 0.673662 0.567354
Si Si3 0.376211 0.949120 0.430752
Si Si4 0.292774 0.323981 0.431919
Si Si5 0.173080 0.941517 0.066591
Si Si6 0.450280 0.102059 0.071188
O O1 0.119560 0.104206 0.250000
O O2 0.233140 0.118248 0.480987
O O3 0.061515 0.142571 0.520073
O O4 0.124719 0.013872 0.484151
O O5 0.050332 0.750000 0.500000
O O6 0.038642 0.678750 0.750000
O O7 0.113778 0.622858 0.502742
O O8 0.382564 0.932395 0.250000
O O9 0.275473 0.935795 0.498019
O O10 0.444855 0.897841 0.520059
O O11 0.403961 0.028242 0.465885
O O12 0.263370 0.250000 0.500000
O O13 0.275191 0.325613 0.250000
O O14 0.397482 0.339829 0.471566
O O15 0.178886 0.940806 0.250000
O O16 0.443355 0.122300 0.250000
#
# Coordination Sequence:
#
# PCOD8231718 Si02
#       6
#     8   8   8   8   8   8
#     4  11  21  39  62  87 115 148 191 245 297 349
#     4  11  23  40  59  84 116 155 195 236 290 349
#     4   9  17  34  58  84 114 150 189 236 287 339
#     4  12  24  38  57  84 118 157 196 241 295 355
#     4   9  19  37  62  87 115 151 195 244 291 339
#     4  10  19  34  56  84 117 151 191 236 285 343
#
# _framework density 19.639633
#
# number of rings (size 3 to 8) (size 9 to 14) (size 15 to 20)
#    0.000    1.667    1.667    4.000    0.000    0.667 
#    0.000    5.000    0.000    2.000    0.000    0.000 
#    0.000    0.000    0.000    0.000    0.000    0.000 
#
# Total GULP energy -595323.137453 kJ/mol
# GULP energy per Si atom -12402.565364 kJ/mol
# Density = 1.959493 g / cm^3
# Si number density = 19.639633 Si / 1000 Ang^3
#
#
#
# Elastic Constant Matrix: (Units=GPa)
#
#
# Indices 1 2 3 4 5 6 
#
# 1 98.1766 51.2370 24.0735 0.0000 0.0000 0.0000
# 2 51.2370 125.2267 36.0078 0.0000 0.0000 0.0000
# 3 24.0735 36.0078 58.9435 0.0000 0.0000 0.0000
# 4 0.0000 0.0000 0.0000 20.7963 0.0000 0.0000
# 5 0.0000 0.0000 0.0000 0.0000 30.0511 0.0000
# 6 0.0000 0.0000 0.0000 0.0000 0.0000 29.2366
#
#
#
# Elastic Compliance Matrix: (Units=1/GPa)
#
#
# Indices 1 2 3 4 5 6 
#
# 1 0.013260 -0.004692 -0.002549 0.000000 0.000000 0.000000
# 2 -0.004692 0.011348 -0.005016 0.000000 0.000000 0.000000
# 3 -0.002549 -0.005016 0.021070 0.000000 0.000000 0.000000
# 4 0.000000 0.000000 0.000000 0.048085 0.000000 0.000000
# 5 0.000000 0.000000 0.000000 0.000000 0.033277 0.000000
# 6 0.000000 0.000000 0.000000 0.000000 0.000000 0.034204
#
#
# Mechanical properties :
#
#
# Convention : Reuss Voigt Hill
#
# Bulk Modulus (GPa) = 47.25061 56.10925 51.67993
# Shear Modulus (GPa) = 25.93200 27.41870 26.67535
#
# Velocity S-wave (km/s) = 3.63766 3.74048 3.68943
# Velocity P-wave (km/s) = 6.46177 6.87651 6.67236
#
# Compressibility (1/GPa) = 0.02116375
#
# Stress axis : x y z
#
# Youngs Moduli (GPa) = 75.41708 88.12440 47.45977
#
# Poissons Ratio (x) = 0.41350 0.12098
# Poissons Ratio (y) = 0.35388 0.23804
# Poissons Ratio (z) = 0.19224 0.44200
#
# Static dielectric constant tensor:
#      x y z
#    x 3.777140 0.000000 0.000000 
#    y 0.000000 3.533530 0.000000 
#    z 0.000000 0.000000 3.403250 
# 
# 
# High freq. dielectric constant tensor:
#      x y z
#    x 1.774390 0.000000 0.000000 
#    y 0.000000 1.754450 0.000000 
#    z 0.000000 0.000000 1.756180 
# 
# From -- ./inp_files/4720.got.cif
#   From: 2010.03.12/outbox.cif.g09.slc.cpg/sg57_3_cif.got.tgz:4720.got - 2010.04.16 15:48:40.
