data_PCOD8231883
_publ_section_title
;
Structure prediction by ZEFSAII (Michael W. Deem and Ramdas Pophale) SiO2 
 PCOD8231883
Probable space group: P B C M
;
_chemical_formula_sum "Si O2"
_cell_formula_units_Z 64
_cell_length_a 21.440295
_cell_length_b 17.675509
_cell_length_c 8.915647
_cell_angle_alpha 90.000000
_cell_angle_beta 90.000000
_cell_angle_gamma 90.000000
_cell_volume 3378.746047
_symmetry_space_group_name_H-M "P B C M"
_symmetry_group_IT_number 57
_symmetry_cell_setting 'orthorhombic'
loop_
_space_group_symop_operation_xyz
x,y,z
-x,-y,1/2+z
x,1/2-y,-z
-x,1/2+y,1/2-z
-x,-y,-z
x,y,1/2-z
-x,1/2+y,z
x,1/2-y,1/2+z
loop_
_atom_site_type_symbol
_atom_site_label
_atom_site_fract_x
_atom_site_fract_y
_atom_site_fract_z
Si Si1 0.386183 0.420419 0.422933
Si Si2 0.753998 0.389808 0.074511
Si Si3 0.935255 0.019249 0.074796
Si Si4 0.722974 0.669502 0.425962
Si Si5 0.179992 0.044932 0.422686
Si Si6 0.375131 0.906484 0.572152
Si Si7 0.508666 0.327800 0.075301
Si Si8 0.872150 0.174983 0.072924
O O1 0.366016 0.413825 0.250000
O O2 0.339291 0.370868 0.519409
O O3 0.384689 0.506811 0.478381
O O4 0.455576 0.390217 0.449677
O O5 0.748828 0.371736 0.250000
O O6 0.773144 0.476278 0.043382
O O7 0.688723 0.374153 0.994679
O O8 0.804315 0.334621 0.000298
O O9 0.942862 0.009388 0.250000
O O10 0.916115 0.104494 0.030200
O O11 0.882458 0.960811 0.020391
O O12 0.000000 0.000000 0.000000
O O13 0.731814 0.750000 0.500000
O O14 0.716477 0.680042 0.250000
O O15 0.784007 0.620940 0.468357
O O16 0.159458 0.044828 0.250000
O O17 0.374705 0.898204 0.750000
O O18 0.429357 0.855681 0.505121
O O19 0.522072 0.314305 0.250000
O O20 0.486062 0.250000 0.000000
O O21 0.865251 0.183901 0.250000
O O22 0.902780 0.250000 0.000000
#
# Coordination Sequence:
#
# PCOD8231883 Si02
#       8
#     8   8   8   8   8   8   8   8
#     4  10  22  39  60  84 111 146 189 237 288 346
#     4  10  19  35  58  84 113 148 186 230 283 338
#     4  10  21  37  61  89 118 154 196 237 281 333
#     4  11  22  36  57  86 117 151 190 236 289 342
#     4   9  19  36  57  82 114 149 188 230 277 333
#     4  11  22  37  59  86 113 145 187 236 288 347
#     4  11  24  41  57  78 109 147 190 237 291 346
#     4  10  21  37  58  88 120 154 193 237 285 336
#
# _framework density 18.941938
#
# number of rings (size 3 to 8) (size 9 to 14) (size 15 to 20)
#    0.000    1.750    1.250    3.000    0.000    6.000 
#    0.000    3.125    0.000    0.000    0.000    0.000 
#    0.000    0.000    0.000    0.000    0.000    0.000 
#
# Total GULP energy -793930.666803 kJ/mol
# GULP energy per Si atom -12405.166669 kJ/mol
# Density = 1.889883 g / cm^3
# Si number density = 18.941938 Si / 1000 Ang^3
#
#
#
# Elastic Constant Matrix: (Units=GPa)
#
#
# Indices 1 2 3 4 5 6 
#
# 1 120.9055 30.7063 57.3102 0.0000 0.0000 0.0000
# 2 30.7063 80.1080 38.7643 0.0000 0.0000 0.0000
# 3 57.3102 38.7643 93.4276 0.0000 0.0000 0.0000
# 4 0.0000 0.0000 0.0000 30.0259 0.0000 0.0000
# 5 0.0000 0.0000 0.0000 0.0000 36.0654 0.0000
# 6 0.0000 0.0000 0.0000 0.0000 0.0000 20.7921
#
#
#
# Elastic Compliance Matrix: (Units=1/GPa)
#
#
# Indices 1 2 3 4 5 6 
#
# 1 0.011765 -0.001273 -0.006688 0.000000 0.000000 0.000000
# 2 -0.001273 0.015757 -0.005757 0.000000 0.000000 0.000000
# 3 -0.006688 -0.005757 0.017195 0.000000 0.000000 0.000000
# 4 0.000000 0.000000 0.000000 0.033305 0.000000 0.000000
# 5 0.000000 0.000000 0.000000 0.000000 0.027727 0.000000
# 6 0.000000 0.000000 0.000000 0.000000 0.000000 0.048095
#
#
# Mechanical properties :
#
#
# Convention : Reuss Voigt Hill
#
# Bulk Modulus (GPa) = 57.87108 60.88918 59.38013
# Shear Modulus (GPa) = 26.73223 28.55402 27.64313
#
# Velocity S-wave (km/s) = 3.76077 3.88680 3.82430
# Velocity P-wave (km/s) = 7.03392 7.23588 7.13561
#
# Compressibility (1/GPa) = 0.01727979
#
# Stress axis : x y z
#
# Youngs Moduli (GPa) = 85.00077 63.46450 58.15676
#
# Poissons Ratio (x) = 0.08079 0.38898
# Poissons Ratio (y) = 0.10820 0.33480
# Poissons Ratio (z) = 0.56852 0.36536
#
# Static dielectric constant tensor:
#      x y z
#    x 3.388620 0.000000 0.000000 
#    y 0.000000 3.421570 0.000000 
#    z 0.000000 0.000000 3.564510 
# 
# 
# High freq. dielectric constant tensor:
#      x y z
#    x 1.732700 0.000000 0.000000 
#    y 0.000000 1.738840 0.000000 
#    z 0.000000 0.000000 1.748540 
# 
# From -- ./inp_files/8413.got.cif
#   From: 2010.03.12/outbox.cif.g09.slc.cpg/sg57_5_cif.got.tgz:8413.got - 2010.04.16 15:48:40.
