data_PCOD8231357
_publ_section_title
;
Structure prediction by ZEFSAII (Michael W. Deem and Ramdas Pophale) SiO2 
 PCOD8231357
Probable space group: P B C M
;
_chemical_formula_sum "Si O2"
_cell_formula_units_Z 48
_cell_length_a 9.186054
_cell_length_b 18.316593
_cell_length_c 15.313736
_cell_angle_alpha 90.000000
_cell_angle_beta 90.000000
_cell_angle_gamma 90.000000
_cell_volume 2576.646531
_symmetry_space_group_name_H-M "P B C M"
_symmetry_group_IT_number 57
_symmetry_cell_setting 'orthorhombic'
loop_
_space_group_symop_operation_xyz
x,y,z
-x,-y,1/2+z
x,1/2-y,-z
-x,1/2+y,1/2-z
-x,-y,-z
x,y,1/2-z
-x,1/2+y,z
x,1/2-y,1/2+z
loop_
_atom_site_type_symbol
_atom_site_label
_atom_site_fract_x
_atom_site_fract_y
_atom_site_fract_z
Si Si1 0.317880 0.419414 0.997473
Si Si2 0.656678 0.170787 0.845153
Si Si3 0.655567 0.415421 0.988245
Si Si4 0.850395 0.293162 0.588103
Si Si5 0.838860 0.663543 0.350395
Si Si6 0.672840 0.810862 0.349772
O O1 0.484474 0.408416 0.967700
O O2 0.274523 0.372867 0.082975
O O3 0.288040 0.502674 0.025267
O O4 0.216692 0.399407 0.915281
O O5 0.664809 0.134320 0.750000
O O6 0.689538 0.105980 0.911909
O O7 0.771067 0.236338 0.848775
O O8 0.497734 0.204744 0.863079
O O9 0.742207 0.361017 0.925701
O O10 0.891548 0.250000 0.500000
O O11 0.990889 0.323890 0.635950
O O12 0.809981 0.640419 0.250000
O O13 0.754803 0.737242 0.374791
O O14 0.708294 0.835289 0.250000
#
# Coordination Sequence:
#
# PCOD8231357 Si02
#       6
#     8   8   8   8   8   8
#     4  10  19  36  55  77 108 138 169 214 259 308
#     4   9  17  32  54  77 102 131 170 217 259 308
#     4   9  20  34  54  78 104 138 172 207 261 312
#     4  10  19  33  52  75 102 136 173 213 258 305
#     4  11  22  34  52  77 104 137 176 215 257 305
#     4   9  18  33  54  78 101 133 175 216 261 308
#
# _framework density 18.628864
#
# number of rings (size 3 to 8) (size 9 to 14) (size 15 to 20)
#    0.000    2.333    0.000    3.000    0.000    4.000 
#    0.000    5.000    0.000    4.000    0.000    0.000 
#    0.000    0.000    0.000    0.000    0.000    0.000 
#
# Total GULP energy -595234.747657 kJ/mol
# GULP energy per Si atom -12400.723910 kJ/mol
# Density = 1.858646 g / cm^3
# Si number density = 18.628864 Si / 1000 Ang^3
#
#
#
# Elastic Constant Matrix: (Units=GPa)
#
#
# Indices 1 2 3 4 5 6 
#
# 1 57.8074 11.5262 11.5399 0.0000 0.0000 0.0000
# 2 11.5262 58.8868 10.0703 0.0000 0.0000 0.0000
# 3 11.5399 10.0703 63.8482 0.0000 0.0000 0.0000
# 4 0.0000 0.0000 0.0000 18.7962 0.0000 0.0000
# 5 0.0000 0.0000 0.0000 0.0000 26.6913 0.0000
# 6 0.0000 0.0000 0.0000 0.0000 0.0000 10.6843
#
#
#
# Elastic Compliance Matrix: (Units=1/GPa)
#
#
# Indices 1 2 3 4 5 6 
#
# 1 0.018492 -0.003132 -0.002848 0.000000 0.000000 0.000000
# 2 -0.003132 0.017983 -0.002270 0.000000 0.000000 0.000000
# 3 -0.002848 -0.002270 0.016535 0.000000 0.000000 0.000000
# 4 0.000000 0.000000 0.000000 0.053202 0.000000 0.000000
# 5 0.000000 0.000000 0.000000 0.000000 0.037465 0.000000
# 6 0.000000 0.000000 0.000000 0.000000 0.000000 0.093595
#
#
# Mechanical properties :
#
#
# Convention : Reuss Voigt Hill
#
# Bulk Modulus (GPa) = 27.39094 27.42392 27.40743
# Shear Modulus (GPa) = 18.80097 21.06143 19.93120
#
# Velocity S-wave (km/s) = 3.18030 3.36606 3.27450
# Velocity P-wave (km/s) = 5.31236 5.46446 5.38894
#
# Compressibility (1/GPa) = 0.03650843
#
# Stress axis : x y z
#
# Youngs Moduli (GPa) = 54.07744 55.60775 60.47785
#
# Poissons Ratio (x) = 0.17419 0.17225
# Poissons Ratio (y) = 0.16940 0.13729
# Poissons Ratio (z) = 0.15402 0.12624
#
# Static dielectric constant tensor:
#      x y z
#    x 3.381980 0.000000 0.000000 
#    y 0.000000 3.286000 0.000000 
#    z 0.000000 0.000000 3.439760 
# 
# 
# High freq. dielectric constant tensor:
#      x y z
#    x 1.720440 0.000000 0.000000 
#    y 0.000000 1.709820 0.000000 
#    z 0.000000 0.000000 1.726580 
# 
# From -- ./inp_files/16343.got.cif
#   From: 2010.03.12/outbox.cif.g09.slc.cpg/sg57_9_cif.got.tgz:16343.got - 2010.04.16 15:48:40.
