data_PCOD8231886
_publ_section_title
;
Structure prediction by ZEFSAII (Michael W. Deem and Ramdas Pophale) SiO2 
 PCOD8231886
Probable space group: P B C M
;
_chemical_formula_sum "Si O2"
_cell_formula_units_Z 56
_cell_length_a 21.524829
_cell_length_b 14.641028
_cell_length_c 8.813678
_cell_angle_alpha 90.000000
_cell_angle_beta 90.000000
_cell_angle_gamma 90.000000
_cell_volume 2777.592054
_symmetry_space_group_name_H-M "P B C M"
_symmetry_group_IT_number 57
_symmetry_cell_setting 'orthorhombic'
loop_
_space_group_symop_operation_xyz
x,y,z
-x,-y,1/2+z
x,1/2-y,-z
-x,1/2+y,1/2-z
-x,-y,-z
x,y,1/2-z
-x,1/2+y,z
x,1/2-y,1/2+z
loop_
_atom_site_type_symbol
_atom_site_label
_atom_site_fract_x
_atom_site_fract_y
_atom_site_fract_z
Si Si1 0.191999 0.848136 0.929020
Si Si2 0.406622 0.501674 0.072026
Si Si3 0.932259 0.097566 0.917466
Si Si4 0.725519 0.496119 0.069826
Si Si5 0.186476 0.158807 0.429866
Si Si6 0.508516 0.149349 0.571567
Si Si7 0.051349 0.116058 0.082026
O O1 0.198544 0.844638 0.750000
O O2 0.197680 0.750000 0.000000
O O3 0.125624 0.890518 0.971608
O O4 0.249443 0.903508 0.997632
O O5 0.398152 0.517560 0.250000
O O6 0.447969 0.412162 0.037924
O O7 0.341905 0.480400 0.992626
O O8 0.433933 0.595191 0.002101
O O9 0.916112 0.136868 0.750000
O O10 0.948136 0.992266 0.904984
O O11 0.993250 0.149850 0.980934
O O12 0.723739 0.486947 0.250000
O O13 0.771687 0.575479 0.014307
O O14 0.216026 0.250000 0.500000
O O15 0.186184 0.163228 0.250000
O O16 0.116137 0.148284 0.492895
O O17 0.500576 0.250000 0.500000
O O18 0.520533 0.160262 0.750000
O O19 0.043515 0.158026 0.250000
#
# Coordination Sequence:
#
# PCOD8231886 Si02
#       7
#     8   8   8   8   8   8   8
#     4  12  25  41  62  87 116 154 200 250 306 367
#     4  10  22  40  63  94 127 163 206 246 294 351
#     4  10  19  35  58  84 114 149 194 247 306 365
#     4  11  23  43  64  87 123 162 201 250 300 350
#     4  10  22  39  59  84 117 155 198 248 299 358
#     4  10  21  39  65  96 131 166 203 248 294 344
#     4   9  18  35  56  81 114 152 195 244 304 362
#
# _framework density 20.161346999999999
#
# number of rings (size 3 to 8) (size 9 to 14) (size 15 to 20)
#    0.000    1.714    1.429    3.000    0.000    5.714 
#    0.000    7.143    0.000    0.000    0.000    0.000 
#    0.000    0.000    0.000    0.000    0.000    0.000 
#
# Total GULP energy -694453.153513 kJ/mol
# GULP energy per Si atom -12400.949170 kJ/mol
# Density = 2.011546 g / cm^3
# Si number density = 20.161347 Si / 1000 Ang^3
#
#
#
# Elastic Constant Matrix: (Units=GPa)
#
#
# Indices 1 2 3 4 5 6 
#
# 1 106.2884 14.1341 45.8076 0.0000 0.0000 0.0000
# 2 14.1341 52.1493 33.0372 0.0000 0.0000 0.0000
# 3 45.8076 33.0372 108.3620 0.0000 0.0000 0.0000
# 4 0.0000 0.0000 0.0000 33.9277 0.0000 0.0000
# 5 0.0000 0.0000 0.0000 0.0000 36.9002 0.0000
# 6 0.0000 0.0000 0.0000 0.0000 0.0000 1.2578
#
#
#
# Elastic Compliance Matrix: (Units=1/GPa)
#
#
# Indices 1 2 3 4 5 6 
#
# 1 0.011504 -0.000046 -0.004849 0.000000 0.000000 0.000000
# 2 -0.000046 0.023766 -0.007226 0.000000 0.000000 0.000000
# 3 -0.004849 -0.007226 0.013481 0.000000 0.000000 0.000000
# 4 0.000000 0.000000 0.000000 0.029474 0.000000 0.000000
# 5 0.000000 0.000000 0.000000 0.000000 0.027100 0.000000
# 6 0.000000 0.000000 0.000000 0.000000 0.000000 0.795045
#
#
# Mechanical properties :
#
#
# Convention : Reuss Voigt Hill
#
# Bulk Modulus (GPa) = 40.80168 50.30641 45.55405
# Shear Modulus (GPa) = 5.36030 26.00517 15.68273
#
# Velocity S-wave (km/s) = 1.63232 3.59535 2.79204
# Velocity P-wave (km/s) = 4.88202 6.49934 5.74785
#
# Compressibility (1/GPa) = 0.02450879
#
# Stress axis : x y z
#
# Youngs Moduli (GPa) = 86.92352 42.07664 74.17646
#
# Poissons Ratio (x) = 0.00194 0.35970
# Poissons Ratio (y) = 0.00400 0.53602
# Poissons Ratio (z) = 0.42151 0.30406
#
# Static dielectric constant tensor:
#      x y z
#    x 3.806360 0.000000 0.000000 
#    y 0.000000 3.656030 0.000000 
#    z 0.000000 0.000000 3.853160 
# 
# 
# High freq. dielectric constant tensor:
#      x y z
#    x 1.786890 0.000000 0.000000 
#    y 0.000000 1.789130 0.000000 
#    z 0.000000 0.000000 1.795470 
# 
# From -- ./inp_files/8175.got.cif
#   From: 2010.03.12/outbox.cif.g09.slc.cpg/sg57_5_cif.got.tgz:8175.got - 2010.04.16 15:48:40.
