data_PCOD8231999
_publ_section_title
;
Structure prediction by ZEFSAII (Michael W. Deem and Ramdas Pophale) SiO2 
 PCOD8231999
Probable space group: P B C M
;
_chemical_formula_sum "Si O2"
_cell_formula_units_Z 40
_cell_length_a 7.736171
_cell_length_b 28.929569
_cell_length_c 8.758282
_cell_angle_alpha 90.000000
_cell_angle_beta 90.000000
_cell_angle_gamma 90.000000
_cell_volume 1960.139357
_symmetry_space_group_name_H-M "P B C M"
_symmetry_group_IT_number 57
_symmetry_cell_setting 'orthorhombic'
loop_
_space_group_symop_operation_xyz
x,y,z
-x,-y,1/2+z
x,1/2-y,-z
-x,1/2+y,1/2-z
-x,-y,-z
x,y,1/2-z
-x,1/2+y,z
x,1/2-y,1/2+z
loop_
_atom_site_type_symbol
_atom_site_label
_atom_site_fract_x
_atom_site_fract_y
_atom_site_fract_z
Si Si1 0.198671 0.296783 0.428881
Si Si2 0.693958 0.390814 0.569757
Si Si3 0.801427 0.202417 0.569205
Si Si4 0.342280 0.106185 0.930012
Si Si5 0.001986 0.050401 0.569589
O O1 0.277623 0.250000 0.500000
O O2 0.210781 0.291379 0.250000
O O3 0.304019 0.341372 0.484519
O O4 0.000558 0.303622 0.479426
O O5 0.714690 0.391568 0.750000
O O6 0.695016 0.338928 0.505578
O O7 0.509618 0.412411 0.520245
O O8 0.845504 0.420400 0.496832
O O9 0.727893 0.250000 0.500000
O O10 0.773963 0.201574 0.750000
O O11 0.377178 0.104022 0.750000
O O12 0.181871 0.074160 0.976349
O O13 0.979843 0.048161 0.750000
O O14 0.000000 0.000000 0.500000
#
# Coordination Sequence:
#
# PCOD8231999 Si02
#       5
#     8   8   8   8   8
#     4   9  18  34  58  88 121 162 206 250 303 359
#     4  12  25  40  63  96 129 167 210 255 310 374
#     4  10  19  36  60  90 126 168 213 258 308 365
#     4  10  22  42  65  90 125 167 208 255 311 369
#     4  11  24  46  71  94 123 161 205 261 321 376
#
# _framework density 20.40671
#
# number of rings (size 3 to 8) (size 9 to 14) (size 15 to 20)
#    0.000    1.600    2.000    3.000    0.000    4.800 
#    0.000    2.000    0.000    0.000    0.000    0.000 
#    0.000    0.000    0.000    0.000    0.000    0.000 
#
# Total GULP energy -496144.220108 kJ/mol
# GULP energy per Si atom -12403.605503 kJ/mol
# Density = 2.036026 g / cm^3
# Si number density = 20.406710 Si / 1000 Ang^3
#
#
#
# Elastic Constant Matrix: (Units=GPa)
#
#
# Indices 1 2 3 4 5 6 
#
# 1 139.1565 66.6315 64.1432 0.0000 0.0000 0.0000
# 2 66.6315 142.4271 55.5686 0.0000 0.0000 0.0000
# 3 64.1432 55.5686 96.3534 0.0000 0.0000 0.0000
# 4 0.0000 0.0000 0.0000 38.4086 0.0000 0.0000
# 5 0.0000 0.0000 0.0000 0.0000 25.3482 0.0000
# 6 0.0000 0.0000 0.0000 0.0000 0.0000 -5.2749
#
#
#
# Elastic Compliance Matrix: (Units=1/GPa)
#
#
# Indices 1 2 3 4 5 6 
#
# 1 0.011300 -0.003034 -0.005772 0.000000 0.000000 0.000000
# 2 -0.003034 0.009874 -0.003675 0.000000 0.000000 0.000000
# 3 -0.005772 -0.003675 0.016341 0.000000 0.000000 0.000000
# 4 0.000000 0.000000 0.000000 0.026036 0.000000 0.000000
# 5 0.000000 0.000000 0.000000 0.000000 0.039451 0.000000
# 6 0.000000 0.000000 0.000000 0.000000 0.000000 -0.189576
#
#
# Mechanical properties :
#
#
# Convention : Reuss Voigt Hill
#
# Bulk Modulus (GPa) = 79.67031 83.40262 81.53646
# Shear Modulus (GPa) = -87.06552 24.46929 -31.29812
#
# Velocity S-wave (km/s) = -6.53894 3.46653 -3.92052
# Velocity P-wave (km/s) = 4.22899 7.54860 4.42137
#
# Compressibility (1/GPa) = 0.01255173
#
# Stress axis : x y z
#
# Youngs Moduli (GPa) = 88.49723 101.27229 61.19733
#
# Poissons Ratio (x) = 0.30728 0.35326
# Poissons Ratio (y) = 0.26852 0.22489
# Poissons Ratio (z) = 0.51085 0.37216
#
# Static dielectric constant tensor:
#      x y z
#    x 3.797390 0.000000 0.000000 
#    y 0.000000 3.816910 0.000000 
#    z 0.000000 0.000000 3.639690 
# 
# 
# High freq. dielectric constant tensor:
#      x y z
#    x 1.803850 0.000000 0.000000 
#    y 0.000000 1.800180 0.000000 
#    z 0.000000 0.000000 1.795870 
# 
# From -- ./inp_files/1815.got.cif
#   From: 2010.03.12/outbox.cif.g09.slc.cpg/sg57_1_cif.got.tgz:1815.got - 2010.04.16 15:48:40.
