data_PCOD8231798
_publ_section_title
;
Structure prediction by ZEFSAII (Michael W. Deem and Ramdas Pophale) SiO2 
 PCOD8231798
Probable space group: P B C M
;
_chemical_formula_sum "Si O2"
_cell_formula_units_Z 56
_cell_length_a 11.994969
_cell_length_b 17.741779
_cell_length_c 13.341779
_cell_angle_alpha 90.000000
_cell_angle_beta 90.000000
_cell_angle_gamma 90.000000
_cell_volume 2839.291861
_symmetry_space_group_name_H-M "P B C M"
_symmetry_group_IT_number 57
_symmetry_cell_setting 'orthorhombic'
loop_
_space_group_symop_operation_xyz
x,y,z
-x,-y,1/2+z
x,1/2-y,-z
-x,1/2+y,1/2-z
-x,-y,-z
x,y,1/2-z
-x,1/2+y,z
x,1/2-y,1/2+z
loop_
_atom_site_type_symbol
_atom_site_label
_atom_site_fract_x
_atom_site_fract_y
_atom_site_fract_z
Si Si1 0.343540 0.338744 0.514087
Si Si2 0.553460 0.121510 0.134276
Si Si3 0.546804 0.949684 0.134264
Si Si4 0.295411 0.561371 0.634252
Si Si5 0.236188 0.831312 0.970225
Si Si6 0.088895 0.551342 0.367996
Si Si7 0.150193 0.060530 0.041333
O O1 0.354154 0.250000 0.500000
O O2 0.425740 0.363517 0.603697
O O3 0.378079 0.386622 0.416699
O O4 0.213234 0.359235 0.530728
O O5 0.563383 0.142379 0.250000
O O6 0.637794 0.174622 0.072378
O O7 0.590502 0.034571 0.115048
O O8 0.548119 0.929820 0.250000
O O9 0.421006 0.945236 0.092207
O O10 0.293187 0.582655 0.750000
O O11 0.230083 0.625650 0.575347
O O12 0.232424 0.484007 0.614805
O O13 0.161451 0.873720 0.887532
O O14 0.188677 0.750000 0.000000
O O15 0.094515 0.530295 0.250000
O O16 0.133369 0.480490 0.433374
O O17 0.964834 0.572693 0.401483
#
# Coordination Sequence:
#
# PCOD8231798 Si02
#       7
#     8   8   8   8   8   8   8
#     4  12  24  38  57  90 131 160 191 238 303 376
#     4  11  22  37  59  85 117 162 207 248 292 354
#     4  10  20  36  59  85 118 160 202 242 288 349
#     4  10  19  34  59  86 115 154 200 245 292 346
#     4  11  23  38  56  86 123 157 199 248 301 355
#     4  10  22  42  68  91 113 155 211 260 305 359
#     4  10  22  40  65  90 120 154 200 259 304 357
#
# _framework density 19.723227999999999
#
# number of rings (size 3 to 8) (size 9 to 14) (size 15 to 20)
#    0.000    1.429    2.857    3.429    0.000    4.571 
#    0.000    0.000    0.000    5.143    0.000    0.000 
#    0.000    0.000    0.000    0.000    0.000    0.000 
#
# Total GULP energy -694384.618359 kJ/mol
# GULP energy per Si atom -12399.725328 kJ/mol
# Density = 1.967834 g / cm^3
# Si number density = 19.723228 Si / 1000 Ang^3
#
#
#
# Elastic Constant Matrix: (Units=GPa)
#
#
# Indices 1 2 3 4 5 6 
#
# 1 98.8488 21.9570 21.5577 0.0000 0.0000 0.0000
# 2 21.9570 93.5698 24.6782 0.0000 0.0000 0.0000
# 3 21.5577 24.6782 102.5016 0.0000 0.0000 0.0000
# 4 0.0000 0.0000 0.0000 17.4266 0.0000 0.0000
# 5 0.0000 0.0000 0.0000 0.0000 22.8042 0.0000
# 6 0.0000 0.0000 0.0000 0.0000 0.0000 19.1116
#
#
#
# Elastic Compliance Matrix: (Units=1/GPa)
#
#
# Indices 1 2 3 4 5 6 
#
# 1 0.010976 -0.002100 -0.001803 0.000000 0.000000 0.000000
# 2 -0.002100 0.011814 -0.002403 0.000000 0.000000 0.000000
# 3 -0.001803 -0.002403 0.010714 0.000000 0.000000 0.000000
# 4 0.000000 0.000000 0.000000 0.057383 0.000000 0.000000
# 5 0.000000 0.000000 0.000000 0.000000 0.043851 0.000000
# 6 0.000000 0.000000 0.000000 0.000000 0.000000 0.052324
#
#
# Mechanical properties :
#
#
# Convention : Reuss Voigt Hill
#
# Bulk Modulus (GPa) = 47.86456 47.92287 47.89372
# Shear Modulus (GPa) = 24.19693 26.98364 25.59028
#
# Velocity S-wave (km/s) = 3.50640 3.70282 3.60595
# Velocity P-wave (km/s) = 6.38075 6.52928 6.45544
#
# Compressibility (1/GPa) = 0.02089228
#
# Stress axis : x y z
#
# Youngs Moduli (GPa) = 91.10672 84.64753 93.33976
#
# Poissons Ratio (x) = 0.17777 0.16827
# Poissons Ratio (y) = 0.19134 0.22425
# Poissons Ratio (z) = 0.16425 0.20337
#
# Static dielectric constant tensor:
#      x y z
#    x 3.735940 0.000000 0.000000 
#    y 0.000000 3.425670 0.000000 
#    z 0.000000 0.000000 3.611920 
# 
# 
# High freq. dielectric constant tensor:
#      x y z
#    x 1.769670 0.000000 0.000000 
#    y 0.000000 1.746880 0.000000 
#    z 0.000000 0.000000 1.779060 
# 
# From -- ./inp_files/17696.got.cif
#   From: 2010.03.12/outbox.cif.g09.slc.cpg/sg57_9_cif.got.tgz:17696.got - 2010.04.16 15:48:40.
