data_PCOD8231351
_publ_section_title
;
Structure prediction by ZEFSAII (Michael W. Deem and Ramdas Pophale) SiO2 
 PCOD8231351
Probable space group: P B C M
;
_chemical_formula_sum "Si O2"
_cell_formula_units_Z 64
_cell_length_a 18.837364
_cell_length_b 23.193984
_cell_length_c 8.748232
_cell_angle_alpha 90.000000
_cell_angle_beta 90.000000
_cell_angle_gamma 90.000000
_cell_volume 3822.220830
_symmetry_space_group_name_H-M "P B C M"
_symmetry_group_IT_number 57
_symmetry_cell_setting 'orthorhombic'
loop_
_space_group_symop_operation_xyz
x,y,z
-x,-y,1/2+z
x,1/2-y,-z
-x,1/2+y,1/2-z
-x,-y,-z
x,y,1/2-z
-x,1/2+y,z
x,1/2-y,1/2+z
loop_
_atom_site_type_symbol
_atom_site_label
_atom_site_fract_x
_atom_site_fract_y
_atom_site_fract_z
Si Si1 0.100379 0.477842 0.426141
Si Si2 0.610331 0.310832 0.930856
Si Si3 0.520976 0.089233 0.572447
Si Si4 0.394390 0.472644 0.927550
Si Si5 0.251781 0.635743 0.569472
Si Si6 0.743241 0.011233 0.072039
Si Si7 0.984004 0.090666 0.428022
Si Si8 0.897427 0.312168 0.070208
O O1 0.081707 0.466508 0.250000
O O2 0.184134 0.476634 0.457262
O O3 0.063791 0.427646 0.525391
O O4 0.070206 0.540032 0.476452
O O5 0.611242 0.307212 0.750000
O O6 0.587041 0.250000 0.000000
O O7 0.552354 0.356892 0.983245
O O8 0.688433 0.326743 0.988357
O O9 0.513153 0.104260 0.750000
O O10 0.444071 0.075601 0.502941
O O11 0.573255 0.035748 0.546151
O O12 0.384560 0.458424 0.750000
O O13 0.319203 0.469755 0.013585
O O14 0.262427 0.641088 0.750000
O O15 0.257966 0.569422 0.524488
O O16 0.176608 0.660540 0.512974
O O17 0.733626 0.026668 0.250000
O O18 0.980698 0.104248 0.250000
O O19 0.962382 0.147938 0.517725
O O20 0.898134 0.306520 0.250000
O O21 0.908690 0.250000 0.000000
#
# Coordination Sequence:
#
# PCOD8231351 Si02
#       8
#     8   8   8   8   8   8   8   8
#     4   9  19  33  50  74 103 135 170 210 258 309
#     4  12  24  37  54  74 103 140 179 218 258 303
#     4  10  20  35  53  75 103 135 174 215 259 306
#     4  10  20  33  52  76 105 136 171 213 260 310
#     4  11  22  35  50  73 104 140 179 216 253 301
#     4  11  20  32  52  77 106 140 173 211 258 309
#     4  10  19  33  52  74 100 133 172 215 259 304
#     4  11  23  36  52  72 101 138 178 218 257 304
#
# _framework density 16.744192000000002
#
# number of rings (size 3 to 8) (size 9 to 14) (size 15 to 20)
#    0.000    1.500    2.500    3.750    0.000    5.000 
#    0.000    0.000    0.000    0.000    0.000    0.875 
#    0.000    6.000    0.000    0.000    0.000    0.000 
#
# Total GULP energy -793949.622353 kJ/mol
# GULP energy per Si atom -12405.462849 kJ/mol
# Density = 1.670608 g / cm^3
# Si number density = 16.744192 Si / 1000 Ang^3
#
#
#
# Elastic Constant Matrix: (Units=GPa)
#
#
# Indices 1 2 3 4 5 6 
#
# 1 102.4626 45.1905 43.6576 0.0000 0.0000 0.0000
# 2 45.1905 79.7390 40.5456 0.0000 0.0000 0.0000
# 3 43.6576 40.5456 92.3148 0.0000 0.0000 0.0000
# 4 0.0000 0.0000 0.0000 29.1568 0.0000 0.0000
# 5 0.0000 0.0000 0.0000 0.0000 28.3612 0.0000
# 6 0.0000 0.0000 0.0000 0.0000 0.0000 6.7327
#
#
#
# Elastic Compliance Matrix: (Units=1/GPa)
#
#
# Indices 1 2 3 4 5 6 
#
# 1 0.014107 -0.005926 -0.004069 0.000000 0.000000 0.000000
# 2 -0.005926 0.018636 -0.005383 0.000000 0.000000 0.000000
# 3 -0.004069 -0.005383 0.015121 0.000000 0.000000 0.000000
# 4 0.000000 0.000000 0.000000 0.034297 0.000000 0.000000
# 5 0.000000 0.000000 0.000000 0.000000 0.035259 0.000000
# 6 0.000000 0.000000 0.000000 0.000000 0.000000 0.148528
#
#
# Mechanical properties :
#
#
# Convention : Reuss Voigt Hill
#
# Bulk Modulus (GPa) = 58.44798 59.25598 58.85198
# Shear Modulus (GPa) = 16.53401 22.52499 19.52950
#
# Velocity S-wave (km/s) = 3.14578 3.67173 3.41888
# Velocity P-wave (km/s) = 6.94095 7.31036 7.12805
#
# Compressibility (1/GPa) = 0.01710923
#
# Stress axis : x y z
#
# Youngs Moduli (GPa) = 70.88753 53.65858 66.13392
#
# Poissons Ratio (x) = 0.31798 0.26908
# Poissons Ratio (y) = 0.42008 0.35598
# Poissons Ratio (z) = 0.28842 0.28883
#
# Static dielectric constant tensor:
#      x y z
#    x 3.242660 0.000000 0.000000 
#    y 0.000000 2.941580 0.000000 
#    z 0.000000 0.000000 3.259610 
# 
# 
# High freq. dielectric constant tensor:
#      x y z
#    x 1.640850 0.000000 0.000000 
#    y 0.000000 1.619010 0.000000 
#    z 0.000000 0.000000 1.663780 
# 
# From -- ./inp_files/7196.got.cif
#   From: 2010.03.12/outbox.cif.g09.slc.cpg/sg57_4_cif.got.tgz:7196.got - 2010.04.16 15:48:40.
