data_PCOD8231984
_publ_section_title
;
Structure prediction by ZEFSAII (Michael W. Deem and Ramdas Pophale) SiO2 
 PCOD8231984
Probable space group: P B C M
;
_chemical_formula_sum "Si O2"
_cell_formula_units_Z 64
_cell_length_a 12.775521
_cell_length_b 14.374544
_cell_length_c 17.291956
_cell_angle_alpha 90.000000
_cell_angle_beta 90.000000
_cell_angle_gamma 90.000000
_cell_volume 3175.534377
_symmetry_space_group_name_H-M "P B C M"
_symmetry_group_IT_number 57
_symmetry_cell_setting 'orthorhombic'
loop_
_space_group_symop_operation_xyz
x,y,z
-x,-y,1/2+z
x,1/2-y,-z
-x,1/2+y,1/2-z
-x,-y,-z
x,y,1/2-z
-x,1/2+y,z
x,1/2-y,1/2+z
loop_
_atom_site_type_symbol
_atom_site_label
_atom_site_fract_x
_atom_site_fract_y
_atom_site_fract_z
Si Si1 0.793342 0.057106 0.909527
Si Si2 0.204457 0.944018 0.907349
Si Si3 0.344064 0.409713 0.835361
Si Si4 0.977951 0.942176 0.657700
Si Si5 0.852461 0.723493 0.334176
Si Si6 0.295225 0.749170 0.591530
Si Si7 0.706442 0.876239 0.157275
Si Si8 0.468593 0.252493 0.908295
O O1 0.775676 0.162773 0.880659
O O2 0.690887 0.999443 0.884167
O O3 0.900480 0.022447 0.871482
O O4 0.803887 0.050706 0.001178
O O5 0.244206 0.844230 0.877097
O O6 0.092414 0.966335 0.870904
O O7 0.286228 0.020548 0.876542
O O8 0.384157 0.440071 0.750000
O O9 0.246141 0.343187 0.824720
O O10 0.434802 0.355081 0.880397
O O11 0.972217 0.940106 0.750000
O O12 0.941831 0.839577 0.623909
O O13 0.895482 0.752874 0.250000
O O14 0.807953 0.816738 0.375624
O O15 0.299013 0.750000 0.500000
O O16 0.413479 0.737690 0.621823
O O17 0.707355 0.875890 0.250000
O O18 0.599418 0.830268 0.128384
O O19 0.457709 0.250000 0.000000
#
# Coordination Sequence:
#
# PCOD8231984 Si02
#       8
#     8   8   8   8   8   8   8   8
#     4  10  20  39  61  81 108 152 198 232 274 343
#     4  11  22  37  56  83 114 148 190 238 284 337
#     4   9  17  33  56  84 111 140 184 237 275 320
#     4  10  20  37  58  84 113 144 182 234 292 342
#     4   7  14  30  52  73 103 140 174 213 268 330
#     4   9  22  40  57  80 115 150 189 236 281 330
#     4  10  20  36  55  83 118 149 183 233 287 340
#     4  10  19  36  60  84 110 149 190 231 282 336
#
# _framework density 20.154088000000002
#
# number of rings (size 3 to 8) (size 9 to 14) (size 15 to 20)
#    0.000    2.500    0.000    3.750    0.000    2.000 
#    0.000   15.000    0.000    0.000    0.000    0.000 
#    0.000    0.000    0.000    0.000    0.000    0.000 
#
# Total GULP energy -793191.489983 kJ/mol
# GULP energy per Si atom -12393.617031 kJ/mol
# Density = 2.010822 g / cm^3
# Si number density = 20.154088 Si / 1000 Ang^3
#
#
#
# Elastic Constant Matrix: (Units=GPa)
#
#
# Indices 1 2 3 4 5 6 
#
# 1 114.7238 66.5174 35.7845 0.0000 0.0000 0.0000
# 2 66.5174 158.4089 38.3987 0.0000 0.0000 0.0000
# 3 35.7845 38.3987 81.2571 0.0000 0.0000 0.0000
# 4 0.0000 0.0000 0.0000 22.4548 0.0000 0.0000
# 5 0.0000 0.0000 0.0000 0.0000 -53.6178 0.0000
# 6 0.0000 0.0000 0.0000 0.0000 0.0000 25.8324
#
#
#
# Elastic Compliance Matrix: (Units=1/GPa)
#
#
# Indices 1 2 3 4 5 6 
#
# 1 0.012282 -0.004344 -0.003356 0.000000 0.000000 0.000000
# 2 -0.004344 0.008666 -0.002182 0.000000 0.000000 0.000000
# 3 -0.003356 -0.002182 0.014816 0.000000 0.000000 0.000000
# 4 0.000000 0.000000 0.000000 0.044534 0.000000 0.000000
# 5 0.000000 0.000000 0.000000 0.000000 -0.018651 0.000000
# 6 0.000000 0.000000 0.000000 0.000000 0.000000 0.038711
#
#
# Mechanical properties :
#
#
# Convention : Reuss Voigt Hill
#
# Bulk Modulus (GPa) = 62.50219 70.64343 66.57281
# Shear Modulus (GPa) = 39.85488 13.17982 26.51735
#
# Velocity S-wave (km/s) = 4.45174 2.56002 3.63124
# Velocity P-wave (km/s) = 7.58311 6.62315 7.11932
#
# Compressibility (1/GPa) = 0.01599944
#
# Stress axis : x y z
#
# Youngs Moduli (GPa) = 81.42017 115.39712 67.49563
#
# Poissons Ratio (x) = 0.50126 0.22652
# Poissons Ratio (y) = 0.35367 0.14728
# Poissons Ratio (z) = 0.27325 0.25181
#
# Static dielectric constant tensor:
#      x y z
#    x 3.655030 0.000000 0.000000 
#    y 0.000000 4.030630 0.000000 
#    z 0.000000 0.000000 3.521610 
# 
# 
# High freq. dielectric constant tensor:
#      x y z
#    x 1.776990 0.000000 0.000000 
#    y 0.000000 1.793020 0.000000 
#    z 0.000000 0.000000 1.772080 
# 
# From -- ./inp_files/22106.got.cif
#   From: 2010.03.12/outbox.cif.g09.slc.cpg/sg57_12_cif.got.tgz:22106.got - 2010.04.16 15:48:40.
