data_PCOD8231247
_publ_section_title
;
Structure prediction by ZEFSAII (Michael W. Deem and Ramdas Pophale) SiO2 
 PCOD8231247
Probable space group: P B C M
;
_chemical_formula_sum "Si O2"
_cell_formula_units_Z 64
_cell_length_a 20.799563
_cell_length_b 18.107554
_cell_length_c 8.882287
_cell_angle_alpha 90.000000
_cell_angle_beta 90.000000
_cell_angle_gamma 90.000000
_cell_volume 3345.328738
_symmetry_space_group_name_H-M "P B C M"
_symmetry_group_IT_number 57
_symmetry_cell_setting 'orthorhombic'
loop_
_space_group_symop_operation_xyz
x,y,z
-x,-y,1/2+z
x,1/2-y,-z
-x,1/2+y,1/2-z
-x,-y,-z
x,y,1/2-z
-x,1/2+y,z
x,1/2-y,1/2+z
loop_
_atom_site_type_symbol
_atom_site_label
_atom_site_fract_x
_atom_site_fract_y
_atom_site_fract_z
Si Si1 0.358664 0.431053 0.572911
Si Si2 0.995990 0.169884 0.928779
Si Si3 0.113798 0.413124 0.572111
Si Si4 0.751895 0.172197 0.571427
Si Si5 0.243481 0.170746 0.426581
Si Si6 0.126932 0.580094 0.928093
Si Si7 0.497866 0.077193 0.422870
Si Si8 0.363739 0.591149 0.427334
O O1 0.349638 0.448636 0.750000
O O2 0.303013 0.377614 0.512539
O O3 0.427290 0.388234 0.541743
O O4 0.354064 0.507590 0.483535
O O5 0.996756 0.177488 0.750000
O O6 0.932033 0.129189 0.988949
O O7 0.999466 0.250000 0.000000
O O8 0.056283 0.122545 0.980760
O O9 0.099801 0.409450 0.750000
O O10 0.178150 0.369956 0.528478
O O11 0.121100 0.496702 0.512450
O O12 0.770289 0.250000 0.500000
O O13 0.750437 0.179902 0.750000
O O14 0.805864 0.114276 0.515923
O O15 0.682891 0.146122 0.514043
O O16 0.245448 0.250000 0.500000
O O17 0.249355 0.181422 0.250000
O O18 0.125374 0.579227 0.750000
O O19 0.503227 0.058378 0.250000
O O20 0.563334 0.121045 0.467132
O O21 0.500000 0.000000 0.500000
O O22 0.349309 0.594728 0.250000
#
# Coordination Sequence:
#
# PCOD8231247 Si02
#       8
#     8   8   8   8   8   8   8   8
#     4   9  17  33  55  77 102 140 181 219 265 318
#     4  11  22  37  57  83 112 143 174 211 258 310
#     4  10  20  37  58  81 107 138 175 217 260 309
#     4  11  22  38  57  78 106 142 179 219 267 320
#     4  10  21  35  53  75 104 140 178 218 264 312
#     4   9  20  38  60  82 106 136 176 221 264 310
#     4   8  15  28  49  75 104 134 172 217 262 312
#     4  10  19  32  52  81 110 137 172 220 268 317
#
# _framework density 19.131155
#
# number of rings (size 3 to 8) (size 9 to 14) (size 15 to 20)
#    0.000    2.250    0.000    3.000    0.000    4.500 
#    0.000    5.625    0.000    1.500    0.000    0.000 
#    0.000    0.000    0.000    0.000    0.000    0.000 
#
# Total GULP energy -793270.345195 kJ/mol
# GULP energy per Si atom -12394.849144 kJ/mol
# Density = 1.908761 g / cm^3
# Si number density = 19.131155 Si / 1000 Ang^3
#
#
#
# Elastic Constant Matrix: (Units=GPa)
#
#
# Indices 1 2 3 4 5 6 
#
# 1 96.0774 -3.1865 20.0546 0.0000 0.0000 0.0000
# 2 -3.1865 54.8049 8.5667 0.0000 0.0000 0.0000
# 3 20.0546 8.5667 41.8382 0.0000 0.0000 0.0000
# 4 0.0000 0.0000 0.0000 27.7961 0.0000 0.0000
# 5 0.0000 0.0000 0.0000 0.0000 25.7607 0.0000
# 6 0.0000 0.0000 0.0000 0.0000 0.0000 70.4072
#
#
#
# Elastic Compliance Matrix: (Units=1/GPa)
#
#
# Indices 1 2 3 4 5 6 
#
# 1 0.011701 0.001609 -0.005938 0.000000 0.000000 0.000000
# 2 0.001609 0.019071 -0.004676 0.000000 0.000000 0.000000
# 3 -0.005938 -0.004676 0.027705 0.000000 0.000000 0.000000
# 4 0.000000 0.000000 0.000000 0.035976 0.000000 0.000000
# 5 0.000000 0.000000 0.000000 0.000000 0.038819 0.000000
# 6 0.000000 0.000000 0.000000 0.000000 0.000000 0.014203
#
#
# Mechanical properties :
#
#
# Convention : Reuss Voigt Hill
#
# Bulk Modulus (GPa) = 24.71189 27.06558 25.88874
# Shear Modulus (GPa) = 27.93677 35.94518 31.94098
#
# Velocity S-wave (km/s) = 3.82550 4.33931 4.09048
# Velocity P-wave (km/s) = 5.69717 6.26771 5.98924
#
# Compressibility (1/GPa) = 0.04046635
#
# Stress axis : x y z
#
# Youngs Moduli (GPa) = 85.46194 52.43575 36.09407
#
# Poissons Ratio (x) = -0.08434 0.21433
# Poissons Ratio (y) = -0.13747 0.16877
# Poissons Ratio (z) = 0.50748 0.24519
#
# Static dielectric constant tensor:
#      x y z
#    x 4.193480 0.000000 0.000000 
#    y 0.000000 3.235550 0.000000 
#    z 0.000000 0.000000 3.376910 
# 
# 
# High freq. dielectric constant tensor:
#      x y z
#    x 1.771420 0.000000 0.000000 
#    y 0.000000 1.730120 0.000000 
#    z 0.000000 0.000000 1.732540 
# 
# From -- ./inp_files/8496.got.cif
#   From: 2010.03.12/outbox.cif.g09.slc.cpg/sg57_5_cif.got.tgz:8496.got - 2010.04.16 15:48:40.
