data_PCOD8231273
_publ_section_title
;
Structure prediction by ZEFSAII (Michael W. Deem and Ramdas Pophale) SiO2 
 PCOD8231273
Probable space group: P B C M
;
_chemical_formula_sum "Si O2"
_cell_formula_units_Z 56
_cell_length_a 19.760111
_cell_length_b 15.506196
_cell_length_c 8.958054
_cell_angle_alpha 90.000000
_cell_angle_beta 90.000000
_cell_angle_gamma 90.000000
_cell_volume 2744.784959
_symmetry_space_group_name_H-M "P B C M"
_symmetry_group_IT_number 57
_symmetry_cell_setting 'orthorhombic'
loop_
_space_group_symop_operation_xyz
x,y,z
-x,-y,1/2+z
x,1/2-y,-z
-x,1/2+y,1/2-z
-x,-y,-z
x,y,1/2-z
-x,1/2+y,z
x,1/2-y,1/2+z
loop_
_atom_site_type_symbol
_atom_site_label
_atom_site_fract_x
_atom_site_fract_y
_atom_site_fract_z
Si Si1 0.286340 0.400544 0.918006
Si Si2 0.841205 0.663065 0.925277
Si Si3 0.072573 0.499886 0.426528
Si Si4 0.432409 0.079832 0.078969
Si Si5 0.158716 0.663729 0.426455
Si Si6 0.422709 0.903670 0.920046
Si Si7 0.708722 0.104680 0.578613
O O1 0.261356 0.380749 0.750000
O O2 0.363121 0.365280 0.943642
O O3 0.285992 0.502741 0.948263
O O4 0.236832 0.352549 0.031375
O O5 0.846033 0.673655 0.750000
O O6 0.886666 0.583832 0.982864
O O7 0.869348 0.750000 0.000000
O O8 0.064355 0.499108 0.250000
O O9 0.113194 0.583892 0.480927
O O10 0.000000 0.500000 0.500000
O O11 0.431163 0.042281 0.250000
O O12 0.501315 0.136723 0.056597
O O13 0.431681 0.004227 0.957767
O O14 0.127840 0.750000 0.500000
O O15 0.157905 0.672948 0.250000
O O16 0.235262 0.651983 0.480750
O O17 0.398276 0.893746 0.750000
O O18 0.365249 0.861393 0.024959
O O19 0.719054 0.130566 0.750000
#
# Coordination Sequence:
#
# PCOD8231273 Si02
#       7
#     8   8   8   8   8   8   8
#     4   9  17  31  53  80 112 153 198 245 295 349
#     4  11  23  40  61  90 122 157 199 243 290 347
#     4  10  24  44  67  93 125 157 194 237 287 349
#     4   8  15  26  41  69 107 147 196 245 298 355
#     4  11  23  41  63  92 124 158 200 245 293 351
#     4   9  15  24  42  70 107 149 193 248 300 351
#     4  10  19  32  53  81 114 155 200 246 297 356
#
# _framework density 20.402328000000001
#
# number of rings (size 3 to 8) (size 9 to 14) (size 15 to 20)
#    0.000    2.286    1.429    2.571    0.000    5.714 
#    0.000    2.857    0.000    0.857    0.000    4.000 
#    0.000    0.000    0.000    0.000    0.000    0.000 
#
# Total GULP energy -694182.342159 kJ/mol
# GULP energy per Si atom -12396.113253 kJ/mol
# Density = 2.035589 g / cm^3
# Si number density = 20.402328 Si / 1000 Ang^3
#
#
#
# Elastic Constant Matrix: (Units=GPa)
#
#
# Indices 1 2 3 4 5 6 
#
# 1 152.7891 58.6344 42.1557 0.0000 0.0000 0.0000
# 2 58.6344 104.7973 39.7899 0.0000 0.0000 0.0000
# 3 42.1557 39.7899 73.4250 0.0000 0.0000 0.0000
# 4 0.0000 0.0000 0.0000 26.9172 0.0000 0.0000
# 5 0.0000 0.0000 0.0000 0.0000 37.7056 0.0000
# 6 0.0000 0.0000 0.0000 0.0000 0.0000 4.9106
#
#
#
# Elastic Compliance Matrix: (Units=1/GPa)
#
#
# Indices 1 2 3 4 5 6 
#
# 1 0.008834 -0.003799 -0.003013 0.000000 0.000000 0.000000
# 2 -0.003799 0.013648 -0.005215 0.000000 0.000000 0.000000
# 3 -0.003013 -0.005215 0.018176 0.000000 0.000000 0.000000
# 4 0.000000 0.000000 0.000000 0.037151 0.000000 0.000000
# 5 0.000000 0.000000 0.000000 0.000000 0.026521 0.000000
# 6 0.000000 0.000000 0.000000 0.000000 0.000000 0.203642
#
#
# Mechanical properties :
#
#
# Convention : Reuss Voigt Hill
#
# Bulk Modulus (GPa) = 60.22893 68.01904 64.12398
# Shear Modulus (GPa) = 14.81218 26.60210 20.70714
#
# Velocity S-wave (km/s) = 2.69737 3.61484 3.18927
# Velocity P-wave (km/s) = 6.26784 7.12980 6.71267
#
# Compressibility (1/GPa) = 0.01660332
#
# Stress axis : x y z
#
# Youngs Moduli (GPa) = 113.19699 73.27318 55.01910
#
# Poissons Ratio (x) = 0.27833 0.16580
# Poissons Ratio (y) = 0.42999 0.28692
# Poissons Ratio (z) = 0.34112 0.38211
#
# Static dielectric constant tensor:
#      x y z
#    x 3.974220 0.000000 0.000000 
#    y 0.000000 3.513270 0.000000 
#    z 0.000000 0.000000 3.658350 
# 
# 
# High freq. dielectric constant tensor:
#      x y z
#    x 1.808480 0.000000 0.000000 
#    y 0.000000 1.760230 0.000000 
#    z 0.000000 0.000000 1.798860 
# 
# From -- ./inp_files/8151.got.cif
#   From: 2010.03.12/outbox.cif.g09.slc.cpg/sg57_5_cif.got.tgz:8151.got - 2010.04.16 15:48:40.
