data_PCOD8231246
_publ_section_title
;
Structure prediction by ZEFSAII (Michael W. Deem and Ramdas Pophale) SiO2 
 PCOD8231246
Probable space group: P B C M
;
_chemical_formula_sum "Si O2"
_cell_formula_units_Z 56
_cell_length_a 21.181420
_cell_length_b 15.585031
_cell_length_c 8.604676
_cell_angle_alpha 90.000000
_cell_angle_beta 90.000000
_cell_angle_gamma 90.000000
_cell_volume 2840.516160
_symmetry_space_group_name_H-M "P B C M"
_symmetry_group_IT_number 57
_symmetry_cell_setting 'orthorhombic'
loop_
_space_group_symop_operation_xyz
x,y,z
-x,-y,1/2+z
x,1/2-y,-z
-x,1/2+y,1/2-z
-x,-y,-z
x,y,1/2-z
-x,1/2+y,z
x,1/2-y,1/2+z
loop_
_atom_site_type_symbol
_atom_site_label
_atom_site_fract_x
_atom_site_fract_y
_atom_site_fract_z
Si Si1 0.471264 0.913947 0.066863
Si Si2 0.878873 0.161507 0.934285
Si Si3 0.415444 0.336000 0.932687
Si Si4 0.348086 0.505199 0.566699
Si Si5 0.994308 0.905080 0.565813
Si Si6 0.136132 0.340960 0.434242
Si Si7 0.792970 0.498045 0.434434
O O1 0.481142 0.909560 0.250000
O O2 0.395980 0.916012 0.024480
O O3 0.510758 0.837779 0.987293
O O4 0.500000 0.000000 0.000000
O O5 0.885373 0.165629 0.750000
O O6 0.835254 0.082315 0.986879
O O7 0.849196 0.250000 0.000000
O O8 0.946912 0.151313 0.012088
O O9 0.413130 0.334285 0.750000
O O10 0.375845 0.415998 0.001611
O O11 0.383947 0.250000 0.000000
O O12 0.345041 0.494690 0.750000
O O13 0.277778 0.522258 0.503914
O O14 0.990831 0.910305 0.750000
O O15 0.932406 0.859229 0.503203
O O16 0.000000 0.000000 0.500000
O O17 0.160875 0.250000 0.500000
O O18 0.132070 0.336918 0.250000
O O19 0.184109 0.415329 0.484451
O O20 0.796190 0.511204 0.250000
#
# Coordination Sequence:
#
# PCOD8231246 Si02
#       7
#     8   8   8   8   8   8   8
#     4   9  16  30  52  77 105 137 177 220 270 322
#     4  11  23  39  62  87 116 152 194 242 296 350
#     4  10  19  32  52  80 112 144 184 231 284 338
#     4   8  17  34  56  79 107 146 187 230 280 338
#     4  12  23  39  63  90 120 150 190 240 297 354
#     4  12  25  41  61  87 120 156 197 242 293 351
#     4  10  21  40  62  84 115 155 198 242 293 347
#
# _framework density 19.714725999999999
#
# number of rings (size 3 to 8) (size 9 to 14) (size 15 to 20)
#    0.000    1.714    1.429    5.143    0.000    1.143 
#    0.000    6.429    0.000    1.714    0.000    0.000 
#    0.000    0.000    0.000    0.000    0.000    0.000 
#
# Total GULP energy -694199.662949 kJ/mol
# GULP energy per Si atom -12396.422553 kJ/mol
# Density = 1.966985 g / cm^3
# Si number density = 19.714726 Si / 1000 Ang^3
#
#
#
# Elastic Constant Matrix: (Units=GPa)
#
#
# Indices 1 2 3 4 5 6 
#
# 1 111.9495 16.5834 21.0255 0.0000 0.0000 0.0000
# 2 16.5834 90.3880 24.0241 0.0000 0.0000 0.0000
# 3 21.0255 24.0241 93.2347 0.0000 0.0000 0.0000
# 4 0.0000 0.0000 0.0000 34.2825 0.0000 0.0000
# 5 0.0000 0.0000 0.0000 0.0000 21.9798 0.0000
# 6 0.0000 0.0000 0.0000 0.0000 0.0000 18.1324
#
#
#
# Elastic Compliance Matrix: (Units=1/GPa)
#
#
# Indices 1 2 3 4 5 6 
#
# 1 0.009458 -0.001254 -0.001810 0.000000 0.000000 0.000000
# 2 -0.001254 0.012043 -0.002820 0.000000 0.000000 0.000000
# 3 -0.001810 -0.002820 0.011860 0.000000 0.000000 0.000000
# 4 0.000000 0.000000 0.000000 0.029169 0.000000 0.000000
# 5 0.000000 0.000000 0.000000 0.000000 0.045496 0.000000
# 6 0.000000 0.000000 0.000000 0.000000 0.000000 0.055150
#
#
# Mechanical properties :
#
#
# Convention : Reuss Voigt Hill
#
# Bulk Modulus (GPa) = 46.31104 46.53760 46.42432
# Shear Modulus (GPa) = 27.45078 30.47487 28.96283
#
# Velocity S-wave (km/s) = 3.73554 3.93592 3.83704
# Velocity P-wave (km/s) = 6.49209 6.65673 6.57492
#
# Compressibility (1/GPa) = 0.02159313
#
# Stress axis : x y z
#
# Youngs Moduli (GPa) = 105.72729 83.03476 84.31373
#
# Poissons Ratio (x) = 0.10415 0.15259
# Poissons Ratio (y) = 0.13261 0.23779
# Poissons Ratio (z) = 0.19134 0.23419
#
# Static dielectric constant tensor:
#      x y z
#    x 4.012580 0.000000 0.000000 
#    y 0.000000 3.897110 0.000000 
#    z 0.000000 0.000000 3.644570 
# 
# 
# High freq. dielectric constant tensor:
#      x y z
#    x 1.766260 0.000000 0.000000 
#    y 0.000000 1.767300 0.000000 
#    z 0.000000 0.000000 1.765150 
# 
# From -- ./inp_files/8037.got.cif
#   From: 2010.03.12/outbox.cif.g09.slc.cpg/sg57_5_cif.got.tgz:8037.got - 2010.04.16 15:48:40.
