data_PCOD8231616
_publ_section_title
;
Structure prediction by ZEFSAII (Michael W. Deem and Ramdas Pophale) SiO2 
 PCOD8231616
Probable space group: P B C M
;
_chemical_formula_sum "Si O2"
_cell_formula_units_Z 56
_cell_length_a 14.207815
_cell_length_b 25.746148
_cell_length_c 8.829084
_cell_angle_alpha 90.000000
_cell_angle_beta 90.000000
_cell_angle_gamma 90.000000
_cell_volume 3229.648094
_symmetry_space_group_name_H-M "P B C M"
_symmetry_group_IT_number 57
_symmetry_cell_setting 'orthorhombic'
loop_
_space_group_symop_operation_xyz
x,y,z
-x,-y,1/2+z
x,1/2-y,-z
-x,1/2+y,1/2-z
-x,-y,-z
x,y,1/2-z
-x,1/2+y,z
x,1/2-y,1/2+z
loop_
_atom_site_type_symbol
_atom_site_label
_atom_site_fract_x
_atom_site_fract_y
_atom_site_fract_z
Si Si1 0.895862 0.196702 0.928003
Si Si2 0.110177 0.303953 0.070846
Si Si3 0.898334 0.500732 0.071551
Si Si4 0.778171 0.097572 0.570529
Si Si5 0.600819 0.559946 0.572753
Si Si6 0.216932 0.100999 0.070899
Si Si7 0.405697 0.560147 0.072654
O O1 0.891094 0.203201 0.750000
O O2 0.830032 0.149854 0.982997
O O3 0.002682 0.184812 0.979827
O O4 0.858261 0.250000 0.000000
O O5 0.120148 0.301306 0.250000
O O6 0.145047 0.250000 0.000000
O O7 0.176313 0.348373 0.007265
O O8 0.910077 0.499683 0.250000
O O9 0.841147 0.450627 0.015245
O O10 0.843940 0.551825 0.016032
O O11 0.000000 0.500000 0.000000
O O12 0.761728 0.095713 0.750000
O O13 0.678619 0.096054 0.486167
O O14 0.609837 0.571097 0.750000
O O15 0.676378 0.593851 0.482710
O O16 0.617704 0.499557 0.533806
O O17 0.498761 0.577904 0.515725
O O18 0.214093 0.107643 0.250000
O O19 0.421913 0.568423 0.250000
#
# Coordination Sequence:
#
# PCOD8231616 Si02
#       7
#     8   8   8   8   8   8   8
#     4   9  19  34  54  76 103 139 180 222 262 307
#     4  10  20  36  56  78 106 140 182 224 263 311
#     4  10  21  33  48  72 106 141 174 212 259 315
#     4  10  19  34  52  74 105 141 174 213 265 315
#     4  10  20  34  53  76 105 140 175 214 262 317
#     4  11  21  34  53  78 107 140 176 218 265 315
#     4  10  20  33  52  78 105 136 175 218 261 313
#
# _framework density 17.33935
#
# number of rings (size 3 to 8) (size 9 to 14) (size 15 to 20)
#    0.000    2.000    1.429    2.571    0.000    5.143 
#    0.000    0.000    0.000    0.857    0.000    4.000 
#    0.000    0.000    0.000    0.000    0.000    0.000 
#
# Total GULP energy -694651.406531 kJ/mol
# GULP energy per Si atom -12404.489402 kJ/mol
# Density = 1.729988 g / cm^3
# Si number density = 17.339350 Si / 1000 Ang^3
#
#
#
# Elastic Constant Matrix: (Units=GPa)
#
#
# Indices 1 2 3 4 5 6 
#
# 1 115.4374 64.7357 31.7035 0.0000 0.0000 0.0000
# 2 64.7357 126.2289 36.2073 0.0000 0.0000 0.0000
# 3 31.7035 36.2073 49.8257 0.0000 0.0000 0.0000
# 4 0.0000 0.0000 0.0000 28.5323 0.0000 0.0000
# 5 0.0000 0.0000 0.0000 0.0000 34.7456 0.0000
# 6 0.0000 0.0000 0.0000 0.0000 0.0000 56.4447
#
#
#
# Elastic Compliance Matrix: (Units=1/GPa)
#
#
# Indices 1 2 3 4 5 6 
#
# 1 0.012843 -0.005360 -0.004277 0.000000 0.000000 0.000000
# 2 -0.005360 0.012245 -0.005488 0.000000 0.000000 0.000000
# 3 -0.004277 -0.005488 0.026779 0.000000 0.000000 0.000000
# 4 0.000000 0.000000 0.000000 0.035048 0.000000 0.000000
# 5 0.000000 0.000000 0.000000 0.000000 0.028781 0.000000
# 6 0.000000 0.000000 0.000000 0.000000 0.000000 0.017716
#
#
# Mechanical properties :
#
#
# Convention : Reuss Voigt Hill
#
# Bulk Modulus (GPa) = 46.25762 61.86501 54.06131
# Shear Modulus (GPa) = 29.26247 34.53421 31.89834
#
# Velocity S-wave (km/s) = 4.11254 4.46765 4.29377
# Velocity P-wave (km/s) = 7.02043 7.89744 7.47181
#
# Compressibility (1/GPa) = 0.02161806
#
# Stress axis : x y z
#
# Youngs Moduli (GPa) = 77.86378 81.66682 37.34221
#
# Poissons Ratio (x) = 0.43770 0.15972
# Poissons Ratio (y) = 0.41732 0.20493
# Poissons Ratio (z) = 0.33303 0.44818
#
# Static dielectric constant tensor:
#      x y z
#    x 3.303260 0.000000 0.000000 
#    y 0.000000 3.210830 0.000000 
#    z 0.000000 0.000000 3.217690 
# 
# 
# High freq. dielectric constant tensor:
#      x y z
#    x 1.671280 0.000000 0.000000 
#    y 0.000000 1.655560 0.000000 
#    z 0.000000 0.000000 1.675950 
# 
# From -- ./inp_files/5249.got.cif
#   From: 2010.03.12/outbox.cif.g09.slc.cpg/sg57_3_cif.got.tgz:5249.got - 2010.04.16 15:48:40.
