data_PCOD8231745
_publ_section_title
;
Structure prediction by ZEFSAII (Michael W. Deem and Ramdas Pophale) SiO2 
 PCOD8231745
Probable space group: P B C M
;
_chemical_formula_sum "Si O2"
_cell_formula_units_Z 64
_cell_length_a 23.458067
_cell_length_b 14.694081
_cell_length_c 9.158846
_cell_angle_alpha 90.000000
_cell_angle_beta 90.000000
_cell_angle_gamma 90.000000
_cell_volume 3157.006010
_symmetry_space_group_name_H-M "P B C M"
_symmetry_group_IT_number 57
_symmetry_cell_setting 'orthorhombic'
loop_
_space_group_symop_operation_xyz
x,y,z
-x,-y,1/2+z
x,1/2-y,-z
-x,1/2+y,1/2-z
-x,-y,-z
x,y,1/2-z
-x,1/2+y,z
x,1/2-y,1/2+z
loop_
_atom_site_type_symbol
_atom_site_label
_atom_site_fract_x
_atom_site_fract_y
_atom_site_fract_z
Si Si1 0.559951 0.019075 0.425537
Si Si2 0.954259 0.340366 0.578806
Si Si3 0.254061 0.980634 0.083483
Si Si4 0.356291 0.652809 0.575209
Si Si5 0.739129 0.833555 0.410666
Si Si6 0.873251 0.469940 0.415421
Si Si7 0.607024 0.830771 0.092307
Si Si8 0.916341 0.662649 0.417349
O O1 0.555609 0.033776 0.250000
O O2 0.588388 0.106438 0.502095
O O3 0.500000 0.000000 0.500000
O O4 0.597953 0.931696 0.471234
O O5 0.931814 0.250000 0.500000
O O6 0.947346 0.327161 0.750000
O O7 0.914679 0.422564 0.528941
O O8 0.019216 0.361440 0.531704
O O9 0.264786 0.010995 0.250000
O O10 0.300610 0.906735 0.034616
O O11 0.191521 0.935456 0.065612
O O12 0.255493 0.069819 0.986449
O O13 0.347503 0.750000 0.500000
O O14 0.364250 0.662404 0.750000
O O15 0.768088 0.750000 0.500000
O O16 0.767629 0.838283 0.250000
O O17 0.673141 0.809819 0.392943
O O18 0.895069 0.452414 0.250000
O O19 0.875147 0.577899 0.449773
O O20 0.576822 0.826730 0.250000
O O21 0.577450 0.750000 0.000000
O O22 0.891632 0.750000 0.500000
O O23 0.917215 0.690063 0.250000
#
# Coordination Sequence:
#
# PCOD8231745 Si02
#       8
#     8   8   8   8   8   8   8   8
#     4  11  23  41  63  92 125 157 196 242 291 346
#     4  10  20  35  56  82 110 148 195 243 297 355
#     4  10  22  39  59  85 118 156 199 244 295 350
#     4  11  24  43  66  89 117 159 204 248 297 351
#     4  10  19  34  57  84 113 148 188 232 284 342
#     4  10  21  37  56  83 118 152 192 246 297 349
#     4   9  19  34  56  84 114 146 183 226 275 332
#     4   9  19  35  56  81 114 153 193 240 295 354
#
# _framework density 20.272371
#
# number of rings (size 3 to 8) (size 9 to 14) (size 15 to 20)
#    0.000    2.000    1.250    1.875    0.000    5.000 
#    0.000    3.750    0.000    0.000    0.000    0.000 
#    0.000    0.000    0.000    0.000    0.000    0.000 
#
# Total GULP energy -793511.240852 kJ/mol
# GULP energy per Si atom -12398.613138 kJ/mol
# Density = 2.022623 g / cm^3
# Si number density = 20.272371 Si / 1000 Ang^3
#
#
#
# Elastic Constant Matrix: (Units=GPa)
#
#
# Indices 1 2 3 4 5 6 
#
# 1 76.7524 29.1675 33.3400 0.0000 0.0000 0.0000
# 2 29.1675 118.7704 60.1225 0.0000 0.0000 0.0000
# 3 33.3400 60.1225 107.3125 0.0000 0.0000 0.0000
# 4 0.0000 0.0000 0.0000 43.6424 0.0000 0.0000
# 5 0.0000 0.0000 0.0000 0.0000 20.4351 0.0000
# 6 0.0000 0.0000 0.0000 0.0000 0.0000 11.1901
#
#
#
# Elastic Compliance Matrix: (Units=1/GPa)
#
#
# Indices 1 2 3 4 5 6 
#
# 1 0.015361 -0.001894 -0.003711 0.000000 0.000000 0.000000
# 2 -0.001894 0.011986 -0.006127 0.000000 0.000000 0.000000
# 3 -0.003711 -0.006127 0.013904 0.000000 0.000000 0.000000
# 4 0.000000 0.000000 0.000000 0.022913 0.000000 0.000000
# 5 0.000000 0.000000 0.000000 0.000000 0.048935 0.000000
# 6 0.000000 0.000000 0.000000 0.000000 0.000000 0.089365
#
#
# Mechanical properties :
#
#
# Convention : Reuss Voigt Hill
#
# Bulk Modulus (GPa) = 56.22007 60.89947 58.55977
# Shear Modulus (GPa) = 21.56492 27.06721 24.31606
#
# Velocity S-wave (km/s) = 3.26507 3.65797 3.46709
# Velocity P-wave (km/s) = 6.48127 6.92437 6.70648
#
# Compressibility (1/GPa) = 0.01778724
#
# Stress axis : x y z
#
# Youngs Moduli (GPa) = 65.10134 83.42947 71.91981
#
# Poissons Ratio (x) = 0.15797 0.26693
# Poissons Ratio (y) = 0.12327 0.44066
# Poissons Ratio (z) = 0.24162 0.51118
#
# Static dielectric constant tensor:
#      x y z
#    x 3.587170 0.000000 0.000000 
#    y 0.000000 3.663730 0.000000 
#    z 0.000000 0.000000 3.888060 
# 
# 
# High freq. dielectric constant tensor:
#      x y z
#    x 1.782840 0.000000 0.000000 
#    y 0.000000 1.792090 0.000000 
#    z 0.000000 0.000000 1.797820 
# 
# From -- ./inp_files/9509.got.cif
#   From: 2010.03.12/outbox.cif.g09.slc.cpg/sg57_5_cif.got.tgz:9509.got - 2010.04.16 15:48:40.
