data_PCOD8231915
_publ_section_title
;
Structure prediction by ZEFSAII (Michael W. Deem and Ramdas Pophale) SiO2 
 PCOD8231915
Probable space group: P B C M
;
_chemical_formula_sum "Si O2"
_cell_formula_units_Z 64
_cell_length_a 23.740010
_cell_length_b 14.845720
_cell_length_c 8.864634
_cell_angle_alpha 90.000000
_cell_angle_beta 90.000000
_cell_angle_gamma 90.000000
_cell_volume 3124.229811
_symmetry_space_group_name_H-M "P B C M"
_symmetry_group_IT_number 57
_symmetry_cell_setting 'orthorhombic'
loop_
_space_group_symop_operation_xyz
x,y,z
-x,-y,1/2+z
x,1/2-y,-z
-x,1/2+y,1/2-z
-x,-y,-z
x,y,1/2-z
-x,1/2+y,z
x,1/2-y,1/2+z
loop_
_atom_site_type_symbol
_atom_site_label
_atom_site_fract_x
_atom_site_fract_y
_atom_site_fract_z
Si Si1 0.601573 0.164083 0.917158
Si Si2 0.253173 0.030806 0.427097
Si Si3 0.872393 0.970264 0.575900
Si Si4 0.643500 0.848919 0.931075
Si Si5 0.042330 0.341054 0.073092
Si Si6 0.561245 0.510723 0.930176
Si Si7 0.084457 0.839359 0.424593
Si Si8 0.267825 0.665197 0.914707
O O1 0.573994 0.149994 0.750000
O O2 0.666611 0.185076 0.894663
O O3 0.572562 0.250000 0.000000
O O4 0.596292 0.076601 0.021258
O O5 0.264041 0.019566 0.250000
O O6 0.190214 0.066527 0.461846
O O7 0.299584 0.100599 0.488884
O O8 0.259592 0.930827 0.499805
O O9 0.887910 0.952841 0.750000
O O10 0.917984 0.922752 0.472997
O O11 0.874752 0.076927 0.539410
O O12 0.639434 0.844986 0.750000
O O13 0.644723 0.750000 0.000000
O O14 0.589769 0.900832 0.998248
O O15 0.044947 0.329953 0.250000
O O16 0.978840 0.360097 0.014665
O O17 0.066339 0.250000 0.000000
O O18 0.559067 0.519321 0.750000
O O19 0.500000 0.500000 0.000000
O O20 0.109960 0.750000 0.500000
O O21 0.080503 0.818925 0.250000
O O22 0.238434 0.661027 0.750000
O O23 0.239634 0.750000 0.000000
#
# Coordination Sequence:
#
# PCOD8231915 Si02
#       8
#     8   8   8   8   8   8   8   8
#     4  10  19  35  59  88 121 154 189 233 283 338
#     4   9  19  37  59  82 117 158 194 238 294 348
#     4  10  20  35  56  83 114 151 194 243 296 350
#     4  11  23  44  67  90 120 160 203 247 296 351
#     4  10  20  35  54  78 109 147 192 245 299 354
#     4  12  25  42  65  94 124 158 197 243 294 349
#     4   9  19  34  54  80 113 152 193 238 295 356
#     4   9  17  32  54  81 111 147 183 224 277 336
#
# _framework density 20.485049
#
# number of rings (size 3 to 8) (size 9 to 14) (size 15 to 20)
#    0.000    2.000    1.250    2.625    0.000    3.000 
#    0.000    5.625    0.000    0.000    0.000    0.000 
#    0.000    0.000    0.000    0.000    0.000    0.000 
#
# Total GULP energy -793458.186366 kJ/mol
# GULP energy per Si atom -12397.784162 kJ/mol
# Density = 2.043842 g / cm^3
# Si number density = 20.485049 Si / 1000 Ang^3
#
#
#
# Elastic Constant Matrix: (Units=GPa)
#
#
# Indices 1 2 3 4 5 6 
#
# 1 85.9657 36.3765 30.0981 0.0000 0.0000 0.0000
# 2 36.3765 136.6600 47.2465 0.0000 0.0000 0.0000
# 3 30.0981 47.2465 94.1877 0.0000 0.0000 0.0000
# 4 0.0000 0.0000 0.0000 38.8444 0.0000 0.0000
# 5 0.0000 0.0000 0.0000 0.0000 14.9486 0.0000
# 6 0.0000 0.0000 0.0000 0.0000 0.0000 12.8631
#
#
#
# Elastic Compliance Matrix: (Units=1/GPa)
#
#
# Indices 1 2 3 4 5 6 
#
# 1 0.013824 -0.002604 -0.003111 0.000000 0.000000 0.000000
# 2 -0.002604 0.009343 -0.003855 0.000000 0.000000 0.000000
# 3 -0.003111 -0.003855 0.013545 0.000000 0.000000 0.000000
# 4 0.000000 0.000000 0.000000 0.025744 0.000000 0.000000
# 5 0.000000 0.000000 0.000000 0.000000 0.066896 0.000000
# 6 0.000000 0.000000 0.000000 0.000000 0.000000 0.077742
#
#
# Mechanical properties :
#
#
# Convention : Reuss Voigt Hill
#
# Bulk Modulus (GPa) = 56.90838 60.47283 58.69060
# Shear Modulus (GPa) = 21.54333 26.87070 24.20701
#
# Velocity S-wave (km/s) = 3.24645 3.62570 3.44130
# Velocity P-wave (km/s) = 6.47251 6.86383 6.67104
#
# Compressibility (1/GPa) = 0.01757211
#
# Stress axis : x y z
#
# Youngs Moduli (GPa) = 72.33937 107.02969 73.82882
#
# Poissons Ratio (x) = 0.27871 0.22970
# Poissons Ratio (y) = 0.18837 0.28458
# Poissons Ratio (z) = 0.22506 0.41256
#
# Static dielectric constant tensor:
#      x y z
#    x 3.646670 0.000000 0.000000 
#    y 0.000000 3.799770 0.000000 
#    z 0.000000 0.000000 3.759220 
# 
# 
# High freq. dielectric constant tensor:
#      x y z
#    x 1.794580 0.000000 0.000000 
#    y 0.000000 1.806670 0.000000 
#    z 0.000000 0.000000 1.786760 
# 
# From -- ./inp_files/9291.got.cif
#   From: 2010.03.12/outbox.cif.g09.slc.cpg/sg57_5_cif.got.tgz:9291.got - 2010.04.16 15:48:40.
