data_PCOD8231714
_publ_section_title
;
Structure prediction by ZEFSAII (Michael W. Deem and Ramdas Pophale) SiO2 
 PCOD8231714
Probable space group: P B C M
;
_chemical_formula_sum "Si O2"
_cell_formula_units_Z 64
_cell_length_a 20.732359
_cell_length_b 18.727929
_cell_length_c 8.727535
_cell_angle_alpha 90.000000
_cell_angle_beta 90.000000
_cell_angle_gamma 90.000000
_cell_volume 3388.676211
_symmetry_space_group_name_H-M "P B C M"
_symmetry_group_IT_number 57
_symmetry_cell_setting 'orthorhombic'
loop_
_space_group_symop_operation_xyz
x,y,z
-x,-y,1/2+z
x,1/2-y,-z
-x,1/2+y,1/2-z
-x,-y,-z
x,y,1/2-z
-x,1/2+y,z
x,1/2-y,1/2+z
loop_
_atom_site_type_symbol
_atom_site_label
_atom_site_fract_x
_atom_site_fract_y
_atom_site_fract_z
Si Si1 0.117725 0.826009 0.431226
Si Si2 0.398659 0.176021 0.930335
Si Si3 0.498182 0.578027 0.431947
Si Si4 0.061438 0.538087 0.430914
Si Si5 0.748997 0.105857 0.569716
Si Si6 0.751054 0.676956 0.571602
Si Si7 0.614741 0.172467 0.932234
Si Si8 0.804134 0.970764 0.430416
O O1 0.099050 0.750000 0.500000
O O2 0.111216 0.823622 0.250000
O O3 0.067264 0.883242 0.497410
O O4 0.190062 0.846760 0.484344
O O5 0.413505 0.173660 0.750000
O O6 0.323713 0.166296 0.968289
O O7 0.424521 0.250000 0.000000
O O8 0.434900 0.113460 0.018173
O O9 0.500000 0.500000 0.500000
O O10 0.491868 0.576062 0.250000
O O11 0.438191 0.619286 0.503386
O O12 0.054571 0.544924 0.250000
O O13 0.123502 0.491276 0.478692
O O14 0.000000 0.500000 0.500000
O O15 0.748766 0.096449 0.750000
O O16 0.684572 0.144791 0.511859
O O17 0.753138 0.026996 0.498466
O O18 0.778438 0.750000 0.500000
O O19 0.762840 0.683763 0.750000
O O20 0.789153 0.608411 0.504749
O O21 0.609882 0.175686 0.750000
O O22 0.601885 0.250000 0.000000
O O23 0.794160 0.972155 0.250000
#
# Coordination Sequence:
#
# PCOD8231714 Si02
#       8
#     8   8   8   8   8   8   8   8
#     4  10  19  34  56  84 116 148 187 231 277 330
#     4  10  20  37  59  82 108 141 182 226 277 335
#     4  12  26  42  58  79 108 144 185 233 282 333
#     4  10  20  36  57  81 113 152 192 232 278 329
#     4   9  20  35  55  84 115 146 183 227 276 333
#     4   9  19  35  56  83 110 140 179 225 277 331
#     4  11  23  40  59  84 114 148 186 227 278 335
#     4   9  19  35  56  82 112 146 184 229 279 330
#
# _framework density 18.886431000000002
#
# number of rings (size 3 to 8) (size 9 to 14) (size 15 to 20)
#    0.000    2.000    0.000    3.375    1.750    3.000 
#    0.000    0.625    0.000    1.500    0.000    0.000 
#    0.000    0.000    0.000    0.000    0.000    0.000 
#
# Total GULP energy -793809.562858 kJ/mol
# GULP energy per Si atom -12403.274420 kJ/mol
# Density = 1.884345 g / cm^3
# Si number density = 18.886431 Si / 1000 Ang^3
#
#
#
# Elastic Constant Matrix: (Units=GPa)
#
#
# Indices 1 2 3 4 5 6 
#
# 1 87.5372 74.2654 40.5204 0.0000 0.0000 0.0000
# 2 74.2654 194.2277 54.1020 0.0000 0.0000 0.0000
# 3 40.5204 54.1020 74.1590 0.0000 0.0000 0.0000
# 4 0.0000 0.0000 0.0000 38.1915 0.0000 0.0000
# 5 0.0000 0.0000 0.0000 0.0000 25.1330 0.0000
# 6 0.0000 0.0000 0.0000 0.0000 0.0000 31.8360
#
#
#
# Elastic Compliance Matrix: (Units=1/GPa)
#
#
# Indices 1 2 3 4 5 6 
#
# 1 0.019054 -0.005504 -0.006396 0.000000 0.000000 0.000000
# 2 -0.005504 0.008052 -0.002867 0.000000 0.000000 0.000000
# 3 -0.006396 -0.002867 0.019070 0.000000 0.000000 0.000000
# 4 0.000000 0.000000 0.000000 0.026184 0.000000 0.000000
# 5 0.000000 0.000000 0.000000 0.000000 0.039788 0.000000
# 6 0.000000 0.000000 0.000000 0.000000 0.000000 0.031411
#
#
# Mechanical properties :
#
#
# Convention : Reuss Voigt Hill
#
# Bulk Modulus (GPa) = 60.08385 77.07772 68.58079
# Shear Modulus (GPa) = 27.98945 31.50117 29.74531
#
# Velocity S-wave (km/s) = 3.85384 4.08846 3.97288
# Velocity P-wave (km/s) = 7.18923 7.94903 7.57866
#
# Compressibility (1/GPa) = 0.01664341
#
# Stress axis : x y z
#
# Youngs Moduli (GPa) = 52.48343 124.19913 52.43739
#
# Poissons Ratio (x) = 0.68358 0.33537
# Poissons Ratio (y) = 0.28886 0.15032
# Poissons Ratio (z) = 0.33566 0.35603
#
# Static dielectric constant tensor:
#      x y z
#    x 3.495870 0.000000 0.000000 
#    y 0.000000 3.422840 0.000000 
#    z 0.000000 0.000000 3.457360 
# 
# 
# High freq. dielectric constant tensor:
#      x y z
#    x 1.724920 0.000000 0.000000 
#    y 0.000000 1.746880 0.000000 
#    z 0.000000 0.000000 1.739760 
# 
# From -- ./inp_files/8566.got.cif
#   From: 2010.03.12/outbox.cif.g09.slc.cpg/sg57_5_cif.got.tgz:8566.got - 2010.04.16 15:48:40.
