data_PCOD8231966
_publ_section_title
;
Structure prediction by ZEFSAII (Michael W. Deem and Ramdas Pophale) SiO2 
 PCOD8231966
Probable space group: P B C M
;
_chemical_formula_sum "Si O2"
_cell_formula_units_Z 64
_cell_length_a 19.342423
_cell_length_b 9.238151
_cell_length_c 17.152036
_cell_angle_alpha 90.000000
_cell_angle_beta 90.000000
_cell_angle_gamma 90.000000
_cell_volume 3064.866857
_symmetry_space_group_name_H-M "P B C M"
_symmetry_group_IT_number 57
_symmetry_cell_setting 'orthorhombic'
loop_
_space_group_symop_operation_xyz
x,y,z
-x,-y,1/2+z
x,1/2-y,-z
-x,1/2+y,1/2-z
-x,-y,-z
x,y,1/2-z
-x,1/2+y,z
x,1/2-y,1/2+z
loop_
_atom_site_type_symbol
_atom_site_label
_atom_site_fract_x
_atom_site_fract_y
_atom_site_fract_z
Si Si1 0.288393 0.660166 0.572546
Si Si2 0.839187 0.057705 0.658486
Si Si3 0.656333 0.646336 0.069474
Si Si4 0.085162 0.415387 0.342375
Si Si5 0.958035 0.270128 0.842517
Si Si6 0.515971 0.986943 0.908187
Si Si7 0.578878 0.238087 0.341461
Si Si8 0.200904 0.262842 0.592241
O O1 0.258768 0.750000 0.500000
O O2 0.230473 0.642961 0.638272
O O3 0.312226 0.505210 0.538510
O O4 0.349989 0.746789 0.612702
O O5 0.843520 0.029160 0.750000
O O6 0.902420 0.153840 0.627642
O O7 0.843115 0.903062 0.616456
O O8 0.585181 0.606666 0.113575
O O9 0.718221 0.721891 0.121202
O O10 0.633740 0.750000 0.000000
O O11 0.088099 0.424399 0.250000
O O12 0.059308 0.570318 0.376493
O O13 0.162288 0.377901 0.373105
O O14 0.032743 0.288603 0.370417
O O15 0.955910 0.278611 0.750000
O O16 0.451422 0.918161 0.863254
O O17 0.523822 0.145379 0.872365
O O18 0.500000 0.000000 0.000000
O O19 0.591790 0.254189 0.250000
O O20 0.204557 0.250000 0.500000
#
# Coordination Sequence:
#
# PCOD8231966 Si02
#       8
#     8   8   8   8   8   8   8   8
#     4  10  21  36  57  83 113 151 191 234 289 348
#     4  10  20  37  58  83 113 150 191 236 287 346
#     4   9  19  35  54  79 109 144 187 232 279 343
#     4  10  19  36  58  81 109 147 192 239 289 349
#     4   9  19  34  58  85 110 144 191 240 290 346
#     4  11  21  37  61  84 111 152 198 242 293 352
#     4  11  22  37  56  84 117 151 192 243 292 345
#     4  10  21  36  55  81 113 149 188 234 291 349
#
# _framework density 20.881820000000001
#
# number of rings (size 3 to 8) (size 9 to 14) (size 15 to 20)
#    0.000    2.000    0.000    4.500    0.000    5.000 
#    0.000    5.000    0.000    1.500    0.000    1.750 
#    0.000    0.000    0.000    0.000    0.000    0.000 
#
# Total GULP energy -793343.870068 kJ/mol
# GULP energy per Si atom -12395.997970 kJ/mol
# Density = 2.083429 g / cm^3
# Si number density = 20.881820 Si / 1000 Ang^3
#
#
#
# Elastic Constant Matrix: (Units=GPa)
#
#
# Indices 1 2 3 4 5 6 
#
# 1 91.2720 21.0130 13.9683 0.0000 0.0000 0.0000
# 2 21.0130 56.7414 20.1791 0.0000 0.0000 0.0000
# 3 13.9683 20.1791 61.6359 0.0000 0.0000 0.0000
# 4 0.0000 0.0000 0.0000 33.3822 0.0000 0.0000
# 5 0.0000 0.0000 0.0000 0.0000 18.0602 0.0000
# 6 0.0000 0.0000 0.0000 0.0000 0.0000 38.3387
#
#
#
# Elastic Compliance Matrix: (Units=1/GPa)
#
#
# Indices 1 2 3 4 5 6 
#
# 1 0.012090 -0.003964 -0.001442 0.000000 0.000000 0.000000
# 2 -0.003964 0.021246 -0.006057 0.000000 0.000000 0.000000
# 3 -0.001442 -0.006057 0.018534 0.000000 0.000000 0.000000
# 4 0.000000 0.000000 0.000000 0.029956 0.000000 0.000000
# 5 0.000000 0.000000 0.000000 0.000000 0.055370 0.000000
# 6 0.000000 0.000000 0.000000 0.000000 0.000000 0.026083
#
#
# Mechanical properties :
#
#
# Convention : Reuss Voigt Hill
#
# Bulk Modulus (GPa) = 34.55108 35.55224 35.05166
# Shear Modulus (GPa) = 25.52912 28.25547 26.89229
#
# Velocity S-wave (km/s) = 3.50029 3.68246 3.59253
# Velocity P-wave (km/s) = 5.73742 5.92816 5.83357
#
# Compressibility (1/GPa) = 0.02894265
#
# Stress axis : x y z
#
# Youngs Moduli (GPa) = 82.71563 47.06740 53.95417
#
# Poissons Ratio (x) = 0.18659 0.07780
# Poissons Ratio (y) = 0.32791 0.32682
# Poissons Ratio (z) = 0.11927 0.28511
#
# Static dielectric constant tensor:
#      x y z
#    x 4.147360 0.000000 0.000000 
#    y 0.000000 4.046520 0.000000 
#    z 0.000000 0.000000 3.407940 
# 
# 
# High freq. dielectric constant tensor:
#      x y z
#    x 1.830230 0.000000 0.000000 
#    y 0.000000 1.827780 0.000000 
#    z 0.000000 0.000000 1.778660 
# 
# From -- ./inp_files/23048.got.cif
#   From: 2010.03.12/outbox.cif.g09.slc.cpg/sg57_12_cif.got.tgz:23048.got - 2010.04.16 15:48:40.
