data_PCOD8231531
_publ_section_title
;
Structure prediction by ZEFSAII (Michael W. Deem and Ramdas Pophale) SiO2 
 PCOD8231531
Probable space group: P B C M
;
_chemical_formula_sum "Si O2"
_cell_formula_units_Z 64
_cell_length_a 21.295933
_cell_length_b 18.843190
_cell_length_c 8.818167
_cell_angle_alpha 90.000000
_cell_angle_beta 90.000000
_cell_angle_gamma 90.000000
_cell_volume 3538.583257
_symmetry_space_group_name_H-M "P B C M"
_symmetry_group_IT_number 57
_symmetry_cell_setting 'orthorhombic'
loop_
_space_group_symop_operation_xyz
x,y,z
-x,-y,1/2+z
x,1/2-y,-z
-x,1/2+y,1/2-z
-x,-y,-z
x,y,1/2-z
-x,1/2+y,z
x,1/2-y,1/2+z
loop_
_atom_site_type_symbol
_atom_site_label
_atom_site_fract_x
_atom_site_fract_y
_atom_site_fract_z
Si Si1 0.820723 0.523455 0.083218
Si Si2 0.886758 0.320500 0.929211
Si Si3 0.062736 0.528624 0.072746
Si Si4 0.481282 0.573770 0.573420
Si Si5 0.310620 0.431700 0.570365
Si Si6 0.234663 0.632462 0.580407
Si Si7 0.647281 0.421924 0.930116
Si Si8 0.401612 0.174627 0.926630
O O1 0.846194 0.544527 0.250000
O O2 0.764154 0.575492 0.031456
O O3 0.788833 0.447307 0.089446
O O4 0.879527 0.523596 0.969268
O O5 0.887672 0.315354 0.750000
O O6 0.923654 0.391050 0.984942
O O7 0.919352 0.250000 0.000000
O O8 0.815099 0.321370 0.986785
O O9 0.054002 0.527333 0.250000
O O10 0.000000 0.500000 0.000000
O O11 0.500000 0.500000 0.500000
O O12 0.467320 0.561902 0.750000
O O13 0.419677 0.604608 0.491245
O O14 0.536400 0.629126 0.545476
O O15 0.320173 0.442166 0.750000
O O16 0.341895 0.497736 0.484692
O O17 0.342530 0.360256 0.511757
O O18 0.242081 0.664016 0.750000
O O19 0.301125 0.633030 0.494258
O O20 0.648989 0.420478 0.750000
O O21 0.385430 0.181916 0.750000
O O22 0.414526 0.250000 0.000000
#
# Coordination Sequence:
#
# PCOD8231531 Si02
#       8
#     8   8   8   8   8   8   8   8
#     4   8  16  30  50  77 105 134 168 211 261 308
#     4  10  20  34  53  79 109 145 185 225 271 326
#     4  10  20  33  53  81 113 148 185 226 268 317
#     4  11  22  36  55  79 105 139 184 231 279 333
#     4  10  19  33  55  79 105 136 173 220 270 320
#     4   9  17  31  50  74 104 137 172 216 264 312
#     4  11  20  31  51  79 107 136 175 223 271 321
#     4  11  24  39  56  78 106 140 179 225 282 340
#
# _framework density 18.086334999999998
#
# number of rings (size 3 to 8) (size 9 to 14) (size 15 to 20)
#    0.000    2.000    1.250    4.125    0.000    6.500 
#    0.000    0.625    0.000    2.250    0.000    3.500 
#    0.000    0.000    0.000    0.000    0.000    0.000 
#
# Total GULP energy -793545.964285 kJ/mol
# GULP energy per Si atom -12399.155692 kJ/mol
# Density = 1.804517 g / cm^3
# Si number density = 18.086335 Si / 1000 Ang^3
#
#
#
# Elastic Constant Matrix: (Units=GPa)
#
#
# Indices 1 2 3 4 5 6 
#
# 1 130.8435 45.6828 60.8098 0.0000 0.0000 0.0000
# 2 45.6828 77.5674 41.0530 0.0000 0.0000 0.0000
# 3 60.8098 41.0530 113.2821 0.0000 0.0000 0.0000
# 4 0.0000 0.0000 0.0000 26.8777 0.0000 0.0000
# 5 0.0000 0.0000 0.0000 0.0000 33.8922 0.0000
# 6 0.0000 0.0000 0.0000 0.0000 0.0000 15.8524
#
#
#
# Elastic Compliance Matrix: (Units=1/GPa)
#
#
# Indices 1 2 3 4 5 6 
#
# 1 0.011200 -0.004225 -0.004481 0.000000 0.000000 0.000000
# 2 -0.004225 0.017545 -0.004090 0.000000 0.000000 0.000000
# 3 -0.004481 -0.004090 0.012716 0.000000 0.000000 0.000000
# 4 0.000000 0.000000 0.000000 0.037206 0.000000 0.000000
# 5 0.000000 0.000000 0.000000 0.000000 0.029505 0.000000
# 6 0.000000 0.000000 0.000000 0.000000 0.000000 0.063082
#
#
# Mechanical properties :
#
#
# Convention : Reuss Voigt Hill
#
# Bulk Modulus (GPa) = 63.02010 68.53158 65.77584
# Shear Modulus (GPa) = 24.73582 26.93429 25.83506
#
# Velocity S-wave (km/s) = 3.70219 3.86321 3.78356
# Velocity P-wave (km/s) = 7.29347 7.60742 7.45210
#
# Compressibility (1/GPa) = 0.01586795
#
# Stress axis : x y z
#
# Youngs Moduli (GPa) = 89.28213 56.99639 78.64411
#
# Poissons Ratio (x) = 0.24079 0.35244
# Poissons Ratio (y) = 0.37718 0.32169
# Poissons Ratio (z) = 0.40011 0.23314
#
# Static dielectric constant tensor:
#      x y z
#    x 10.620270 0.000000 0.000000 
#    y 0.000000 3.020060 0.000000 
#    z 0.000000 0.000000 3.524420 
# 
# 
# High freq. dielectric constant tensor:
#      x y z
#    x 1.698650 0.000000 0.000000 
#    y 0.000000 1.668910 0.000000 
#    z 0.000000 0.000000 1.716380 
# 
# From -- ./inp_files/8387.got.cif
#   From: 2010.03.12/outbox.cif.g09.slc.cpg/sg57_5_cif.got.tgz:8387.got - 2010.04.16 15:48:40.
