data_PCOD8231996
_publ_section_title
;
Structure prediction by ZEFSAII (Michael W. Deem and Ramdas Pophale) SiO2 
 PCOD8231996
Probable space group: P B C M
;
_chemical_formula_sum "Si O2"
_cell_formula_units_Z 64
_cell_length_a 23.770260
_cell_length_b 14.756629
_cell_length_c 8.832466
_cell_angle_alpha 90.000000
_cell_angle_beta 90.000000
_cell_angle_gamma 90.000000
_cell_volume 3098.154454
_symmetry_space_group_name_H-M "P B C M"
_symmetry_group_IT_number 57
_symmetry_cell_setting 'orthorhombic'
loop_
_space_group_symop_operation_xyz
x,y,z
-x,-y,1/2+z
x,1/2-y,-z
-x,1/2+y,1/2-z
-x,-y,-z
x,y,1/2-z
-x,1/2+y,z
x,1/2-y,1/2+z
loop_
_atom_site_type_symbol
_atom_site_label
_atom_site_fract_x
_atom_site_fract_y
_atom_site_fract_z
Si Si1 0.867408 0.969043 0.427568
Si Si2 0.247422 0.469001 0.570273
Si Si3 0.439624 0.485812 0.071138
Si Si4 0.042030 0.344006 0.569991
Si Si5 0.742780 0.161492 0.419327
Si Si6 0.085157 0.660003 0.075475
Si Si7 0.388420 0.834169 0.914352
Si Si8 0.653628 0.650644 0.569734
O O1 0.863408 0.947340 0.250000
O O2 0.812425 0.930537 0.512454
O O3 0.922351 0.924229 0.497483
O O4 0.872793 0.077055 0.457724
O O5 0.252366 0.460284 0.750000
O O6 0.249499 0.573393 0.521384
O O7 0.296079 0.410721 0.492938
O O8 0.445864 0.485813 0.250000
O O9 0.402213 0.569668 0.008844
O O10 0.406227 0.394769 0.022067
O O11 0.500000 0.500000 0.000000
O O12 0.064217 0.250000 0.500000
O O13 0.049548 0.343608 0.750000
O O14 0.977867 0.361187 0.516362
O O15 0.770183 0.250000 0.500000
O O16 0.769315 0.147724 0.250000
O O17 0.677367 0.180477 0.400398
O O18 0.080233 0.681665 0.250000
O O19 0.110652 0.750000 0.000000
O O20 0.416952 0.833725 0.750000
O O21 0.416829 0.750000 0.000000
O O22 0.656510 0.750000 0.500000
O O23 0.660011 0.655702 0.750000
#
# Coordination Sequence:
#
# PCOD8231996 Si02
#       8
#     8   8   8   8   8   8   8   8
#     4  11  23  39  59  87 122 161 203 255 309 362
#     4  12  25  41  62  90 121 162 209 256 310 368
#     4  10  22  40  62  90 126 161 198 247 301 355
#     4  10  20  37  60  88 119 155 201 253 306 366
#     4  10  19  36  60  87 118 153 194 242 296 358
#     4   9  20  37  60  88 121 160 201 247 305 366
#     4   9  18  34  56  84 116 150 187 232 286 343
#     4  11  24  46  69  92 124 164 208 258 308 366
#
# _framework density 20.657458999999999
#
# number of rings (size 3 to 8) (size 9 to 14) (size 15 to 20)
#    0.000    1.750    1.250    3.000    0.000    5.000 
#    0.000    6.250    0.000    0.000    0.000    0.000 
#    0.000    0.000    0.000    0.000    0.000    0.000 
#
# Total GULP energy -793448.066557 kJ/mol
# GULP energy per Si atom -12397.626040 kJ/mol
# Density = 2.061044 g / cm^3
# Si number density = 20.657459 Si / 1000 Ang^3
#
#
#
# Elastic Constant Matrix: (Units=GPa)
#
#
# Indices 1 2 3 4 5 6 
#
# 1 99.5762 36.0645 39.4297 0.0000 0.0000 0.0000
# 2 36.0645 110.4600 45.5086 0.0000 0.0000 0.0000
# 3 39.4297 45.5086 102.0368 0.0000 0.0000 0.0000
# 4 0.0000 0.0000 0.0000 39.9367 0.0000 0.0000
# 5 0.0000 0.0000 0.0000 0.0000 27.1156 0.0000
# 6 0.0000 0.0000 0.0000 0.0000 0.0000 8.5232
#
#
#
# Elastic Compliance Matrix: (Units=1/GPa)
#
#
# Indices 1 2 3 4 5 6 
#
# 1 0.012414 -0.002544 -0.003662 0.000000 0.000000 0.000000
# 2 -0.002544 0.011612 -0.004196 0.000000 0.000000 0.000000
# 3 -0.003662 -0.004196 0.013087 0.000000 0.000000 0.000000
# 4 0.000000 0.000000 0.000000 0.025040 0.000000 0.000000
# 5 0.000000 0.000000 0.000000 0.000000 0.036879 0.000000
# 6 0.000000 0.000000 0.000000 0.000000 0.000000 0.117327
#
#
# Mechanical properties :
#
#
# Convention : Reuss Voigt Hill
#
# Bulk Modulus (GPa) = 61.31827 61.56428 61.44128
# Shear Modulus (GPa) = 20.60996 27.85311 24.23154
#
# Velocity S-wave (km/s) = 3.16207 3.67595 3.42865
# Velocity P-wave (km/s) = 6.56349 6.91982 6.74401
#
# Compressibility (1/GPa) = 0.01630835
#
# Stress axis : x y z
#
# Youngs Moduli (GPa) = 80.55237 86.11439 76.41126
#
# Poissons Ratio (x) = 0.21910 0.27985
# Poissons Ratio (y) = 0.20495 0.32062
# Poissons Ratio (z) = 0.29502 0.36134
#
# Static dielectric constant tensor:
#      x y z
#    x 3.805230 0.000000 0.000000 
#    y 0.000000 3.736280 0.000000 
#    z 0.000000 0.000000 3.964910 
# 
# 
# High freq. dielectric constant tensor:
#      x y z
#    x 1.807290 0.000000 0.000000 
#    y 0.000000 1.813250 0.000000 
#    z 0.000000 0.000000 1.810300 
# 
# From -- ./inp_files/9433.got.cif
#   From: 2010.03.12/outbox.cif.g09.slc.cpg/sg57_5_cif.got.tgz:9433.got - 2010.04.16 15:48:40.
