data_PCOD8231223
_publ_section_title
;
Structure prediction by ZEFSAII (Michael W. Deem and Ramdas Pophale) SiO2 
 PCOD8231223
Probable space group: P B C M
;
_chemical_formula_sum "Si O2"
_cell_formula_units_Z 64
_cell_length_a 14.950617
_cell_length_b 9.025422
_cell_length_c 24.272535
_cell_angle_alpha 90.000000
_cell_angle_beta 90.000000
_cell_angle_gamma 90.000000
_cell_volume 3275.229743
_symmetry_space_group_name_H-M "P B C M"
_symmetry_group_IT_number 57
_symmetry_cell_setting 'orthorhombic'
loop_
_space_group_symop_operation_xyz
x,y,z
-x,-y,1/2+z
x,1/2-y,-z
-x,1/2+y,1/2-z
-x,-y,-z
x,y,1/2-z
-x,1/2+y,z
x,1/2-y,1/2+z
loop_
_atom_site_type_symbol
_atom_site_label
_atom_site_fract_x
_atom_site_fract_y
_atom_site_fract_z
Si Si1 0.904586 0.050590 0.312727
Si Si2 0.752459 0.082821 0.887733
Si Si3 0.252144 0.087411 0.005123
Si Si4 0.591462 0.915277 0.311197
Si Si5 0.917475 0.103788 0.687587
Si Si6 0.545430 0.621572 0.033377
Si Si7 0.575166 0.583412 0.152259
Si Si8 0.262855 0.935098 0.613117
O O1 0.881762 0.002758 0.250000
O O2 0.821370 0.011226 0.351265
O O3 0.990666 0.963980 0.335799
O O4 0.927906 0.221775 0.315965
O O5 0.833630 0.047543 0.847065
O O6 0.666381 0.001793 0.862226
O O7 0.730673 0.257636 0.891600
O O8 0.786593 0.019749 0.946973
O O9 0.349287 0.123323 0.027625
O O10 0.203291 0.250000 0.000000
O O11 0.252204 0.002557 0.947457
O O12 0.628151 0.952982 0.250000
O O13 0.489068 0.974095 0.313519
O O14 0.594950 0.737437 0.317132
O O15 0.649774 0.997782 0.357503
O O16 0.901854 0.049176 0.750000
O O17 0.519782 0.624307 0.097153
O O18 0.498163 0.750000 0.000000
O O19 0.500000 0.500000 0.000000
#
# Coordination Sequence:
#
# PCOD8231223 Si02
#       8
#     8   8   8   8   8   8   8   8
#     4   9  19  36  58  86 114 146 187 235 286 340
#     4  10  22  38  60  87 116 151 190 235 292 345
#     4  10  21  37  55  81 115 149 190 235 282 342
#     4  12  25  40  57  81 115 157 199 240 287 343
#     4   9  19  36  59  85 115 146 185 234 285 341
#     4  10  19  32  52  76 102 135 179 230 279 329
#     4  11  23  39  56  81 115 152 194 240 287 341
#     4  11  21  38  61  85 116 152 190 237 290 345
#
# _framework density 19.540616
#
# number of rings (size 3 to 8) (size 9 to 14) (size 15 to 20)
#    0.000    1.750    0.000    5.625    0.000    6.500 
#    0.000    1.875    0.000    0.000    0.000    0.000 
#    0.000    0.000    0.000    0.000    0.000    0.000 
#
# Total GULP energy -793121.990071 kJ/mol
# GULP energy per Si atom -12392.531095 kJ/mol
# Density = 1.949614 g / cm^3
# Si number density = 19.540616 Si / 1000 Ang^3
#
#
#
# Elastic Constant Matrix: (Units=GPa)
#
#
# Indices 1 2 3 4 5 6 
#
# 1 84.2096 39.6426 41.1695 0.0000 0.0000 0.0000
# 2 39.6426 105.6536 40.4145 0.0000 0.0000 0.0000
# 3 41.1695 40.4145 120.3894 0.0000 0.0000 0.0000
# 4 0.0000 0.0000 0.0000 19.4554 0.0000 0.0000
# 5 0.0000 0.0000 0.0000 0.0000 13.4044 0.0000
# 6 0.0000 0.0000 0.0000 0.0000 0.0000 32.7348
#
#
#
# Elastic Compliance Matrix: (Units=1/GPa)
#
#
# Indices 1 2 3 4 5 6 
#
# 1 0.015901 -0.004459 -0.003941 0.000000 0.000000 0.000000
# 2 -0.004459 0.012110 -0.002540 0.000000 0.000000 0.000000
# 3 -0.003941 -0.002540 0.010507 0.000000 0.000000 0.000000
# 4 0.000000 0.000000 0.000000 0.051400 0.000000 0.000000
# 5 0.000000 0.000000 0.000000 0.000000 0.074602 0.000000
# 6 0.000000 0.000000 0.000000 0.000000 0.000000 0.030548
#
#
# Mechanical properties :
#
#
# Convention : Reuss Voigt Hill
#
# Bulk Modulus (GPa) = 60.10589 61.41176 60.75882
# Shear Modulus (GPa) = 22.47258 25.72065 24.09661
#
# Velocity S-wave (km/s) = 3.39491 3.63197 3.51544
# Velocity P-wave (km/s) = 6.79658 7.00602 6.90209
#
# Compressibility (1/GPa) = 0.01663730
#
# Stress axis : x y z
#
# Youngs Moduli (GPa) = 62.89006 82.57885 95.17618
#
# Poissons Ratio (x) = 0.36820 0.37507
# Poissons Ratio (y) = 0.28041 0.24179
# Poissons Ratio (z) = 0.24784 0.20979
#
# Static dielectric constant tensor:
#      x y z
#    x 3.405290 0.000000 0.000000 
#    y 0.000000 3.830330 0.000000 
#    z 0.000000 0.000000 3.900440 
# 
# 
# High freq. dielectric constant tensor:
#      x y z
#    x 1.742000 0.000000 0.000000 
#    y 0.000000 1.776340 0.000000 
#    z 0.000000 0.000000 1.772240 
# 
# From -- ./inp_files/27475.got.cif
#   From: 2010.03.12/outbox.cif.g09.slc.cpg/sg57_14_cif.got.tgz:27475.got - 2010.04.16 15:48:40.
