data_PCOD8231387
_publ_section_title
;
Structure prediction by ZEFSAII (Michael W. Deem and Ramdas Pophale) SiO2 
 PCOD8231387
Probable space group: P B C M
;
_chemical_formula_sum "Si O2"
_cell_formula_units_Z 36
_cell_length_a 11.201088
_cell_length_b 8.838122
_cell_length_c 19.624319
_cell_angle_alpha 90.000000
_cell_angle_beta 90.000000
_cell_angle_gamma 90.000000
_cell_volume 1942.740511
_symmetry_space_group_name_H-M "P B C M"
_symmetry_group_IT_number 57
_symmetry_cell_setting 'orthorhombic'
loop_
_space_group_symop_operation_xyz
x,y,z
-x,-y,1/2+z
x,1/2-y,-z
-x,1/2+y,1/2-z
-x,-y,-z
x,y,1/2-z
-x,1/2+y,z
x,1/2-y,1/2+z
loop_
_atom_site_type_symbol
_atom_site_label
_atom_site_fract_x
_atom_site_fract_y
_atom_site_fract_z
Si Si1 0.003752 0.750000 0.500000
Si Si2 0.665401 0.502134 0.325186
Si Si3 0.163936 0.002275 0.052883
Si Si4 0.383387 0.917998 0.529510
Si Si5 0.560625 0.320893 0.827015
O O1 0.921831 0.854360 0.547131
O O2 0.087124 0.650794 0.549132
O O3 0.720137 0.494487 0.250000
O O4 0.778319 0.508977 0.373319
O O5 0.581288 0.649058 0.334130
O O6 0.582345 0.356119 0.339622
O O7 0.265941 0.007663 0.994795
O O8 0.381484 0.750000 0.500000
O O9 0.376072 0.914971 0.612114
O O10 0.500000 0.000000 0.500000
O O11 0.603175 0.370352 0.750000
#
# Coordination Sequence:
#
# PCOD8231387 Si02
#       5
#     4   8   8   8   8
#     4  10  24  38  60  76 106 156 196 250 272 328
#     4  10  20  35  57  82 118 151 181 229 287 349
#     4  11  21  40  57  82 113 146 201 235 287 327
#     4  12  21  33  57  89 116 143 186 234 286 348
#     4  10  19  33  52  84 121 152 175 219 295 357
#
# _framework density 18.530522999999999
#
# number of rings (size 3 to 8) (size 9 to 14) (size 15 to 20)
#    0.000    1.333    5.556    0.000    1.556    1.778 
#    0.000    1.111    0.000    5.333    0.000    0.000 
#    0.000    0.000    0.000    0.000    0.000    0.000 
#
# Total GULP energy -446294.947170 kJ/mol
# GULP energy per Si atom -12397.081866 kJ/mol
# Density = 1.848835 g / cm^3
# Si number density = 18.530523 Si / 1000 Ang^3
#
#
#
# Elastic Constant Matrix: (Units=GPa)
#
#
# Indices 1 2 3 4 5 6 
#
# 1 123.0696 48.8518 57.1976 0.0000 0.0000 0.0000
# 2 48.8518 69.0477 29.9011 0.0000 0.0000 0.0000
# 3 57.1976 29.9011 146.0922 0.0000 0.0000 0.0000
# 4 0.0000 0.0000 0.0000 19.4889 0.0000 0.0000
# 5 0.0000 0.0000 0.0000 0.0000 29.1999 0.0000
# 6 0.0000 0.0000 0.0000 0.0000 0.0000 -8.7639
#
#
#
# Elastic Compliance Matrix: (Units=1/GPa)
#
#
# Indices 1 2 3 4 5 6 
#
# 1 0.012698 -0.007496 -0.003438 0.000000 0.000000 0.000000
# 2 -0.007496 0.020316 -0.001223 0.000000 0.000000 0.000000
# 3 -0.003438 -0.001223 0.008441 0.000000 0.000000 0.000000
# 4 0.000000 0.000000 0.000000 0.051311 0.000000 0.000000
# 5 0.000000 0.000000 0.000000 0.000000 0.034247 0.000000
# 6 0.000000 0.000000 0.000000 0.000000 0.000000 -0.114105
#
#
# Mechanical properties :
#
#
# Convention : Reuss Voigt Hill
#
# Bulk Modulus (GPa) = 58.33511 67.79004 63.06258
# Shear Modulus (GPa) = 116.45356 21.46892 68.96124
#
# Velocity S-wave (km/s) = 7.93603 3.40747 6.10702
# Velocity P-wave (km/s) = 10.74816 7.22104 9.15605
#
# Compressibility (1/GPa) = 0.01714233
#
# Stress axis : x y z
#
# Youngs Moduli (GPa) = 78.74980 49.22288 118.46610
#
# Poissons Ratio (x) = 0.36896 0.40723
# Poissons Ratio (y) = 0.59028 0.14493
# Poissons Ratio (z) = 0.27070 0.06022
#
# Static dielectric constant tensor:
#      x y z
#    x 3.413000 0.000000 0.000000 
#    y 0.000000 3.545180 0.000000 
#    z 0.000000 0.000000 3.711570 
# 
# 
# High freq. dielectric constant tensor:
#      x y z
#    x 1.702070 0.000000 0.000000 
#    y 0.000000 1.721490 0.000000 
#    z 0.000000 0.000000 1.725470 
# 
# From -- ./inp_files/24821.got.cif
#   From: 2010.03.12/outbox.cif.g09.slc.cpg/sg57_13_cif.got.tgz:24821.got - 2010.04.16 15:48:40.
