data_PCOD8231553
_publ_section_title
;
Structure prediction by ZEFSAII (Michael W. Deem and Ramdas Pophale) SiO2 
 PCOD8231553
Probable space group: P B C M
;
_chemical_formula_sum "Si O2"
_cell_formula_units_Z 64
_cell_length_a 14.240827
_cell_length_b 12.315662
_cell_length_c 19.699911
_cell_angle_alpha 90.000000
_cell_angle_beta 90.000000
_cell_angle_gamma 90.000000
_cell_volume 3455.073066
_symmetry_space_group_name_H-M "P B C M"
_symmetry_group_IT_number 57
_symmetry_cell_setting 'orthorhombic'
loop_
_space_group_symop_operation_xyz
x,y,z
-x,-y,1/2+z
x,1/2-y,-z
-x,1/2+y,1/2-z
-x,-y,-z
x,y,1/2-z
-x,1/2+y,z
x,1/2-y,1/2+z
loop_
_atom_site_type_symbol
_atom_site_label
_atom_site_fract_x
_atom_site_fract_y
_atom_site_fract_z
Si Si1 0.882358 0.756279 0.672917
Si Si2 0.431568 0.296831 0.428467
Si Si3 0.320416 0.158288 0.173483
Si Si4 0.260396 0.547192 0.592607
Si Si5 0.110561 0.426750 0.068819
Si Si6 0.072160 0.440907 0.922601
Si Si7 0.685313 0.008578 0.059613
Si Si8 0.353072 0.746294 0.424530
O O1 0.917769 0.739328 0.750000
O O2 0.770366 0.764695 0.669487
O O3 0.917767 0.658962 0.625906
O O4 0.926755 0.865416 0.643133
O O5 0.394575 0.250000 0.500000
O O6 0.400018 0.216773 0.369264
O O7 0.391665 0.418388 0.419716
O O8 0.543274 0.297135 0.424255
O O9 0.357083 0.146818 0.250000
O O10 0.298212 0.038464 0.146902
O O11 0.147151 0.539270 0.586703
O O12 0.312888 0.522665 0.521464
O O13 0.287544 0.669301 0.617853
O O14 0.212588 0.473975 0.086505
O O15 0.034435 0.521988 0.070763
O O16 0.105567 0.377937 0.991844
O O17 0.654495 0.120278 0.098665
O O18 0.311006 0.750000 0.500000
#
# Coordination Sequence:
#
# PCOD8231553 Si02
#       8
#     8   8   8   8   8   8   8   8
#     4  10  20  34  53  78 107 141 185 228 272 324
#     4  11  20  32  58  82 106 140 184 232 278 330
#     4  10  20  34  54  79 106 142 184 230 272 322
#     4   9  18  35  54  77 113 143 178 224 276 326
#     4  10  19  34  55  81 110 142 179 229 279 323
#     4   9  20  33  55  82 108 144 185 224 273 331
#     4  10  19  33  55  85 112 139 179 233 283 323
#     4   9  21  32  52  83 112 142 180 225 281 336
#
# _framework density 18.523485999999998
#
# number of rings (size 3 to 8) (size 9 to 14) (size 15 to 20)
#    0.000    2.250    2.500    0.375    1.750    3.000 
#    0.000    4.375    0.000    2.250    0.000    0.000 
#    0.000    0.000    0.000    0.000    0.000    0.000 
#
# Total GULP energy -793314.564015 kJ/mol
# GULP energy per Si atom -12395.540063 kJ/mol
# Density = 1.848133 g / cm^3
# Si number density = 18.523486 Si / 1000 Ang^3
#
#
#
# Elastic Constant Matrix: (Units=GPa)
#
#
# Indices 1 2 3 4 5 6 
#
# 1 75.6403 43.4381 21.5449 0.0000 0.0000 0.0000
# 2 43.4381 116.1205 37.7236 0.0000 0.0000 0.0000
# 3 21.5449 37.7236 98.5371 0.0000 0.0000 0.0000
# 4 0.0000 0.0000 0.0000 18.1650 0.0000 0.0000
# 5 0.0000 0.0000 0.0000 0.0000 10.2323 0.0000
# 6 0.0000 0.0000 0.0000 0.0000 0.0000 21.2462
#
#
#
# Elastic Compliance Matrix: (Units=1/GPa)
#
#
# Indices 1 2 3 4 5 6 
#
# 1 0.017021 -0.005891 -0.001466 0.000000 0.000000 0.000000
# 2 -0.005891 0.011874 -0.003258 0.000000 0.000000 0.000000
# 3 -0.001466 -0.003258 0.011716 0.000000 0.000000 0.000000
# 4 0.000000 0.000000 0.000000 0.055051 0.000000 0.000000
# 5 0.000000 0.000000 0.000000 0.000000 0.097730 0.000000
# 6 0.000000 0.000000 0.000000 0.000000 0.000000 0.047067
#
#
# Mechanical properties :
#
#
# Convention : Reuss Voigt Hill
#
# Bulk Modulus (GPa) = 51.59633 55.07901 53.33767
# Shear Modulus (GPa) = 18.64635 22.43479 20.54057
#
# Velocity S-wave (km/s) = 3.17619 3.48394 3.33362
# Velocity P-wave (km/s) = 6.43163 6.78108 6.60867
#
# Compressibility (1/GPa) = 0.01938123
#
# Stress axis : x y z
#
# Youngs Moduli (GPa) = 58.75068 84.21992 85.35162
#
# Poissons Ratio (x) = 0.49612 0.12516
# Poissons Ratio (y) = 0.34609 0.27805
# Poissons Ratio (z) = 0.08615 0.27436
#
# Static dielectric constant tensor:
#      x y z
#    x 3.293950 0.000000 0.000000 
#    y 0.000000 3.462130 0.000000 
#    z 0.000000 0.000000 3.301410 
# 
# 
# High freq. dielectric constant tensor:
#      x y z
#    x 1.713920 0.000000 0.000000 
#    y 0.000000 1.716690 0.000000 
#    z 0.000000 0.000000 1.689820 
# 
# From -- ./inp_files/22643.got.cif
#   From: 2010.03.12/outbox.cif.g09.slc.cpg/sg57_12_cif.got.tgz:22643.got - 2010.04.16 15:48:40.
