data_PCOD8231622
_publ_section_title
;
Structure prediction by ZEFSAII (Michael W. Deem and Ramdas Pophale) SiO2 
 PCOD8231622
Probable space group: P B C M
;
_chemical_formula_sum "Si O2"
_cell_formula_units_Z 64
_cell_length_a 14.860768
_cell_length_b 24.227700
_cell_length_c 9.159764
_cell_angle_alpha 90.000000
_cell_angle_beta 90.000000
_cell_angle_gamma 90.000000
_cell_volume 3297.901847
_symmetry_space_group_name_H-M "P B C M"
_symmetry_group_IT_number 57
_symmetry_cell_setting 'orthorhombic'
loop_
_space_group_symop_operation_xyz
x,y,z
-x,-y,1/2+z
x,1/2-y,-z
-x,1/2+y,1/2-z
-x,-y,-z
x,y,1/2-z
-x,1/2+y,z
x,1/2-y,1/2+z
loop_
_atom_site_type_symbol
_atom_site_label
_atom_site_fract_x
_atom_site_fract_y
_atom_site_fract_z
Si Si1 0.872275 0.410841 0.919076
Si Si2 0.205434 0.306273 0.424168
Si Si3 0.054964 0.135006 0.419913
Si Si4 0.539298 0.192717 0.421312
Si Si5 0.871336 0.517904 0.414653
Si Si6 0.642036 0.869028 0.579479
Si Si7 0.660112 0.990319 0.913544
Si Si8 0.670978 0.097943 0.422499
O O1 0.863816 0.424404 0.750000
O O2 0.773899 0.392854 0.978695
O O3 0.946637 0.362847 0.946590
O O4 0.908139 0.467084 0.991088
O O5 0.237580 0.250000 0.500000
O O6 0.207239 0.300739 0.250000
O O7 0.104293 0.319987 0.479258
O O8 0.273786 0.353391 0.477932
O O9 0.078558 0.146245 0.250000
O O10 0.087934 0.074995 0.471418
O O11 0.557320 0.250000 0.500000
O O12 0.550579 0.201987 0.250000
O O13 0.440392 0.170716 0.459784
O O14 0.612480 0.148997 0.480946
O O15 0.902642 0.507096 0.250000
O O16 0.764908 0.522108 0.428957
O O17 0.670124 0.864139 0.750000
O O18 0.612033 0.932279 0.545170
O O19 0.634535 0.008369 0.750000
O O20 0.630477 0.040302 0.018068
O O21 0.664278 0.094650 0.250000
#
# Coordination Sequence:
#
# PCOD8231622 Si02
#       8
#     8   8   8   8   8   8   8   8
#     4   9  18  31  52  78 110 147 183 225 271 319
#     4  12  25  39  57  80 109 146 185 232 282 335
#     4  10  19  34  53  76 108 148 186 225 272 322
#     4  10  22  39  60  81 107 144 186 234 281 328
#     4   9  16  28  48  75 110 146 179 219 267 321
#     4  10  20  38  60  83 113 145 180 224 279 338
#     4   9  17  31  53  81 113 149 180 217 275 336
#     4   9  19  36  54  81 117 148 184 231 278 324
#
# _framework density 19.406276999999999
#
# number of rings (size 3 to 8) (size 9 to 14) (size 15 to 20)
#    0.000    2.250    1.250    1.875    0.000    4.000 
#    0.000    0.625    0.000    1.500    0.000    0.000 
#    0.000    0.000    0.000    0.000    0.000    0.000 
#
# Total GULP energy -793520.878457 kJ/mol
# GULP energy per Si atom -12398.763726 kJ/mol
# Density = 1.936211 g / cm^3
# Si number density = 19.406277 Si / 1000 Ang^3
#
#
#
# Elastic Constant Matrix: (Units=GPa)
#
#
# Indices 1 2 3 4 5 6 
#
# 1 55.1655 41.8738 32.8518 0.0000 0.0000 0.0000
# 2 41.8738 114.2146 44.7053 0.0000 0.0000 0.0000
# 3 32.8518 44.7053 66.3787 0.0000 0.0000 0.0000
# 4 0.0000 0.0000 0.0000 34.6620 0.0000 0.0000
# 5 0.0000 0.0000 0.0000 0.0000 19.4049 0.0000
# 6 0.0000 0.0000 0.0000 0.0000 0.0000 31.2183
#
#
#
# Elastic Compliance Matrix: (Units=1/GPa)
#
#
# Indices 1 2 3 4 5 6 
#
# 1 0.029180 -0.006852 -0.009827 0.000000 0.000000 0.000000
# 2 -0.006852 0.013499 -0.005700 0.000000 0.000000 0.000000
# 3 -0.009827 -0.005700 0.023768 0.000000 0.000000 0.000000
# 4 0.000000 0.000000 0.000000 0.028850 0.000000 0.000000
# 5 0.000000 0.000000 0.000000 0.000000 0.051533 0.000000
# 6 0.000000 0.000000 0.000000 0.000000 0.000000 0.032032
#
#
# Mechanical properties :
#
#
# Convention : Reuss Voigt Hill
#
# Bulk Modulus (GPa) = 46.10741 52.73561 49.42151
# Shear Modulus (GPa) = 21.65907 24.81224 23.23565
#
# Velocity S-wave (km/s) = 3.34441 3.57959 3.46399
# Velocity P-wave (km/s) = 6.22286 6.65718 6.44368
#
# Compressibility (1/GPa) = 0.02168849
#
# Stress axis : x y z
#
# Youngs Moduli (GPa) = 34.26957 74.08194 42.07390
#
# Poissons Ratio (x) = 0.50759 0.41347
# Poissons Ratio (y) = 0.23481 0.23983
# Poissons Ratio (z) = 0.33678 0.42228
#
# Static dielectric constant tensor:
#      x y z
#    x 3.689510 0.000000 0.000000 
#    y 0.000000 3.527920 0.000000 
#    z 0.000000 0.000000 3.433510 
# 
# 
# High freq. dielectric constant tensor:
#      x y z
#    x 1.756400 0.000000 0.000000 
#    y 0.000000 1.744720 0.000000 
#    z 0.000000 0.000000 1.740350 
# 
# From -- ./inp_files/5583.got.cif
#   From: 2010.03.12/outbox.cif.g09.slc.cpg/sg57_3_cif.got.tgz:5583.got - 2010.04.16 15:48:40.
