data_PCOD8231508
_publ_section_title
;
Structure prediction by ZEFSAII (Michael W. Deem and Ramdas Pophale) SiO2 
 PCOD8231508
Probable space group: P B C M
;
_chemical_formula_sum "Si O2"
_cell_formula_units_Z 56
_cell_length_a 15.469472
_cell_length_b 22.899334
_cell_length_c 8.701641
_cell_angle_alpha 90.000000
_cell_angle_beta 90.000000
_cell_angle_gamma 90.000000
_cell_volume 3082.474582
_symmetry_space_group_name_H-M "P B C M"
_symmetry_group_IT_number 57
_symmetry_cell_setting 'orthorhombic'
loop_
_space_group_symop_operation_xyz
x,y,z
-x,-y,1/2+z
x,1/2-y,-z
-x,1/2+y,1/2-z
-x,-y,-z
x,y,1/2-z
-x,1/2+y,z
x,1/2-y,1/2+z
loop_
_atom_site_type_symbol
_atom_site_label
_atom_site_fract_x
_atom_site_fract_y
_atom_site_fract_z
Si Si1 0.003108 0.188713 0.069002
Si Si2 0.837646 0.873940 0.431315
Si Si3 0.698156 0.314616 0.932150
Si Si4 0.907617 0.989225 0.573734
Si Si5 0.853438 0.382747 0.425663
Si Si6 0.323241 0.314721 0.931185
Si Si7 0.489335 0.688131 0.072892
O O1 0.007914 0.194090 0.250000
O O2 0.971875 0.250000 0.000000
O O3 0.934752 0.139511 0.022751
O O4 0.096888 0.172279 0.005470
O O5 0.845563 0.868991 0.250000
O O6 0.857520 0.939544 0.481960
O O7 0.741813 0.858457 0.486064
O O8 0.713748 0.312196 0.750000
O O9 0.602353 0.340566 0.977825
O O10 0.711369 0.250000 0.000000
O O11 0.764652 0.358888 0.007284
O O12 0.920241 0.969453 0.750000
O O13 0.850130 0.047413 0.562344
O O14 0.000000 0.000000 0.500000
O O15 0.865057 0.362261 0.250000
O O16 0.303776 0.311483 0.750000
O O17 0.419132 0.343646 0.963279
O O18 0.314037 0.250000 0.000000
O O19 0.480933 0.700687 0.250000
O O20 0.498477 0.750000 0.000000
#
# Coordination Sequence:
#
# PCOD8231508 Si02
#       7
#     8   8   8   8   8   8   8
#     4  12  24  38  56  78 109 144 179 219 271 324
#     4  12  24  38  56  80 110 142 182 226 271 325
#     4  10  19  33  54  82 114 147 182 221 270 324
#     4  11  23  40  61  80 104 140 186 231 274 321
#     4  11  23  38  56  80 109 141 180 225 271 323
#     4  10  19  34  55  82 114 146 182 223 273 326
#     4   8  16  30  51  78 109 144 180 220 265 321
#
# _framework density 18.167221999999999
#
# number of rings (size 3 to 8) (size 9 to 14) (size 15 to 20)
#    0.000    1.429    1.429    5.143    0.000    2.857 
#    0.000    0.000    0.000    0.857    0.000    0.000 
#    0.000    0.000    0.000    0.000    0.000    0.000 
#
# Total GULP energy -694195.979639 kJ/mol
# GULP energy per Si atom -12396.356779 kJ/mol
# Density = 1.812587 g / cm^3
# Si number density = 18.167222 Si / 1000 Ang^3
#
#
#
# Elastic Constant Matrix: (Units=GPa)
#
#
# Indices 1 2 3 4 5 6 
#
# 1 129.4927 36.4860 51.6801 0.0000 0.0000 0.0000
# 2 36.4860 68.8667 36.7327 0.0000 0.0000 0.0000
# 3 51.6801 36.7327 131.6224 0.0000 0.0000 0.0000
# 4 0.0000 0.0000 0.0000 29.4214 0.0000 0.0000
# 5 0.0000 0.0000 0.0000 0.0000 26.7684 0.0000
# 6 0.0000 0.0000 0.0000 0.0000 0.0000 7.6448
#
#
#
# Elastic Compliance Matrix: (Units=1/GPa)
#
#
# Indices 1 2 3 4 5 6 
#
# 1 0.009911 -0.003731 -0.002850 0.000000 0.000000 0.000000
# 2 -0.003731 0.018465 -0.003688 0.000000 0.000000 0.000000
# 3 -0.002850 -0.003688 0.009746 0.000000 0.000000 0.000000
# 4 0.000000 0.000000 0.000000 0.033989 0.000000 0.000000
# 5 0.000000 0.000000 0.000000 0.000000 0.037357 0.000000
# 6 0.000000 0.000000 0.000000 0.000000 0.000000 0.130807
#
#
# Mechanical properties :
#
#
# Convention : Reuss Voigt Hill
#
# Bulk Modulus (GPa) = 56.87244 64.41992 60.64618
# Shear Modulus (GPa) = 18.74941 26.43913 22.59427
#
# Velocity S-wave (km/s) = 3.21603 3.81901 3.53042
# Velocity P-wave (km/s) = 6.72037 7.41504 7.07624
#
# Compressibility (1/GPa) = 0.01758321
#
# Stress axis : x y z
#
# Youngs Moduli (GPa) = 100.89626 54.15779 102.60668
#
# Poissons Ratio (x) = 0.20204 0.29247
# Poissons Ratio (y) = 0.37641 0.37844
# Poissons Ratio (z) = 0.28759 0.19975
#
# Static dielectric constant tensor:
#      x y z
#    x 3.841960 0.000000 0.000000 
#    y 0.000000 3.231460 0.000000 
#    z 0.000000 0.000000 3.573670 
# 
# 
# High freq. dielectric constant tensor:
#      x y z
#    x 1.717880 0.000000 0.000000 
#    y 0.000000 1.674820 0.000000 
#    z 0.000000 0.000000 1.724960 
# 
# From -- ./inp_files/5106.got.cif
#   From: 2010.03.12/outbox.cif.g09.slc.cpg/sg57_3_cif.got.tgz:5106.got - 2010.04.16 15:48:40.
