data_PCOD8231585
_publ_section_title
;
Structure prediction by ZEFSAII (Michael W. Deem and Ramdas Pophale) SiO2 
 PCOD8231585
Probable space group: P B C M
;
_chemical_formula_sum "Si O2"
_cell_formula_units_Z 24
_cell_length_a 12.095862
_cell_length_b 16.324532
_cell_length_c 5.164573
_cell_angle_alpha 90.000000
_cell_angle_beta 90.000000
_cell_angle_gamma 90.000000
_cell_volume 1019.792899
_symmetry_space_group_name_H-M "P B C M"
_symmetry_group_IT_number 57
_symmetry_cell_setting 'orthorhombic'
loop_
_space_group_symop_operation_xyz
x,y,z
-x,-y,1/2+z
x,1/2-y,-z
-x,1/2+y,1/2-z
-x,-y,-z
x,y,1/2-z
-x,1/2+y,z
x,1/2-y,1/2+z
loop_
_atom_site_type_symbol
_atom_site_label
_atom_site_fract_x
_atom_site_fract_y
_atom_site_fract_z
Si Si1 0.817991 0.523308 0.750000
Si Si2 0.449219 0.296098 0.250000
Si Si3 0.711344 0.202049 0.750000
Si Si4 0.570550 0.977954 0.250000
Si Si5 0.921407 0.691722 0.750000
Si Si6 0.123911 0.932768 0.250000
O O1 0.693618 0.483893 0.750000
O O2 0.823404 0.623081 0.750000
O O3 0.884800 0.490407 0.501464
O O4 0.404128 0.250000 0.500000
O O5 0.580304 0.304287 0.250000
O O6 0.396502 0.384108 0.250000
O O7 0.755582 0.250000 0.500000
O O8 0.756070 0.110083 0.750000
O O9 0.500000 0.000000 0.500000
O O10 0.913023 0.750000 0.500000
O O11 0.034898 0.640031 0.750000
#
# Coordination Sequence:
#
# PCOD8231585 Si02
#       6
#     4   4   4   4   4   4
#     4  12  26  43  69  98 134 176 222 277 331 394
#     4  10  21  36  57  84 120 163 212 264 319 378
#     4  10  19  33  56  88 122 163 211 265 320 374
#     4  12  25  43  66  96 133 179 228 276 329 390
#     4  12  26  46  71 102 135 174 219 269 333 408
#     4  12  23  43  67  98 134 173 218 275 336 396
#
# _framework density 23.534192000000001
#
# number of rings (size 3 to 8) (size 9 to 14) (size 15 to 20)
#    0.000    0.667    0.000    9.000    0.000    4.000 
#    0.000    0.000    0.000    0.000    0.000    0.000 
#    0.000    0.000    0.000    0.000    0.000    0.000 
#
# Total GULP energy -297603.371295 kJ/mol
# GULP energy per Si atom -12400.140471 kJ/mol
# Density = 2.348063 g / cm^3
# Si number density = 23.534192 Si / 1000 Ang^3
#
#
#
# Elastic Constant Matrix: (Units=GPa)
#
#
# Indices 1 2 3 4 5 6 
#
# 1 92.9974 13.7052 38.7723 0.0000 0.0000 0.0000
# 2 13.7052 124.0090 62.7472 0.0000 0.0000 0.0000
# 3 38.7723 62.7472 221.5492 0.0000 0.0000 0.0000
# 4 0.0000 0.0000 0.0000 55.4598 0.0000 0.0000
# 5 0.0000 0.0000 0.0000 0.0000 -25.3470 0.0000
# 6 0.0000 0.0000 0.0000 0.0000 0.0000 40.3104
#
#
#
# Elastic Compliance Matrix: (Units=1/GPa)
#
#
# Indices 1 2 3 4 5 6 
#
# 1 0.011609 -0.000298 -0.001947 0.000000 0.000000 0.000000
# 2 -0.000298 0.009420 -0.002616 0.000000 0.000000 0.000000
# 3 -0.001947 -0.002616 0.005595 0.000000 0.000000 0.000000
# 4 0.000000 0.000000 0.000000 0.018031 0.000000 0.000000
# 5 0.000000 0.000000 0.000000 0.000000 -0.039452 0.000000
# 6 0.000000 0.000000 0.000000 0.000000 0.000000 0.024807
#
#
# Mechanical properties :
#
#
# Convention : Reuss Voigt Hill
#
# Bulk Modulus (GPa) = 59.16214 74.33389 66.74802
# Shear Modulus (GPa) = 110.21287 35.64005 72.92646
#
# Velocity S-wave (km/s) = 6.85074 3.89574 5.57268
# Velocity P-wave (km/s) = 9.36858 7.20346 8.35644
#
# Compressibility (1/GPa) = 0.01690270
#
# Stress axis : x y z
#
# Youngs Moduli (GPa) = 86.14221 106.15163 178.71970
#
# Poissons Ratio (x) = 0.03160 0.34802
# Poissons Ratio (y) = 0.02564 0.46753
# Poissons Ratio (z) = 0.16774 0.27769
#
# Static dielectric constant tensor:
#      x y z
#    x 4.128540 0.000000 0.000000 
#    y 0.000000 4.410300 0.000000 
#    z 0.000000 0.000000 4.483900 
# 
# 
# High freq. dielectric constant tensor:
#      x y z
#    x 1.936230 0.000000 0.000000 
#    y 0.000000 1.941520 0.000000 
#    z 0.000000 0.000000 1.947170 
# 
# From -- ./inp_files/293.got.cif
#   From: 2010.03.12/outbox.cif.g09.slc.cpg/sg57_1_cif.got.tgz:293.got - 2010.04.16 15:48:40.
