data_PCOD8231107
_publ_section_title
;
Structure prediction by ZEFSAII (Michael W. Deem and Ramdas Pophale) SiO2 
 PCOD8231107
Probable space group: P B C M
;
_chemical_formula_sum "Si O2"
_cell_formula_units_Z 64
_cell_length_a 14.727096
_cell_length_b 29.262434
_cell_length_c 9.046989
_cell_angle_alpha 90.000000
_cell_angle_beta 90.000000
_cell_angle_gamma 90.000000
_cell_volume 3898.806014
_symmetry_space_group_name_H-M "P B C M"
_symmetry_group_IT_number 57
_symmetry_cell_setting 'orthorhombic'
loop_
_space_group_symop_operation_xyz
x,y,z
-x,-y,1/2+z
x,1/2-y,-z
-x,1/2+y,1/2-z
-x,-y,-z
x,y,1/2-z
-x,1/2+y,z
x,1/2-y,1/2+z
loop_
_atom_site_type_symbol
_atom_site_label
_atom_site_fract_x
_atom_site_fract_y
_atom_site_fract_z
Si Si1 0.501121 0.703598 0.424812
Si Si2 0.291487 0.705315 0.422062
Si Si3 0.796765 0.387881 0.575194
Si Si4 0.359346 0.940516 0.078814
Si Si5 0.329080 0.043579 0.079422
Si Si6 0.458387 0.388233 0.424483
Si Si7 0.880042 0.533661 0.079938
Si Si8 0.952903 0.433550 0.078941
O O1 0.538803 0.750000 0.500000
O O2 0.518146 0.705780 0.250000
O O3 0.395814 0.697520 0.466664
O O4 0.552486 0.660155 0.493375
O O5 0.251091 0.750000 0.500000
O O6 0.281468 0.713207 0.250000
O O7 0.234844 0.662037 0.477149
O O8 0.801326 0.392256 0.750000
O O9 0.725878 0.425067 0.517017
O O10 0.896150 0.395122 0.507056
O O11 0.335903 0.931425 0.250000
O O12 0.448571 0.913248 0.027792
O O13 0.374639 0.994261 0.050755
O O14 0.342240 0.057858 0.250000
O O15 0.223420 0.042601 0.036017
O O16 0.375067 0.080374 0.973696
O O17 0.454446 0.380280 0.250000
O O18 0.898917 0.545314 0.250000
O O19 0.902839 0.481175 0.046955
O O20 0.944384 0.565930 0.981623
O O21 0.955464 0.420913 0.250000
#
# Coordination Sequence:
#
# PCOD8231107 Si02
#       8
#     8   8   8   8   8   8   8   8
#     4  10  19  34  52  72  98 129 166 208 254 297
#     4   9  19  32  48  71  97 128 164 203 246 295
#     4  11  20  31  49  74 101 131 168 204 246 299
#     4  10  20  34  48  68 100 137 174 208 243 290
#     4  10  20  35  51  68  99 137 173 212 251 292
#     4  11  22  33  49  74 101 134 173 209 250 300
#     4   9  18  33  50  70  96 128 166 207 248 289
#     4  10  19  32  50  72  98 128 163 203 248 295
#
# _framework density 16.415282999999999
#
# number of rings (size 3 to 8) (size 9 to 14) (size 15 to 20)
#    0.000    2.000    2.500    1.875    0.000    3.500 
#    0.000    0.000    0.000    0.000    0.000    0.875 
#    0.000    4.000    0.000    0.000    0.000    0.000 
#
# Total GULP energy -793801.539529 kJ/mol
# GULP energy per Si atom -12403.149055 kJ/mol
# Density = 1.637792 g / cm^3
# Si number density = 16.415283 Si / 1000 Ang^3
#
#
#
# Elastic Constant Matrix: (Units=GPa)
#
#
# Indices 1 2 3 4 5 6 
#
# 1 66.2640 36.0935 30.9488 0.0000 0.0000 0.0000
# 2 36.0935 101.2801 44.8487 0.0000 0.0000 0.0000
# 3 30.9488 44.8487 66.0577 0.0000 0.0000 0.0000
# 4 0.0000 0.0000 0.0000 29.2205 0.0000 0.0000
# 5 0.0000 0.0000 0.0000 0.0000 27.7150 0.0000
# 6 0.0000 0.0000 0.0000 0.0000 0.0000 20.4580
#
#
#
# Elastic Compliance Matrix: (Units=1/GPa)
#
#
# Indices 1 2 3 4 5 6 
#
# 1 0.020596 -0.004385 -0.006672 0.000000 0.000000 0.000000
# 2 -0.004385 0.015052 -0.008165 0.000000 0.000000 0.000000
# 3 -0.006672 -0.008165 0.023808 0.000000 0.000000 0.000000
# 4 0.000000 0.000000 0.000000 0.034223 0.000000 0.000000
# 5 0.000000 0.000000 0.000000 0.000000 0.036082 0.000000
# 6 0.000000 0.000000 0.000000 0.000000 0.000000 0.048881
#
#
# Mechanical properties :
#
#
# Convention : Reuss Voigt Hill
#
# Bulk Modulus (GPa) = 47.59366 50.82042 49.20704
# Shear Modulus (GPa) = 22.31264 23.59273 22.95269
#
# Velocity S-wave (km/s) = 3.69081 3.79521 3.74338
# Velocity P-wave (km/s) = 6.87163 7.08740 6.98035
#
# Compressibility (1/GPa) = 0.02101120
#
# Stress axis : x y z
#
# Youngs Moduli (GPa) = 48.55301 66.43700 42.00355
#
# Poissons Ratio (x) = 0.29135 0.28026
# Poissons Ratio (y) = 0.21292 0.34294
# Poissons Ratio (z) = 0.32395 0.54243
#
# Static dielectric constant tensor:
#      x y z
#    x 2.981790 0.000000 0.000000 
#    y 0.000000 3.074510 0.000000 
#    z 0.000000 0.000000 3.107170 
# 
# 
# High freq. dielectric constant tensor:
#      x y z
#    x 1.611010 0.000000 0.000000 
#    y 0.000000 1.619280 0.000000 
#    z 0.000000 0.000000 1.640580 
# 
# From -- ./inp_files/5956.got.cif
#   From: 2010.03.12/outbox.cif.g09.slc.cpg/sg57_3_cif.got.tgz:5956.got - 2010.04.16 15:48:40.
