data_PCOD8231076
_publ_section_title
;
Structure prediction by ZEFSAII (Michael W. Deem and Ramdas Pophale) SiO2 
 PCOD8231076
Probable space group: P B C M
;
_chemical_formula_sum "Si O2"
_cell_formula_units_Z 64
_cell_length_a 12.180475
_cell_length_b 31.736438
_cell_length_c 9.141963
_cell_angle_alpha 90.000000
_cell_angle_beta 90.000000
_cell_angle_gamma 90.000000
_cell_volume 3533.961918
_symmetry_space_group_name_H-M "P B C M"
_symmetry_group_IT_number 57
_symmetry_cell_setting 'orthorhombic'
loop_
_space_group_symop_operation_xyz
x,y,z
-x,-y,1/2+z
x,1/2-y,-z
-x,1/2+y,1/2-z
-x,-y,-z
x,y,1/2-z
-x,1/2+y,z
x,1/2-y,1/2+z
loop_
_atom_site_type_symbol
_atom_site_label
_atom_site_fract_x
_atom_site_fract_y
_atom_site_fract_z
Si Si1 0.736572 0.291901 0.920935
Si Si2 0.016436 0.545056 0.075128
Si Si3 0.882385 0.625526 0.078737
Si Si4 0.593296 0.368153 0.576361
Si Si5 0.359069 0.395193 0.578758
Si Si6 0.743280 0.440839 0.917544
Si Si7 0.602486 0.980483 0.081569
Si Si8 0.988972 0.293236 0.578021
O O1 0.720273 0.285387 0.750000
O O2 0.655882 0.327484 0.984775
O O3 0.862224 0.303454 0.957727
O O4 0.698436 0.250000 0.000000
O O5 0.012218 0.538360 0.250000
O O6 0.134039 0.562857 0.019904
O O7 0.929697 0.580660 0.020159
O O8 0.000000 0.500000 0.000000
O O9 0.905537 0.625793 0.250000
O O10 0.752985 0.629632 0.041835
O O11 0.942020 0.667086 0.013600
O O12 0.599620 0.369024 0.750000
O O13 0.465191 0.367995 0.528714
O O14 0.656026 0.408860 0.507651
O O15 0.365568 0.406535 0.750000
O O16 0.357559 0.437861 0.489633
O O17 0.748165 0.427147 0.750000
O O18 0.705018 0.488575 0.936769
O O19 0.570505 0.973568 0.250000
O O20 0.500000 0.000000 0.000000
O O21 0.026683 0.250000 0.500000
O O22 0.008866 0.287043 0.750000
#
# Coordination Sequence:
#
# PCOD8231076 Si02
#       8
#     8   8   8   8   8   8   8   8
#     4   9  17  30  51  73  95 122 155 197 243 292
#     4  10  19  32  49  70  98 130 164 203 245 292
#     4   9  18  32  52  75 100 133 169 207 250 300
#     4   9  16  29  49  70  90 121 161 193 230 285
#     4  10  19  33  51  71  98 130 167 204 239 289
#     4   9  17  29  48  70  91 121 162 199 231 280
#     4  11  20  32  49  71  98 130 167 206 246 287
#     4   9  17  32  53  77  99 125 164 206 251 301
#
# _framework density 18.109987
#
# number of rings (size 3 to 8) (size 9 to 14) (size 15 to 20)
#    0.000    2.500    1.250    1.875    0.000    3.000 
#    0.000    3.125    0.000    1.500    0.000    0.000 
#    0.000    0.000    0.000    0.000    0.000    0.000 
#
# Total GULP energy -793266.217713 kJ/mol
# GULP energy per Si atom -12394.784652 kJ/mol
# Density = 1.806877 g / cm^3
# Si number density = 18.109987 Si / 1000 Ang^3
#
#
#
# Elastic Constant Matrix: (Units=GPa)
#
#
# Indices 1 2 3 4 5 6 
#
# 1 143.1354 82.4819 26.9203 0.0000 0.0000 0.0000
# 2 82.4819 150.3305 30.6818 0.0000 0.0000 0.0000
# 3 26.9203 30.6818 32.8623 0.0000 0.0000 0.0000
# 4 0.0000 0.0000 0.0000 28.3170 0.0000 0.0000
# 5 0.0000 0.0000 0.0000 0.0000 14.7372 0.0000
# 6 0.0000 0.0000 0.0000 0.0000 0.0000 23.0172
#
#
#
# Elastic Compliance Matrix: (Units=1/GPa)
#
#
# Indices 1 2 3 4 5 6 
#
# 1 0.010632 -0.005011 -0.004031 0.000000 0.000000 0.000000
# 2 -0.005011 0.010579 -0.005773 0.000000 0.000000 0.000000
# 3 -0.004031 -0.005773 0.039122 0.000000 0.000000 0.000000
# 4 0.000000 0.000000 0.000000 0.035314 0.000000 0.000000
# 5 0.000000 0.000000 0.000000 0.000000 0.067856 0.000000
# 6 0.000000 0.000000 0.000000 0.000000 0.000000 0.043446
#
#
# Mechanical properties :
#
#
# Convention : Reuss Voigt Hill
#
# Bulk Modulus (GPa) = 32.56906 67.38847 49.97877
# Shear Modulus (GPa) = 20.25818 25.63056 22.94437
#
# Velocity S-wave (km/s) = 3.34820 3.76609 3.56328
# Velocity P-wave (km/s) = 5.74198 7.49685 6.67732
#
# Compressibility (1/GPa) = 0.03070398
#
# Stress axis : x y z
#
# Youngs Moduli (GPa) = 94.05571 94.52316 25.56090
#
# Poissons Ratio (x) = 0.47362 0.10305
# Poissons Ratio (y) = 0.47128 0.14756
# Poissons Ratio (z) = 0.37917 0.54566
#
# Static dielectric constant tensor:
#      x y z
#    x 3.595430 0.000000 0.000000 
#    y 0.000000 3.421110 0.000000 
#    z 0.000000 0.000000 3.016260 
# 
# 
# High freq. dielectric constant tensor:
#      x y z
#    x 1.711670 0.000000 0.000000 
#    y 0.000000 1.700610 0.000000 
#    z 0.000000 0.000000 1.657800 
# 
# From -- ./inp_files/3849.got.cif
#   From: 2010.03.12/outbox.cif.g09.slc.cpg/sg57_2_cif.got.tgz:3849.got - 2010.04.16 15:48:40.
