data_PCOD8231596
_publ_section_title
;
Structure prediction by ZEFSAII (Michael W. Deem and Ramdas Pophale) SiO2 
 PCOD8231596
Probable space group: P B C M
;
_chemical_formula_sum "Si O2"
_cell_formula_units_Z 56
_cell_length_a 22.291476
_cell_length_b 14.044360
_cell_length_c 9.012056
_cell_angle_alpha 90.000000
_cell_angle_beta 90.000000
_cell_angle_gamma 90.000000
_cell_volume 2821.399991
_symmetry_space_group_name_H-M "P B C M"
_symmetry_group_IT_number 57
_symmetry_cell_setting 'orthorhombic'
loop_
_space_group_symop_operation_xyz
x,y,z
-x,-y,1/2+z
x,1/2-y,-z
-x,1/2+y,1/2-z
-x,-y,-z
x,y,1/2-z
-x,1/2+y,z
x,1/2-y,1/2+z
loop_
_atom_site_type_symbol
_atom_site_label
_atom_site_fract_x
_atom_site_fract_y
_atom_site_fract_z
Si Si1 0.844321 0.847200 0.426514
Si Si2 0.532107 0.647019 0.074834
Si Si3 0.802685 0.025774 0.924951
Si Si4 0.298413 0.648749 0.425445
Si Si5 0.416076 0.528496 0.078418
Si Si6 0.973284 0.588801 0.917374
Si Si7 0.901361 0.337426 0.413951
O O1 0.822577 0.750000 0.500000
O O2 0.840237 0.840143 0.250000
O O3 0.912281 0.867971 0.484540
O O4 0.798295 0.926263 0.487881
O O5 0.540719 0.659564 0.250000
O O6 0.466982 0.604854 0.032464
O O7 0.541159 0.750000 0.000000
O O8 0.580290 0.569688 0.014902
O O9 0.790901 0.010585 0.750000
O O10 0.870431 0.063266 0.961847
O O11 0.757984 0.102427 0.993116
O O12 0.312463 0.750000 0.500000
O O13 0.286677 0.661652 0.250000
O O14 0.353328 0.578051 0.456085
O O15 0.423196 0.500708 0.250000
O O16 0.960051 0.556520 0.750000
O O17 0.026642 0.665606 0.926631
O O18 0.000000 0.500000 0.000000
O O19 0.872739 0.250000 0.500000
O O20 0.879031 0.317648 0.250000
#
# Coordination Sequence:
#
# PCOD8231596 Si02
#       7
#     8   8   8   8   8   8   8
#     4  11  23  39  61  85 111 147 188 234 289 350
#     4  10  19  33  57  88 123 161 199 241 290 342
#     4  11  23  40  60  82 113 148 190 239 285 337
#     4  11  23  40  62  88 119 154 195 239 288 343
#     4   9  20  37  57  85 121 160 200 243 288 341
#     4  10  20  35  55  81 110 143 180 224 280 340
#     4  10  21  35  53  79 109 141 177 220 274 332
#
# _framework density 19.848303999999999
#
# number of rings (size 3 to 8) (size 9 to 14) (size 15 to 20)
#    0.000    1.714    1.429    3.000    0.000    5.143 
#    0.000    0.714    0.000    3.429    0.000    0.000 
#    0.000    0.000    0.000    0.000    0.000    0.000 
#
# Total GULP energy -694240.559256 kJ/mol
# GULP energy per Si atom -12397.152844 kJ/mol
# Density = 1.980313 g / cm^3
# Si number density = 19.848304 Si / 1000 Ang^3
#
#
#
# Elastic Constant Matrix: (Units=GPa)
#
#
# Indices 1 2 3 4 5 6 
#
# 1 56.9442 21.9773 27.1521 0.0000 0.0000 0.0000
# 2 21.9773 145.9885 67.2116 0.0000 0.0000 0.0000
# 3 27.1521 67.2116 99.8508 0.0000 0.0000 0.0000
# 4 0.0000 0.0000 0.0000 43.0561 0.0000 0.0000
# 5 0.0000 0.0000 0.0000 0.0000 25.8671 0.0000
# 6 0.0000 0.0000 0.0000 0.0000 0.0000 24.5993
#
#
#
# Elastic Compliance Matrix: (Units=1/GPa)
#
#
# Indices 1 2 3 4 5 6 
#
# 1 0.020233 -0.000743 -0.005002 0.000000 0.000000 0.000000
# 2 -0.000743 0.009953 -0.006498 0.000000 0.000000 0.000000
# 3 -0.005002 -0.006498 0.015749 0.000000 0.000000 0.000000
# 4 0.000000 0.000000 0.000000 0.023226 0.000000 0.000000
# 5 0.000000 0.000000 0.000000 0.000000 0.038659 0.000000
# 6 0.000000 0.000000 0.000000 0.000000 0.000000 0.040652
#
#
# Mechanical properties :
#
#
# Convention : Reuss Voigt Hill
#
# Bulk Modulus (GPa) = 46.62031 59.49615 53.05823
# Shear Modulus (GPa) = 27.76154 31.13400 29.44777
#
# Velocity S-wave (km/s) = 3.74396 3.96485 3.85599
# Velocity P-wave (km/s) = 6.49838 7.14147 6.82750
#
# Compressibility (1/GPa) = 0.02144988
#
# Stress axis : x y z
#
# Youngs Moduli (GPa) = 49.42486 100.47076 63.49753
#
# Poissons Ratio (x) = 0.07467 0.31759
# Poissons Ratio (y) = 0.03673 0.41258
# Poissons Ratio (z) = 0.24720 0.65282
#
# Static dielectric constant tensor:
#      x y z
#    x 4.295030 0.000000 0.000000 
#    y 0.000000 3.627920 0.000000 
#    z 0.000000 0.000000 3.646490 
# 
# 
# High freq. dielectric constant tensor:
#      x y z
#    x 1.757340 0.000000 0.000000 
#    y 0.000000 1.781150 0.000000 
#    z 0.000000 0.000000 1.780510 
# 
# From -- ./inp_files/8113.got.cif
#   From: 2010.03.12/outbox.cif.g09.slc.cpg/sg57_5_cif.got.tgz:8113.got - 2010.04.16 15:48:40.
