data_PCOD8231353
_publ_section_title
;
Structure prediction by ZEFSAII (Michael W. Deem and Ramdas Pophale) SiO2 
 PCOD8231353
Probable space group: P B C M
;
_chemical_formula_sum "Si O2"
_cell_formula_units_Z 48
_cell_length_a 9.148983
_cell_length_b 32.847571
_cell_length_c 8.911628
_cell_angle_alpha 90.000000
_cell_angle_beta 90.000000
_cell_angle_gamma 90.000000
_cell_volume 2678.139099
_symmetry_space_group_name_H-M "P B C M"
_symmetry_group_IT_number 57
_symmetry_cell_setting 'orthorhombic'
loop_
_space_group_symop_operation_xyz
x,y,z
-x,-y,1/2+z
x,1/2-y,-z
-x,1/2+y,1/2-z
-x,-y,-z
x,y,1/2-z
-x,1/2+y,z
x,1/2-y,1/2+z
loop_
_atom_site_type_symbol
_atom_site_label
_atom_site_fract_x
_atom_site_fract_y
_atom_site_fract_z
Si Si1 0.438691 0.040523 0.928201
Si Si2 0.903281 0.707398 0.070693
Si Si3 0.187248 0.417032 0.581148
Si Si4 0.377196 0.336078 0.915448
Si Si5 0.945188 0.130869 0.928833
Si Si6 0.614995 0.380429 0.425540
O O1 0.430191 0.036408 0.750000
O O2 0.546006 0.076977 0.979840
O O3 0.276050 0.048084 0.992765
O O4 0.500000 0.000000 0.000000
O O5 0.921912 0.707196 0.250000
O O6 0.733458 0.698836 0.025242
O O7 0.951634 0.750000 0.000000
O O8 0.007817 0.673450 0.000613
O O9 0.150384 0.432020 0.750000
O O10 0.283530 0.376900 0.587342
O O11 0.039000 0.407005 0.491463
O O12 0.433563 0.324978 0.750000
O O13 0.520316 0.341909 0.016657
O O14 0.962037 0.132980 0.750000
O O15 0.780105 0.122696 0.982874
O O16 0.608996 0.377394 0.250000
#
# Coordination Sequence:
#
# PCOD8231353 Si02
#       6
#     8   8   8   8   8   8
#     4  10  19  33  52  75 101 131 167 211 256 300
#     4  10  20  34  52  76 101 130 166 205 246 293
#     4   9  17  31  50  73  98 129 167 204 242 293
#     4   8  16  30  49  71  95 123 160 199 238 284
#     4  10  19  33  52  75 102 134 167 203 247 299
#     4   9  19  33  51  74 100 129 164 202 246 297
#
# _framework density 17.922893999999999
#
# number of rings (size 3 to 8) (size 9 to 14) (size 15 to 20)
#    0.000    2.667    0.000    3.000    0.000    6.667 
#    0.000    1.667    0.000    2.000    0.000    0.000 
#    0.000    0.000    0.000    0.000    0.000    0.000 
#
# Total GULP energy -595034.616275 kJ/mol
# GULP energy per Si atom -12396.554506 kJ/mol
# Density = 1.788210 g / cm^3
# Si number density = 17.922894 Si / 1000 Ang^3
#
#
#
# Elastic Constant Matrix: (Units=GPa)
#
#
# Indices 1 2 3 4 5 6 
#
# 1 130.7095 36.0843 48.3539 0.0000 0.0000 0.0000
# 2 36.0843 64.8396 31.8154 0.0000 0.0000 0.0000
# 3 48.3539 31.8154 75.7229 0.0000 0.0000 0.0000
# 4 0.0000 0.0000 0.0000 24.2301 0.0000 0.0000
# 5 0.0000 0.0000 0.0000 0.0000 28.3073 0.0000
# 6 0.0000 0.0000 0.0000 0.0000 0.0000 19.0148
#
#
#
# Elastic Compliance Matrix: (Units=1/GPa)
#
#
# Indices 1 2 3 4 5 6 
#
# 1 0.010526 -0.003225 -0.005367 0.000000 0.000000 0.000000
# 2 -0.003225 0.020416 -0.006519 0.000000 0.000000 0.000000
# 3 -0.005367 -0.006519 0.019372 0.000000 0.000000 0.000000
# 4 0.000000 0.000000 0.000000 0.041271 0.000000 0.000000
# 5 0.000000 0.000000 0.000000 0.000000 0.035327 0.000000
# 6 0.000000 0.000000 0.000000 0.000000 0.000000 0.052591
#
#
# Mechanical properties :
#
#
# Convention : Reuss Voigt Hill
#
# Bulk Modulus (GPa) = 49.76678 55.97547 52.87113
# Shear Modulus (GPa) = 23.10321 24.64500 23.87411
#
# Velocity S-wave (km/s) = 3.59421 3.71220 3.65368
# Velocity P-wave (km/s) = 6.71207 7.04790 6.88204
#
# Compressibility (1/GPa) = 0.02009372
#
# Stress axis : x y z
#
# Youngs Moduli (GPa) = 95.00204 48.98162 51.62110
#
# Poissons Ratio (x) = 0.15795 0.27704
# Poissons Ratio (y) = 0.30634 0.33650
# Poissons Ratio (z) = 0.50985 0.31930
#
# Static dielectric constant tensor:
#      x y z
#    x 3.563180 0.000000 0.000000 
#    y 0.000000 3.222680 0.000000 
#    z 0.000000 0.000000 3.446050 
# 
# 
# High freq. dielectric constant tensor:
#      x y z
#    x 1.689400 0.000000 0.000000 
#    y 0.000000 1.670060 0.000000 
#    z 0.000000 0.000000 1.703940 
# 
# From -- ./inp_files/1980.got.cif
#   From: 2010.03.12/outbox.cif.g09.slc.cpg/sg57_1_cif.got.tgz:1980.got - 2010.04.16 15:48:40.
