data_PCOD8231024
_publ_section_title
;
Structure prediction by ZEFSAII (Michael W. Deem and Ramdas Pophale) SiO2 
 PCOD8231024
Probable space group: P B C M
;
_chemical_formula_sum "Si O2"
_cell_formula_units_Z 48
_cell_length_a 13.422407
_cell_length_b 18.888006
_cell_length_c 9.286047
_cell_angle_alpha 90.000000
_cell_angle_beta 90.000000
_cell_angle_gamma 90.000000
_cell_volume 2354.221887
_symmetry_space_group_name_H-M "P B C M"
_symmetry_group_IT_number 57
_symmetry_cell_setting 'orthorhombic'
loop_
_space_group_symop_operation_xyz
x,y,z
-x,-y,1/2+z
x,1/2-y,-z
-x,1/2+y,1/2-z
-x,-y,-z
x,y,1/2-z
-x,1/2+y,z
x,1/2-y,1/2+z
loop_
_atom_site_type_symbol
_atom_site_label
_atom_site_fract_x
_atom_site_fract_y
_atom_site_fract_z
Si Si1 0.805605 0.059678 0.916717
Si Si2 0.415180 0.538850 0.912139
Si Si3 0.879527 0.911032 0.585686
Si Si4 0.491882 0.185949 0.910703
Si Si5 0.267351 0.180030 0.919636
Si Si6 0.920748 0.174548 0.420186
O O1 0.800142 0.084436 0.750000
O O2 0.697963 0.027905 0.966281
O O3 0.886348 0.996288 0.935855
O O4 0.831253 0.127726 0.014153
O O5 0.426994 0.511053 0.750000
O O6 0.432296 0.622273 0.923881
O O7 0.500000 0.500000 0.000000
O O8 0.847914 0.894149 0.750000
O O9 0.795640 0.885581 0.475753
O O10 0.981550 0.871753 0.547366
O O11 0.481548 0.214444 0.750000
O O12 0.381436 0.164321 0.964517
O O13 0.538208 0.250000 0.000000
O O14 0.251342 0.188996 0.750000
O O15 0.227840 0.250000 0.000000
O O16 0.928087 0.250000 0.500000
O O17 0.904014 0.186712 0.250000
#
# Coordination Sequence:
#
# PCOD8231024 Si02
#       6
#     8   8   8   8   8   8
#     4  10  22  40  61  86 117 150 188 237 286 336
#     4  10  21  37  58  85 116 150 189 233 281 334
#     4  10  21  37  58  85 115 148 187 232 285 341
#     4   9  19  34  51  76 109 145 187 231 278 333
#     4  10  19  31  51  79 112 149 189 235 284 336
#     4  11  24  41  61  85 114 150 191 234 284 342
#
# _framework density 20.388902000000002
#
# number of rings (size 3 to 8) (size 9 to 14) (size 15 to 20)
#    0.000    2.000    0.000    3.000    0.000    6.000 
#    0.000    1.667    0.000    0.000    0.000    0.000 
#    0.000    0.000    0.000    0.000    0.000    0.000 
#
# Total GULP energy -595146.691534 kJ/mol
# GULP energy per Si atom -12398.889407 kJ/mol
# Density = 2.034250 g / cm^3
# Si number density = 20.388902 Si / 1000 Ang^3
#
#
#
# Elastic Constant Matrix: (Units=GPa)
#
#
# Indices 1 2 3 4 5 6 
#
# 1 91.4122 48.2672 46.4888 0.0000 0.0000 0.0000
# 2 48.2672 102.0031 56.5381 0.0000 0.0000 0.0000
# 3 46.4888 56.5381 93.8912 0.0000 0.0000 0.0000
# 4 0.0000 0.0000 0.0000 38.0495 0.0000 0.0000
# 5 0.0000 0.0000 0.0000 0.0000 27.7822 0.0000
# 6 0.0000 0.0000 0.0000 0.0000 0.0000 28.5198
#
#
#
# Elastic Compliance Matrix: (Units=1/GPa)
#
#
# Indices 1 2 3 4 5 6 
#
# 1 0.016040 -0.004785 -0.005060 0.000000 0.000000 0.000000
# 2 -0.004785 0.016142 -0.007351 0.000000 0.000000 0.000000
# 3 -0.005060 -0.007351 0.017583 0.000000 0.000000 0.000000
# 4 0.000000 0.000000 0.000000 0.026282 0.000000 0.000000
# 5 0.000000 0.000000 0.000000 0.000000 0.035994 0.000000
# 6 0.000000 0.000000 0.000000 0.000000 0.000000 0.035063
#
#
# Mechanical properties :
#
#
# Convention : Reuss Voigt Hill
#
# Bulk Modulus (GPa) = 65.05467 65.54385 65.29926
# Shear Modulus (GPa) = 26.79227 27.93781 27.36504
#
# Velocity S-wave (km/s) = 3.62893 3.70570 3.66752
# Velocity P-wave (km/s) = 7.03811 7.10818 7.07323
#
# Compressibility (1/GPa) = 0.01537169
#
# Stress axis : x y z
#
# Youngs Moduli (GPa) = 62.34603 61.94847 56.87349
#
# Poissons Ratio (x) = 0.29642 0.28780
# Poissons Ratio (y) = 0.29832 0.41809
# Poissons Ratio (z) = 0.31550 0.45540
#
# Static dielectric constant tensor:
#      x y z
#    x 3.633640 0.000000 0.000000 
#    y 0.000000 3.700160 0.000000 
#    z 0.000000 0.000000 3.693700 
# 
# 
# High freq. dielectric constant tensor:
#      x y z
#    x 1.792250 0.000000 0.000000 
#    y 0.000000 1.799630 0.000000 
#    z 0.000000 0.000000 1.794770 
# 
# From -- ./inp_files/4699.got.cif
#   From: 2010.03.12/outbox.cif.g09.slc.cpg/sg57_3_cif.got.tgz:4699.got - 2010.04.16 15:48:40.
