data_PCOD8231497
_publ_section_title
;
Structure prediction by ZEFSAII (Michael W. Deem and Ramdas Pophale) SiO2 
 PCOD8231497
Probable space group: P B C M
;
_chemical_formula_sum "Si O2"
_cell_formula_units_Z 48
_cell_length_a 11.524213
_cell_length_b 23.740163
_cell_length_c 8.810707
_cell_angle_alpha 90.000000
_cell_angle_beta 90.000000
_cell_angle_gamma 90.000000
_cell_volume 2410.492209
_symmetry_space_group_name_H-M "P B C M"
_symmetry_group_IT_number 57
_symmetry_cell_setting 'orthorhombic'
loop_
_space_group_symop_operation_xyz
x,y,z
-x,-y,1/2+z
x,1/2-y,-z
-x,1/2+y,1/2-z
-x,-y,-z
x,y,1/2-z
-x,1/2+y,z
x,1/2-y,1/2+z
loop_
_atom_site_type_symbol
_atom_site_label
_atom_site_fract_x
_atom_site_fract_y
_atom_site_fract_z
Si Si1 0.750005 0.469064 0.572424
Si Si2 0.458808 0.588054 0.928843
Si Si3 0.281677 0.408038 0.428307
Si Si4 0.885767 0.811607 0.429410
Si Si5 0.105028 0.635387 0.078673
Si Si6 0.344525 0.808096 0.922235
O O1 0.733907 0.457257 0.750000
O O2 0.622776 0.459857 0.500855
O O3 0.787676 0.533445 0.536456
O O4 0.847320 0.424848 0.513366
O O5 0.458485 0.579175 0.750000
O O6 0.589251 0.585939 0.996403
O O7 0.409132 0.648154 0.971974
O O8 0.291320 0.399173 0.250000
O O9 0.213427 0.353950 0.494725
O O10 0.869743 0.750000 0.500000
O O11 0.878690 0.804851 0.250000
O O12 0.007556 0.840285 0.469200
O O13 0.056104 0.628302 0.250000
O O14 0.207540 0.680751 0.077683
O O15 0.392320 0.809796 0.750000
O O16 0.373477 0.750000 0.000000
#
# Coordination Sequence:
#
# PCOD8231497 Si02
#       6
#     8   8   8   8   8   8
#     4   9  18  36  59  82 110 140 174 219 272 320
#     4  10  19  33  54  81 112 143 179 219 265 321
#     4   9  20  37  56  79 109 145 179 218 266 316
#     4  11  23  39  57  77 106 144 183 221 264 315
#     4   9  19  35  56  81 107 136 172 219 271 321
#     4  10  20  34  53  78 108 141 180 227 277 322
#
# _framework density 19.912945000000001
#
# number of rings (size 3 to 8) (size 9 to 14) (size 15 to 20)
#    0.000    2.333    0.000    3.500    0.000    6.000 
#    0.000    7.500    0.000    0.000    0.000    0.000 
#    0.000    0.000    0.000    0.000    0.000    0.000 
#
# Total GULP energy -594992.150225 kJ/mol
# GULP energy per Si atom -12395.669796 kJ/mol
# Density = 1.986762 g / cm^3
# Si number density = 19.912945 Si / 1000 Ang^3
#
#
#
# Elastic Constant Matrix: (Units=GPa)
#
#
# Indices 1 2 3 4 5 6 
#
# 1 68.1356 56.8894 18.9980 0.0000 0.0000 0.0000
# 2 56.8894 141.6217 23.0525 0.0000 0.0000 0.0000
# 3 18.9980 23.0525 45.5611 0.0000 0.0000 0.0000
# 4 0.0000 0.0000 0.0000 21.9346 0.0000 0.0000
# 5 0.0000 0.0000 0.0000 0.0000 23.6382 0.0000
# 6 0.0000 0.0000 0.0000 0.0000 0.0000 -951.5962
#
#
#
# Elastic Compliance Matrix: (Units=1/GPa)
#
#
# Indices 1 2 3 4 5 6 
#
# 1 0.023248 -0.008457 -0.005415 0.000000 0.000000 0.000000
# 2 -0.008457 0.010771 -0.001924 0.000000 0.000000 0.000000
# 3 -0.005415 -0.001924 0.025180 0.000000 0.000000 0.000000
# 4 0.000000 0.000000 0.000000 0.045590 0.000000 0.000000
# 5 0.000000 0.000000 0.000000 0.000000 0.042304 0.000000
# 6 0.000000 0.000000 0.000000 0.000000 0.000000 -0.001051
#
#
# Mechanical properties :
#
#
# Convention : Reuss Voigt Hill
#
# Bulk Modulus (GPa) = 36.22158 50.35535 43.28847
# Shear Modulus (GPa) = 26.76147 -170.77945 -72.00899
#
# Velocity S-wave (km/s) = 3.66993 -9.27088 -6.02000
# Velocity P-wave (km/s) = 6.01559 9.44756 5.15116
#
# Compressibility (1/GPa) = 0.02760785
#
# Stress axis : x y z
#
# Youngs Moduli (GPa) = 43.01512 92.83831 39.71466
#
# Poissons Ratio (x) = 0.78515 0.21504
# Poissons Ratio (y) = 0.36379 0.07639
# Poissons Ratio (z) = 0.23291 0.17858
#
# Static dielectric constant tensor:
#      x y z
#    x 3.660690 0.000000 0.000000 
#    y 0.000000 4.037210 0.000000 
#    z 0.000000 0.000000 3.458000 
# 
# 
# High freq. dielectric constant tensor:
#      x y z
#    x 1.764250 0.000000 0.000000 
#    y 0.000000 1.793260 0.000000 
#    z 0.000000 0.000000 1.760130 
# 
# From -- ./inp_files/3151.got.cif
#   From: 2010.03.12/outbox.cif.g09.slc.cpg/sg57_2_cif.got.tgz:3151.got - 2010.04.16 15:48:40.
