data_PCOD8231581
_publ_section_title
;
Structure prediction by ZEFSAII (Michael W. Deem and Ramdas Pophale) SiO2 
 PCOD8231581
Probable space group: P B C M
;
_chemical_formula_sum "Si O2"
_cell_formula_units_Z 48
_cell_length_a 9.344869
_cell_length_b 8.914908
_cell_length_c 23.502209
_cell_angle_alpha 90.000000
_cell_angle_beta 90.000000
_cell_angle_gamma 90.000000
_cell_volume 1957.937243
_symmetry_space_group_name_H-M "P B C M"
_symmetry_group_IT_number 57
_symmetry_cell_setting 'orthorhombic'
loop_
_space_group_symop_operation_xyz
x,y,z
-x,-y,1/2+z
x,1/2-y,-z
-x,1/2+y,1/2-z
-x,-y,-z
x,y,1/2-z
-x,1/2+y,z
x,1/2-y,1/2+z
loop_
_atom_site_type_symbol
_atom_site_label
_atom_site_fract_x
_atom_site_fract_y
_atom_site_fract_z
Si Si1 0.760624 0.116600 0.395389
Si Si2 0.576196 0.389979 0.078262
Si Si3 0.329541 0.037178 0.314513
Si Si4 0.259254 0.130793 0.685257
Si Si5 0.718566 0.587234 0.988594
Si Si6 0.929061 0.323870 0.313940
O O1 0.639069 0.222107 0.422743
O O2 0.883969 0.204582 0.362090
O O3 0.677816 0.004648 0.352080
O O4 0.821229 0.016130 0.448441
O O5 0.566355 0.443692 0.144124
O O6 0.425732 0.384169 0.047408
O O7 0.686926 0.502758 0.047333
O O8 0.387815 0.020323 0.250000
O O9 0.325925 0.210551 0.333743
O O10 0.168388 0.972183 0.318352
O O11 0.296899 0.097772 0.750000
O O12 0.089623 0.128435 0.673826
O O13 0.790334 0.750000 0.000000
O O14 0.915264 0.253142 0.250000
#
# Coordination Sequence:
#
# PCOD8231581 Si02
#       6
#     8   8   8   8   8   8
#     4  11  21  34  60  90 117 149 199 252 291 338
#     4  10  21  38  59  85 115 153 201 247 298 359
#     4   9  18  33  55  83 117 153 191 243 300 351
#     4  10  19  33  56  87 122 160 197 233 285 355
#     4  11  22  39  62  83 109 153 203 248 297 358
#     4   9  18  34  57  86 120 158 198 237 284 350
#
# _framework density 24.515595999999999
#
# number of rings (size 3 to 8) (size 9 to 14) (size 15 to 20)
#    0.000    2.000    0.000    5.000    0.000    3.333 
#    0.000    1.667    0.000   32.000    0.000    0.000 
#    0.000    0.000    0.000    0.000    0.000    0.000 
#
# Total GULP energy -595138.689729 kJ/mol
# GULP energy per Si atom -12398.722703 kJ/mol
# Density = 2.445980 g / cm^3
# Si number density = 24.515596 Si / 1000 Ang^3
#
#
#
# Elastic Constant Matrix: (Units=GPa)
#
#
# Indices 1 2 3 4 5 6 
#
# 1 35.9756 1.4553 -0.8416 0.0000 0.0000 0.0000
# 2 1.4553 158.2824 52.2143 0.0000 0.0000 0.0000
# 3 -0.8416 52.2143 110.7522 0.0000 0.0000 0.0000
# 4 0.0000 0.0000 0.0000 60.3186 0.0000 0.0000
# 5 0.0000 0.0000 0.0000 0.0000 24.0277 0.0000
# 6 0.0000 0.0000 0.0000 0.0000 0.0000 18.4984
#
#
#
# Elastic Compliance Matrix: (Units=1/GPa)
#
#
# Indices 1 2 3 4 5 6 
#
# 1 0.027821 -0.000385 0.000393 0.000000 0.000000 0.000000
# 2 -0.000385 0.007487 -0.003533 0.000000 0.000000 0.000000
# 3 0.000393 -0.003533 0.010698 0.000000 0.000000 0.000000
# 4 0.000000 0.000000 0.000000 0.016579 0.000000 0.000000
# 5 0.000000 0.000000 0.000000 0.000000 0.041619 0.000000
# 6 0.000000 0.000000 0.000000 0.000000 0.000000 0.054059
#
#
# Mechanical properties :
#
#
# Convention : Reuss Voigt Hill
#
# Bulk Modulus (GPa) = 25.67005 45.62958 35.64982
# Shear Modulus (GPa) = 28.04318 37.38111 32.71214
#
# Velocity S-wave (km/s) = 3.38582 3.90909 3.65682
# Velocity P-wave (km/s) = 5.07727 6.24720 5.69237
#
# Compressibility (1/GPa) = 0.03895590
#
# Stress axis : x y z
#
# Youngs Moduli (GPa) = 35.94357 133.57057 93.47915
#
# Poissons Ratio (x) = 0.05149 -0.03675
# Poissons Ratio (y) = 0.01386 0.33022
# Poissons Ratio (z) = -0.01413 0.47184
#
# Static dielectric constant tensor:
#      x y z
#    x 3.783870 0.000000 0.000000 
#    y 0.000000 4.690660 0.000000 
#    z 0.000000 0.000000 4.783800 
# 
# 
# High freq. dielectric constant tensor:
#      x y z
#    x 1.930680 0.000000 0.000000 
#    y 0.000000 1.991750 0.000000 
#    z 0.000000 0.000000 1.990640 
# 
# From -- ./inp_files/27097.got.cif
#   From: 2010.03.12/outbox.cif.g09.slc.cpg/sg57_14_cif.got.tgz:27097.got - 2010.04.16 15:48:40.
