data_PCOD8231727
_publ_section_title
;
Structure prediction by ZEFSAII (Michael W. Deem and Ramdas Pophale) SiO2 
 PCOD8231727
Probable space group: P B C M
;
_chemical_formula_sum "Si O2"
_cell_formula_units_Z 48
_cell_length_a 8.596837
_cell_length_b 16.408989
_cell_length_c 17.866642
_cell_angle_alpha 90.000000
_cell_angle_beta 90.000000
_cell_angle_gamma 90.000000
_cell_volume 2520.365068
_symmetry_space_group_name_H-M "P B C M"
_symmetry_group_IT_number 57
_symmetry_cell_setting 'orthorhombic'
loop_
_space_group_symop_operation_xyz
x,y,z
-x,-y,1/2+z
x,1/2-y,-z
-x,1/2+y,1/2-z
-x,-y,-z
x,y,1/2-z
-x,1/2+y,z
x,1/2-y,1/2+z
loop_
_atom_site_type_symbol
_atom_site_label
_atom_site_fract_x
_atom_site_fract_y
_atom_site_fract_z
Si Si1 0.029246 0.076371 0.335624
Si Si2 0.947017 0.830394 0.462939
Si Si3 0.772555 0.114574 0.450651
Si Si4 0.752562 0.539822 0.042045
Si Si5 0.457292 0.189430 0.068220
Si Si6 0.807674 0.750720 0.666748
O O1 0.007411 0.045660 0.250000
O O2 0.157287 0.020448 0.379123
O O3 0.091996 0.167943 0.338088
O O4 0.866280 0.077392 0.380060
O O5 0.864446 0.750000 0.500000
O O6 0.877792 0.915258 0.489724
O O7 0.908883 0.819399 0.375277
O O8 0.125316 0.832135 0.490569
O O9 0.639662 0.173212 0.416180
O O10 0.698283 0.041986 0.500695
O O11 0.607520 0.599017 0.052772
O O12 0.367096 0.232379 0.136719
O O13 0.437193 0.250000 0.000000
O O14 0.787628 0.717756 0.750000
#
# Coordination Sequence:
#
# PCOD8231727 Si02
#       6
#     8   8   8   8   8   8
#     4   9  18  33  54  80 109 143 183 223 273 330
#     4  11  16  35  55  79 106 140 188 228 265 322
#     4  11  22  31  57  86 112 140 184 239 276 321
#     4  10  19  36  54  81 110 143 186 223 276 336
#     4  11  20  36  58  79 107 146 188 228 272 330
#     4  10  19  34  57  79 106 145 185 226 273 328
#
# _framework density 19.044858000000001
#
# number of rings (size 3 to 8) (size 9 to 14) (size 15 to 20)
#    0.000    1.667    6.667    3.000    0.000    0.667 
#    0.000    3.333    0.000    1.000    0.000    0.000 
#    0.000    0.000    0.000    0.000    0.000    0.000 
#
# Total GULP energy -594756.554477 kJ/mol
# GULP energy per Si atom -12390.761552 kJ/mol
# Density = 1.900151 g / cm^3
# Si number density = 19.044858 Si / 1000 Ang^3
#
#
#
# Elastic Constant Matrix: (Units=GPa)
#
#
# Indices 1 2 3 4 5 6 
#
# 1 97.4271 6.8805 38.3895 0.0000 0.0000 0.0000
# 2 6.8805 35.9352 25.4638 0.0000 0.0000 0.0000
# 3 38.3895 25.4638 139.3192 0.0000 0.0000 0.0000
# 4 0.0000 0.0000 0.0000 21.2061 0.0000 0.0000
# 5 0.0000 0.0000 0.0000 0.0000 25.5196 0.0000
# 6 0.0000 0.0000 0.0000 0.0000 0.0000 33.2029
#
#
#
# Elastic Compliance Matrix: (Units=1/GPa)
#
#
# Indices 1 2 3 4 5 6 
#
# 1 0.011514 0.000050 -0.003182 0.000000 0.000000 0.000000
# 2 0.000050 0.031968 -0.005857 0.000000 0.000000 0.000000
# 3 -0.003182 -0.005857 0.009125 0.000000 0.000000 0.000000
# 4 0.000000 0.000000 0.000000 0.047156 0.000000 0.000000
# 5 0.000000 0.000000 0.000000 0.000000 0.039186 0.000000
# 6 0.000000 0.000000 0.000000 0.000000 0.000000 0.030118
#
#
# Mechanical properties :
#
#
# Convention : Reuss Voigt Hill
#
# Bulk Modulus (GPa) = 28.87628 46.01659 37.44643
# Shear Modulus (GPa) = 25.17772 29.44889 27.31330
#
# Velocity S-wave (km/s) = 3.63991 3.93656 3.79113
# Velocity P-wave (km/s) = 5.73240 6.69900 6.23446
#
# Compressibility (1/GPa) = 0.03463050
#
# Stress axis : x y z
#
# Youngs Moduli (GPa) = 86.84820 31.28087 109.58895
#
# Poissons Ratio (x) = -0.00157 0.34871
# Poissons Ratio (y) = -0.00435 0.64184
# Poissons Ratio (z) = 0.27635 0.18320
#
# Static dielectric constant tensor:
#      x y z
#    x 3.509080 0.000000 0.000000 
#    y 0.000000 3.631600 0.000000 
#    z 0.000000 0.000000 3.561930 
# 
# 
# High freq. dielectric constant tensor:
#      x y z
#    x 1.735860 0.000000 0.000000 
#    y 0.000000 1.725710 0.000000 
#    z 0.000000 0.000000 1.724110 
# 
# From -- ./inp_files/20945.got.cif
#   From: 2010.03.12/outbox.cif.g09.slc.cpg/sg57_11_cif.got.tgz:20945.got - 2010.04.16 15:48:40.
