data_PCOD8231057
_publ_section_title
;
Structure prediction by ZEFSAII (Michael W. Deem and Ramdas Pophale) SiO2 
 PCOD8231057
Probable space group: P B C M
;
_chemical_formula_sum "Si O2"
_cell_formula_units_Z 56
_cell_length_a 14.259161
_cell_length_b 26.447191
_cell_length_c 8.861656
_cell_angle_alpha 90.000000
_cell_angle_beta 90.000000
_cell_angle_gamma 90.000000
_cell_volume 3341.861227
_symmetry_space_group_name_H-M "P B C M"
_symmetry_group_IT_number 57
_symmetry_cell_setting 'orthorhombic'
loop_
_space_group_symop_operation_xyz
x,y,z
-x,-y,1/2+z
x,1/2-y,-z
-x,1/2+y,1/2-z
-x,-y,-z
x,y,1/2-z
-x,1/2+y,z
x,1/2-y,1/2+z
loop_
_atom_site_type_symbol
_atom_site_label
_atom_site_fract_x
_atom_site_fract_y
_atom_site_fract_z
Si Si1 0.124328 0.303943 0.071780
Si Si2 0.581813 0.566624 0.574516
Si Si3 0.027433 0.613879 0.922201
Si Si4 0.194197 0.568691 0.423719
Si Si5 0.735552 0.623263 0.073360
Si Si6 0.624587 0.462188 0.074117
Si Si7 0.861738 0.543918 0.921441
O O1 0.135094 0.299436 0.250000
O O2 0.036040 0.338837 0.026185
O O3 0.105604 0.250000 0.000000
O O4 0.219966 0.327824 0.006791
O O5 0.604355 0.571498 0.750000
O O6 0.630002 0.613531 0.487547
O O7 0.471008 0.568355 0.541020
O O8 0.626426 0.513892 0.519585
O O9 0.059226 0.620207 0.750000
O O10 0.968213 0.562339 0.945226
O O11 0.121276 0.611596 0.022635
O O12 0.218945 0.577552 0.250000
O O13 0.289803 0.572810 0.519436
O O14 0.144211 0.515201 0.454302
O O15 0.733049 0.633486 0.250000
O O16 0.794633 0.573014 0.036804
O O17 0.633798 0.475540 0.250000
O O18 0.829820 0.557182 0.750000
#
# Coordination Sequence:
#
# PCOD8231057 Si02
#       7
#     8   8   8   8   8   8   8
#     4  10  21  38  57  77 101 127 159 205 253 300
#     4  10  19  32  47  67  97 131 169 209 246 287
#     4   9  19  33  48  67  96 129 163 201 245 294
#     4  11  20  29  45  68  98 134 170 207 243 286
#     4  11  20  30  50  75  99 132 168 202 247 302
#     4  10  20  31  46  67  95 134 173 207 244 286
#     4   9  18  31  44  64  96 133 167 205 243 280
#
# _framework density 16.75713
#
# number of rings (size 3 to 8) (size 9 to 14) (size 15 to 20)
#    0.000    2.000    1.429    4.286    0.000    5.143 
#    0.000    0.000    0.000    0.000    0.000    1.000 
#    0.000    4.571    0.000    0.000    0.000    0.000 
#
# Total GULP energy -694464.395282 kJ/mol
# GULP energy per Si atom -12401.149916 kJ/mol
# Density = 1.671899 g / cm^3
# Si number density = 16.757130 Si / 1000 Ang^3
#
#
#
# Elastic Constant Matrix: (Units=GPa)
#
#
# Indices 1 2 3 4 5 6 
#
# 1 110.4853 42.3769 46.8714 0.0000 0.0000 0.0000
# 2 42.3769 67.1165 37.6276 0.0000 0.0000 0.0000
# 3 46.8714 37.6276 92.8036 0.0000 0.0000 0.0000
# 4 0.0000 0.0000 0.0000 24.0689 0.0000 0.0000
# 5 0.0000 0.0000 0.0000 0.0000 29.4824 0.0000
# 6 0.0000 0.0000 0.0000 0.0000 0.0000 16.2205
#
#
#
# Elastic Compliance Matrix: (Units=1/GPa)
#
#
# Indices 1 2 3 4 5 6 
#
# 1 0.013110 -0.005908 -0.004226 0.000000 0.000000 0.000000
# 2 -0.005908 0.021945 -0.005914 0.000000 0.000000 0.000000
# 3 -0.004226 -0.005914 0.015307 0.000000 0.000000 0.000000
# 4 0.000000 0.000000 0.000000 0.041547 0.000000 0.000000
# 5 0.000000 0.000000 0.000000 0.000000 0.033919 0.000000
# 6 0.000000 0.000000 0.000000 0.000000 0.000000 0.061650
#
#
# Mechanical properties :
#
#
# Convention : Reuss Voigt Hill
#
# Bulk Modulus (GPa) = 54.74351 58.23968 56.49159
# Shear Modulus (GPa) = 22.15686 23.52298 22.83992
#
# Velocity S-wave (km/s) = 3.64020 3.75074 3.69588
# Velocity P-wave (km/s) = 7.09984 7.32039 7.21096
#
# Compressibility (1/GPa) = 0.01826701
#
# Stress axis : x y z
#
# Youngs Moduli (GPa) = 76.27864 45.56757 65.32774
#
# Poissons Ratio (x) = 0.26923 0.27605
# Poissons Ratio (y) = 0.45069 0.38633
# Poissons Ratio (z) = 0.32233 0.26948
#
# Static dielectric constant tensor:
#      x y z
#    x 3.223950 0.000000 0.000000 
#    y 0.000000 2.817990 0.000000 
#    z 0.000000 0.000000 3.180650 
# 
# 
# High freq. dielectric constant tensor:
#      x y z
#    x 1.647650 0.000000 0.000000 
#    y 0.000000 1.596070 0.000000 
#    z 0.000000 0.000000 1.659020 
# 
# From -- ./inp_files/5900.got.cif
#   From: 2010.03.12/outbox.cif.g09.slc.cpg/sg57_3_cif.got.tgz:5900.got - 2010.04.16 15:48:40.
