data_PCOD8231184
_publ_section_title
;
Structure prediction by ZEFSAII (Michael W. Deem and Ramdas Pophale) SiO2 
 PCOD8231184
Probable space group: P B C M
;
_chemical_formula_sum "Si O2"
_cell_formula_units_Z 64
_cell_length_a 19.880714
_cell_length_b 19.805411
_cell_length_c 9.147846
_cell_angle_alpha 90.000000
_cell_angle_beta 90.000000
_cell_angle_gamma 90.000000
_cell_volume 3601.925134
_symmetry_space_group_name_H-M "P B C M"
_symmetry_group_IT_number 57
_symmetry_cell_setting 'orthorhombic'
loop_
_space_group_symop_operation_xyz
x,y,z
-x,-y,1/2+z
x,1/2-y,-z
-x,1/2+y,1/2-z
-x,-y,-z
x,y,1/2-z
-x,1/2+y,z
x,1/2-y,1/2+z
loop_
_atom_site_type_symbol
_atom_site_label
_atom_site_fract_x
_atom_site_fract_y
_atom_site_fract_z
Si Si1 0.709498 0.685839 0.586917
Si Si2 0.177842 0.538274 0.581231
Si Si3 0.700787 0.945695 0.917006
Si Si4 0.864630 0.315877 0.420199
Si Si5 0.547644 0.552163 0.077571
Si Si6 0.980795 0.815726 0.080281
Si Si7 0.061215 0.037152 0.577103
Si Si8 0.549763 0.686146 0.585232
O O1 0.739635 0.750000 0.500000
O O2 0.740017 0.686308 0.750000
O O3 0.730737 0.615992 0.510704
O O4 0.629653 0.691453 0.592239
O O5 0.153974 0.531791 0.750000
O O6 0.253779 0.511974 0.559859
O O7 0.175724 0.616674 0.532646
O O8 0.130620 0.492866 0.480431
O O9 0.701475 0.920662 0.750000
O O10 0.624982 0.964996 0.962714
O O11 0.834169 0.250000 0.500000
O O12 0.857266 0.302036 0.250000
O O13 0.941887 0.327274 0.467075
O O14 0.535043 0.552195 0.250000
O O15 0.500000 0.500000 0.000000
O O16 0.526508 0.623394 0.010789
O O17 0.975442 0.800315 0.250000
O O18 0.940003 0.883152 0.037730
O O19 0.950191 0.750000 0.000000
O O20 0.054546 0.026198 0.750000
O O21 0.000000 0.000000 0.500000
O O22 0.519276 0.750000 0.500000
O O23 0.520381 0.681803 0.750000
#
# Coordination Sequence:
#
# PCOD8231184 Si02
#       8
#     8   8   8   8   8   8   8   8
#     4   9  16  27  46  70  98 129 166 207 246 292
#     4  10  20  36  54  75 103 134 167 209 258 307
#     4   9  19  34  52  73 101 136 172 208 257 313
#     4   9  17  31  50  73  99 126 162 206 249 293
#     4  10  19  32  51  76 102 134 173 213 258 311
#     4   9  18  32  49  72 100 130 166 207 248 293
#     4  11  21  34  52  76 103 132 168 208 251 300
#     4   9  16  27  45  71 100 130 162 205 252 298
#
# _framework density 17.768276
#
# number of rings (size 3 to 8) (size 9 to 14) (size 15 to 20)
#    0.000    2.500    1.250    1.500    0.000    5.500 
#    0.000    0.625    0.000    2.250    0.000    1.750 
#    0.000    0.000    0.000    0.000    0.000    0.000 
#
# Total GULP energy -793543.257303 kJ/mol
# GULP energy per Si atom -12399.113395 kJ/mol
# Density = 1.772783 g / cm^3
# Si number density = 17.768276 Si / 1000 Ang^3
#
#
#
# Elastic Constant Matrix: (Units=GPa)
#
#
# Indices 1 2 3 4 5 6 
#
# 1 53.2460 54.3128 34.7905 0.0000 0.0000 0.0000
# 2 54.3128 174.8624 75.2691 0.0000 0.0000 0.0000
# 3 34.7905 75.2691 99.6080 0.0000 0.0000 0.0000
# 4 0.0000 0.0000 0.0000 37.8769 0.0000 0.0000
# 5 0.0000 0.0000 0.0000 0.0000 17.5670 0.0000
# 6 0.0000 0.0000 0.0000 0.0000 0.0000 24.3268
#
#
#
# Elastic Compliance Matrix: (Units=1/GPa)
#
#
# Indices 1 2 3 4 5 6 
#
# 1 0.029037 -0.006897 -0.004930 0.000000 0.000000 0.000000
# 2 -0.006897 0.010114 -0.005234 0.000000 0.000000 0.000000
# 3 -0.004930 -0.005234 0.015716 0.000000 0.000000 0.000000
# 4 0.000000 0.000000 0.000000 0.026401 0.000000 0.000000
# 5 0.000000 0.000000 0.000000 0.000000 0.056925 0.000000
# 6 0.000000 0.000000 0.000000 0.000000 0.000000 0.041107
#
#
# Mechanical properties :
#
#
# Convention : Reuss Voigt Hill
#
# Bulk Modulus (GPa) = 48.20296 72.94015 60.57155
# Shear Modulus (GPa) = 22.69251 26.84374 24.76812
#
# Velocity S-wave (km/s) = 3.57758 3.89108 3.73762
# Velocity P-wave (km/s) = 6.65229 7.83117 7.26568
#
# Compressibility (1/GPa) = 0.02074561
#
# Stress axis : x y z
#
# Youngs Moduli (GPa) = 34.43861 98.87536 63.62864
#
# Poissons Ratio (x) = 0.68192 0.31371
# Poissons Ratio (y) = 0.23752 0.33301
# Poissons Ratio (z) = 0.16979 0.51748
#
# Static dielectric constant tensor:
#      x y z
#    x 2.955690 0.000000 0.000000 
#    y 0.000000 3.434710 0.000000 
#    z 0.000000 0.000000 3.444160 
# 
# 
# High freq. dielectric constant tensor:
#      x y z
#    x 1.639770 0.000000 0.000000 
#    y 0.000000 1.697890 0.000000 
#    z 0.000000 0.000000 1.695820 
# 
# From -- ./inp_files/9560.got.cif
#   From: 2010.03.12/outbox.cif.g09.slc.cpg/sg57_5_cif.got.tgz:9560.got - 2010.04.16 15:48:40.
