data_PCOD8231284
_publ_section_title
;
Structure prediction by ZEFSAII (Michael W. Deem and Ramdas Pophale) SiO2 
 PCOD8231284
Probable space group: P B C M
;
_chemical_formula_sum "Si O2"
_cell_formula_units_Z 40
_cell_length_a 11.640381
_cell_length_b 10.045088
_cell_length_c 13.659059
_cell_angle_alpha 90.000000
_cell_angle_beta 90.000000
_cell_angle_gamma 90.000000
_cell_volume 1597.135350
_symmetry_space_group_name_H-M "P B C M"
_symmetry_group_IT_number 57
_symmetry_cell_setting 'orthorhombic'
loop_
_space_group_symop_operation_xyz
x,y,z
-x,-y,1/2+z
x,1/2-y,-z
-x,1/2+y,1/2-z
-x,-y,-z
x,y,1/2-z
-x,1/2+y,z
x,1/2-y,1/2+z
loop_
_atom_site_type_symbol
_atom_site_label
_atom_site_fract_x
_atom_site_fract_y
_atom_site_fract_z
Si Si1 0.092434 0.052338 0.641986
Si Si2 0.751811 0.792080 0.893814
Si Si3 0.145527 0.935437 0.055277
Si Si4 0.519922 0.588127 0.356226
Si Si5 0.628502 0.176828 0.868654
O O1 0.076185 0.986774 0.750000
O O2 0.181599 0.172501 0.657459
O O3 0.974518 0.115956 0.599768
O O4 0.139203 0.943858 0.563652
O O5 0.636509 0.828787 0.836601
O O6 0.835365 0.919117 0.898701
O O7 0.709342 0.750000 0.000000
O O8 0.244564 0.832915 0.086550
O O9 0.467208 0.554441 0.250000
O O10 0.426004 0.684229 0.409060
O O11 0.550025 0.447839 0.409371
O O12 0.632588 0.170505 0.750000
#
# Coordination Sequence:
#
# PCOD8231284 Si02
#       5
#     8   8   8   8   8
#     4  10  19  32  54  81 108 143 189 236 281 341
#     4   9  18  34  54  76 104 142 185 231 283 343
#     4   9  19  35  53  79 112 147 187 232 290 351
#     4   9  17  31  53  81 112 147 188 233 286 347
#     4   9  17  32  56  84 115 151 191 239 294 350
#
# _framework density 25.044839
#
# number of rings (size 3 to 8) (size 9 to 14) (size 15 to 20)
#    0.000    2.800    0.000    1.200    0.000    2.400 
#    0.000   11.000    0.000   10.800    0.000   12.600 
#    0.000    0.000    0.000    0.000    0.000    0.000 
#
# Total GULP energy -495728.890413 kJ/mol
# GULP energy per Si atom -12393.222260 kJ/mol
# Density = 2.498784 g / cm^3
# Si number density = 25.044839 Si / 1000 Ang^3
#
#
#
# Elastic Constant Matrix: (Units=GPa)
#
#
# Indices 1 2 3 4 5 6 
#
# 1 104.3915 39.3738 22.9674 0.0000 0.0000 0.0000
# 2 39.3738 76.6212 27.2438 0.0000 0.0000 0.0000
# 3 22.9674 27.2438 120.0189 0.0000 0.0000 0.0000
# 4 0.0000 0.0000 0.0000 19.5210 0.0000 0.0000
# 5 0.0000 0.0000 0.0000 0.0000 24.4243 0.0000
# 6 0.0000 0.0000 0.0000 0.0000 0.0000 20.1608
#
#
#
# Elastic Compliance Matrix: (Units=1/GPa)
#
#
# Indices 1 2 3 4 5 6 
#
# 1 0.011986 -0.005813 -0.000974 0.000000 0.000000 0.000000
# 2 -0.005813 0.017016 -0.002750 0.000000 0.000000 0.000000
# 3 -0.000974 -0.002750 0.009143 0.000000 0.000000 0.000000
# 4 0.000000 0.000000 0.000000 0.051227 0.000000 0.000000
# 5 0.000000 0.000000 0.000000 0.000000 0.040943 0.000000
# 6 0.000000 0.000000 0.000000 0.000000 0.000000 0.049601
#
#
# Mechanical properties :
#
#
# Convention : Reuss Voigt Hill
#
# Bulk Modulus (GPa) = 52.43754 53.35575 52.89664
# Shear Modulus (GPa) = 24.34892 26.91765 25.63329
#
# Velocity S-wave (km/s) = 3.12142 3.28194 3.20268
# Velocity P-wave (km/s) = 5.82871 5.97594 5.90278
#
# Compressibility (1/GPa) = 0.01907031
#
# Stress axis : x y z
#
# Youngs Moduli (GPa) = 83.42942 58.76727 109.37644
#
# Poissons Ratio (x) = 0.34162 0.10655
# Poissons Ratio (y) = 0.48498 0.30081
# Poissons Ratio (z) = 0.08128 0.16162
#
# Static dielectric constant tensor:
#      x y z
#    x 4.365350 0.000000 0.000000 
#    y 0.000000 4.336550 0.000000 
#    z 0.000000 0.000000 4.335370 
# 
# 
# High freq. dielectric constant tensor:
#      x y z
#    x 1.992060 0.000000 0.000000 
#    y 0.000000 1.980230 0.000000 
#    z 0.000000 0.000000 2.002900 
# 
# From -- ./inp_files/17387.got.cif
#   From: 2010.03.12/outbox.cif.g09.slc.cpg/sg57_9_cif.got.tgz:17387.got - 2010.04.16 15:48:40.
