data_PCOD8231762
_publ_section_title
;
Structure prediction by ZEFSAII (Michael W. Deem and Ramdas Pophale) SiO2 
 PCOD8231762
Probable space group: P B C M
;
_chemical_formula_sum "Si O2"
_cell_formula_units_Z 64
_cell_length_a 19.819537
_cell_length_b 19.676757
_cell_length_c 8.523627
_cell_angle_alpha 90.000000
_cell_angle_beta 90.000000
_cell_angle_gamma 90.000000
_cell_volume 3324.079971
_symmetry_space_group_name_H-M "P B C M"
_symmetry_group_IT_number 57
_symmetry_cell_setting 'orthorhombic'
loop_
_space_group_symop_operation_xyz
x,y,z
-x,-y,1/2+z
x,1/2-y,-z
-x,1/2+y,1/2-z
-x,-y,-z
x,y,1/2-z
-x,1/2+y,z
x,1/2-y,1/2+z
loop_
_atom_site_type_symbol
_atom_site_label
_atom_site_fract_x
_atom_site_fract_y
_atom_site_fract_z
Si Si1 0.170403 0.824444 0.066734
Si Si2 0.590900 0.441898 0.067968
Si Si3 0.913348 0.953375 0.569391
Si Si4 0.546068 0.908071 0.567371
Si Si5 0.269913 0.565794 0.431771
Si Si6 0.234566 0.076842 0.429530
Si Si7 0.943285 0.094157 0.069371
Si Si8 0.337499 0.322483 0.067603
O O1 0.186452 0.825930 0.250000
O O2 0.180514 0.750000 0.000000
O O3 0.221622 0.872506 0.974774
O O4 0.093863 0.849537 0.035821
O O5 0.606954 0.432728 0.250000
O O6 0.581332 0.520909 0.021749
O O7 0.523987 0.399659 0.025254
O O8 0.653161 0.412639 0.968290
O O9 0.919179 0.977748 0.750000
O O10 0.845161 0.910654 0.542017
O O11 0.977214 0.906051 0.525365
O O12 0.911742 0.019895 0.461177
O O13 0.529505 0.905124 0.750000
O O14 0.595315 0.847366 0.519878
O O15 0.261397 0.547527 0.250000
O O16 0.251577 0.501126 0.536892
O O17 0.255082 0.092273 0.250000
O O18 0.275233 0.126744 0.541961
O O19 0.931529 0.113105 0.250000
O O20 0.353433 0.317446 0.250000
O O21 0.316131 0.250000 0.000000
#
# Coordination Sequence:
#
# PCOD8231762 Si02
#       8
#     8   8   8   8   8   8   8   8
#     4  12  25  42  61  85 119 160 202 249 305 365
#     4  10  20  35  59  89 122 155 193 243 295 346
#     4   9  19  34  57  87 120 153 192 244 297 348
#     4  10  20  36  59  87 120 154 195 244 295 351
#     4  12  23  37  60  91 122 158 201 248 299 357
#     4  11  21  37  60  89 122 158 200 249 301 355
#     4  10  19  34  57  87 118 152 195 242 294 355
#     4  12  25  41  61  86 120 161 204 249 304 365
#
# _framework density 19.253447999999999
#
# number of rings (size 3 to 8) (size 9 to 14) (size 15 to 20)
#    0.000    1.250    2.500    4.875    0.000    2.000 
#    0.000    1.250    0.000    0.000    0.000    0.000 
#    0.000    0.000    0.000    0.000    0.000    0.000 
#
# Total GULP energy -793962.316793 kJ/mol
# GULP energy per Si atom -12405.661200 kJ/mol
# Density = 1.920963 g / cm^3
# Si number density = 19.253448 Si / 1000 Ang^3
#
#
#
# Elastic Constant Matrix: (Units=GPa)
#
#
# Indices 1 2 3 4 5 6 
#
# 1 112.3791 40.1845 23.0970 0.0000 0.0000 0.0000
# 2 40.1845 85.9324 10.3689 0.0000 0.0000 0.0000
# 3 23.0970 10.3689 72.0671 0.0000 0.0000 0.0000
# 4 0.0000 0.0000 0.0000 30.0889 0.0000 0.0000
# 5 0.0000 0.0000 0.0000 0.0000 33.8499 0.0000
# 6 0.0000 0.0000 0.0000 0.0000 0.0000 3.1781
#
#
#
# Elastic Compliance Matrix: (Units=1/GPa)
#
#
# Indices 1 2 3 4 5 6 
#
# 1 0.011250 -0.004911 -0.002899 0.000000 0.000000 0.000000
# 2 -0.004911 0.013987 -0.000438 0.000000 0.000000 0.000000
# 3 -0.002899 -0.000438 0.014868 0.000000 0.000000 0.000000
# 4 0.000000 0.000000 0.000000 0.033235 0.000000 0.000000
# 5 0.000000 0.000000 0.000000 0.000000 0.029542 0.000000
# 6 0.000000 0.000000 0.000000 0.000000 0.000000 0.314653
#
#
# Mechanical properties :
#
#
# Convention : Reuss Voigt Hill
#
# Bulk Modulus (GPa) = 42.35871 46.40881 44.38376
# Shear Modulus (GPa) = 11.31473 26.53859 18.92666
#
# Velocity S-wave (km/s) = 2.42683 3.71668 3.13873
# Velocity P-wave (km/s) = 5.46818 6.52494 6.01979
#
# Compressibility (1/GPa) = 0.02360789
#
# Stress axis : x y z
#
# Youngs Moduli (GPa) = 88.88533 71.49713 67.25776
#
# Poissons Ratio (x) = 0.35114 0.19499
# Poissons Ratio (y) = 0.43654 0.02948
# Poissons Ratio (z) = 0.25769 0.03134
#
# Static dielectric constant tensor:
#      x y z
#    x 3.810680 0.000000 0.000000 
#    y 0.000000 3.287680 0.000000 
#    z 0.000000 0.000000 3.554320 
# 
# 
# High freq. dielectric constant tensor:
#      x y z
#    x 1.765530 0.000000 0.000000 
#    y 0.000000 1.713100 0.000000 
#    z 0.000000 0.000000 1.762000 
# 
# From -- ./inp_files/8680.got.cif
#   From: 2010.03.12/outbox.cif.g09.slc.cpg/sg57_5_cif.got.tgz:8680.got - 2010.04.16 15:48:40.
