data_PCOD8231316
_publ_section_title
;
Structure prediction by ZEFSAII (Michael W. Deem and Ramdas Pophale) SiO2 
 PCOD8231316
Probable space group: P B C M
;
_chemical_formula_sum "Si O2"
_cell_formula_units_Z 48
_cell_length_a 10.165001
_cell_length_b 27.760401
_cell_length_c 8.835947
_cell_angle_alpha 90.000000
_cell_angle_beta 90.000000
_cell_angle_gamma 90.000000
_cell_volume 2493.367321
_symmetry_space_group_name_H-M "P B C M"
_symmetry_group_IT_number 57
_symmetry_cell_setting 'orthorhombic'
loop_
_space_group_symop_operation_xyz
x,y,z
-x,-y,1/2+z
x,1/2-y,-z
-x,1/2+y,1/2-z
-x,-y,-z
x,y,1/2-z
-x,1/2+y,z
x,1/2-y,1/2+z
loop_
_atom_site_type_symbol
_atom_site_label
_atom_site_fract_x
_atom_site_fract_y
_atom_site_fract_z
Si Si1 0.360937 0.450291 0.424308
Si Si2 0.019709 0.698678 0.428831
Si Si3 0.732231 0.350233 0.071657
Si Si4 0.635306 0.059192 0.425671
Si Si5 0.206732 0.359114 0.074503
Si Si6 0.463153 0.198626 0.927071
O O1 0.406943 0.444766 0.250000
O O2 0.484242 0.434314 0.524970
O O3 0.317206 0.504756 0.460706
O O4 0.236099 0.415681 0.455965
O O5 0.979832 0.750000 0.500000
O O6 0.024413 0.704550 0.250000
O O7 0.160373 0.681983 0.488508
O O8 0.914356 0.658011 0.473387
O O9 0.757542 0.347743 0.250000
O O10 0.592515 0.329275 0.019182
O O11 0.733521 0.405750 0.017308
O O12 0.646753 0.071838 0.250000
O O13 0.172756 0.349595 0.250000
O O14 0.336054 0.330826 0.021693
O O15 0.466827 0.205581 0.750000
O O16 0.456644 0.250000 0.000000
#
# Coordination Sequence:
#
# PCOD8231316 Si02
#       6
#     8   8   8   8   8   8
#     4   9  18  35  58  86 122 158 194 237 294 354
#     4  12  26  43  61  86 117 156 200 242 294 356
#     4  11  22  40  61  84 116 158 198 243 296 349
#     4  10  19  32  57  91 122 154 193 242 294 351
#     4  10  20  39  61  85 116 155 196 240 291 347
#     4  10  21  35  56  83 112 144 189 240 290 343
#
# _framework density 19.251075
#
# number of rings (size 3 to 8) (size 9 to 14) (size 15 to 20)
#    0.000    1.667    1.667    3.500    0.000    6.000 
#    0.000    0.833    0.000    0.000    0.000    0.000 
#    0.000    0.000    0.000    0.000    0.000    0.000 
#
# Total GULP energy -595345.469977 kJ/mol
# GULP energy per Si atom -12403.030625 kJ/mol
# Density = 1.920726 g / cm^3
# Si number density = 19.251075 Si / 1000 Ang^3
#
#
#
# Elastic Constant Matrix: (Units=GPa)
#
#
# Indices 1 2 3 4 5 6 
#
# 1 64.6435 15.2739 28.8109 0.0000 0.0000 0.0000
# 2 15.2739 112.5067 36.7757 0.0000 0.0000 0.0000
# 3 28.8109 36.7757 82.6756 0.0000 0.0000 0.0000
# 4 0.0000 0.0000 0.0000 23.8418 0.0000 0.0000
# 5 0.0000 0.0000 0.0000 0.0000 30.9784 0.0000
# 6 0.0000 0.0000 0.0000 0.0000 0.0000 32.2424
#
#
#
# Elastic Compliance Matrix: (Units=1/GPa)
#
#
# Indices 1 2 3 4 5 6 
#
# 1 0.018335 -0.000469 -0.006181 0.000000 0.000000 0.000000
# 2 -0.000469 0.010413 -0.004468 0.000000 0.000000 0.000000
# 3 -0.006181 -0.004468 0.016237 0.000000 0.000000 0.000000
# 4 0.000000 0.000000 0.000000 0.041943 0.000000 0.000000
# 5 0.000000 0.000000 0.000000 0.000000 0.032281 0.000000
# 6 0.000000 0.000000 0.000000 0.000000 0.000000 0.031015
#
#
# Mechanical properties :
#
#
# Convention : Reuss Voigt Hill
#
# Bulk Modulus (GPa) = 43.95887 46.83854 45.39870
# Shear Modulus (GPa) = 27.77126 29.34353 28.55740
#
# Velocity S-wave (km/s) = 3.80225 3.90841 3.85570
# Velocity P-wave (km/s) = 6.49309 6.68959 6.59208
#
# Compressibility (1/GPa) = 0.02274854
#
# Stress axis : x y z
#
# Youngs Moduli (GPa) = 54.54056 96.03755 61.58773
#
# Poissons Ratio (x) = 0.04502 0.38067
# Poissons Ratio (y) = 0.02557 0.27520
# Poissons Ratio (z) = 0.33711 0.42913
#
# Static dielectric constant tensor:
#      x y z
#    x 4.565380 0.000000 0.000000 
#    y 0.000000 3.787190 0.000000 
#    z 0.000000 0.000000 3.564640 
# 
# 
# High freq. dielectric constant tensor:
#      x y z
#    x 1.730550 0.000000 0.000000 
#    y 0.000000 1.766120 0.000000 
#    z 0.000000 0.000000 1.749940 
# 
# From -- ./inp_files/2028.got.cif
#   From: 2010.03.12/outbox.cif.g09.slc.cpg/sg57_2_cif.got.tgz:2028.got - 2010.04.16 15:48:40.
