data_PCOD8231182
_publ_section_title
;
Structure prediction by ZEFSAII (Michael W. Deem and Ramdas Pophale) SiO2 
 PCOD8231182
Probable space group: P B C M
;
_chemical_formula_sum "Si O2"
_cell_formula_units_Z 32
_cell_length_a 10.020704
_cell_length_b 19.687731
_cell_length_c 9.647178
_cell_angle_alpha 90.000000
_cell_angle_beta 90.000000
_cell_angle_gamma 90.000000
_cell_volume 1903.242786
_symmetry_space_group_name_H-M "P B C M"
_symmetry_group_IT_number 57
_symmetry_cell_setting 'orthorhombic'
loop_
_space_group_symop_operation_xyz
x,y,z
-x,-y,1/2+z
x,1/2-y,-z
-x,1/2+y,1/2-z
-x,-y,-z
x,y,1/2-z
-x,1/2+y,z
x,1/2-y,1/2+z
loop_
_atom_site_type_symbol
_atom_site_label
_atom_site_fract_x
_atom_site_fract_y
_atom_site_fract_z
Si Si1 0.967010 0.934847 0.090457
Si Si2 0.388453 0.916834 0.090440
Si Si3 0.165201 0.683575 0.589129
Si Si4 0.674074 0.957520 0.407756
O O1 0.999478 0.952605 0.250000
O O2 0.810535 0.915494 0.070720
O O3 0.053991 0.870857 0.042198
O O4 0.000000 0.000000 0.000000
O O5 0.364551 0.936388 0.250000
O O6 0.312717 0.846560 0.057165
O O7 0.546308 0.909995 0.055301
O O8 0.321417 0.976338 0.002797
O O9 0.142408 0.750000 0.500000
O O10 0.149282 0.702613 0.750000
O O11 0.661896 0.983374 0.250000
#
# Coordination Sequence:
#
# PCOD8231182 Si02
#       4
#     8   8   8   8
#     4  10  19  32  51  76 102 130 166 208 252 297
#     4   9  17  31  49  72 100 127 159 202 247 293
#     4  10  21  35  50  70 101 137 170 206 250 300
#     4   9  17  29  50  76  99 124 158 203 250 293
#
# _framework density 16.813410000000001
#
# number of rings (size 3 to 8) (size 9 to 14) (size 15 to 20)
#    0.000    2.500    2.500    0.000    0.000    2.000 
#    0.000    1.250    0.000    0.000    0.000    0.000 
#    0.000    0.000    0.000    0.000    0.000    0.000 
#
# Total GULP energy -396680.632282 kJ/mol
# GULP energy per Si atom -12396.269759 kJ/mol
# Density = 1.677514 g / cm^3
# Si number density = 16.813410 Si / 1000 Ang^3
#
#
#
# Elastic Constant Matrix: (Units=GPa)
#
#
# Indices 1 2 3 4 5 6 
#
# 1 127.3802 68.6513 41.5879 0.0000 0.0000 0.0000
# 2 68.6513 121.5678 59.3640 0.0000 0.0000 0.0000
# 3 41.5879 59.3640 59.8252 0.0000 0.0000 0.0000
# 4 0.0000 0.0000 0.0000 31.9278 0.0000 0.0000
# 5 0.0000 0.0000 0.0000 0.0000 21.0403 0.0000
# 6 0.0000 0.0000 0.0000 0.0000 0.0000 22.7117
#
#
#
# Elastic Compliance Matrix: (Units=1/GPa)
#
#
# Indices 1 2 3 4 5 6 
#
# 1 0.011560 -0.005052 -0.003023 0.000000 0.000000 0.000000
# 2 -0.005052 0.018167 -0.014515 0.000000 0.000000 0.000000
# 3 -0.003023 -0.014515 0.033220 0.000000 0.000000 0.000000
# 4 0.000000 0.000000 0.000000 0.031321 0.000000 0.000000
# 5 0.000000 0.000000 0.000000 0.000000 0.047528 0.000000
# 6 0.000000 0.000000 0.000000 0.000000 0.000000 0.044030
#
#
# Mechanical properties :
#
#
# Convention : Reuss Voigt Hill
#
# Bulk Modulus (GPa) = 56.28414 71.99772 64.14093
# Shear Modulus (GPa) = 21.10356 24.41398 22.75877
#
# Velocity S-wave (km/s) = 3.54667 3.81472 3.68313
# Velocity P-wave (km/s) = 7.09368 7.89413 7.50458
#
# Compressibility (1/GPa) = 0.01776699
#
# Stress axis : x y z
#
# Youngs Moduli (GPa) = 86.50286 55.04616 30.10270
#
# Poissons Ratio (x) = 0.27809 0.09101
# Poissons Ratio (y) = 0.43701 0.43693
# Poissons Ratio (z) = 0.26151 0.79897
#
# Static dielectric constant tensor:
#      x y z
#    x 3.703280 0.000000 0.000000 
#    y 0.000000 2.801010 0.000000 
#    z 0.000000 0.000000 3.177880 
# 
# 
# High freq. dielectric constant tensor:
#      x y z
#    x 1.672090 0.000000 0.000000 
#    y 0.000000 1.605500 0.000000 
#    z 0.000000 0.000000 1.651110 
# 
# From -- ./inp_files/2508.got.cif
#   From: 2010.03.12/outbox.cif.g09.slc.cpg/sg57_2_cif.got.tgz:2508.got - 2010.04.16 15:48:40.
