data_PCOD8231528
_publ_section_title
;
Structure prediction by ZEFSAII (Michael W. Deem and Ramdas Pophale) SiO2 
 PCOD8231528
Probable space group: P B C M
;
_chemical_formula_sum "Si O2"
_cell_formula_units_Z 48
_cell_length_a 14.910515
_cell_length_b 9.455836
_cell_length_c 17.885926
_cell_angle_alpha 90.000000
_cell_angle_beta 90.000000
_cell_angle_gamma 90.000000
_cell_volume 2521.761470
_symmetry_space_group_name_H-M "P B C M"
_symmetry_group_IT_number 57
_symmetry_cell_setting 'orthorhombic'
loop_
_space_group_symop_operation_xyz
x,y,z
-x,-y,1/2+z
x,1/2-y,-z
-x,1/2+y,1/2-z
-x,-y,-z
x,y,1/2-z
-x,1/2+y,z
x,1/2-y,1/2+z
loop_
_atom_site_type_symbol
_atom_site_label
_atom_site_fract_x
_atom_site_fract_y
_atom_site_fract_z
Si Si1 0.053741 0.495379 0.836567
Si Si2 0.722675 0.237440 0.083784
Si Si3 0.580305 0.452157 0.660933
Si Si4 0.412624 0.271083 0.661545
Si Si5 0.743673 0.970366 0.663173
Si Si6 0.071057 0.716369 0.416372
O O1 0.027321 0.480405 0.750000
O O2 0.152722 0.431762 0.852606
O O3 0.051013 0.658893 0.858492
O O4 0.981828 0.419352 0.888092
O O5 0.668316 0.122929 0.130316
O O6 0.712941 0.390745 0.120048
O O7 0.824061 0.180177 0.083132
O O8 0.684962 0.250000 0.000000
O O9 0.584853 0.451738 0.750000
O O10 0.492815 0.369553 0.630921
O O11 0.578051 0.612609 0.629199
O O12 0.418947 0.263980 0.750000
O O13 0.317568 0.338907 0.636576
O O14 0.728010 0.003765 0.750000
O O15 0.037683 0.750000 0.500000
#
# Coordination Sequence:
#
# PCOD8231528 Si02
#       6
#     8   8   8   8   8   8
#     4  10  20  34  55  81 106 136 179 229 271 312
#     4  10  21  36  53  76 106 141 179 216 259 312
#     4  10  19  33  55  79 103 135 174 217 262 312
#     4   9  18  33  55  81 105 134 174 215 263 320
#     4   9  18  35  55  75 104 139 173 215 266 316
#     4  10  21  37  55  76 108 147 180 216 270 330
#
# _framework density 19.034314999999999
#
# number of rings (size 3 to 8) (size 9 to 14) (size 15 to 20)
#    0.000    2.333    0.000    2.500    0.000    6.000 
#    0.000    5.833    0.000    0.000    0.000    0.000 
#    0.000    0.000    0.000    0.000    0.000    0.000 
#
# Total GULP energy -595295.424123 kJ/mol
# GULP energy per Si atom -12401.988003 kJ/mol
# Density = 1.899099 g / cm^3
# Si number density = 19.034315 Si / 1000 Ang^3
#
#
#
# Elastic Constant Matrix: (Units=GPa)
#
#
# Indices 1 2 3 4 5 6 
#
# 1 71.9343 37.6006 20.4757 0.0000 0.0000 0.0000
# 2 37.6006 89.3191 17.6599 0.0000 0.0000 0.0000
# 3 20.4757 17.6599 54.7176 0.0000 0.0000 0.0000
# 4 0.0000 0.0000 0.0000 19.8907 0.0000 0.0000
# 5 0.0000 0.0000 0.0000 0.0000 16.2273 0.0000
# 6 0.0000 0.0000 0.0000 0.0000 0.0000 30.6013
#
#
#
# Elastic Compliance Matrix: (Units=1/GPa)
#
#
# Indices 1 2 3 4 5 6 
#
# 1 0.018945 -0.007021 -0.004823 0.000000 0.000000 0.000000
# 2 -0.007021 0.014561 -0.002072 0.000000 0.000000 0.000000
# 3 -0.004823 -0.002072 0.020749 0.000000 0.000000 0.000000
# 4 0.000000 0.000000 0.000000 0.050275 0.000000 0.000000
# 5 0.000000 0.000000 0.000000 0.000000 0.061624 0.000000
# 6 0.000000 0.000000 0.000000 0.000000 0.000000 0.032678
#
#
# Mechanical properties :
#
#
# Convention : Reuss Voigt Hill
#
# Bulk Modulus (GPa) = 37.84742 40.82702 39.33722
# Shear Modulus (GPa) = 21.23381 22.69284 21.96332
#
# Velocity S-wave (km/s) = 3.34361 3.45658 3.40057
# Velocity P-wave (km/s) = 5.90197 6.11771 6.01081
#
# Compressibility (1/GPa) = 0.02642188
#
# Stress axis : x y z
#
# Youngs Moduli (GPa) = 52.78544 68.67501 48.19452
#
# Poissons Ratio (x) = 0.48220 0.23244
# Poissons Ratio (y) = 0.37063 0.09986
# Poissons Ratio (z) = 0.25459 0.14230
#
# Static dielectric constant tensor:
#      x y z
#    x 3.588770 0.000000 0.000000 
#    y 0.000000 3.518440 0.000000 
#    z 0.000000 0.000000 3.337420 
# 
# 
# High freq. dielectric constant tensor:
#      x y z
#    x 1.745810 0.000000 0.000000 
#    y 0.000000 1.739730 0.000000 
#    z 0.000000 0.000000 1.725290 
# 
# From -- ./inp_files/22405.got.cif
#   From: 2010.03.12/outbox.cif.g09.slc.cpg/sg57_12_cif.got.tgz:22405.got - 2010.04.16 15:48:40.
