data_PCOD8231432
_publ_section_title
;
Structure prediction by ZEFSAII (Michael W. Deem and Ramdas Pophale) SiO2 
 PCOD8231432
Probable space group: P B C M
;
_chemical_formula_sum "Si O2"
_cell_formula_units_Z 64
_cell_length_a 22.242338
_cell_length_b 16.218505
_cell_length_c 9.111404
_cell_angle_alpha 90.000000
_cell_angle_beta 90.000000
_cell_angle_gamma 90.000000
_cell_volume 3286.824828
_symmetry_space_group_name_H-M "P B C M"
_symmetry_group_IT_number 57
_symmetry_cell_setting 'orthorhombic'
loop_
_space_group_symop_operation_xyz
x,y,z
-x,-y,1/2+z
x,1/2-y,-z
-x,1/2+y,1/2-z
-x,-y,-z
x,y,1/2-z
-x,1/2+y,z
x,1/2-y,1/2+z
loop_
_atom_site_type_symbol
_atom_site_label
_atom_site_fract_x
_atom_site_fract_y
_atom_site_fract_z
Si Si1 0.866466 0.838327 0.073517
Si Si2 0.381473 0.179515 0.087427
Si Si3 0.437335 0.002520 0.081715
Si Si4 0.887734 0.329675 0.086983
Si Si5 0.728888 0.635286 0.911651
Si Si6 0.254447 0.826997 0.413599
Si Si7 0.935479 0.992767 0.927400
Si Si8 0.675760 0.454926 0.586961
O O1 0.877999 0.835974 0.250000
O O2 0.797359 0.858238 0.034514
O O3 0.884428 0.750000 0.000000
O O4 0.903558 0.913027 0.999367
O O5 0.377080 0.211657 0.250000
O O6 0.416419 0.095721 0.073033
O O7 0.418249 0.250000 0.000000
O O8 0.313220 0.179600 0.028560
O O9 0.443549 0.972282 0.250000
O O10 0.387991 0.948157 0.997271
O O11 0.500000 0.000000 0.000000
O O12 0.914709 0.321691 0.250000
O O13 0.816666 0.322813 0.088545
O O14 0.903916 0.420548 0.025080
O O15 0.914535 0.250000 0.000000
O O16 0.723226 0.675508 0.750000
O O17 0.704558 0.543488 0.902458
O O18 0.282376 0.750000 0.500000
O O19 0.280981 0.827417 0.250000
O O20 0.273971 0.907857 0.497125
O O21 0.937352 0.982652 0.750000
O O22 0.000000 0.000000 0.000000
O O23 0.665815 0.418312 0.750000
#
# Coordination Sequence:
#
# PCOD8231432 Si02
#       8
#     8   8   8   8   8   8   8   8
#     4  11  23  39  59  86 118 154 192 233 283 339
#     4  10  20  33  53  80 109 139 174 215 264 318
#     4  10  21  37  55  76 102 138 182 226 268 316
#     4   9  20  37  60  87 114 145 184 230 284 339
#     4   9  19  34  55  83 114 145 179 220 271 329
#     4  10  19  33  53  80 111 141 175 220 272 329
#     4  11  24  42  61  84 114 151 194 240 285 336
#     4  10  19  33  54  80 109 143 180 222 272 328
#
# _framework density 19.471681
#
# number of rings (size 3 to 8) (size 9 to 14) (size 15 to 20)
#    0.000    2.000    0.000    3.375    0.000    6.000 
#    0.000    1.875    0.000    1.500    0.000    0.000 
#    0.000    0.000    0.000    0.000    0.000    0.000 
#
# Total GULP energy -793085.909428 kJ/mol
# GULP energy per Si atom -12391.967335 kJ/mol
# Density = 1.942736 g / cm^3
# Si number density = 19.471681 Si / 1000 Ang^3
#
#
#
# Elastic Constant Matrix: (Units=GPa)
#
#
# Indices 1 2 3 4 5 6 
#
# 1 65.1142 31.7964 42.0289 0.0000 0.0000 0.0000
# 2 31.7964 92.3508 57.0229 0.0000 0.0000 0.0000
# 3 42.0289 57.0229 156.3649 0.0000 0.0000 0.0000
# 4 0.0000 0.0000 0.0000 37.7195 0.0000 0.0000
# 5 0.0000 0.0000 0.0000 0.0000 5.3036 0.0000
# 6 0.0000 0.0000 0.0000 0.0000 0.0000 -0.9418
#
#
#
# Elastic Compliance Matrix: (Units=1/GPa)
#
#
# Indices 1 2 3 4 5 6 
#
# 1 0.019989 -0.004601 -0.003695 0.000000 0.000000 0.000000
# 2 -0.004601 0.015034 -0.004246 0.000000 0.000000 0.000000
# 3 -0.003695 -0.004246 0.008937 0.000000 0.000000 0.000000
# 4 0.000000 0.000000 0.000000 0.026511 0.000000 0.000000
# 5 0.000000 0.000000 0.000000 0.000000 0.188551 0.000000
# 6 0.000000 0.000000 0.000000 0.000000 0.000000 -1.061766
#
#
# Mechanical properties :
#
#
# Convention : Reuss Voigt Hill
#
# Bulk Modulus (GPa) = 52.97554 63.94737 58.46146
# Shear Modulus (GPa) = -6.48199 20.61504 7.06652
#
# Velocity S-wave (km/s) = -1.82652 3.25733 1.90709
# Velocity P-wave (km/s) = 4.77675 6.85999 5.91087
#
# Compressibility (1/GPa) = 0.01887664
#
# Stress axis : x y z
#
# Youngs Moduli (GPa) = 50.02677 66.51576 111.89573
#
# Poissons Ratio (x) = 0.30602 0.41346
# Poissons Ratio (y) = 0.23016 0.47510
# Poissons Ratio (z) = 0.18485 0.28242
#
# Static dielectric constant tensor:
#      x y z
#    x 3.166120 0.000000 0.000000 
#    y 0.000000 1.176200 0.000000 
#    z 0.000000 0.000000 4.015650 
# 
# 
# High freq. dielectric constant tensor:
#      x y z
#    x 1.741150 0.000000 0.000000 
#    y 0.000000 1.767310 0.000000 
#    z 0.000000 0.000000 1.775730 
# 
# From -- ./inp_files/9480.got.cif
#   From: 2010.03.12/outbox.cif.g09.slc.cpg/sg57_5_cif.got.tgz:9480.got - 2010.04.16 15:48:40.
