data_PCOD8231651
_publ_section_title
;
Structure prediction by ZEFSAII (Michael W. Deem and Ramdas Pophale) SiO2 
 PCOD8231651
Probable space group: P B C M
;
_chemical_formula_sum "Si O2"
_cell_formula_units_Z 64
_cell_length_a 15.434428
_cell_length_b 24.557702
_cell_length_c 9.097803
_cell_angle_alpha 90.000000
_cell_angle_beta 90.000000
_cell_angle_gamma 90.000000
_cell_volume 3448.377421
_symmetry_space_group_name_H-M "P B C M"
_symmetry_group_IT_number 57
_symmetry_cell_setting 'orthorhombic'
loop_
_space_group_symop_operation_xyz
x,y,z
-x,-y,1/2+z
x,1/2-y,-z
-x,1/2+y,1/2-z
-x,-y,-z
x,y,1/2-z
-x,1/2+y,z
x,1/2-y,1/2+z
loop_
_atom_site_type_symbol
_atom_site_label
_atom_site_fract_x
_atom_site_fract_y
_atom_site_fract_z
Si Si1 0.299785 0.977301 0.583901
Si Si2 0.013635 0.446099 0.410500
Si Si3 0.823247 0.096668 0.588110
Si Si4 0.116031 0.694912 0.422307
Si Si5 0.070656 0.150541 0.081801
Si Si6 0.256490 0.305748 0.922729
Si Si7 0.484783 0.556088 0.080458
Si Si8 0.637959 0.598643 0.576057
O O1 0.264617 0.977384 0.750000
O O2 0.225172 0.955533 0.478266
O O3 0.381144 0.935332 0.570945
O O4 0.323147 0.039148 0.538415
O O5 0.052107 0.460237 0.250000
O O6 0.923060 0.416614 0.395032
O O7 0.000000 0.500000 0.500000
O O8 0.080360 0.405106 0.489280
O O9 0.784739 0.109814 0.750000
O O10 0.817970 0.148803 0.481561
O O11 0.144592 0.750000 0.500000
O O12 0.130100 0.700431 0.250000
O O13 0.015658 0.683336 0.462609
O O14 0.065123 0.131973 0.250000
O O15 0.153637 0.188081 0.051796
O O16 0.279649 0.304067 0.750000
O O17 0.286816 0.250000 0.000000
O O18 0.304193 0.355793 0.999829
O O19 0.515012 0.552925 0.250000
O O20 0.500000 0.500000 0.000000
O O21 0.541031 0.601883 0.994980
O O22 0.631974 0.608905 0.750000
#
# Coordination Sequence:
#
# PCOD8231651 Si02
#       8
#     8   8   8   8   8   8   8   8
#     4   9  19  34  54  81 112 141 174 217 267 321
#     4  10  21  34  49  71 103 142 180 221 266 319
#     4  10  21  34  50  76 105 137 177 216 262 315
#     4  10  19  34  55  75 101 135 175 222 267 314
#     4   9  20  36  53  75 101 136 180 225 272 318
#     4  11  23  38  56  79 109 143 185 232 275 325
#     4   9  17  32  54  81 109 138 172 210 256 311
#     4  10  21  36  55  81 110 143 181 219 270 326
#
# _framework density 18.559452
#
# number of rings (size 3 to 8) (size 9 to 14) (size 15 to 20)
#    0.000    2.250    0.000    3.375    1.750    6.000 
#    0.000    0.000    0.000    0.750    0.000    0.000 
#    0.000    0.000    0.000    0.000    0.000    0.000 
#
# Total GULP energy -793399.892900 kJ/mol
# GULP energy per Si atom -12396.873327 kJ/mol
# Density = 1.851721 g / cm^3
# Si number density = 18.559452 Si / 1000 Ang^3
#
#
#
# Elastic Constant Matrix: (Units=GPa)
#
#
# Indices 1 2 3 4 5 6 
#
# 1 51.4487 24.3418 31.1961 0.0000 0.0000 0.0000
# 2 24.3418 107.6091 62.4218 0.0000 0.0000 0.0000
# 3 31.1961 62.4218 131.6487 0.0000 0.0000 0.0000
# 4 0.0000 0.0000 0.0000 35.8025 0.0000 0.0000
# 5 0.0000 0.0000 0.0000 0.0000 27.2257 0.0000
# 6 0.0000 0.0000 0.0000 0.0000 0.0000 21.9758
#
#
#
# Elastic Compliance Matrix: (Units=1/GPa)
#
#
# Indices 1 2 3 4 5 6 
#
# 1 0.023317 -0.002854 -0.004172 0.000000 0.000000 0.000000
# 2 -0.002854 0.013168 -0.005567 0.000000 0.000000 0.000000
# 3 -0.004172 -0.005567 0.011224 0.000000 0.000000 0.000000
# 4 0.000000 0.000000 0.000000 0.027931 0.000000 0.000000
# 5 0.000000 0.000000 0.000000 0.000000 0.036730 0.000000
# 6 0.000000 0.000000 0.000000 0.000000 0.000000 0.045505
#
#
# Mechanical properties :
#
#
# Convention : Reuss Voigt Hill
#
# Bulk Modulus (GPa) = 44.40068 58.51397 51.45733
# Shear Modulus (GPa) = 26.23714 28.51724 27.37719
#
# Velocity S-wave (km/s) = 3.76397 3.92412 3.84488
# Velocity P-wave (km/s) = 6.54717 7.21997 6.89178
#
# Compressibility (1/GPa) = 0.02252218
#
# Stress axis : x y z
#
# Youngs Moduli (GPa) = 42.88725 75.94136 89.09234
#
# Poissons Ratio (x) = 0.21677 0.37168
# Poissons Ratio (y) = 0.12242 0.49600
# Poissons Ratio (z) = 0.17892 0.42279
#
# Static dielectric constant tensor:
#      x y z
#    x 3.396820 0.000000 0.000000 
#    y 0.000000 3.526070 0.000000 
#    z 0.000000 0.000000 3.732710 
# 
# 
# High freq. dielectric constant tensor:
#      x y z
#    x 1.699130 0.000000 0.000000 
#    y 0.000000 1.703150 0.000000 
#    z 0.000000 0.000000 1.738970 
# 
# From -- ./inp_files/5735.got.cif
#   From: 2010.03.12/outbox.cif.g09.slc.cpg/sg57_3_cif.got.tgz:5735.got - 2010.04.16 15:48:40.
