data_PCOD8231568
_publ_section_title
;
Structure prediction by ZEFSAII (Michael W. Deem and Ramdas Pophale) SiO2 
 PCOD8231568
Probable space group: P B C M
;
_chemical_formula_sum "Si O2"
_cell_formula_units_Z 64
_cell_length_a 26.144328
_cell_length_b 13.868588
_cell_length_c 9.341036
_cell_angle_alpha 90.000000
_cell_angle_beta 90.000000
_cell_angle_gamma 90.000000
_cell_volume 3386.918731
_symmetry_space_group_name_H-M "P B C M"
_symmetry_group_IT_number 57
_symmetry_cell_setting 'orthorhombic'
loop_
_space_group_symop_operation_xyz
x,y,z
-x,-y,1/2+z
x,1/2-y,-z
-x,1/2+y,1/2-z
-x,-y,-z
x,y,1/2-z
-x,1/2+y,z
x,1/2-y,1/2+z
loop_
_atom_site_type_symbol
_atom_site_label
_atom_site_fract_x
_atom_site_fract_y
_atom_site_fract_z
Si Si1 0.382224 0.663300 0.085507
Si Si2 0.982066 0.152251 0.918386
Si Si3 0.551580 0.981795 0.083635
Si Si4 0.734866 0.160468 0.415594
Si Si5 0.932325 0.545609 0.413302
Si Si6 0.168500 0.155758 0.083780
Si Si7 0.255076 0.445297 0.084419
Si Si8 0.360184 0.346189 0.415825
O O1 0.387025 0.689120 0.250000
O O2 0.411047 0.567607 0.044572
O O3 0.323861 0.651645 0.037759
O O4 0.408788 0.750000 0.000000
O O5 0.988490 0.174612 0.750000
O O6 0.939927 0.068314 0.946275
O O7 0.965143 0.250000 0.000000
O O8 0.035534 0.113171 0.980310
O O9 0.537809 0.977385 0.250000
O O10 0.584212 0.887734 0.036332
O O11 0.500000 0.000000 0.000000
O O12 0.761171 0.250000 0.500000
O O13 0.741362 0.184284 0.250000
O O14 0.758836 0.056420 0.453142
O O15 0.949713 0.567764 0.250000
O O16 0.873012 0.570930 0.435891
O O17 0.176848 0.181255 0.250000
O O18 0.148879 0.250000 0.000000
O O19 0.222038 0.122471 0.017527
O O20 0.241549 0.424093 0.250000
O O21 0.315035 0.423810 0.056618
O O22 0.347463 0.250000 0.500000
O O23 0.362353 0.319633 0.250000
#
# Coordination Sequence:
#
# PCOD8231568 Si02
#       8
#     8   8   8   8   8   8   8   8
#     4   9  17  32  53  75  99 128 161 202 251 302
#     4  10  19  33  56  84 113 148 191 236 281 331
#     4  10  21  37  54  74 104 137 168 208 259 313
#     4   9  17  32  55  80 104 133 168 211 261 311
#     4   9  20  37  55  79 113 151 190 234 280 328
#     4  11  23  38  56  81 113 147 186 231 278 327
#     4  10  20  37  59  81 109 144 182 224 271 321
#     4  10  21  38  57  77 105 139 175 217 263 315
#
# _framework density 18.896231
#
# number of rings (size 3 to 8) (size 9 to 14) (size 15 to 20)
#    0.000    2.250    1.250    1.500    0.000    6.000 
#    0.000    3.125    0.000    3.000    0.000    0.000 
#    0.000    0.000    0.000    0.000    0.000    0.000 
#
# Total GULP energy -793410.461674 kJ/mol
# GULP energy per Si atom -12397.038464 kJ/mol
# Density = 1.885322 g / cm^3
# Si number density = 18.896231 Si / 1000 Ang^3
#
#
#
# Elastic Constant Matrix: (Units=GPa)
#
#
# Indices 1 2 3 4 5 6 
#
# 1 68.9605 31.4713 33.2504 0.0000 0.0000 0.0000
# 2 31.4713 114.3843 62.6892 0.0000 0.0000 0.0000
# 3 33.2504 62.6892 75.4068 0.0000 0.0000 0.0000
# 4 0.0000 0.0000 0.0000 37.2796 0.0000 0.0000
# 5 0.0000 0.0000 0.0000 0.0000 24.8245 0.0000
# 6 0.0000 0.0000 0.0000 0.0000 0.0000 33.5732
#
#
#
# Elastic Compliance Matrix: (Units=1/GPa)
#
#
# Indices 1 2 3 4 5 6 
#
# 1 0.018497 -0.001137 -0.007211 0.000000 0.000000 0.000000
# 2 -0.001137 0.016130 -0.012908 0.000000 0.000000 0.000000
# 3 -0.007211 -0.012908 0.027172 0.000000 0.000000 0.000000
# 4 0.000000 0.000000 0.000000 0.026824 0.000000 0.000000
# 5 0.000000 0.000000 0.000000 0.000000 0.040283 0.000000
# 6 0.000000 0.000000 0.000000 0.000000 0.000000 0.029786
#
#
# Mechanical properties :
#
#
# Convention : Reuss Voigt Hill
#
# Bulk Modulus (GPa) = 51.84914 57.06371 54.45642
# Shear Modulus (GPa) = 24.08117 27.89151 25.98634
#
# Velocity S-wave (km/s) = 3.57373 3.84609 3.71241
# Velocity P-wave (km/s) = 6.67287 7.07016 6.87439
#
# Compressibility (1/GPa) = 0.01928672
#
# Stress axis : x y z
#
# Youngs Moduli (GPa) = 54.06344 61.99791 36.80299
#
# Poissons Ratio (x) = 0.07051 0.26537
# Poissons Ratio (y) = 0.06149 0.47504
# Poissons Ratio (z) = 0.38983 0.80025
#
# Static dielectric constant tensor:
#      x y z
#    x 3.108450 0.000000 0.000000 
#    y 0.000000 3.776450 0.000000 
#    z 0.000000 0.000000 3.431200 
# 
# 
# High freq. dielectric constant tensor:
#      x y z
#    x 1.711760 0.000000 0.000000 
#    y 0.000000 1.745820 0.000000 
#    z 0.000000 0.000000 1.732480 
# 
# From -- ./inp_files/9474.got.cif
#   From: 2010.03.12/outbox.cif.g09.slc.cpg/sg57_5_cif.got.tgz:9474.got - 2010.04.16 15:48:40.
