data_PCOD8231071
_publ_section_title
;
Structure prediction by ZEFSAII (Michael W. Deem and Ramdas Pophale) SiO2 
 PCOD8231071
Probable space group: P B C M
;
_chemical_formula_sum "Si O2"
_cell_formula_units_Z 56
_cell_length_a 20.635516
_cell_length_b 16.735932
_cell_length_c 8.979453
_cell_angle_alpha 90.000000
_cell_angle_beta 90.000000
_cell_angle_gamma 90.000000
_cell_volume 3101.095332
_symmetry_space_group_name_H-M "P B C M"
_symmetry_group_IT_number 57
_symmetry_cell_setting 'orthorhombic'
loop_
_space_group_symop_operation_xyz
x,y,z
-x,-y,1/2+z
x,1/2-y,-z
-x,1/2+y,1/2-z
-x,-y,-z
x,y,1/2-z
-x,1/2+y,z
x,1/2-y,1/2+z
loop_
_atom_site_type_symbol
_atom_site_label
_atom_site_fract_x
_atom_site_fract_y
_atom_site_fract_z
Si Si1 0.649614 0.673866 0.576633
Si Si2 0.527904 0.615204 0.082878
Si Si3 0.844998 0.515112 0.074669
Si Si4 0.410587 0.558741 0.917430
Si Si5 0.967605 0.071878 0.580021
Si Si6 0.914546 0.666608 0.573779
Si Si7 0.289612 0.494725 0.424930
O O1 0.684564 0.750000 0.500000
O O2 0.643252 0.688941 0.750000
O O3 0.577659 0.668448 0.509808
O O4 0.692180 0.596690 0.540245
O O5 0.521192 0.649140 0.250000
O O6 0.553987 0.525643 0.087740
O O7 0.457935 0.619957 0.003037
O O8 0.837590 0.533274 0.250000
O O9 0.890741 0.436067 0.046599
O O10 0.871968 0.594825 0.994985
O O11 0.777776 0.487760 0.004409
O O12 0.397136 0.589626 0.750000
O O13 0.343218 0.553671 0.006630
O O14 0.981051 0.054593 0.750000
O O15 0.007952 0.152248 0.537726
O O16 0.000000 0.000000 0.500000
O O17 0.893760 0.750000 0.500000
O O18 0.900617 0.670782 0.750000
O O19 0.284584 0.511284 0.250000
#
# Coordination Sequence:
#
# PCOD8231071 Si02
#       7
#     8   8   8   8   8   8   8
#     4  10  20  32  45  62  88 121 156 190 226 271
#     4   9  16  27  44  64  86 112 144 184 227 267
#     4  10  19  32  49  69  94 126 160 194 236 284
#     4   9  16  27  44  65  87 112 145 185 226 265
#     4   8  16  30  48  68  91 119 153 193 234 276
#     4  10  19  32  49  71  97 124 156 194 234 278
#     4  10  20  32  45  65  93 124 156 190 229 275
#
# _framework density 18.058135
#
# number of rings (size 3 to 8) (size 9 to 14) (size 15 to 20)
#    0.000    2.571    0.000    2.571    0.000    6.857 
#    0.000    1.429    0.000    0.000    0.000    1.000 
#    0.000    2.286    0.000    0.000    0.000    0.000 
#
# Total GULP energy -693893.803488 kJ/mol
# GULP energy per Si atom -12390.960777 kJ/mol
# Density = 1.801703 g / cm^3
# Si number density = 18.058135 Si / 1000 Ang^3
#
#
#
# Elastic Constant Matrix: (Units=GPa)
#
#
# Indices 1 2 3 4 5 6 
#
# 1 109.4737 2.2897 41.9049 0.0000 0.0000 0.0000
# 2 2.2897 6.1106 2.7361 0.0000 0.0000 0.0000
# 3 41.9049 2.7361 93.5756 0.0000 0.0000 0.0000
# 4 0.0000 0.0000 0.0000 19.6601 0.0000 0.0000
# 5 0.0000 0.0000 0.0000 0.0000 32.8683 0.0000
# 6 0.0000 0.0000 0.0000 0.0000 0.0000 13.3759
#
#
#
# Elastic Compliance Matrix: (Units=1/GPa)
#
#
# Indices 1 2 3 4 5 6 
#
# 1 0.011047 -0.001950 -0.004890 0.000000 0.000000 0.000000
# 2 -0.001950 0.166165 -0.003985 0.000000 0.000000 0.000000
# 3 -0.004890 -0.003985 0.012993 0.000000 0.000000 0.000000
# 4 0.000000 0.000000 0.000000 0.050864 0.000000 0.000000
# 5 0.000000 0.000000 0.000000 0.000000 0.030424 0.000000
# 6 0.000000 0.000000 0.000000 0.000000 0.000000 0.074761
#
#
# Mechanical properties :
#
#
# Convention : Reuss Voigt Hill
#
# Bulk Modulus (GPa) = 5.93282 33.66904 19.80093
# Shear Modulus (GPa) = 11.78993 23.99615 17.89304
#
# Velocity S-wave (km/s) = 2.55794 3.64926 3.15120
# Velocity P-wave (km/s) = 3.46650 6.03668 4.92230
#
# Compressibility (1/GPa) = 0.16855405
#
# Stress axis : x y z
#
# Youngs Moduli (GPa) = 90.52004 6.01813 76.96466
#
# Poissons Ratio (x) = 0.01174 0.37637
# Poissons Ratio (y) = 0.17651 0.30673
# Poissons Ratio (z) = 0.44266 0.02398
#
# Static dielectric constant tensor:
#      x y z
#    x 5.751540 0.000000 0.000000 
#    y 0.000000 4.227310 0.000000 
#    z 0.000000 0.000000 3.523850 
# 
# 
# High freq. dielectric constant tensor:
#      x y z
#    x 1.696360 0.000000 0.000000 
#    y 0.000000 1.651540 0.000000 
#    z 0.000000 0.000000 1.719930 
# 
# From -- ./inp_files/7065.got.cif
#   From: 2010.03.12/outbox.cif.g09.slc.cpg/sg57_4_cif.got.tgz:7065.got - 2010.04.16 15:48:40.
