data_PCOD8231064
_publ_section_title
;
Structure prediction by ZEFSAII (Michael W. Deem and Ramdas Pophale) SiO2 
 PCOD8231064
Probable space group: P B C M
;
_chemical_formula_sum "Si O2"
_cell_formula_units_Z 56
_cell_length_a 13.947766
_cell_length_b 24.175106
_cell_length_c 8.730631
_cell_angle_alpha 90.000000
_cell_angle_beta 90.000000
_cell_angle_gamma 90.000000
_cell_volume 2943.870305
_symmetry_space_group_name_H-M "P B C M"
_symmetry_group_IT_number 57
_symmetry_cell_setting 'orthorhombic'
loop_
_space_group_symop_operation_xyz
x,y,z
-x,-y,1/2+z
x,1/2-y,-z
-x,1/2+y,1/2-z
-x,-y,-z
x,y,1/2-z
-x,1/2+y,z
x,1/2-y,1/2+z
loop_
_atom_site_type_symbol
_atom_site_label
_atom_site_fract_x
_atom_site_fract_y
_atom_site_fract_z
Si Si1 0.717549 0.808427 0.068329
Si Si2 0.780390 0.023122 0.067842
Si Si3 0.838238 0.192228 0.071639
Si Si4 0.961400 0.410744 0.926969
Si Si5 0.674841 0.121294 0.570003
Si Si6 0.499451 0.192925 0.928935
Si Si7 0.174974 0.411594 0.932332
O O1 0.728587 0.807452 0.250000
O O2 0.608268 0.820682 0.015821
O O3 0.751921 0.750000 0.000000
O O4 0.783800 0.855384 0.998516
O O5 0.779189 0.018759 0.250000
O O6 0.881330 0.047879 0.002853
O O7 0.694597 0.063724 0.016911
O O8 0.763121 0.963265 0.993447
O O9 0.812028 0.197807 0.250000
O O10 0.928817 0.152240 0.046519
O O11 0.869450 0.250000 0.000000
O O12 0.746544 0.169153 0.983152
O O13 0.967930 0.425022 0.750000
O O14 0.066651 0.418800 0.998974
O O15 0.686403 0.111467 0.750000
O O16 0.568102 0.141817 0.525445
O O17 0.501841 0.202806 0.750000
O O18 0.537696 0.250000 0.000000
O O19 0.177727 0.409013 0.750000
#
# Coordination Sequence:
#
# PCOD8231064 Si02
#       7
#     8   8   8   8   8   8   8
#     4  10  21  39  58  80 107 137 173 217 261 308
#     4  10  20  36  55  79 108 139 172 213 259 310
#     4  10  19  32  48  73 107 141 173 212 259 312
#     4   8  18  34  52  74 104 138 176 216 259 308
#     4  10  19  33  53  79 106 137 173 214 260 311
#     4   9  19  34  55  79 106 137 173 213 259 310
#     4  11  21  36  57  80 104 137 176 217 260 307
#
# _framework density 19.022576000000001
#
# number of rings (size 3 to 8) (size 9 to 14) (size 15 to 20)
#    0.000    2.286    0.000    3.857    0.000    3.429 
#    0.000   10.000    0.000    0.000    0.000    0.000 
#    0.000    0.000    0.000    0.000    0.000    0.000 
#
# Total GULP energy -694392.260078 kJ/mol
# GULP energy per Si atom -12399.861787 kJ/mol
# Density = 1.897928 g / cm^3
# Si number density = 19.022576 Si / 1000 Ang^3
#
#
#
# Elastic Constant Matrix: (Units=GPa)
#
#
# Indices 1 2 3 4 5 6 
#
# 1 68.8157 44.0046 29.2412 0.0000 0.0000 0.0000
# 2 44.0046 139.6587 43.8585 0.0000 0.0000 0.0000
# 3 29.2412 43.8585 69.6552 0.0000 0.0000 0.0000
# 4 0.0000 0.0000 0.0000 36.9970 0.0000 0.0000
# 5 0.0000 0.0000 0.0000 0.0000 23.4699 0.0000
# 6 0.0000 0.0000 0.0000 0.0000 0.0000 19.9401
#
#
#
# Elastic Compliance Matrix: (Units=1/GPa)
#
#
# Indices 1 2 3 4 5 6 
#
# 1 0.019726 -0.004506 -0.005444 0.000000 0.000000 0.000000
# 2 -0.004506 0.009954 -0.004376 0.000000 0.000000 0.000000
# 3 -0.005444 -0.004376 0.019397 0.000000 0.000000 0.000000
# 4 0.000000 0.000000 0.000000 0.027029 0.000000 0.000000
# 5 0.000000 0.000000 0.000000 0.000000 0.042608 0.000000
# 6 0.000000 0.000000 0.000000 0.000000 0.000000 0.050150
#
#
# Mechanical properties :
#
#
# Convention : Reuss Voigt Hill
#
# Bulk Modulus (GPa) = 48.95767 56.92646 52.94207
# Shear Modulus (GPa) = 24.47078 26.81643 25.64360
#
# Velocity S-wave (km/s) = 3.59054 3.75869 3.67558
# Velocity P-wave (km/s) = 6.55605 6.98768 6.77531
#
# Compressibility (1/GPa) = 0.02042581
#
# Stress axis : x y z
#
# Youngs Moduli (GPa) = 50.69441 100.45863 51.55367
#
# Poissons Ratio (x) = 0.45265 0.28065
# Poissons Ratio (y) = 0.22842 0.22561
# Poissons Ratio (z) = 0.27597 0.43963
#
# Static dielectric constant tensor:
#      x y z
#    x 3.647010 0.000000 0.000000 
#    y 0.000000 3.576190 0.000000 
#    z 0.000000 0.000000 3.427010 
# 
# 
# High freq. dielectric constant tensor:
#      x y z
#    x 1.727880 0.000000 0.000000 
#    y 0.000000 1.742840 0.000000 
#    z 0.000000 0.000000 1.738170 
# 
# From -- ./inp_files/5174.got.cif
#   From: 2010.03.12/outbox.cif.g09.slc.cpg/sg57_3_cif.got.tgz:5174.got - 2010.04.16 15:48:40.
