data_PCOD8231599
_publ_section_title
;
Structure prediction by ZEFSAII (Michael W. Deem and Ramdas Pophale) SiO2 
 PCOD8231599
Probable space group: P B C M
;
_chemical_formula_sum "Si O2"
_cell_formula_units_Z 64
_cell_length_a 14.928984
_cell_length_b 23.676607
_cell_length_c 9.036303
_cell_angle_alpha 90.000000
_cell_angle_beta 90.000000
_cell_angle_gamma 90.000000
_cell_volume 3194.041121
_symmetry_space_group_name_H-M "P B C M"
_symmetry_group_IT_number 57
_symmetry_cell_setting 'orthorhombic'
loop_
_space_group_symop_operation_xyz
x,y,z
-x,-y,1/2+z
x,1/2-y,-z
-x,1/2+y,1/2-z
-x,-y,-z
x,y,1/2-z
-x,1/2+y,z
x,1/2-y,1/2+z
loop_
_atom_site_type_symbol
_atom_site_label
_atom_site_fract_x
_atom_site_fract_y
_atom_site_fract_z
Si Si1 0.880443 0.890333 0.921093
Si Si2 0.840637 0.499611 0.580607
Si Si3 0.568652 0.864742 0.422505
Si Si4 0.954825 0.308448 0.923396
Si Si5 0.381976 0.903469 0.420805
Si Si6 0.181978 0.885628 0.073986
Si Si7 0.631200 0.514365 0.582376
Si Si8 0.276300 0.193093 0.424344
O O1 0.874200 0.907430 0.750000
O O2 0.790394 0.857433 0.969891
O O3 0.964446 0.850931 0.953884
O O4 0.894720 0.947316 0.014848
O O5 0.870201 0.489415 0.750000
O O6 0.862145 0.443219 0.487860
O O7 0.737343 0.514502 0.565861
O O8 0.593296 0.856888 0.250000
O O9 0.461359 0.857847 0.449833
O O10 0.595761 0.926660 0.480892
O O11 0.623312 0.819247 0.517287
O O12 0.937828 0.299065 0.750000
O O13 0.980759 0.250000 0.000000
O O14 0.865354 0.332325 0.999214
O O15 0.373329 0.917843 0.250000
O O16 0.286124 0.880850 0.477664
O O17 0.411041 0.962390 0.494060
O O18 0.170597 0.883474 0.250000
O O19 0.599804 0.507056 0.750000
O O20 0.240324 0.250000 0.500000
O O21 0.278242 0.202523 0.250000
#
# Coordination Sequence:
#
# PCOD8231599 Si02
#       8
#     8   8   8   8   8   8   8   8
#     4  10  22  39  60  87 117 148 187 233 287 350
#     4  10  19  33  57  89 122 157 191 230 284 342
#     4  10  19  34  53  79 113 149 189 232 277 330
#     4  11  24  43  65  88 112 145 191 241 292 347
#     4   9  19  33  54  81 113 150 188 231 280 331
#     4  10  21  39  60  86 120 155 193 240 289 340
#     4   9  17  29  49  80 116 150 185 227 274 328
#     4  11  23  38  57  81 112 151 191 236 287 343
#
# _framework density 20.037312
#
# number of rings (size 3 to 8) (size 9 to 14) (size 15 to 20)
#    0.000    2.000    1.250    2.250    0.000    4.000 
#    0.000    0.625    0.000    0.000    0.000    0.000 
#    0.000    0.000    0.000    0.000    0.000    0.000 
#
# Total GULP energy -793712.340235 kJ/mol
# GULP energy per Si atom -12401.755316 kJ/mol
# Density = 1.999171 g / cm^3
# Si number density = 20.037312 Si / 1000 Ang^3
#
#
#
# Elastic Constant Matrix: (Units=GPa)
#
#
# Indices 1 2 3 4 5 6 
#
# 1 65.1923 19.2728 27.3325 0.0000 0.0000 0.0000
# 2 19.2728 48.4109 24.2818 0.0000 0.0000 0.0000
# 3 27.3325 24.2818 75.9460 0.0000 0.0000 0.0000
# 4 0.0000 0.0000 0.0000 38.8750 0.0000 0.0000
# 5 0.0000 0.0000 0.0000 0.0000 26.9935 0.0000
# 6 0.0000 0.0000 0.0000 0.0000 0.0000 18.7747
#
#
#
# Elastic Compliance Matrix: (Units=1/GPa)
#
#
# Indices 1 2 3 4 5 6 
#
# 1 0.019002 -0.004924 -0.005264 0.000000 0.000000 0.000000
# 2 -0.004924 0.025878 -0.006502 0.000000 0.000000 0.000000
# 3 -0.005264 -0.006502 0.017141 0.000000 0.000000 0.000000
# 4 0.000000 0.000000 0.000000 0.025723 0.000000 0.000000
# 5 0.000000 0.000000 0.000000 0.000000 0.037046 0.000000
# 6 0.000000 0.000000 0.000000 0.000000 0.000000 0.053263
#
#
# Mechanical properties :
#
#
# Convention : Reuss Voigt Hill
#
# Bulk Modulus (GPa) = 34.91609 36.81372 35.86490
# Shear Modulus (GPa) = 22.62642 24.83945 23.73293
#
# Velocity S-wave (km/s) = 3.36402 3.52470 3.44530
# Velocity P-wave (km/s) = 5.70546 5.91415 5.81074
#
# Compressibility (1/GPa) = 0.02864009
#
# Stress axis : x y z
#
# Youngs Moduli (GPa) = 52.62555 38.64280 58.34121
#
# Poissons Ratio (x) = 0.19030 0.30713
# Poissons Ratio (y) = 0.25915 0.37931
# Poissons Ratio (z) = 0.27704 0.25124
#
# Static dielectric constant tensor:
#      x y z
#    x 3.753980 0.000000 0.000000 
#    y 0.000000 3.498220 0.000000 
#    z 0.000000 0.000000 3.599590 
# 
# 
# High freq. dielectric constant tensor:
#      x y z
#    x 1.786240 0.000000 0.000000 
#    y 0.000000 1.767770 0.000000 
#    z 0.000000 0.000000 1.781210 
# 
# From -- ./inp_files/5752.got.cif
#   From: 2010.03.12/outbox.cif.g09.slc.cpg/sg57_3_cif.got.tgz:5752.got - 2010.04.16 15:48:40.
