data_PCOD8231951
_publ_section_title
;
Structure prediction by ZEFSAII (Michael W. Deem and Ramdas Pophale) SiO2 
 PCOD8231951
Probable space group: P B C M
;
_chemical_formula_sum "Si O2"
_cell_formula_units_Z 64
_cell_length_a 13.034133
_cell_length_b 10.012105
_cell_length_c 26.312904
_cell_angle_alpha 90.000000
_cell_angle_beta 90.000000
_cell_angle_gamma 90.000000
_cell_volume 3433.810506
_symmetry_space_group_name_H-M "P B C M"
_symmetry_group_IT_number 57
_symmetry_cell_setting 'orthorhombic'
loop_
_space_group_symop_operation_xyz
x,y,z
-x,-y,1/2+z
x,1/2-y,-z
-x,1/2+y,1/2-z
-x,-y,-z
x,y,1/2-z
-x,1/2+y,z
x,1/2-y,1/2+z
loop_
_atom_site_type_symbol
_atom_site_label
_atom_site_fract_x
_atom_site_fract_y
_atom_site_fract_z
Si Si1 0.269032 0.583591 0.357253
Si Si2 0.070656 0.828042 0.807079
Si Si3 0.593195 0.290313 0.310059
Si Si4 0.886214 0.418971 0.552581
Si Si5 0.079717 0.961441 0.337938
Si Si6 0.710316 0.544174 0.193514
Si Si7 0.644897 0.824273 0.190568
Si Si8 0.932735 0.378438 0.057347
O O1 0.190375 0.656276 0.318999
O O2 0.373268 0.668947 0.347641
O O3 0.219565 0.580041 0.414385
O O4 0.294200 0.433347 0.341743
O O5 0.046885 0.872447 0.750000
O O6 0.034843 0.675517 0.814540
O O7 0.011431 0.930920 0.843725
O O8 0.614100 0.256592 0.250000
O O9 0.655783 0.417279 0.331508
O O10 0.475862 0.328375 0.318713
O O11 0.864007 0.415269 0.491746
O O12 0.948914 0.281483 0.563799
O O13 0.955275 0.551087 0.560288
O O14 0.128250 0.931549 0.393372
O O15 0.167932 0.022763 0.303185
O O16 0.664258 0.555652 0.250000
O O17 0.684949 0.684365 0.166989
O O18 0.672223 0.843544 0.250000
#
# Coordination Sequence:
#
# PCOD8231951 Si02
#       8
#     8   8   8   8   8   8   8   8
#     4  12  21  36  56  84 112 151 191 235 291 345
#     4  12  24  35  51  79 117 156 188 224 270 343
#     4  10  19  36  57  78 110 148 191 239 287 342
#     4  10  21  35  59  81 109 144 192 243 284 329
#     4  12  22  37  53  76 112 154 188 222 278 336
#     4  10  20  34  51  75 107 143 183 222 269 337
#     4  10  22  35  54  82 112 148 190 239 287 343
#     4  10  19  38  55  81 109 146 191 238 282 332
#
# _framework density 18.638186000000001
#
# number of rings (size 3 to 8) (size 9 to 14) (size 15 to 20)
#    0.000    1.250    3.750    3.000    1.750    3.000 
#    0.000    0.000    0.000    0.000    0.000   15.750 
#    0.000    0.000    0.000    0.000    0.000    0.000 
#
# Total GULP energy -793194.031311 kJ/mol
# GULP energy per Si atom -12393.656739 kJ/mol
# Density = 1.859576 g / cm^3
# Si number density = 18.638186 Si / 1000 Ang^3
#
#
#
# Elastic Constant Matrix: (Units=GPa)
#
#
# Indices 1 2 3 4 5 6 
#
# 1 59.0013 31.8420 23.8355 0.0000 0.0000 0.0000
# 2 31.8420 118.2958 26.4100 0.0000 0.0000 0.0000
# 3 23.8355 26.4100 94.7846 0.0000 0.0000 0.0000
# 4 0.0000 0.0000 0.0000 22.3696 0.0000 0.0000
# 5 0.0000 0.0000 0.0000 0.0000 23.4172 0.0000
# 6 0.0000 0.0000 0.0000 0.0000 0.0000 32.3483
#
#
#
# Elastic Compliance Matrix: (Units=1/GPa)
#
#
# Indices 1 2 3 4 5 6 
#
# 1 0.021149 -0.004804 -0.003980 0.000000 0.000000 0.000000
# 2 -0.004804 0.010105 -0.001608 0.000000 0.000000 0.000000
# 3 -0.003980 -0.001608 0.011999 0.000000 0.000000 0.000000
# 4 0.000000 0.000000 0.000000 0.044703 0.000000 0.000000
# 5 0.000000 0.000000 0.000000 0.000000 0.042704 0.000000
# 6 0.000000 0.000000 0.000000 0.000000 0.000000 0.030914
#
#
# Mechanical properties :
#
#
# Convention : Reuss Voigt Hill
#
# Bulk Modulus (GPa) = 44.50297 48.47298 46.48797
# Shear Modulus (GPa) = 26.33686 28.29329 27.31508
#
# Velocity S-wave (km/s) = 3.76315 3.90042 3.83240
# Velocity P-wave (km/s) = 6.54300 6.80795 6.67679
#
# Compressibility (1/GPa) = 0.02247041
#
# Stress axis : x y z
#
# Youngs Moduli (GPa) = 47.28276 98.95623 83.34058
#
# Poissons Ratio (x) = 0.47542 0.33168
# Poissons Ratio (y) = 0.22716 0.13398
# Poissons Ratio (z) = 0.18818 0.15908
#
# Static dielectric constant tensor:
#      x y z
#    x 3.141470 0.000000 0.000000 
#    y 0.000000 3.658520 0.000000 
#    z 0.000000 0.000000 3.444200 
# 
# 
# High freq. dielectric constant tensor:
#      x y z
#    x 1.696200 0.000000 0.000000 
#    y 0.000000 1.747340 0.000000 
#    z 0.000000 0.000000 1.700980 
# 
# From -- ./inp_files/29896.got.cif
#   From: 2010.03.12/outbox.cif.g09.slc.cpg/sg57_15_cif.got.tgz:29896.got - 2010.04.16 15:48:40.
