data_PCOD8231771
_publ_section_title
;
Structure prediction by ZEFSAII (Michael W. Deem and Ramdas Pophale) SiO2 
 PCOD8231771
Probable space group: P B C M
;
_chemical_formula_sum "Si O2"
_cell_formula_units_Z 56
_cell_length_a 20.959970
_cell_length_b 14.698872
_cell_length_c 8.956075
_cell_angle_alpha 90.000000
_cell_angle_beta 90.000000
_cell_angle_gamma 90.000000
_cell_volume 2759.258484
_symmetry_space_group_name_H-M "P B C M"
_symmetry_group_IT_number 57
_symmetry_cell_setting 'orthorhombic'
loop_
_space_group_symop_operation_xyz
x,y,z
-x,-y,1/2+z
x,1/2-y,-z
-x,1/2+y,1/2-z
-x,-y,-z
x,y,1/2-z
-x,1/2+y,z
x,1/2-y,1/2+z
loop_
_atom_site_type_symbol
_atom_site_label
_atom_site_fract_x
_atom_site_fract_y
_atom_site_fract_z
Si Si1 0.725534 0.516095 0.577923
Si Si2 0.808476 0.838878 0.577712
Si Si3 0.071837 0.600650 0.923780
Si Si4 0.801182 0.163389 0.420530
Si Si5 0.593154 0.503946 0.425180
Si Si6 0.947999 0.606642 0.419360
Si Si7 0.485724 0.649748 0.426124
O O1 0.713578 0.542423 0.750000
O O2 0.782175 0.575152 0.509862
O O3 0.748405 0.413486 0.560117
O O4 0.662051 0.532493 0.483939
O O5 0.778830 0.750000 0.500000
O O6 0.787456 0.843891 0.750000
O O7 0.884843 0.833394 0.561235
O O8 0.080445 0.617997 0.750000
O O9 0.070683 0.495102 0.968004
O O10 0.130943 0.644778 0.005788
O O11 0.004892 0.645500 0.977469
O O12 0.769577 0.250000 0.500000
O O13 0.815309 0.184919 0.250000
O O14 0.594506 0.483305 0.250000
O O15 0.549303 0.591598 0.461180
O O16 0.571764 0.410997 0.507515
O O17 0.972926 0.607157 0.250000
O O18 0.489607 0.750000 0.500000
O O19 0.474812 0.662494 0.250000
#
# Coordination Sequence:
#
# PCOD8231771 Si02
#       7
#     8   8   8   8   8   8   8
#     4  11  24  42  63  88 122 162 204 251 298 354
#     4  11  23  40  61  86 117 155 201 250 305 364
#     4  10  19  34  58  84 112 149 192 245 304 363
#     4  11  24  40  60  85 115 153 199 249 303 362
#     4  10  22  40  64  93 127 167 205 247 296 350
#     4   9  19  35  56  82 113 151 193 243 303 365
#     4  10  21  39  65  97 130 164 203 247 295 346
#
# _framework density 20.295307999999999
#
# number of rings (size 3 to 8) (size 9 to 14) (size 15 to 20)
#    0.000    1.714    1.429    2.571    0.000    6.857 
#    0.000    4.286    0.000    0.000    0.000    0.000 
#    0.000    0.000    0.000    0.000    0.000    0.000 
#
# Total GULP energy -694495.700468 kJ/mol
# GULP energy per Si atom -12401.708937 kJ/mol
# Density = 2.024912 g / cm^3
# Si number density = 20.295308 Si / 1000 Ang^3
#
#
#
# Elastic Constant Matrix: (Units=GPa)
#
#
# Indices 1 2 3 4 5 6 
#
# 1 71.0801 6.5406 34.1041 0.0000 0.0000 0.0000
# 2 6.5406 87.5904 53.0124 0.0000 0.0000 0.0000
# 3 34.1041 53.0124 116.2836 0.0000 0.0000 0.0000
# 4 0.0000 0.0000 0.0000 36.2976 0.0000 0.0000
# 5 0.0000 0.0000 0.0000 0.0000 33.5534 0.0000
# 6 0.0000 0.0000 0.0000 0.0000 0.0000 10.2021
#
#
#
# Elastic Compliance Matrix: (Units=1/GPa)
#
#
# Indices 1 2 3 4 5 6 
#
# 1 0.016723 0.002375 -0.005987 0.000000 0.000000 0.000000
# 2 0.002375 0.016105 -0.008038 0.000000 0.000000 0.000000
# 3 -0.005987 -0.008038 0.014020 0.000000 0.000000 0.000000
# 4 0.000000 0.000000 0.000000 0.027550 0.000000 0.000000
# 5 0.000000 0.000000 0.000000 0.000000 0.029803 0.000000
# 6 0.000000 0.000000 0.000000 0.000000 0.000000 0.098019
#
#
# Mechanical properties :
#
#
# Convention : Reuss Voigt Hill
#
# Bulk Modulus (GPa) = 42.46981 51.36313 46.91647
# Shear Modulus (GPa) = 21.42519 28.09707 24.76113
#
# Velocity S-wave (km/s) = 3.25264 3.72481 3.49670
# Velocity P-wave (km/s) = 5.92263 6.62282 6.28249
#
# Compressibility (1/GPa) = 0.02354614
#
# Stress axis : x y z
#
# Youngs Moduli (GPa) = 59.79871 62.09437 71.32549
#
# Poissons Ratio (x) = -0.14747 0.42704
# Poissons Ratio (y) = -0.14202 0.57334
# Poissons Ratio (z) = 0.35803 0.49914
#
# Static dielectric constant tensor:
#      x y z
#    x 3.554670 0.000000 0.000000 
#    y 0.000000 3.771990 0.000000 
#    z 0.000000 0.000000 3.820260 
# 
# 
# High freq. dielectric constant tensor:
#      x y z
#    x 1.786300 0.000000 0.000000 
#    y 0.000000 1.795380 0.000000 
#    z 0.000000 0.000000 1.806620 
# 
# From -- ./inp_files/8059.got.cif
#   From: 2010.03.12/outbox.cif.g09.slc.cpg/sg57_5_cif.got.tgz:8059.got - 2010.04.16 15:48:40.
