data_PCOD8231873
_publ_section_title
;
Structure prediction by ZEFSAII (Michael W. Deem and Ramdas Pophale) SiO2 
 PCOD8231873
Probable space group: P B C M
;
_chemical_formula_sum "Si O2"
_cell_formula_units_Z 56
_cell_length_a 31.250467
_cell_length_b 5.076008
_cell_length_c 16.775405
_cell_angle_alpha 90.000000
_cell_angle_beta 90.000000
_cell_angle_gamma 90.000000
_cell_volume 2661.042578
_symmetry_space_group_name_H-M "P B C M"
_symmetry_group_IT_number 57
_symmetry_cell_setting 'orthorhombic'
loop_
_space_group_symop_operation_xyz
x,y,z
-x,-y,1/2+z
x,1/2-y,-z
-x,1/2+y,1/2-z
-x,-y,-z
x,y,1/2-z
-x,1/2+y,z
x,1/2-y,1/2+z
loop_
_atom_site_type_symbol
_atom_site_label
_atom_site_fract_x
_atom_site_fract_y
_atom_site_fract_z
Si Si1 0.197190 0.285696 0.592417
Si Si2 0.337082 0.822481 0.842020
Si Si3 0.243459 0.717038 0.094924
Si Si4 0.472477 0.209733 0.341890
Si Si5 0.381266 0.182591 0.409506
Si Si6 0.027318 0.591298 0.656766
Si Si7 0.108422 0.494186 0.947666
O O1 0.207283 0.250000 0.500000
O O2 0.228287 0.504314 0.631524
O O3 0.148242 0.380642 0.603575
O O4 0.209254 0.000388 0.628142
O O5 0.336973 0.741391 0.750000
O O6 0.289427 0.864916 0.873422
O O7 0.360056 0.596738 0.892071
O O8 0.362435 0.094598 0.851854
O O9 0.243898 0.750000 0.000000
O O10 0.458008 0.185643 0.250000
O O11 0.491300 0.495648 0.361599
O O12 0.431961 0.159254 0.397514
O O13 0.370305 0.250000 0.500000
O O14 0.037530 0.582594 0.750000
O O15 0.072090 0.586764 0.612111
O O16 0.003107 0.854055 0.630671
O O17 0.090954 0.250000 0.000000
O O18 0.122745 0.750000 0.000000
#
# Coordination Sequence:
#
# PCOD8231873 Si02
#       7
#     8   8   8   8   8   8   8
#     4   9  18  33  55  82 112 146 184 234 289 344
#     4  12  25  42  63  91 126 161 202 254 309 359
#     4  10  19  35  58  82 112 151 193 232 284 351
#     4  10  21  38  61  89 123 162 200 244 305 365
#     4  12  25  42  65  93 125 162 208 255 302 361
#     4  10  22  39  56  78 113 154 192 235 294 354
#     4  11  21  35  58  87 115 146 193 243 289 344
#
# _framework density 21.044383
#
# number of rings (size 3 to 8) (size 9 to 14) (size 15 to 20)
#    0.000    1.429    0.000    7.286    0.000    4.571 
#    0.000    1.429    0.000    0.000    0.000    1.000 
#    0.000    0.000    0.000    0.000    0.000    0.000 
#
# Total GULP energy -694453.144071 kJ/mol
# GULP energy per Si atom -12400.949001 kJ/mol
# Density = 2.099649 g / cm^3
# Si number density = 21.044383 Si / 1000 Ang^3
#
#
#
# Elastic Constant Matrix: (Units=GPa)
#
#
# Indices 1 2 3 4 5 6 
#
# 1 146.0015 61.1440 27.7111 0.0000 0.0000 0.0000
# 2 61.1440 145.0853 8.7914 0.0000 0.0000 0.0000
# 3 27.7111 8.7914 42.9218 0.0000 0.0000 0.0000
# 4 0.0000 0.0000 0.0000 8.0078 0.0000 0.0000
# 5 0.0000 0.0000 0.0000 0.0000 0.1788 0.0000
# 6 0.0000 0.0000 0.0000 0.0000 0.0000 26.0167
#
#
#
# Elastic Compliance Matrix: (Units=1/GPa)
#
#
# Indices 1 2 3 4 5 6 
#
# 1 0.009378 -0.003630 -0.005311 0.000000 0.000000 0.000000
# 2 -0.003630 0.008384 0.000626 0.000000 0.000000 0.000000
# 3 -0.005311 0.000626 0.026599 0.000000 0.000000 0.000000
# 4 0.000000 0.000000 0.000000 0.124879 0.000000 0.000000
# 5 0.000000 0.000000 0.000000 0.000000 5.592337 0.000000
# 6 0.000000 0.000000 0.000000 0.000000 0.000000 0.038437
#
#
# Mechanical properties :
#
#
# Convention : Reuss Voigt Hill
#
# Bulk Modulus (GPa) = 36.06015 58.81127 47.43571
# Shear Modulus (GPa) = 0.85824 22.59814 11.72819
#
# Velocity S-wave (km/s) = 0.63930 3.28049 2.36330
# Velocity P-wave (km/s) = 4.20921 6.50813 5.48057
#
# Compressibility (1/GPa) = 0.02773144
#
# Stress axis : x y z
#
# Youngs Moduli (GPa) = 106.63803 119.26857 37.59600
#
# Poissons Ratio (x) = 0.43297 0.19966
# Poissons Ratio (y) = 0.38712 -0.02355
# Poissons Ratio (z) = 0.56633 -0.07471
#
# Static dielectric constant tensor:
#      x y z
#    x 3.729920 0.000000 0.000000 
#    y 0.000000 4.209260 0.000000 
#    z 0.000000 0.000000 3.500910 
# 
# 
# High freq. dielectric constant tensor:
#      x y z
#    x 1.832870 0.000000 0.000000 
#    y 0.000000 1.850560 0.000000 
#    z 0.000000 0.000000 1.791030 
# 
# From -- ./inp_files/19646.got.cif
#   From: 2010.03.12/outbox.cif.g09.slc.cpg/sg57_10_cif.got.tgz:19646.got - 2010.04.16 15:48:40.
