data_PCOD8231738
_publ_section_title
;
Structure prediction by ZEFSAII (Michael W. Deem and Ramdas Pophale) SiO2 
 PCOD8231738
Probable space group: P B C M
;
_chemical_formula_sum "Si O2"
_cell_formula_units_Z 64
_cell_length_a 8.981102
_cell_length_b 25.769248
_cell_length_c 14.206260
_cell_angle_alpha 90.000000
_cell_angle_beta 90.000000
_cell_angle_gamma 90.000000
_cell_volume 3287.843466
_symmetry_space_group_name_H-M "P B C M"
_symmetry_group_IT_number 57
_symmetry_cell_setting 'orthorhombic'
loop_
_space_group_symop_operation_xyz
x,y,z
-x,-y,1/2+z
x,1/2-y,-z
-x,1/2+y,1/2-z
-x,-y,-z
x,y,1/2-z
-x,1/2+y,z
x,1/2-y,1/2+z
loop_
_atom_site_type_symbol
_atom_site_label
_atom_site_fract_x
_atom_site_fract_y
_atom_site_fract_z
Si Si1 0.998873 0.639284 0.534976
Si Si2 0.671016 0.996715 0.523583
Si Si3 0.324751 0.890015 0.014053
Si Si4 0.566997 0.852675 0.352792
Si Si5 0.199242 0.229423 0.901489
Si Si6 0.441350 0.091853 0.357298
Si Si7 0.188252 0.061426 0.860246
Si Si8 0.172226 0.158289 0.148863
O O1 0.945163 0.692350 0.585319
O O2 0.960253 0.590964 0.603882
O O3 0.917627 0.631980 0.435227
O O4 0.172702 0.642400 0.509715
O O5 0.715270 0.054041 0.561464
O O6 0.500000 0.000000 0.500000
O O7 0.674913 0.952111 0.603291
O O8 0.774564 0.985970 0.431015
O O9 0.433641 0.853682 0.073956
O O10 0.403203 0.901255 0.913317
O O11 0.495370 0.857979 0.250000
O O12 0.663795 0.800442 0.354462
O O13 0.672867 0.900757 0.375314
O O14 0.151284 0.279577 0.842558
O O15 0.260746 0.250000 0.000000
O O16 0.483826 0.077756 0.250000
O O17 0.347635 0.145199 0.364661
O O18 0.170236 0.044537 0.750000
O O19 0.117905 0.135453 0.250000
#
# Coordination Sequence:
#
# PCOD8231738 Si02
#       8
#     8   8   8   8   8   8   8   8
#     4  10  21  37  56  82 121 152 188 234 290 348
#     4  10  19  35  57  83 112 150 194 240 288 337
#     4  11  22  36  56  83 122 154 183 235 299 349
#     4  10  19  34  57  83 110 144 192 240 278 329
#     4   9  18  35  60  82 108 149 195 236 287 340
#     4  10  20  37  60  85 113 148 198 245 281 338
#     4  10  19  36  58  79 110 153 200 239 276 330
#     4  10  19  37  63  84 109 149 200 244 285 341
#
# _framework density 19.465646
#
# number of rings (size 3 to 8) (size 9 to 14) (size 15 to 20)
#    0.000    2.000    3.750    1.875    0.000    4.500 
#    0.000    5.625    0.000    0.000    0.000    0.000 
#    0.000    0.000    0.000    0.000    0.000    0.000 
#
# Total GULP energy -793018.699226 kJ/mol
# GULP energy per Si atom -12390.917175 kJ/mol
# Density = 1.942134 g / cm^3
# Si number density = 19.465646 Si / 1000 Ang^3
#
#
#
# Elastic Constant Matrix: (Units=GPa)
#
#
# Indices 1 2 3 4 5 6 
#
# 1 98.4977 28.4574 48.1816 0.0000 0.0000 0.0000
# 2 28.4574 67.0560 14.6891 0.0000 0.0000 0.0000
# 3 48.1816 14.6891 112.1414 0.0000 0.0000 0.0000
# 4 0.0000 0.0000 0.0000 15.0248 0.0000 0.0000
# 5 0.0000 0.0000 0.0000 0.0000 15.1955 0.0000
# 6 0.0000 0.0000 0.0000 0.0000 0.0000 16.9958
#
#
#
# Elastic Compliance Matrix: (Units=1/GPa)
#
#
# Indices 1 2 3 4 5 6 
#
# 1 0.014232 -0.004839 -0.005481 0.000000 0.000000 0.000000
# 2 -0.004839 0.016999 -0.000148 0.000000 0.000000 0.000000
# 3 -0.005481 -0.000148 0.011291 0.000000 0.000000 0.000000
# 4 0.000000 0.000000 0.000000 0.066557 0.000000 0.000000
# 5 0.000000 0.000000 0.000000 0.000000 0.065809 0.000000
# 6 0.000000 0.000000 0.000000 0.000000 0.000000 0.058838
#
#
# Mechanical properties :
#
#
# Convention : Reuss Voigt Hill
#
# Bulk Modulus (GPa) = 46.32375 51.15016 48.73696
# Shear Modulus (GPa) = 19.09446 21.86767 20.48106
#
# Velocity S-wave (km/s) = 3.13538 3.35535 3.24723
# Velocity P-wave (km/s) = 6.07921 6.43003 6.25708
#
# Compressibility (1/GPa) = 0.02158720
#
# Stress axis : x y z
#
# Youngs Moduli (GPa) = 70.26618 58.82754 88.56256
#
# Poissons Ratio (x) = 0.28467 0.48539
# Poissons Ratio (y) = 0.34002 0.01307
# Poissons Ratio (z) = 0.38511 0.00868
#
# Static dielectric constant tensor:
#      x y z
#    x 3.284340 0.000000 0.000000 
#    y 0.000000 4.911940 0.000000 
#    z 0.000000 0.000000 3.973800 
# 
# 
# High freq. dielectric constant tensor:
#      x y z
#    x 1.726470 0.000000 0.000000 
#    y 0.000000 1.751380 0.000000 
#    z 0.000000 0.000000 1.763850 
# 
# From -- ./inp_files/16973.got.cif
#   From: 2010.03.12/outbox.cif.g09.slc.cpg/sg57_9_cif.got.tgz:16973.got - 2010.04.16 15:48:40.
