data_PCOD8231537
_publ_section_title
;
Structure prediction by ZEFSAII (Michael W. Deem and Ramdas Pophale) SiO2 
 PCOD8231537
Probable space group: P B C M
;
_chemical_formula_sum "Si O2"
_cell_formula_units_Z 24
_cell_length_a 8.620135
_cell_length_b 21.083772
_cell_length_c 5.382742
_cell_angle_alpha 90.000000
_cell_angle_beta 90.000000
_cell_angle_gamma 90.000000
_cell_volume 978.286235
_symmetry_space_group_name_H-M "P B C M"
_symmetry_group_IT_number 57
_symmetry_cell_setting 'orthorhombic'
loop_
_space_group_symop_operation_xyz
x,y,z
-x,-y,1/2+z
x,1/2-y,-z
-x,1/2+y,1/2-z
-x,-y,-z
x,y,1/2-z
-x,1/2+y,z
x,1/2-y,1/2+z
loop_
_atom_site_type_symbol
_atom_site_label
_atom_site_fract_x
_atom_site_fract_y
_atom_site_fract_z
Si Si1 0.764773 0.824326 0.750000
Si Si2 0.640969 0.505598 0.750000
Si Si3 0.763270 0.159424 0.750000
Si Si4 0.594020 0.354434 0.750000
Si Si5 0.108279 0.183748 0.750000
Si Si6 0.290229 0.520245 0.750000
O O1 0.583749 0.836176 0.750000
O O2 0.840540 0.854574 0.499132
O O3 0.800901 0.749810 0.750000
O O4 0.614640 0.429782 0.750000
O O5 0.475100 0.540891 0.750000
O O6 0.738227 0.521986 0.498897
O O7 0.669971 0.176295 0.498074
O O8 0.808320 0.084294 0.750000
O O9 0.924542 0.197082 0.750000
#
# Coordination Sequence:
#
# PCOD8231537 Si02
#       6
#     4   4   4   4   4   4
#     4  10  21  38  53  71 102 138 166 202 263 307
#     4   8  14  25  44  72 101 124 153 201 251 286
#     4  10  19  33  55  79  99 128 174 213 240 291
#     4  10  19  33  55  79  99 128 174 213 240 291
#     4  10  21  38  53  71 102 138 166 202 263 307
#     4   8  14  25  44  72 101 124 153 201 251 286
#
# _framework density 24.532695
#
# number of rings (size 3 to 8) (size 9 to 14) (size 15 to 20)
#    0.000    2.667    0.000    2.000    0.000    0.000 
#    0.000   20.000    0.000    2.000    0.000    0.000 
#    0.000    0.000    0.000    0.000    0.000    0.000 
#
# Total GULP energy -297313.355388 kJ/mol
# GULP energy per Si atom -12388.056475 kJ/mol
# Density = 2.447686 g / cm^3
# Si number density = 24.532695 Si / 1000 Ang^3
#
#
#
# Elastic Constant Matrix: (Units=GPa)
#
#
# Indices 1 2 3 4 5 6 
#
# 1 117.6673 7.1368 64.1316 0.0000 0.0000 0.0000
# 2 7.1368 34.6277 -14.6098 0.0000 0.0000 0.0000
# 3 64.1316 -14.6098 319.2214 0.0000 0.0000 0.0000
# 4 0.0000 0.0000 0.0000 -6.7450 0.0000 0.0000
# 5 0.0000 0.0000 0.0000 0.0000 47.1997 0.0000
# 6 0.0000 0.0000 0.0000 0.0000 0.0000 19.8428
#
#
#
# Elastic Compliance Matrix: (Units=1/GPa)
#
#
# Indices 1 2 3 4 5 6 
#
# 1 0.009824 -0.002914 -0.002107 0.000000 0.000000 0.000000
# 2 -0.002914 0.030311 0.001973 0.000000 0.000000 0.000000
# 3 -0.002107 0.001973 0.003646 0.000000 0.000000 0.000000
# 4 0.000000 0.000000 0.000000 -0.148258 0.000000 0.000000
# 5 0.000000 0.000000 0.000000 0.000000 0.021187 0.000000
# 6 0.000000 0.000000 0.000000 0.000000 0.000000 0.050396
#
#
# Mechanical properties :
#
#
# Convention : Reuss Voigt Hill
#
# Bulk Modulus (GPa) = 26.53550 64.98152 45.75851
# Shear Modulus (GPa) = -351.19842 39.71668 -155.74087
#
# Velocity S-wave (km/s) = -11.97773 4.02796 -7.97626
# Velocity P-wave (km/s) = 13.43310 6.94102 8.13235
#
# Compressibility (1/GPa) = 0.03768536
#
# Stress axis : x y z
#
# Youngs Moduli (GPa) = 101.79605 32.99095 274.25976
#
# Poissons Ratio (x) = 0.09612 0.57784
# Poissons Ratio (y) = 0.29659 -0.54100
# Poissons Ratio (z) = 0.21447 -0.06508
#
# Static dielectric constant tensor:
#      x y z
#    x 3.828230 0.000000 0.000000 
#    y 0.000000 3.908810 0.000000 
#    z 0.000000 0.000000 4.577730 
# 
# 
# High freq. dielectric constant tensor:
#      x y z
#    x 1.929890 0.000000 0.000000 
#    y 0.000000 1.935540 0.000000 
#    z 0.000000 0.000000 2.030580 
# 
# From -- ./inp_files/65.got.cif
#   From: 2010.03.12/outbox.cif.g09.slc.cpg/sg57_1_cif.got.tgz:65.got - 2010.04.16 15:48:40.
