data_PCOD8231980
_publ_section_title
;
Structure prediction by ZEFSAII (Michael W. Deem and Ramdas Pophale) SiO2 
 PCOD8231980
Probable space group: P B C M
;
_chemical_formula_sum "Si O2"
_cell_formula_units_Z 64
_cell_length_a 11.904124
_cell_length_b 30.872954
_cell_length_c 8.996073
_cell_angle_alpha 90.000000
_cell_angle_beta 90.000000
_cell_angle_gamma 90.000000
_cell_volume 3306.196021
_symmetry_space_group_name_H-M "P B C M"
_symmetry_group_IT_number 57
_symmetry_cell_setting 'orthorhombic'
loop_
_space_group_symop_operation_xyz
x,y,z
-x,-y,1/2+z
x,1/2-y,-z
-x,1/2+y,1/2-z
-x,-y,-z
x,y,1/2-z
-x,1/2+y,z
x,1/2-y,1/2+z
loop_
_atom_site_type_symbol
_atom_site_label
_atom_site_fract_x
_atom_site_fract_y
_atom_site_fract_z
Si Si1 0.491925 0.706591 0.921396
Si Si2 0.971132 0.045027 0.573910
Si Si3 0.379680 0.121494 0.573249
Si Si4 0.009724 0.793573 0.422762
Si Si5 0.485165 0.954529 0.921654
Si Si6 0.876801 0.876319 0.426183
Si Si7 0.759703 0.082716 0.079727
Si Si8 0.748944 0.171825 0.579645
O O1 0.520864 0.712087 0.750000
O O2 0.558085 0.664831 0.983982
O O3 0.359332 0.701355 0.950059
O O4 0.535424 0.750000 0.000000
O O5 0.975516 0.039964 0.750000
O O6 0.847442 0.059052 0.526200
O O7 0.060481 0.080659 0.516149
O O8 0.000000 0.000000 0.500000
O O9 0.390339 0.116565 0.750000
O O10 0.434932 0.080081 0.499131
O O11 0.251149 0.123655 0.519108
O O12 0.966985 0.750000 0.500000
O O13 0.984290 0.788733 0.250000
O O14 0.940673 0.834116 0.490234
O O15 0.141610 0.799824 0.454638
O O16 0.519777 0.958115 0.750000
O O17 0.356710 0.941591 0.940808
O O18 0.500000 0.000000 0.000000
O O19 0.884123 0.875101 0.250000
O O20 0.800969 0.081078 0.250000
O O21 0.744476 0.132040 0.031935
O O22 0.750616 0.154641 0.750000
#
# Coordination Sequence:
#
# PCOD8231980 Si02
#       8
#     8   8   8   8   8   8   8   8
#     4  10  21  35  57  86 117 154 197 242 297 357
#     4  11  23  41  63  89 123 159 198 246 297 355
#     4  10  21  40  63  86 116 157 201 244 295 354
#     4  10  20  36  57  84 117 154 195 240 293 350
#     4  11  25  42  62  90 121 156 197 246 298 355
#     4   9  20  39  61  83 116 157 194 239 295 348
#     4  11  23  39  62  91 121 154 197 246 298 352
#     4  10  19  36  59  85 117 156 197 241 300 356
#
# _framework density 19.357593000000001
#
# number of rings (size 3 to 8) (size 9 to 14) (size 15 to 20)
#    0.000    1.750    2.500    1.500    1.750    3.500 
#    0.000    1.250    0.000    0.000    0.000    0.000 
#    0.000    0.000    0.000    0.000    0.000    0.000 
#
# Total GULP energy -793814.249729 kJ/mol
# GULP energy per Si atom -12403.347652 kJ/mol
# Density = 1.931353 g / cm^3
# Si number density = 19.357593 Si / 1000 Ang^3
#
#
#
# Elastic Constant Matrix: (Units=GPa)
#
#
# Indices 1 2 3 4 5 6 
#
# 1 120.0241 66.4970 41.9126 0.0000 0.0000 0.0000
# 2 66.4970 182.4661 56.4353 0.0000 0.0000 0.0000
# 3 41.9126 56.4353 62.3587 0.0000 0.0000 0.0000
# 4 0.0000 0.0000 0.0000 38.9511 0.0000 0.0000
# 5 0.0000 0.0000 0.0000 0.0000 19.2393 0.0000
# 6 0.0000 0.0000 0.0000 0.0000 0.0000 41.4263
#
#
#
# Elastic Compliance Matrix: (Units=1/GPa)
#
#
# Indices 1 2 3 4 5 6 
#
# 1 0.011676 -0.002539 -0.005551 0.000000 0.000000 0.000000
# 2 -0.002539 0.008163 -0.005681 0.000000 0.000000 0.000000
# 3 -0.005551 -0.005681 0.024908 0.000000 0.000000 0.000000
# 4 0.000000 0.000000 0.000000 0.025673 0.000000 0.000000
# 5 0.000000 0.000000 0.000000 0.000000 0.051977 0.000000
# 6 0.000000 0.000000 0.000000 0.000000 0.000000 0.024139
#
#
# Mechanical properties :
#
#
# Convention : Reuss Voigt Hill
#
# Bulk Modulus (GPa) = 58.11574 77.17097 67.64336
# Shear Modulus (GPa) = 27.80666 33.25694 30.53180
#
# Velocity S-wave (km/s) = 3.79419 4.14941 3.97577
# Velocity P-wave (km/s) = 7.02011 7.93154 7.48970
#
# Compressibility (1/GPa) = 0.01720704
#
# Stress axis : x y z
#
# Youngs Moduli (GPa) = 85.64337 122.50796 40.14713
#
# Poissons Ratio (x) = 0.31099 0.22284
# Poissons Ratio (y) = 0.21741 0.22808
# Poissons Ratio (z) = 0.47536 0.69599
#
# Static dielectric constant tensor:
#      x y z
#    x 3.638660 0.000000 0.000000 
#    y 0.000000 3.697280 0.000000 
#    z 0.000000 0.000000 3.438470 
# 
# 
# High freq. dielectric constant tensor:
#      x y z
#    x 1.760670 0.000000 0.000000 
#    y 0.000000 1.765570 0.000000 
#    z 0.000000 0.000000 1.738970 
# 
# From -- ./inp_files/3921.got.cif
#   From: 2010.03.12/outbox.cif.g09.slc.cpg/sg57_2_cif.got.tgz:3921.got - 2010.04.16 15:48:40.
