data_PCOD8231838
_publ_section_title
;
Structure prediction by ZEFSAII (Michael W. Deem and Ramdas Pophale) SiO2 
 PCOD8231838
Probable space group: P B C M
;
_chemical_formula_sum "Si O2"
_cell_formula_units_Z 64
_cell_length_a 12.352642
_cell_length_b 31.625997
_cell_length_c 8.534187
_cell_angle_alpha 90.000000
_cell_angle_beta 90.000000
_cell_angle_gamma 90.000000
_cell_volume 3334.004911
_symmetry_space_group_name_H-M "P B C M"
_symmetry_group_IT_number 57
_symmetry_cell_setting 'orthorhombic'
loop_
_space_group_symop_operation_xyz
x,y,z
-x,-y,1/2+z
x,1/2-y,-z
-x,1/2+y,1/2-z
-x,-y,-z
x,y,1/2-z
-x,1/2+y,z
x,1/2-y,1/2+z
loop_
_atom_site_type_symbol
_atom_site_label
_atom_site_fract_x
_atom_site_fract_y
_atom_site_fract_z
Si Si1 0.261660 0.925880 0.068911
Si Si2 0.929872 0.128799 0.564383
Si Si3 0.139985 0.413583 0.425492
Si Si4 0.484322 0.952491 0.567382
Si Si5 0.640367 0.619844 0.936546
Si Si6 0.115243 0.507466 0.072753
Si Si7 0.947906 0.705410 0.434568
Si Si8 0.700736 0.795605 0.564797
O O1 0.297903 0.921682 0.250000
O O2 0.190771 0.885380 0.008404
O O3 0.364453 0.934410 0.960958
O O4 0.180984 0.965004 0.050395
O O5 0.926374 0.126749 0.750000
O O6 0.023249 0.096801 0.495210
O O7 0.961338 0.174656 0.504407
O O8 0.131342 0.395558 0.250000
O O9 0.240494 0.390227 0.507337
O O10 0.173011 0.462300 0.423573
O O11 0.506759 0.956210 0.750000
O O12 0.560960 0.916521 0.496716
O O13 0.500000 0.000000 0.500000
O O14 0.634155 0.619006 0.750000
O O15 0.619782 0.667789 0.998258
O O16 0.110868 0.526414 0.250000
O O17 0.000000 0.500000 0.000000
O O18 0.984807 0.750000 0.500000
O O19 0.955083 0.704607 0.250000
O O20 0.825004 0.695182 0.490279
O O21 0.662810 0.750000 0.500000
O O22 0.691079 0.794455 0.750000
#
# Coordination Sequence:
#
# PCOD8231838 Si02
#       8
#     8   8   8   8   8   8   8   8
#     4  11  23  40  60  84 114 152 196 242 295 351
#     4  10  19  35  56  81 116 152 188 233 286 346
#     4   9  18  32  51  78 112 149 187 229 283 340
#     4  12  26  45  65  87 117 156 206 257 305 361
#     4  11  21  37  62  87 117 157 199 246 300 356
#     4  11  20  33  51  77 112 151 191 235 286 339
#     4  10  20  33  53  83 120 158 196 235 287 350
#     4  10  20  34  54  86 123 159 199 246 299 358
#
# _framework density 19.196134000000001
#
# number of rings (size 3 to 8) (size 9 to 14) (size 15 to 20)
#    0.000    1.500    2.500    3.750    0.000    3.000 
#    0.000    1.875    0.000    0.750    0.000    1.750 
#    0.000    0.000    0.000    0.000    0.000    0.000 
#
# Total GULP energy -793067.288439 kJ/mol
# GULP energy per Si atom -12391.676382 kJ/mol
# Density = 1.915244 g / cm^3
# Si number density = 19.196134 Si / 1000 Ang^3
#
#
#
# Elastic Constant Matrix: (Units=GPa)
#
#
# Indices 1 2 3 4 5 6 
#
# 1 87.8427 54.8537 22.7203 0.0000 0.0000 0.0000
# 2 54.8537 146.8647 37.9375 0.0000 0.0000 0.0000
# 3 22.7203 37.9375 64.9051 0.0000 0.0000 0.0000
# 4 0.0000 0.0000 0.0000 33.2502 0.0000 0.0000
# 5 0.0000 0.0000 0.0000 0.0000 24.2768 0.0000
# 6 0.0000 0.0000 0.0000 0.0000 0.0000 34.0588
#
#
#
# Elastic Compliance Matrix: (Units=1/GPa)
#
#
# Indices 1 2 3 4 5 6 
#
# 1 0.015145 -0.005050 -0.002350 0.000000 0.000000 0.000000
# 2 -0.005050 0.009703 -0.003904 0.000000 0.000000 0.000000
# 3 -0.002350 -0.003904 0.018512 0.000000 0.000000 0.000000
# 4 0.000000 0.000000 0.000000 0.030075 0.000000 0.000000
# 5 0.000000 0.000000 0.000000 0.000000 0.041192 0.000000
# 6 0.000000 0.000000 0.000000 0.000000 0.000000 0.029361
#
#
# Mechanical properties :
#
#
# Convention : Reuss Voigt Hill
#
# Bulk Modulus (GPa) = 48.18645 58.95949 53.57297
# Shear Modulus (GPa) = 28.81628 30.59057 29.70343
#
# Velocity S-wave (km/s) = 3.87867 3.99630 3.93792
# Velocity P-wave (km/s) = 6.72424 7.21629 6.97461
#
# Compressibility (1/GPa) = 0.02075272
#
# Stress axis : x y z
#
# Youngs Moduli (GPa) = 66.02809 103.05565 54.01972
#
# Poissons Ratio (x) = 0.52039 0.12695
# Poissons Ratio (y) = 0.33341 0.21090
# Poissons Ratio (z) = 0.15517 0.40234
#
# Static dielectric constant tensor:
#      x y z
#    x 3.943430 0.000000 0.000000 
#    y 0.000000 2.790040 0.000000 
#    z 0.000000 0.000000 3.481930 
# 
# 
# High freq. dielectric constant tensor:
#      x y z
#    x 1.724090 0.000000 0.000000 
#    y 0.000000 1.751970 0.000000 
#    z 0.000000 0.000000 1.744110 
# 
# From -- ./inp_files/3782.got.cif
#   From: 2010.03.12/outbox.cif.g09.slc.cpg/sg57_2_cif.got.tgz:3782.got - 2010.04.16 15:48:40.
