data_PCOD8231456
_publ_section_title
;
Structure prediction by ZEFSAII (Michael W. Deem and Ramdas Pophale) SiO2 
 PCOD8231456
Probable space group: P B C M
;
_chemical_formula_sum "Si O2"
_cell_formula_units_Z 56
_cell_length_a 30.970511
_cell_length_b 5.105768
_cell_length_c 17.860085
_cell_angle_alpha 90.000000
_cell_angle_beta 90.000000
_cell_angle_gamma 90.000000
_cell_volume 2824.183879
_symmetry_space_group_name_H-M "P B C M"
_symmetry_group_IT_number 57
_symmetry_cell_setting 'orthorhombic'
loop_
_space_group_symop_operation_xyz
x,y,z
-x,-y,1/2+z
x,1/2-y,-z
-x,1/2+y,1/2-z
-x,-y,-z
x,y,1/2-z
-x,1/2+y,z
x,1/2-y,1/2+z
loop_
_atom_site_type_symbol
_atom_site_label
_atom_site_fract_x
_atom_site_fract_y
_atom_site_fract_z
Si Si1 0.527923 0.474165 0.335668
Si Si2 0.602298 0.509485 0.451058
Si Si3 0.116192 0.282962 0.663470
Si Si4 0.170860 0.776969 0.836690
Si Si5 0.974743 0.754262 0.588675
Si Si6 0.693846 0.786562 0.914403
Si Si7 0.260775 0.782443 0.911080
O O1 0.543923 0.451601 0.250000
O O2 0.491657 0.258136 0.352621
O O3 0.568171 0.421007 0.389252
O O4 0.583000 0.750000 0.500000
O O5 0.643874 0.629051 0.408646
O O6 0.614403 0.250000 0.500000
O O7 0.104813 0.324789 0.750000
O O8 0.150213 0.503054 0.637179
O O9 0.072794 0.312417 0.617346
O O10 0.135954 0.000174 0.647413
O O11 0.184681 0.770117 0.750000
O O12 0.212385 0.841682 0.886197
O O13 0.972764 0.750000 0.500000
O O14 0.993169 0.479896 0.618864
O O15 0.706620 0.506730 0.878519
O O16 0.722691 0.010423 0.875017
O O17 0.707518 0.750000 0.000000
O O18 0.263384 0.750000 0.000000
#
# Coordination Sequence:
#
# PCOD8231456 Si02
#       7
#     8   8   8   8   8   8   8
#     4  10  22  39  56  78 113 150 182 226 282 333
#     4  11  21  35  58  84 110 143 185 232 276 323
#     4  10  21  36  54  75 103 138 172 210 256 307
#     4  10  21  36  52  76 107 135 170 217 261 298
#     4  10  21  36  54  78 106 134 167 212 259 302
#     4   9  18  33  52  77 106 134 168 215 264 307
#     4  10  19  33  54  76 101 136 174 207 253 316
#
# _framework density 19.828738000000001
#
# number of rings (size 3 to 8) (size 9 to 14) (size 15 to 20)
#    0.000    2.000    0.000    4.714    0.000    3.429 
#    0.000    1.429    0.000    0.000    0.000    1.000 
#    0.000    0.000    0.000    0.000    0.000    0.000 
#
# Total GULP energy -694308.155465 kJ/mol
# GULP energy per Si atom -12398.359919 kJ/mol
# Density = 1.978361 g / cm^3
# Si number density = 19.828738 Si / 1000 Ang^3
#
#
#
# Elastic Constant Matrix: (Units=GPa)
#
#
# Indices 1 2 3 4 5 6 
#
# 1 110.0693 35.5752 35.7276 0.0000 0.0000 0.0000
# 2 35.5752 116.9502 27.0906 0.0000 0.0000 0.0000
# 3 35.7276 27.0906 26.8838 0.0000 0.0000 0.0000
# 4 0.0000 0.0000 0.0000 17.2593 0.0000 0.0000
# 5 0.0000 0.0000 0.0000 0.0000 -18.0248 0.0000
# 6 0.0000 0.0000 0.0000 0.0000 0.0000 30.8682
#
#
#
# Elastic Compliance Matrix: (Units=1/GPa)
#
#
# Indices 1 2 3 4 5 6 
#
# 1 0.015978 0.000076 -0.021311 0.000000 0.000000 0.000000
# 2 0.000076 0.011155 -0.011342 0.000000 0.000000 0.000000
# 3 -0.021311 -0.011342 0.076947 0.000000 0.000000 0.000000
# 4 0.000000 0.000000 0.000000 0.057940 0.000000 0.000000
# 5 0.000000 0.000000 0.000000 0.000000 -0.055479 0.000000
# 6 0.000000 0.000000 0.000000 0.000000 0.000000 0.032396
#
#
# Mechanical properties :
#
#
# Convention : Reuss Voigt Hill
#
# Bulk Modulus (GPa) = 25.68897 50.07668 37.88282
# Shear Modulus (GPa) = 23.03464 16.38788 19.71126
#
# Velocity S-wave (km/s) = 3.41204 2.87796 3.15632
# Velocity P-wave (km/s) = 5.33912 6.02934 5.69470
#
# Compressibility (1/GPa) = 0.03892722
#
# Stress axis : x y z
#
# Youngs Moduli (GPa) = 62.58658 89.64839 12.99593
#
# Poissons Ratio (x) = -0.00683 0.27695
# Poissons Ratio (y) = -0.00477 0.14740
# Poissons Ratio (z) = 1.33377 1.01676
#
# Static dielectric constant tensor:
#      x y z
#    x 3.388680 0.000000 0.000000 
#    y 0.000000 4.179050 0.000000 
#    z 0.000000 0.000000 3.321830 
# 
# 
# High freq. dielectric constant tensor:
#      x y z
#    x 1.773940 0.000000 0.000000 
#    y 0.000000 1.801830 0.000000 
#    z 0.000000 0.000000 1.736320 
# 
# From -- ./inp_files/19652.got.cif
#   From: 2010.03.12/outbox.cif.g09.slc.cpg/sg57_10_cif.got.tgz:19652.got - 2010.04.16 15:48:40.
