data_PCOD8231940
_publ_section_title
;
Structure prediction by ZEFSAII (Michael W. Deem and Ramdas Pophale) SiO2 
 PCOD8231940
Probable space group: P B C M
;
_chemical_formula_sum "Si O2"
_cell_formula_units_Z 60
_cell_length_a 18.210794
_cell_length_b 8.721884
_cell_length_c 17.434031
_cell_angle_alpha 90.000000
_cell_angle_beta 90.000000
_cell_angle_gamma 90.000000
_cell_volume 2769.089558
_symmetry_space_group_name_H-M "P B C M"
_symmetry_group_IT_number 57
_symmetry_cell_setting 'orthorhombic'
loop_
_space_group_symop_operation_xyz
x,y,z
-x,-y,1/2+z
x,1/2-y,-z
-x,1/2+y,1/2-z
-x,-y,-z
x,y,1/2-z
-x,1/2+y,z
x,1/2-y,1/2+z
loop_
_atom_site_type_symbol
_atom_site_label
_atom_site_fract_x
_atom_site_fract_y
_atom_site_fract_z
Si Si1 0.183267 0.250000 0.500000
Si Si2 0.313696 0.106610 0.909097
Si Si3 0.422088 0.930944 0.479520
Si Si4 0.942403 0.554646 0.838102
Si Si5 0.356073 0.084580 0.341400
Si Si6 0.787842 0.073479 0.665423
Si Si7 0.795278 0.403723 0.661320
Si Si8 0.081175 0.106369 0.382214
O O1 0.236114 0.163212 0.558376
O O2 0.127811 0.128873 0.460072
O O3 0.363106 0.238283 0.868827
O O4 0.284560 0.983544 0.847436
O O5 0.360965 0.024806 0.974163
O O6 0.418129 0.750000 0.500000
O O7 0.500000 0.000000 0.500000
O O8 0.409872 0.969720 0.388763
O O9 0.957015 0.504482 0.750000
O O10 0.865034 0.495519 0.872594
O O11 0.940929 0.736980 0.841554
O O12 0.006493 0.489985 0.893421
O O13 0.372497 0.072501 0.250000
O O14 0.273919 0.038889 0.368838
O O15 0.758748 0.112728 0.750000
O O16 0.792207 0.235935 0.620615
O O17 0.865939 0.991743 0.672551
O O18 0.813069 0.386004 0.750000
#
# Coordination Sequence:
#
# PCOD8231940 Si02
#       8
#     4   8   8   8   8   8   8   8
#     4  12  24  40  66  90 130 172 224 270 338 418
#     4  12  21  44  71 100 137 180 230 276 348 425
#     4  12  26  47  74 105 145 190 229 281 350 427
#     4  11  22  37  58  82 116 160 215 278 347 403
#     4  11  22  41  70 105 139 181 231 289 342 407
#     4  10  19  35  61  91 125 161 215 278 336 394
#     4  10  21  37  61  97 127 168 226 285 339 408
#     4  12  23  39  57  87 122 169 221 278 345 410
#
# _framework density 21.667773
#
# number of rings (size 3 to 8) (size 9 to 14) (size 15 to 20)
#    0.000    0.800    4.000    4.000    0.000    3.733 
#    0.000    4.000    0.000    0.000    0.000    0.000 
#    0.000    0.000    0.000    0.000    0.000    0.000 
#
# Total GULP energy -743595.998108 kJ/mol
# GULP energy per Si atom -12393.266635 kJ/mol
# Density = 2.161846 g / cm^3
# Si number density = 21.667773 Si / 1000 Ang^3
#
#
#
# Elastic Constant Matrix: (Units=GPa)
#
#
# Indices 1 2 3 4 5 6 
#
# 1 102.6191 43.1849 42.2910 0.0000 0.0000 0.0000
# 2 43.1849 156.6222 42.0721 0.0000 0.0000 0.0000
# 3 42.2910 42.0721 89.2506 0.0000 0.0000 0.0000
# 4 0.0000 0.0000 0.0000 29.3588 0.0000 0.0000
# 5 0.0000 0.0000 0.0000 0.0000 24.9338 0.0000
# 6 0.0000 0.0000 0.0000 0.0000 0.0000 36.0621
#
#
#
# Elastic Compliance Matrix: (Units=1/GPa)
#
#
# Indices 1 2 3 4 5 6 
#
# 1 0.012718 -0.002162 -0.005007 0.000000 0.000000 0.000000
# 2 -0.002162 0.007678 -0.002595 0.000000 0.000000 0.000000
# 3 -0.005007 -0.002595 0.014800 0.000000 0.000000 0.000000
# 4 0.000000 0.000000 0.000000 0.034061 0.000000 0.000000
# 5 0.000000 0.000000 0.000000 0.000000 0.040106 0.000000
# 6 0.000000 0.000000 0.000000 0.000000 0.000000 0.027730
#
#
# Mechanical properties :
#
#
# Convention : Reuss Voigt Hill
#
# Bulk Modulus (GPa) = 63.82333 67.06532 65.44432
# Shear Modulus (GPa) = 30.89378 32.80052 31.84715
#
# Velocity S-wave (km/s) = 3.78006 3.89497 3.83795
# Velocity P-wave (km/s) = 6.96931 7.15867 7.06462
#
# Compressibility (1/GPa) = 0.01566825
#
# Stress axis : x y z
#
# Youngs Moduli (GPa) = 78.62816 130.24421 67.56550
#
# Poissons Ratio (x) = 0.28154 0.33833
# Poissons Ratio (y) = 0.16996 0.17534
# Poissons Ratio (z) = 0.39373 0.33799
#
# Static dielectric constant tensor:
#      x y z
#    x 3.854770 0.000000 0.000000 
#    y 0.000000 4.227960 0.000000 
#    z 0.000000 0.000000 3.709570 
# 
# 
# High freq. dielectric constant tensor:
#      x y z
#    x 1.844600 0.000000 0.000000 
#    y 0.000000 1.866070 0.000000 
#    z 0.000000 0.000000 1.834230 
# 
# From -- ./inp_files/22877.got.cif
#   From: 2010.03.12/outbox.cif.g09.slc.cpg/sg57_12_cif.got.tgz:22877.got - 2010.04.16 15:48:40.
