data_PCOD8231667
_publ_section_title
;
Structure prediction by ZEFSAII (Michael W. Deem and Ramdas Pophale) SiO2 
 PCOD8231667
Probable space group: P B C M
;
_chemical_formula_sum "Si O2"
_cell_formula_units_Z 64
_cell_length_a 19.456786
_cell_length_b 20.744040
_cell_length_c 8.721043
_cell_angle_alpha 90.000000
_cell_angle_beta 90.000000
_cell_angle_gamma 90.000000
_cell_volume 3519.920634
_symmetry_space_group_name_H-M "P B C M"
_symmetry_group_IT_number 57
_symmetry_cell_setting 'orthorhombic'
loop_
_space_group_symop_operation_xyz
x,y,z
-x,-y,1/2+z
x,1/2-y,-z
-x,1/2+y,1/2-z
-x,-y,-z
x,y,1/2-z
-x,1/2+y,z
x,1/2-y,1/2+z
loop_
_atom_site_type_symbol
_atom_site_label
_atom_site_fract_x
_atom_site_fract_y
_atom_site_fract_z
Si Si1 0.321013 0.992770 0.074269
Si Si2 0.815748 0.016355 0.428636
Si Si3 0.822675 0.628040 0.569436
Si Si4 0.465187 0.937969 0.073290
Si Si5 0.462386 0.183034 0.069522
Si Si6 0.962613 0.683129 0.568131
Si Si7 0.036277 0.562157 0.070276
Si Si8 0.670974 0.869828 0.070135
O O1 0.314619 0.015451 0.250000
O O2 0.383008 0.942343 0.054779
O O3 0.251030 0.957271 0.019455
O O4 0.336448 0.055032 0.970445
O O5 0.796802 0.014315 0.250000
O O6 0.881944 0.060156 0.460500
O O7 0.831632 0.944640 0.492562
O O8 0.830414 0.625302 0.750000
O O9 0.884774 0.671490 0.504288
O O10 0.747486 0.655156 0.523358
O O11 0.487628 0.934332 0.250000
O O12 0.489386 0.873859 0.989381
O O13 0.500000 0.000000 0.000000
O O14 0.467688 0.186378 0.250000
O O15 0.489348 0.250000 0.000000
O O16 0.383272 0.172414 0.022464
O O17 0.990006 0.750000 0.500000
O O18 0.965585 0.685840 0.750000
O O19 0.011296 0.626412 0.511280
O O20 0.019806 0.563943 0.250000
O O21 0.000000 0.500000 0.000000
O O22 0.657093 0.861355 0.250000
#
# Coordination Sequence:
#
# PCOD8231667 Si02
#       8
#     8   8   8   8   8   8   8   8
#     4  10  20  33  54  86 116 143 184 230 278 332
#     4   9  18  34  55  80 112 146 183 227 281 335
#     4   8  16  32  52  76 109 148 185 225 271 326
#     4  11  22  37  59  86 115 148 187 234 280 332
#     4  12  25  40  57  81 113 151 194 236 284 339
#     4  11  22  38  55  79 113 150 191 234 282 336
#     4  11  21  36  58  85 112 147 189 235 283 333
#     4  10  19  34  55  79 113 152 188 230 278 328
#
# _framework density 18.182227999999999
#
# number of rings (size 3 to 8) (size 9 to 14) (size 15 to 20)
#    0.000    1.750    2.500    3.750    0.000    3.000 
#    0.000    3.125    0.000    0.750    0.000    5.250 
#    0.000    0.000    0.000    0.000    0.000    0.000 
#
# Total GULP energy -793590.054599 kJ/mol
# GULP energy per Si atom -12399.844603 kJ/mol
# Density = 1.814084 g / cm^3
# Si number density = 18.182228 Si / 1000 Ang^3
#
#
#
# Elastic Constant Matrix: (Units=GPa)
#
#
# Indices 1 2 3 4 5 6 
#
# 1 103.7229 56.9580 50.6599 0.0000 0.0000 0.0000
# 2 56.9580 121.5491 52.1528 0.0000 0.0000 0.0000
# 3 50.6599 52.1528 112.2632 0.0000 0.0000 0.0000
# 4 0.0000 0.0000 0.0000 28.8260 0.0000 0.0000
# 5 0.0000 0.0000 0.0000 0.0000 31.3130 0.0000
# 6 0.0000 0.0000 0.0000 0.0000 0.0000 17.4544
#
#
#
# Elastic Compliance Matrix: (Units=1/GPa)
#
#
# Indices 1 2 3 4 5 6 
#
# 1 0.014413 -0.004950 -0.004204 0.000000 0.000000 0.000000
# 2 -0.004950 0.011975 -0.003330 0.000000 0.000000 0.000000
# 3 -0.004204 -0.003330 0.012352 0.000000 0.000000 0.000000
# 4 0.000000 0.000000 0.000000 0.034691 0.000000 0.000000
# 5 0.000000 0.000000 0.000000 0.000000 0.031936 0.000000
# 6 0.000000 0.000000 0.000000 0.000000 0.000000 0.057292
#
#
# Mechanical properties :
#
#
# Convention : Reuss Voigt Hill
#
# Bulk Modulus (GPa) = 72.61061 73.00850 72.80955
# Shear Modulus (GPa) = 26.01234 27.36965 26.69099
#
# Velocity S-wave (km/s) = 3.78649 3.88402 3.83557
# Velocity P-wave (km/s) = 7.69014 7.76886 7.72960
#
# Compressibility (1/GPa) = 0.01377209
#
# Stress axis : x y z
#
# Youngs Moduli (GPa) = 69.38331 83.50579 80.96071
#
# Poissons Ratio (x) = 0.41334 0.34039
# Poissons Ratio (y) = 0.34344 0.26956
# Poissons Ratio (z) = 0.29171 0.27803
#
# Static dielectric constant tensor:
#      x y z
#    x 3.652450 0.000000 0.000000 
#    y 0.000000 3.176490 0.000000 
#    z 0.000000 0.000000 3.348500 
# 
# 
# High freq. dielectric constant tensor:
#      x y z
#    x 1.710850 0.000000 0.000000 
#    y 0.000000 1.677020 0.000000 
#    z 0.000000 0.000000 1.710040 
# 
# From -- ./inp_files/8550.got.cif
#   From: 2010.03.12/outbox.cif.g09.slc.cpg/sg57_5_cif.got.tgz:8550.got - 2010.04.16 15:48:40.
