data_PCOD8231987
_publ_section_title
;
Structure prediction by ZEFSAII (Michael W. Deem and Ramdas Pophale) SiO2 
 PCOD8231987
Probable space group: P B C M
;
_chemical_formula_sum "Si O2"
_cell_formula_units_Z 48
_cell_length_a 29.800780
_cell_length_b 5.303875
_cell_length_c 12.734289
_cell_angle_alpha 90.000000
_cell_angle_beta 90.000000
_cell_angle_gamma 90.000000
_cell_volume 2012.776779
_symmetry_space_group_name_H-M "P B C M"
_symmetry_group_IT_number 57
_symmetry_cell_setting 'orthorhombic'
loop_
_space_group_symop_operation_xyz
x,y,z
-x,-y,1/2+z
x,1/2-y,-z
-x,1/2+y,1/2-z
-x,-y,-z
x,y,1/2-z
-x,1/2+y,z
x,1/2-y,1/2+z
loop_
_atom_site_type_symbol
_atom_site_label
_atom_site_fract_x
_atom_site_fract_y
_atom_site_fract_z
Si Si1 0.601791 0.966667 0.750000
Si Si2 0.729640 0.994957 0.434709
Si Si3 0.339399 0.965251 0.750000
Si Si4 0.829216 0.601858 0.871080
Si Si5 0.023627 0.599925 0.625005
Si Si6 0.518833 0.991692 0.882429
Si Si7 0.873960 0.101677 0.875283
O O1 0.632249 0.211445 0.750000
O O2 0.572049 0.972372 0.858060
O O3 0.630141 0.712505 0.750000
O O4 0.734973 0.250000 0.500000
O O5 0.714904 0.750000 0.500000
O O6 0.691030 0.040921 0.351875
O O7 0.776323 0.934658 0.378538
O O8 0.843571 0.612692 0.750000
O O9 0.856713 0.368831 0.923263
O O10 0.843374 0.872135 0.921790
O O11 0.018619 0.604842 0.750000
O O12 0.074850 0.557653 0.591366
O O13 0.993622 0.369043 0.579367
O O14 0.502680 0.247809 0.826611
O O15 0.500000 0.000000 0.000000
O O16 0.868291 0.111669 0.750000
#
# Coordination Sequence:
#
# PCOD8231987 Si02
#       7
#     4   8   4   8   8   8   8
#     4  12  24  45  74 102 148 190 234 285 346 402
#     4  12  26  48  72 100 138 181 231 284 356 415
#     4  12  28  51  70 110 146 190 236 287 344 426
#     4  10  19  36  60  84 120 162 213 279 332 401
#     4   9  15  23  36  62 110 158 197 255 326 395
#     4  10  21  41  67 103 140 184 235 289 336 389
#     4   9  17  27  48  80 110 159 217 264 331 401
#
# _framework density 23.847652
#
# number of rings (size 3 to 8) (size 9 to 14) (size 15 to 20)
#    0.000    1.667    0.833    4.500    0.000    4.000 
#   18.000    0.000    0.000    0.000    0.000    0.000 
#    0.000   46.667    0.000    0.000    0.000    0.000 
#
# Total GULP energy -595078.632505 kJ/mol
# GULP energy per Si atom -12397.471511 kJ/mol
# Density = 2.379337 g / cm^3
# Si number density = 23.847652 Si / 1000 Ang^3
#
#
#
# Elastic Constant Matrix: (Units=GPa)
#
#
# Indices 1 2 3 4 5 6 
#
# 1 184.1982 106.3119 25.0822 0.0000 0.0000 0.0000
# 2 106.3119 269.2447 45.2385 0.0000 0.0000 0.0000
# 3 25.0822 45.2385 72.5835 0.0000 0.0000 0.0000
# 4 0.0000 0.0000 0.0000 -8.9185 0.0000 0.0000
# 5 0.0000 0.0000 0.0000 0.0000 23.3764 0.0000
# 6 0.0000 0.0000 0.0000 0.0000 0.0000 65.2174
#
#
#
# Elastic Compliance Matrix: (Units=1/GPa)
#
#
# Indices 1 2 3 4 5 6 
#
# 1 0.007071 -0.002660 -0.000786 0.000000 0.000000 0.000000
# 2 -0.002660 0.005149 -0.002290 0.000000 0.000000 0.000000
# 3 -0.000786 -0.002290 0.015476 0.000000 0.000000 0.000000
# 4 0.000000 0.000000 0.000000 -0.112127 0.000000 0.000000
# 5 0.000000 0.000000 0.000000 0.000000 0.042778 0.000000
# 6 0.000000 0.000000 0.000000 0.000000 0.000000 0.015333
#
#
# Mechanical properties :
#
#
# Convention : Reuss Voigt Hill
#
# Bulk Modulus (GPa) = 61.63367 97.69905 79.66636
# Shear Modulus (GPa) = -529.72674 39.22797 -245.24939
#
# Velocity S-wave (km/s) = -14.92018 4.06019 -10.15201
# Velocity P-wave (km/s) = 16.45949 7.93959 10.19504
#
# Compressibility (1/GPa) = 0.01622490
#
# Stress axis : x y z
#
# Youngs Moduli (GPa) = 141.41856 194.20442 64.61600
#
# Poissons Ratio (x) = 0.51660 0.05076
# Poissons Ratio (y) = 0.37619 0.14798
# Poissons Ratio (z) = 0.11110 0.44474
#
# Static dielectric constant tensor:
#      x y z
#    x 4.125280 0.000000 0.000000 
#    y 0.000000 5.832220 0.000000 
#    z 0.000000 0.000000 4.356560 
# 
# 
# High freq. dielectric constant tensor:
#      x y z
#    x 1.932120 0.000000 0.000000 
#    y 0.000000 1.981520 0.000000 
#    z 0.000000 0.000000 1.984650 
# 
# From -- ./inp_files/19588.got.cif
#   From: 2010.03.12/outbox.cif.g09.slc.cpg/sg57_10_cif.got.tgz:19588.got - 2010.04.16 15:48:40.
