data_PCOD8231112
_publ_section_title
;
Structure prediction by ZEFSAII (Michael W. Deem and Ramdas Pophale) SiO2 
 PCOD8231112
Probable space group: P B C M
;
_chemical_formula_sum "Si O2"
_cell_formula_units_Z 48
_cell_length_a 31.346299
_cell_length_b 9.523613
_cell_length_c 8.706202
_cell_angle_alpha 90.000000
_cell_angle_beta 90.000000
_cell_angle_gamma 90.000000
_cell_volume 2599.062663
_symmetry_space_group_name_H-M "P B C M"
_symmetry_group_IT_number 57
_symmetry_cell_setting 'orthorhombic'
loop_
_space_group_symop_operation_xyz
x,y,z
-x,-y,1/2+z
x,1/2-y,-z
-x,1/2+y,1/2-z
-x,-y,-z
x,y,1/2-z
-x,1/2+y,z
x,1/2-y,1/2+z
loop_
_atom_site_type_symbol
_atom_site_label
_atom_site_fract_x
_atom_site_fract_y
_atom_site_fract_z
Si Si1 0.963818 0.597443 0.433060
Si Si2 0.125472 0.400792 0.067954
Si Si3 0.279664 0.404550 0.068118
Si Si4 0.203796 0.596557 0.430619
Si Si5 0.371902 0.400442 0.428815
Si Si6 0.463917 0.404097 0.430824
O O1 0.972540 0.750000 0.500000
O O2 0.965153 0.599289 0.250000
O O3 0.917938 0.542895 0.491054
O O4 0.000000 0.500000 0.500000
O O5 0.119251 0.385801 0.250000
O O6 0.161446 0.512414 0.023112
O O7 0.138646 0.250000 0.000000
O O8 0.274612 0.390295 0.250000
O O9 0.244448 0.511586 0.002202
O O10 0.326579 0.469815 0.020789
O O11 0.272595 0.250000 0.000000
O O12 0.201942 0.750000 0.500000
O O13 0.207931 0.611960 0.250000
O O14 0.373868 0.250000 0.500000
O O15 0.370250 0.376888 0.250000
O O16 0.417139 0.474626 0.471911
O O17 0.468088 0.250000 0.500000
O O18 0.500000 0.500000 0.500000
O O19 0.470520 0.393273 0.250000
#
# Coordination Sequence:
#
# PCOD8231112 Si02
#       6
#     8   8   8   8   8   8
#     4  11  22  38  59  84 112 144 179 219 263 310
#     4  10  20  36  56  80 106 137 177 218 256 303
#     4   9  17  32  53  77 100 128 166 209 252 301
#     4  10  22  36  52  75 106 138 170 208 254 304
#     4   8  15  28  48  71  97 126 163 207 251 297
#     4  10  19  32  50  73 100 133 169 211 257 307
#
# _framework density 18.468195000000001
#
# number of rings (size 3 to 8) (size 9 to 14) (size 15 to 20)
#    0.000    2.333    0.000    4.000    0.000    3.333 
#    0.000    2.500    0.000    2.000    0.000    0.000 
#    0.000    0.000    0.000    0.000    0.000    0.000 
#
# Total GULP energy -594723.808740 kJ/mol
# GULP energy per Si atom -12390.079349 kJ/mol
# Density = 1.842616 g / cm^3
# Si number density = 18.468195 Si / 1000 Ang^3
#
#
#
# Elastic Constant Matrix: (Units=GPa)
#
#
# Indices 1 2 3 4 5 6 
#
# 1 211.1965 103.9351 67.9350 0.0000 0.0000 0.0000
# 2 103.9351 104.8470 41.8308 0.0000 0.0000 0.0000
# 3 67.9350 41.8308 76.7508 0.0000 0.0000 0.0000
# 4 0.0000 0.0000 0.0000 31.0409 0.0000 0.0000
# 5 0.0000 0.0000 0.0000 0.0000 20.9360 0.0000
# 6 0.0000 0.0000 0.0000 0.0000 0.0000 26.6377
#
#
#
# Elastic Compliance Matrix: (Units=1/GPa)
#
#
# Indices 1 2 3 4 5 6 
#
# 1 0.010363 -0.008450 -0.004567 0.000000 0.000000 0.000000
# 2 -0.008450 0.019079 -0.002919 0.000000 0.000000 0.000000
# 3 -0.004567 -0.002919 0.018662 0.000000 0.000000 0.000000
# 4 0.000000 0.000000 0.000000 0.032216 0.000000 0.000000
# 5 0.000000 0.000000 0.000000 0.000000 0.047765 0.000000
# 6 0.000000 0.000000 0.000000 0.000000 0.000000 0.037541
#
#
# Mechanical properties :
#
#
# Convention : Reuss Voigt Hill
#
# Bulk Modulus (GPa) = 61.60610 91.13289 76.36950
# Shear Modulus (GPa) = 24.64184 27.66248 26.15216
#
# Velocity S-wave (km/s) = 3.65675 3.87440 3.76715
# Velocity P-wave (km/s) = 7.15957 8.33472 7.76940
#
# Compressibility (1/GPa) = 0.01623216
#
# Stress axis : x y z
#
# Youngs Moduli (GPa) = 96.50140 52.41322 53.58480
#
# Poissons Ratio (x) = 0.44292 0.24470
# Poissons Ratio (y) = 0.81548 0.15640
# Poissons Ratio (z) = 0.44068 0.15298
#
# Static dielectric constant tensor:
#      x y z
#    x 4.219790 0.000000 0.000000 
#    y 0.000000 3.174130 0.000000 
#    z 0.000000 0.000000 3.469200 
# 
# 
# High freq. dielectric constant tensor:
#      x y z
#    x 1.746860 0.000000 0.000000 
#    y 0.000000 1.684670 0.000000 
#    z 0.000000 0.000000 1.722010 
# 
# From -- ./inp_files/9892.got.cif
#   From: 2010.03.12/outbox.cif.g09.slc.cpg/sg57_5_cif.got.tgz:9892.got - 2010.04.16 15:48:40.
