data_PCOD8231921
_publ_section_title
;
Structure prediction by ZEFSAII (Michael W. Deem and Ramdas Pophale) SiO2 
 PCOD8231921
Probable space group: P B C M
;
_chemical_formula_sum "Si O2"
_cell_formula_units_Z 40
_cell_length_a 7.753014
_cell_length_b 28.810955
_cell_length_c 8.785109
_cell_angle_alpha 90.000000
_cell_angle_beta 90.000000
_cell_angle_gamma 90.000000
_cell_volume 1962.345061
_symmetry_space_group_name_H-M "P B C M"
_symmetry_group_IT_number 57
_symmetry_cell_setting 'orthorhombic'
loop_
_space_group_symop_operation_xyz
x,y,z
-x,-y,1/2+z
x,1/2-y,-z
-x,1/2+y,1/2-z
-x,-y,-z
x,y,1/2-z
-x,1/2+y,z
x,1/2-y,1/2+z
loop_
_atom_site_type_symbol
_atom_site_label
_atom_site_fract_x
_atom_site_fract_y
_atom_site_fract_z
Si Si1 0.521842 0.050212 0.569845
Si Si2 0.191536 0.389721 0.070260
Si Si3 0.685110 0.702505 0.430167
Si Si4 0.290338 0.703165 0.071934
Si Si5 0.839946 0.104103 0.069437
O O1 0.540759 0.046948 0.750000
O O2 0.356040 0.080175 0.521379
O O3 0.691122 0.072950 0.500567
O O4 0.500000 0.000000 0.500000
O O5 0.171983 0.386644 0.250000
O O6 0.204547 0.338739 0.000098
O O7 0.021353 0.413386 0.998583
O O8 0.759168 0.750000 0.500000
O O9 0.708728 0.702629 0.250000
O O10 0.487191 0.696163 0.481717
O O11 0.281038 0.709964 0.250000
O O12 0.185678 0.657825 0.019849
O O13 0.210595 0.750000 0.000000
O O14 0.836620 0.098114 0.250000
#
# Coordination Sequence:
#
# PCOD8231921 Si02
#       5
#     8   8   8   8   8
#     4  11  25  45  69  93 122 159 204 258 317 376
#     4  11  24  41  63  94 127 164 207 253 308 371
#     4  10  19  35  59  89 125 166 210 254 302 360
#     4   9  19  34  57  88 122 162 206 249 298 354
#     4  11  23  41  65  94 127 165 208 256 309 368
#
# _framework density 20.383775
#
# number of rings (size 3 to 8) (size 9 to 14) (size 15 to 20)
#    0.000    1.600    2.000    2.400    0.000    6.400 
#    0.000    2.000    0.000    0.000    0.000    0.000 
#    0.000    0.000    0.000    0.000    0.000    0.000 
#
# Total GULP energy -496167.090834 kJ/mol
# GULP energy per Si atom -12404.177271 kJ/mol
# Density = 2.033738 g / cm^3
# Si number density = 20.383775 Si / 1000 Ang^3
#
#
#
# Elastic Constant Matrix: (Units=GPa)
#
#
# Indices 1 2 3 4 5 6 
#
# 1 137.4430 60.3510 49.5103 0.0000 0.0000 0.0000
# 2 60.3510 130.5231 51.9907 0.0000 0.0000 0.0000
# 3 49.5103 51.9907 77.5796 0.0000 0.0000 0.0000
# 4 0.0000 0.0000 0.0000 38.4546 0.0000 0.0000
# 5 0.0000 0.0000 0.0000 0.0000 32.6908 0.0000
# 6 0.0000 0.0000 0.0000 0.0000 0.0000 3.1162
#
#
#
# Elastic Compliance Matrix: (Units=1/GPa)
#
#
# Indices 1 2 3 4 5 6 
#
# 1 0.010191 -0.002894 -0.004564 0.000000 0.000000 0.000000
# 2 -0.002894 0.011273 -0.005708 0.000000 0.000000 0.000000
# 3 -0.004564 -0.005708 0.019628 0.000000 0.000000 0.000000
# 4 0.000000 0.000000 0.000000 0.026005 0.000000 0.000000
# 5 0.000000 0.000000 0.000000 0.000000 0.030590 0.000000
# 6 0.000000 0.000000 0.000000 0.000000 0.000000 0.320900
#
#
# Mechanical properties :
#
#
# Convention : Reuss Voigt Hill
#
# Bulk Modulus (GPa) = 67.75179 74.36111 71.05645
# Shear Modulus (GPa) = 11.11512 27.09857 19.10684
#
# Velocity S-wave (km/s) = 2.33768 3.65007 3.06495
# Velocity P-wave (km/s) = 6.37155 7.37047 6.88914
#
# Compressibility (1/GPa) = 0.01475976
#
# Stress axis : x y z
#
# Youngs Moduli (GPa) = 98.13014 88.70606 50.94761
#
# Poissons Ratio (x) = 0.25670 0.23253
# Poissons Ratio (y) = 0.28398 0.29081
# Poissons Ratio (z) = 0.44788 0.50633
#
# Static dielectric constant tensor:
#      x y z
#    x 3.815640 0.000000 0.000000 
#    y 0.000000 4.009360 0.000000 
#    z 0.000000 0.000000 3.717610 
# 
# 
# High freq. dielectric constant tensor:
#      x y z
#    x 1.802290 0.000000 0.000000 
#    y 0.000000 1.797330 0.000000 
#    z 0.000000 0.000000 1.803470 
# 
# From -- ./inp_files/1817.got.cif
#   From: 2010.03.12/outbox.cif.g09.slc.cpg/sg57_1_cif.got.tgz:1817.got - 2010.04.16 15:48:40.
