data_PCOD8231526
_publ_section_title
;
Structure prediction by ZEFSAII (Michael W. Deem and Ramdas Pophale) SiO2 
 PCOD8231526
Probable space group: P B C M
;
_chemical_formula_sum "Si O2"
_cell_formula_units_Z 56
_cell_length_a 20.755421
_cell_length_b 15.312625
_cell_length_c 8.701116
_cell_angle_alpha 90.000000
_cell_angle_beta 90.000000
_cell_angle_gamma 90.000000
_cell_volume 2765.388500
_symmetry_space_group_name_H-M "P B C M"
_symmetry_group_IT_number 57
_symmetry_cell_setting 'orthorhombic'
loop_
_space_group_symop_operation_xyz
x,y,z
-x,-y,1/2+z
x,1/2-y,-z
-x,1/2+y,1/2-z
-x,-y,-z
x,y,1/2-z
-x,1/2+y,z
x,1/2-y,1/2+z
loop_
_atom_site_type_symbol
_atom_site_label
_atom_site_fract_x
_atom_site_fract_y
_atom_site_fract_z
Si Si1 0.856438 0.841746 0.931827
Si Si2 0.529763 0.416433 0.427073
Si Si3 0.125065 0.840531 0.074137
Si Si4 0.341564 0.513347 0.931282
Si Si5 0.206690 0.991711 0.930695
Si Si6 0.014390 0.407471 0.425927
Si Si7 0.401537 0.160546 0.930800
O O1 0.853855 0.837686 0.750000
O O2 0.832411 0.750000 0.000000
O O3 0.808256 0.916271 0.989694
O O4 0.929330 0.859693 0.982857
O O5 0.500000 0.500000 0.500000
O O6 0.530911 0.437203 0.250000
O O7 0.605198 0.411179 0.477804
O O8 0.479742 0.338191 0.463532
O O9 0.148839 0.844852 0.250000
O O10 0.048089 0.846483 0.063935
O O11 0.148374 0.750000 0.000000
O O12 0.154695 0.920607 0.981013
O O13 0.327767 0.511008 0.750000
O O14 0.277195 0.540386 0.019639
O O15 0.366122 0.418539 0.984551
O O16 0.202986 0.004286 0.750000
O O17 0.036120 0.421548 0.250000
O O18 0.000000 0.500000 0.500000
O O19 0.386697 0.154559 0.750000
O O20 0.373584 0.250000 0.000000
#
# Coordination Sequence:
#
# PCOD8231526 Si02
#       7
#     8   8   8   8   8   8   8
#     4  12  25  42  63  90 124 161 204 253 308 369
#     4   8  16  31  53  78 106 140 179 225 273 328
#     4  11  24  42  65  92 121 158 202 252 306 362
#     4  10  20  37  59  82 112 152 194 238 292 349
#     4  12  25  42  63  88 121 162 207 254 305 364
#     4  11  22  38  64  94 125 159 200 249 306 364
#     4  10  19  33  54  85 118 149 189 234 286 344
#
# _framework density 20.250319000000001
#
# number of rings (size 3 to 8) (size 9 to 14) (size 15 to 20)
#    0.000    1.429    1.429    4.714    0.000    4.571 
#    0.000    3.571    0.000    1.714    0.000    0.000 
#    0.000    0.000    0.000    0.000    0.000    0.000 
#
# Total GULP energy -694176.213214 kJ/mol
# GULP energy per Si atom -12396.003807 kJ/mol
# Density = 2.020423 g / cm^3
# Si number density = 20.250319 Si / 1000 Ang^3
#
#
#
# Elastic Constant Matrix: (Units=GPa)
#
#
# Indices 1 2 3 4 5 6 
#
# 1 79.6231 -6.7456 28.7481 0.0000 0.0000 0.0000
# 2 -6.7456 66.3839 27.2296 0.0000 0.0000 0.0000
# 3 28.7481 27.2296 130.2374 0.0000 0.0000 0.0000
# 4 0.0000 0.0000 0.0000 31.3403 0.0000 0.0000
# 5 0.0000 0.0000 0.0000 0.0000 33.3442 0.0000
# 6 0.0000 0.0000 0.0000 0.0000 0.0000 1.9307
#
#
#
# Elastic Compliance Matrix: (Units=1/GPa)
#
#
# Indices 1 2 3 4 5 6 
#
# 1 0.014165 0.002977 -0.003749 0.000000 0.000000 0.000000
# 2 0.002977 0.017103 -0.004233 0.000000 0.000000 0.000000
# 3 -0.003749 -0.004233 0.009391 0.000000 0.000000 0.000000
# 4 0.000000 0.000000 0.000000 0.031908 0.000000 0.000000
# 5 0.000000 0.000000 0.000000 0.000000 0.029990 0.000000
# 6 0.000000 0.000000 0.000000 0.000000 0.000000 0.517949
#
#
# Mechanical properties :
#
#
# Convention : Reuss Voigt Hill
#
# Bulk Modulus (GPa) = 32.62771 41.63430 37.13100
# Shear Modulus (GPa) = 7.80357 28.45719 18.13038
#
# Velocity S-wave (km/s) = 1.96518 3.75276 2.99543
# Velocity P-wave (km/s) = 4.61480 6.27551 5.50811
#
# Compressibility (1/GPa) = 0.03064880
#
# Stress axis : x y z
#
# Youngs Moduli (GPa) = 70.59620 58.47026 106.48614
#
# Poissons Ratio (x) = -0.17408 0.39924
# Poissons Ratio (y) = -0.21018 0.45075
# Poissons Ratio (z) = 0.26468 0.24750
#
# Static dielectric constant tensor:
#      x y z
#    x 4.619930 0.000000 0.000000 
#    y 0.000000 3.787190 0.000000 
#    z 0.000000 0.000000 3.832040 
# 
# 
# High freq. dielectric constant tensor:
#      x y z
#    x 1.795430 0.000000 0.000000 
#    y 0.000000 1.776110 0.000000 
#    z 0.000000 0.000000 1.806820 
# 
# From -- ./inp_files/8144.got.cif
#   From: 2010.03.12/outbox.cif.g09.slc.cpg/sg57_5_cif.got.tgz:8144.got - 2010.04.16 15:48:40.
