data_PCOD8231440
_publ_section_title
;
Structure prediction by ZEFSAII (Michael W. Deem and Ramdas Pophale) SiO2 
 PCOD8231440
Probable space group: P B C M
;
_chemical_formula_sum "Si O2"
_cell_formula_units_Z 48
_cell_length_a 9.154995
_cell_length_b 8.897882
_cell_length_c 32.282315
_cell_angle_alpha 90.000000
_cell_angle_beta 90.000000
_cell_angle_gamma 90.000000
_cell_volume 2629.719485
_symmetry_space_group_name_H-M "P B C M"
_symmetry_group_IT_number 57
_symmetry_cell_setting 'orthorhombic'
loop_
_space_group_symop_operation_xyz
x,y,z
-x,-y,1/2+z
x,1/2-y,-z
-x,1/2+y,1/2-z
-x,-y,-z
x,y,1/2-z
-x,1/2+y,z
x,1/2-y,1/2+z
loop_
_atom_site_type_symbol
_atom_site_label
_atom_site_fract_x
_atom_site_fract_y
_atom_site_fract_z
Si Si1 0.408256 0.941092 0.086965
Si Si2 0.851413 0.901721 0.386885
Si Si3 0.345959 0.787470 0.796666
Si Si4 0.661499 0.740877 0.951849
Si Si5 0.587687 0.908962 0.332986
Si Si6 0.159610 0.753895 0.374092
O O1 0.515151 0.854751 0.055623
O O2 0.491166 0.980335 0.129789
O O3 0.270000 0.833601 0.094334
O O4 0.354126 0.093898 0.066879
O O5 0.801710 0.841127 0.431660
O O6 0.734640 0.840258 0.353135
O O7 0.006931 0.837682 0.374679
O O8 0.856154 0.081874 0.387751
O O9 0.300869 0.744341 0.750000
O O10 0.502279 0.717881 0.808307
O O11 0.219100 0.730835 0.827204
O O12 0.367512 0.965098 0.800155
O O13 0.694742 0.750000 0.000000
#
# Coordination Sequence:
#
# PCOD8231440 Si02
#       6
#     8   8   8   8   8   8
#     4  10  19  35  56  79 108 142 177 212 260 320
#     4  10  20  37  55  76 105 144 182 212 261 324
#     4  10  19  33  53  81 107 133 174 224 263 303
#     4  11  21  35  56  84 109 135 175 225 265 305
#     4   9  18  33  55  76 103 140 174 209 259 318
#     4  10  21  37  57  76 105 146 181 214 262 324
#
# _framework density 18.252896
#
# number of rings (size 3 to 8) (size 9 to 14) (size 15 to 20)
#    0.000    2.000    0.000    7.000    0.000    1.333 
#    0.000    8.333    0.000    0.000    0.000    0.000 
#    0.000    0.000    0.000    0.000    0.000    0.000 
#
# Total GULP energy -595286.782581 kJ/mol
# GULP energy per Si atom -12401.807970 kJ/mol
# Density = 1.821135 g / cm^3
# Si number density = 18.252896 Si / 1000 Ang^3
#
#
#
# Elastic Constant Matrix: (Units=GPa)
#
#
# Indices 1 2 3 4 5 6 
#
# 1 123.4497 34.2989 27.2053 0.0000 0.0000 0.0000
# 2 34.2989 81.9556 23.9497 0.0000 0.0000 0.0000
# 3 27.2053 23.9497 92.4804 0.0000 0.0000 0.0000
# 4 0.0000 0.0000 0.0000 17.1839 0.0000 0.0000
# 5 0.0000 0.0000 0.0000 0.0000 15.3066 0.0000
# 6 0.0000 0.0000 0.0000 0.0000 0.0000 31.0527
#
#
#
# Elastic Compliance Matrix: (Units=1/GPa)
#
#
# Indices 1 2 3 4 5 6 
#
# 1 0.009466 -0.003406 -0.001903 0.000000 0.000000 0.000000
# 2 -0.003406 0.014426 -0.002734 0.000000 0.000000 0.000000
# 3 -0.001903 -0.002734 0.012081 0.000000 0.000000 0.000000
# 4 0.000000 0.000000 0.000000 0.058194 0.000000 0.000000
# 5 0.000000 0.000000 0.000000 0.000000 0.065331 0.000000
# 6 0.000000 0.000000 0.000000 0.000000 0.000000 0.032203
#
#
# Mechanical properties :
#
#
# Convention : Reuss Voigt Hill
#
# Bulk Modulus (GPa) = 50.28123 52.08818 51.18471
# Shear Modulus (GPa) = 23.31920 26.87076 25.09498
#
# Velocity S-wave (km/s) = 3.57818 3.84101 3.71192
# Velocity P-wave (km/s) = 6.68415 6.94766 6.81718
#
# Compressibility (1/GPa) = 0.01988814
#
# Stress axis : x y z
#
# Youngs Moduli (GPa) = 105.64173 69.31962 82.77551
#
# Poissons Ratio (x) = 0.23607 0.15750
# Poissons Ratio (y) = 0.35977 0.22631
# Poissons Ratio (z) = 0.20100 0.18952
#
# Static dielectric constant tensor:
#      x y z
#    x 3.425090 0.000000 0.000000 
#    y 0.000000 3.440040 0.000000 
#    z 0.000000 0.000000 3.316700 
# 
# 
# High freq. dielectric constant tensor:
#      x y z
#    x 1.704790 0.000000 0.000000 
#    y 0.000000 1.717970 0.000000 
#    z 0.000000 0.000000 1.695470 
# 
# From -- ./inp_files/29444.got.cif
#   From: 2010.03.12/outbox.cif.g09.slc.cpg/sg57_15_cif.got.tgz:29444.got - 2010.04.16 15:48:40.
