data_PCOD8231380
_publ_section_title
;
Structure prediction by ZEFSAII (Michael W. Deem and Ramdas Pophale) SiO2 
 PCOD8231380
Probable space group: P B C M
;
_chemical_formula_sum "Si O2"
_cell_formula_units_Z 48
_cell_length_a 14.841715
_cell_length_b 20.500809
_cell_length_c 8.654548
_cell_angle_alpha 90.000000
_cell_angle_beta 90.000000
_cell_angle_gamma 90.000000
_cell_volume 2633.294780
_symmetry_space_group_name_H-M "P B C M"
_symmetry_group_IT_number 57
_symmetry_cell_setting 'orthorhombic'
loop_
_space_group_symop_operation_xyz
x,y,z
-x,-y,1/2+z
x,1/2-y,-z
-x,1/2+y,1/2-z
-x,-y,-z
x,y,1/2-z
-x,1/2+y,z
x,1/2-y,1/2+z
loop_
_atom_site_type_symbol
_atom_site_label
_atom_site_fract_x
_atom_site_fract_y
_atom_site_fract_z
Si Si1 0.191072 0.158011 0.425587
Si Si2 0.227488 0.489510 0.923291
Si Si3 0.933633 0.053350 0.430245
Si Si4 0.574777 0.952516 0.933647
Si Si5 0.382952 0.317201 0.067065
Si Si6 0.003612 0.184611 0.567844
O O1 0.194799 0.184855 0.250000
O O2 0.279577 0.180097 0.515247
O O3 0.107254 0.186687 0.516552
O O4 0.179969 0.080507 0.423414
O O5 0.226834 0.518666 0.750000
O O6 0.329360 0.482693 0.985458
O O7 0.170533 0.536040 0.035363
O O8 0.951430 0.056067 0.250000
O O9 0.950825 0.123534 0.501228
O O10 0.000000 0.000000 0.500000
O O11 0.569014 0.947408 0.750000
O O12 0.562890 0.879673 0.001269
O O13 0.500000 0.000000 0.000000
O O14 0.390916 0.317408 0.250000
O O15 0.425646 0.250000 0.000000
O O16 0.957293 0.250000 0.500000
O O17 0.996556 0.183380 0.750000
#
# Coordination Sequence:
#
# PCOD8231380 Si02
#       6
#     8   8   8   8   8   8
#     4  10  19  33  52  77 111 146 184 225 274 333
#     4   9  19  35  56  81 111 145 185 230 275 327
#     4  12  23  36  56  81 111 147 191 233 275 329
#     4  10  21  38  60  86 116 147 186 232 283 338
#     4  11  21  34  53  79 113 149 186 226 279 338
#     4  12  24  37  53  75 108 148 190 235 284 334
#
# _framework density 18.228114000000001
#
# number of rings (size 3 to 8) (size 9 to 14) (size 15 to 20)
#    0.000    1.333    1.667    7.000    0.000    3.333 
#    0.000    0.000    0.000    1.000    0.000    0.000 
#    0.000    0.000    0.000    0.000    0.000    0.000 
#
# Total GULP energy -595290.501455 kJ/mol
# GULP energy per Si atom -12401.885447 kJ/mol
# Density = 1.818663 g / cm^3
# Si number density = 18.228114 Si / 1000 Ang^3
#
#
#
# Elastic Constant Matrix: (Units=GPa)
#
#
# Indices 1 2 3 4 5 6 
#
# 1 70.3774 62.2246 44.1511 0.0000 0.0000 0.0000
# 2 62.2246 154.8521 71.3574 0.0000 0.0000 0.0000
# 3 44.1511 71.3574 159.7190 0.0000 0.0000 0.0000
# 4 0.0000 0.0000 0.0000 34.9253 0.0000 0.0000
# 5 0.0000 0.0000 0.0000 0.0000 27.5966 0.0000
# 6 0.0000 0.0000 0.0000 0.0000 0.0000 21.2066
#
#
#
# Elastic Compliance Matrix: (Units=1/GPa)
#
#
# Indices 1 2 3 4 5 6 
#
# 1 0.022997 -0.007948 -0.002806 0.000000 0.000000 0.000000
# 2 -0.007948 0.010879 -0.002663 0.000000 0.000000 0.000000
# 3 -0.002806 -0.002663 0.008227 0.000000 0.000000 0.000000
# 4 0.000000 0.000000 0.000000 0.028633 0.000000 0.000000
# 5 0.000000 0.000000 0.000000 0.000000 0.036236 0.000000
# 6 0.000000 0.000000 0.000000 0.000000 0.000000 0.047155
#
#
# Mechanical properties :
#
#
# Convention : Reuss Voigt Hill
#
# Bulk Modulus (GPa) = 65.49828 82.26830 73.88329
# Shear Modulus (GPa) = 26.87462 30.56005 28.71734
#
# Velocity S-wave (km/s) = 3.84389 4.09899 3.97349
# Velocity P-wave (km/s) = 7.46400 8.22392 7.85316
#
# Compressibility (1/GPa) = 0.01526758
#
# Stress axis : x y z
#
# Youngs Moduli (GPa) = 43.48486 91.92311 121.55735
#
# Poissons Ratio (x) = 0.73057 0.34111
# Poissons Ratio (y) = 0.34560 0.32374
# Poissons Ratio (z) = 0.12203 0.24482
#
# Static dielectric constant tensor:
#      x y z
#    x 3.275950 0.000000 0.000000 
#    y 0.000000 3.663600 0.000000 
#    z 0.000000 0.000000 3.447910 
# 
# 
# High freq. dielectric constant tensor:
#      x y z
#    x 1.671870 0.000000 0.000000 
#    y 0.000000 1.713670 0.000000 
#    z 0.000000 0.000000 1.723390 
# 
# From -- ./inp_files/4874.got.cif
#   From: 2010.03.12/outbox.cif.g09.slc.cpg/sg57_3_cif.got.tgz:4874.got - 2010.04.16 15:48:40.
