data_PCOD8231546
_publ_section_title
;
Structure prediction by ZEFSAII (Michael W. Deem and Ramdas Pophale) SiO2 
 PCOD8231546
Probable space group: P B C M
;
_chemical_formula_sum "Si O2"
_cell_formula_units_Z 64
_cell_length_a 20.693714
_cell_length_b 5.465782
_cell_length_c 26.970057
_cell_angle_alpha 90.000000
_cell_angle_beta 90.000000
_cell_angle_gamma 90.000000
_cell_volume 3050.511124
_symmetry_space_group_name_H-M "P B C M"
_symmetry_group_IT_number 57
_symmetry_cell_setting 'orthorhombic'
loop_
_space_group_symop_operation_xyz
x,y,z
-x,-y,1/2+z
x,1/2-y,-z
-x,1/2+y,1/2-z
-x,-y,-z
x,y,1/2-z
-x,1/2+y,z
x,1/2-y,1/2+z
loop_
_atom_site_type_symbol
_atom_site_label
_atom_site_fract_x
_atom_site_fract_y
_atom_site_fract_z
Si Si1 0.747997 0.501464 0.478193
Si Si2 0.894053 0.501785 0.982664
Si Si3 0.138308 0.939181 0.626713
Si Si4 0.333411 0.968775 0.694957
Si Si5 0.038324 0.781189 0.192844
Si Si6 0.529999 0.657982 0.692234
Si Si7 0.739196 0.339162 0.372938
Si Si8 0.204008 0.282321 0.695037
O O1 0.716269 0.750000 0.500000
O O2 0.824468 0.502650 0.489227
O O3 0.728772 0.515961 0.419828
O O4 0.716981 0.250000 0.500000
O O5 0.896394 0.518010 0.923480
O O6 0.930735 0.750000 0.000000
O O7 0.929255 0.250000 0.000000
O O8 0.100015 0.725799 0.656082
O O9 0.210328 0.865813 0.608426
O O10 0.145085 0.168406 0.663849
O O11 0.345035 0.849970 0.750000
O O12 0.393099 0.146512 0.682284
O O13 0.327199 0.767674 0.650798
O O14 0.266875 0.112997 0.695568
O O15 0.061071 0.778275 0.250000
O O16 0.998382 0.533289 0.180758
O O17 0.512642 0.663018 0.750000
O O18 0.502911 0.911747 0.668658
O O19 0.775958 0.460963 0.327168
O O20 0.176700 0.325511 0.750000
#
# Coordination Sequence:
#
# PCOD8231546 Si02
#       8
#     8   8   8   8   8   8   8   8
#     4  10  19  34  52  78 110 146 180 225 273 338
#     4  10  19  33  55  84 110 141 177 230 278 335
#     4  11  22  37  60  84 110 151 194 228 289 351
#     4   9  20  34  48  78 120 154 190 238 283 332
#     4  10  24  44  63  84 112 148 193 243 280 325
#     4   9  18  32  52  73 101 152 205 237 270 321
#     4  11  21  33  56  84 115 154 183 232 289 355
#     4  10  21  33  51  81 117 151 183 227 283 349
#
# _framework density 20.980091999999999
#
# number of rings (size 3 to 8) (size 9 to 14) (size 15 to 20)
#    0.000    2.000    2.500    2.250    5.250    1.500 
#    0.000    0.000    0.000    2.250    0.000    0.000 
#    0.000    3.000    0.000    0.000    0.000    0.000 
#
# Total GULP energy -793039.093820 kJ/mol
# GULP energy per Si atom -12391.235841 kJ/mol
# Density = 2.093234 g / cm^3
# Si number density = 20.980092 Si / 1000 Ang^3
#
#
#
# Elastic Constant Matrix: (Units=GPa)
#
#
# Indices 1 2 3 4 5 6 
#
# 1 35.3715 1.5640 6.5623 0.0000 0.0000 0.0000
# 2 1.5640 126.8254 18.8948 0.0000 0.0000 0.0000
# 3 6.5623 18.8948 102.7305 0.0000 0.0000 0.0000
# 4 0.0000 0.0000 0.0000 24.9981 0.0000 0.0000
# 5 0.0000 0.0000 0.0000 0.0000 9.7092 0.0000
# 6 0.0000 0.0000 0.0000 0.0000 0.0000 13.5926
#
#
#
# Elastic Compliance Matrix: (Units=1/GPa)
#
#
# Indices 1 2 3 4 5 6 
#
# 1 0.028611 -0.000083 -0.001812 0.000000 0.000000 0.000000
# 2 -0.000083 0.008107 -0.001486 0.000000 0.000000 0.000000
# 3 -0.001812 -0.001486 0.010123 0.000000 0.000000 0.000000
# 4 0.000000 0.000000 0.000000 0.040003 0.000000 0.000000
# 5 0.000000 0.000000 0.000000 0.000000 0.102995 0.000000
# 6 0.000000 0.000000 0.000000 0.000000 0.000000 0.073570
#
#
# Mechanical properties :
#
#
# Convention : Reuss Voigt Hill
#
# Bulk Modulus (GPa) = 24.95035 35.44107 30.19571
# Shear Modulus (GPa) = 17.63473 25.52040 21.57756
#
# Velocity S-wave (km/s) = 2.90236 3.49149 3.21047
# Velocity P-wave (km/s) = 4.81143 5.76050 5.30722
#
# Compressibility (1/GPa) = 0.04007961
#
# Stress axis : x y z
#
# Youngs Moduli (GPa) = 34.95128 123.34656 98.78237
#
# Poissons Ratio (x) = 0.01022 0.17903
# Poissons Ratio (y) = 0.00289 0.14677
# Poissons Ratio (z) = 0.06335 0.18327
#
# Static dielectric constant tensor:
#      x y z
#    x 3.372310 0.000000 0.000000 
#    y 0.000000 4.350630 0.000000 
#    z 0.000000 0.000000 3.780830 
# 
# 
# High freq. dielectric constant tensor:
#      x y z
#    x 1.767840 0.000000 0.000000 
#    y 0.000000 1.837310 0.000000 
#    z 0.000000 0.000000 1.807450 
# 
# From -- ./inp_files/28930.got.cif
#   From: 2010.03.12/outbox.cif.g09.slc.cpg/sg57_15_cif.got.tgz:28930.got - 2010.04.16 15:48:40.
