data_PCOD8231857
_publ_section_title
;
Structure prediction by ZEFSAII (Michael W. Deem and Ramdas Pophale) SiO2 
 PCOD8231857
Probable space group: P B C M
;
_chemical_formula_sum "Si O2"
_cell_formula_units_Z 64
_cell_length_a 14.764490
_cell_length_b 24.946978
_cell_length_c 8.916577
_cell_angle_alpha 90.000000
_cell_angle_beta 90.000000
_cell_angle_gamma 90.000000
_cell_volume 3284.237521
_symmetry_space_group_name_H-M "P B C M"
_symmetry_group_IT_number 57
_symmetry_cell_setting 'orthorhombic'
loop_
_space_group_symop_operation_xyz
x,y,z
-x,-y,1/2+z
x,1/2-y,-z
-x,1/2+y,1/2-z
-x,-y,-z
x,y,1/2-z
-x,1/2+y,z
x,1/2-y,1/2+z
loop_
_atom_site_type_symbol
_atom_site_label
_atom_site_fract_x
_atom_site_fract_y
_atom_site_fract_z
Si Si1 0.717629 0.482079 0.583095
Si Si2 0.680370 0.804077 0.070517
Si Si3 0.713658 0.193884 0.930756
Si Si4 0.550638 0.453225 0.419561
Si Si5 0.211459 0.092518 0.927828
Si Si6 0.849678 0.390009 0.920164
Si Si7 0.485531 0.665296 0.922168
Si Si8 0.013110 0.058674 0.571275
O O1 0.675982 0.487149 0.750000
O O2 0.651338 0.446925 0.482094
O O3 0.732051 0.541119 0.513030
O O4 0.811506 0.450397 0.587401
O O5 0.682244 0.802082 0.250000
O O6 0.742549 0.853068 0.010280
O O7 0.576473 0.808769 0.008250
O O8 0.721756 0.750000 0.000000
O O9 0.717703 0.193603 0.750000
O O10 0.610612 0.183608 0.993080
O O11 0.746305 0.250000 0.000000
O O12 0.781684 0.149308 0.993282
O O13 0.500000 0.500000 0.500000
O O14 0.558581 0.469995 0.250000
O O15 0.498372 0.397914 0.442531
O O16 0.215747 0.092101 0.750000
O O17 0.108187 0.085041 0.979770
O O18 0.866081 0.368836 0.750000
O O19 0.942491 0.396848 0.011245
O O20 0.479857 0.681532 0.750000
O O21 0.004886 0.052924 0.750000
O O22 0.000000 0.000000 0.500000
#
# Coordination Sequence:
#
# PCOD8231857 Si02
#       8
#     8   8   8   8   8   8   8   8
#     4  10  19  35  57  82 114 150 189 234 290 354
#     4  10  20  38  60  81 111 150 193 239 283 336
#     4  11  22  39  60  87 119 157 200 245 294 350
#     4  11  21  34  51  79 115 155 196 235 290 350
#     4   9  19  37  60  84 115 155 192 230 293 356
#     4  11  22  38  60  88 119 154 195 243 297 354
#     4   9  19  35  57  81 112 152 195 236 284 344
#     4  11  21  37  61  90 120 155 195 241 297 361
#
# _framework density 19.487019
#
# number of rings (size 3 to 8) (size 9 to 14) (size 15 to 20)
#    0.000    1.750    2.500    2.625    0.000    2.500 
#    0.000    5.625    0.000    1.500    0.000    0.000 
#    0.000    0.000    0.000    0.000    0.000    0.000 
#
# Total GULP energy -793299.010548 kJ/mol
# GULP energy per Si atom -12395.297040 kJ/mol
# Density = 1.944267 g / cm^3
# Si number density = 19.487019 Si / 1000 Ang^3
#
#
#
# Elastic Constant Matrix: (Units=GPa)
#
#
# Indices 1 2 3 4 5 6 
#
# 1 108.3639 57.5900 29.3164 0.0000 0.0000 0.0000
# 2 57.5900 102.3954 43.4165 0.0000 0.0000 0.0000
# 3 29.3164 43.4165 75.2994 0.0000 0.0000 0.0000
# 4 0.0000 0.0000 0.0000 32.0035 0.0000 0.0000
# 5 0.0000 0.0000 0.0000 0.0000 23.9800 0.0000
# 6 0.0000 0.0000 0.0000 0.0000 0.0000 23.3211
#
#
#
# Elastic Compliance Matrix: (Units=1/GPa)
#
#
# Indices 1 2 3 4 5 6 
#
# 1 0.013236 -0.006961 -0.001139 0.000000 0.000000 0.000000
# 2 -0.006961 0.016587 -0.006854 0.000000 0.000000 0.000000
# 3 -0.001139 -0.006854 0.017676 0.000000 0.000000 0.000000
# 4 0.000000 0.000000 0.000000 0.031247 0.000000 0.000000
# 5 0.000000 0.000000 0.000000 0.000000 0.041701 0.000000
# 6 0.000000 0.000000 0.000000 0.000000 0.000000 0.042880
#
#
# Mechanical properties :
#
#
# Convention : Reuss Voigt Hill
#
# Bulk Modulus (GPa) = 56.84994 60.74493 58.79744
# Shear Modulus (GPa) = 25.11318 26.24330 25.67824
#
# Velocity S-wave (km/s) = 3.59376 3.67373 3.63397
# Velocity P-wave (km/s) = 6.81592 7.01675 6.91706
#
# Compressibility (1/GPa) = 0.01759017
#
# Stress axis : x y z
#
# Youngs Moduli (GPa) = 75.55202 60.28732 56.57468
#
# Poissons Ratio (x) = 0.41967 0.06447
# Poissons Ratio (y) = 0.52592 0.38775
# Poissons Ratio (z) = 0.08609 0.41320
#
# Static dielectric constant tensor:
#      x y z
#    x 3.134680 0.000000 0.000000 
#    y 0.000000 3.563550 0.000000 
#    z 0.000000 0.000000 3.462160 
# 
# 
# High freq. dielectric constant tensor:
#      x y z
#    x 1.760210 0.000000 0.000000 
#    y 0.000000 1.761200 0.000000 
#    z 0.000000 0.000000 1.738570 
# 
# From -- ./inp_files/5559.got.cif
#   From: 2010.03.12/outbox.cif.g09.slc.cpg/sg57_3_cif.got.tgz:5559.got - 2010.04.16 15:48:40.
