data_PCOD8231266
_publ_section_title
;
Structure prediction by ZEFSAII (Michael W. Deem and Ramdas Pophale) SiO2 
 PCOD8231266
Probable space group: P B C M
;
_chemical_formula_sum "Si O2"
_cell_formula_units_Z 64
_cell_length_a 14.726300
_cell_length_b 24.594374
_cell_length_c 8.943321
_cell_angle_alpha 90.000000
_cell_angle_beta 90.000000
_cell_angle_gamma 90.000000
_cell_volume 3239.128934
_symmetry_space_group_name_H-M "P B C M"
_symmetry_group_IT_number 57
_symmetry_cell_setting 'orthorhombic'
loop_
_space_group_symop_operation_xyz
x,y,z
-x,-y,1/2+z
x,1/2-y,-z
-x,1/2+y,1/2-z
-x,-y,-z
x,y,1/2-z
-x,1/2+y,z
x,1/2-y,1/2+z
loop_
_atom_site_type_symbol
_atom_site_label
_atom_site_fract_x
_atom_site_fract_y
_atom_site_fract_z
Si Si1 0.134434 0.305234 0.572726
Si Si2 0.703539 0.885855 0.925994
Si Si3 0.940417 0.960319 0.089340
Si Si4 0.749625 0.988994 0.425045
Si Si5 0.643006 0.194117 0.922972
Si Si6 0.429842 0.305548 0.422179
Si Si7 0.038611 0.848200 0.417276
Si Si8 0.776953 0.386260 0.572009
O O1 0.174528 0.250000 0.500000
O O2 0.128850 0.298710 0.750000
O O3 0.201494 0.355240 0.528294
O O4 0.030850 0.311287 0.511459
O O5 0.693355 0.886171 0.750000
O O6 0.684649 0.948028 0.984336
O O7 0.619585 0.854360 0.996431
O O8 0.928310 0.988725 0.250000
O O9 0.840737 0.957581 0.022249
O O10 0.986410 0.903476 0.103034
O O11 0.000000 0.000000 0.000000
O O12 0.725584 0.986070 0.250000
O O13 0.758431 0.051353 0.479342
O O14 0.673386 0.195010 0.750000
O O15 0.536601 0.184462 0.939958
O O16 0.673899 0.250000 0.000000
O O17 0.690621 0.145637 0.011519
O O18 0.399696 0.250000 0.500000
O O19 0.400430 0.302697 0.250000
O O20 0.057543 0.823914 0.250000
O O21 0.132806 0.859327 0.502252
O O22 0.785028 0.382376 0.750000
#
# Coordination Sequence:
#
# PCOD8231266 Si02
#       8
#     8   8   8   8   8   8   8   8
#     4  11  24  39  55  80 115 154 196 243 294 349
#     4  11  23  37  59  89 120 156 196 241 293 351
#     4  10  19  32  53  79 109 149 194 240 285 332
#     4  10  21  37  56  83 120 159 198 240 290 345
#     4  10  22  42  67  93 118 149 191 241 295 351
#     4  10  21  39  65  92 119 150 191 242 294 352
#     4  11  22  36  56  81 112 152 195 240 287 341
#     4  11  23  39  61  89 121 157 197 244 294 347
#
# _framework density 19.758398
#
# number of rings (size 3 to 8) (size 9 to 14) (size 15 to 20)
#    0.000    1.500    2.500    2.625    0.000    6.500 
#    0.000    3.125    0.000    0.000    0.000    0.000 
#    0.000    0.000    0.000    0.000    0.000    0.000 
#
# Total GULP energy -793098.784619 kJ/mol
# GULP energy per Si atom -12392.168510 kJ/mol
# Density = 1.971343 g / cm^3
# Si number density = 19.758398 Si / 1000 Ang^3
#
#
#
# Elastic Constant Matrix: (Units=GPa)
#
#
# Indices 1 2 3 4 5 6 
#
# 1 53.6953 33.0568 33.3371 0.0000 0.0000 0.0000
# 2 33.0568 91.2958 52.8541 0.0000 0.0000 0.0000
# 3 33.3371 52.8541 101.2616 0.0000 0.0000 0.0000
# 4 0.0000 0.0000 0.0000 36.0847 0.0000 0.0000
# 5 0.0000 0.0000 0.0000 0.0000 33.6866 0.0000
# 6 0.0000 0.0000 0.0000 0.0000 0.0000 35.2174
#
#
#
# Elastic Compliance Matrix: (Units=1/GPa)
#
#
# Indices 1 2 3 4 5 6 
#
# 1 0.025725 -0.006322 -0.005169 0.000000 0.000000 0.000000
# 2 -0.006322 0.017250 -0.006923 0.000000 0.000000 0.000000
# 3 -0.005169 -0.006923 0.015191 0.000000 0.000000 0.000000
# 4 0.000000 0.000000 0.000000 0.027713 0.000000 0.000000
# 5 0.000000 0.000000 0.000000 0.000000 0.029685 0.000000
# 6 0.000000 0.000000 0.000000 0.000000 0.000000 0.028395
#
#
# Mechanical properties :
#
#
# Convention : Reuss Voigt Hill
#
# Bulk Modulus (GPa) = 46.86459 53.86097 50.36278
# Shear Modulus (GPa) = 26.61001 29.46471 28.03736
#
# Velocity S-wave (km/s) = 3.67382 3.86586 3.77106
# Velocity P-wave (km/s) = 6.46268 6.87353 6.67127
#
# Compressibility (1/GPa) = 0.02133807
#
# Stress axis : x y z
#
# Youngs Moduli (GPa) = 38.87257 57.97048 65.83045
#
# Poissons Ratio (x) = 0.36648 0.34030
# Poissons Ratio (y) = 0.24575 0.45571
# Poissons Ratio (z) = 0.20095 0.40130
#
# Static dielectric constant tensor:
#      x y z
#    x 3.540470 0.000000 0.000000 
#    y 0.000000 3.608910 0.000000 
#    z 0.000000 0.000000 3.899010 
# 
# 
# High freq. dielectric constant tensor:
#      x y z
#    x 1.760290 0.000000 0.000000 
#    y 0.000000 1.774840 0.000000 
#    z 0.000000 0.000000 1.781310 
# 
# From -- ./inp_files/5705.got.cif
#   From: 2010.03.12/outbox.cif.g09.slc.cpg/sg57_3_cif.got.tgz:5705.got - 2010.04.16 15:48:40.
