data_PCOD8231382
_publ_section_title
;
Structure prediction by ZEFSAII (Michael W. Deem and Ramdas Pophale) SiO2 
 PCOD8231382
Probable space group: P B C M
;
_chemical_formula_sum "Si O2"
_cell_formula_units_Z 56
_cell_length_a 16.774613
_cell_length_b 21.342819
_cell_length_c 8.641146
_cell_angle_alpha 90.000000
_cell_angle_beta 90.000000
_cell_angle_gamma 90.000000
_cell_volume 3093.681739
_symmetry_space_group_name_H-M "P B C M"
_symmetry_group_IT_number 57
_symmetry_cell_setting 'orthorhombic'
loop_
_space_group_symop_operation_xyz
x,y,z
-x,-y,1/2+z
x,1/2-y,-z
-x,1/2+y,1/2-z
-x,-y,-z
x,y,1/2-z
-x,1/2+y,z
x,1/2-y,1/2+z
loop_
_atom_site_type_symbol
_atom_site_label
_atom_site_fract_x
_atom_site_fract_y
_atom_site_fract_z
Si Si1 0.040585 0.315833 0.067534
Si Si2 0.803641 0.631510 0.432325
Si Si3 0.528745 0.906076 0.576273
Si Si4 0.210872 0.508828 0.932456
Si Si5 0.644560 0.815971 0.069842
Si Si6 0.383736 0.537678 0.574194
Si Si7 0.045252 0.559490 0.567680
O O1 0.033789 0.311844 0.250000
O O2 0.988392 0.374523 0.002700
O O3 0.008348 0.250000 0.000000
O O4 0.131752 0.325830 0.018389
O O5 0.819512 0.635627 0.250000
O O6 0.809383 0.560465 0.496573
O O7 0.717301 0.657579 0.470710
O O8 0.531177 0.878626 0.750000
O O9 0.567275 0.858860 0.454197
O O10 0.436697 0.916007 0.529286
O O11 0.579105 0.969171 0.567485
O O12 0.222190 0.501895 0.750000
O O13 0.294425 0.535287 0.998858
O O14 0.138800 0.555288 0.977699
O O15 0.667080 0.812285 0.250000
O O16 0.620568 0.750000 0.000000
O O17 0.382364 0.562781 0.750000
O O18 0.033598 0.556202 0.750000
O O19 0.000000 0.500000 0.500000
#
# Coordination Sequence:
#
# PCOD8231382 Si02
#       7
#     8   8   8   8   8   8   8
#     4  11  23  37  54  79 110 147 189 228 274 333
#     4  11  20  35  56  79 110 146 181 221 273 328
#     4  10  19  33  52  78 107 138 177 217 260 314
#     4   9  17  32  55  80 109 141 176 222 276 326
#     4  12  24  37  53  76 109 146 183 221 265 320
#     4   9  17  32  53  77 104 138 174 213 266 318
#     4  10  20  35  56  82 108 141 184 232 281 332
#
# _framework density 18.101410000000001
#
# number of rings (size 3 to 8) (size 9 to 14) (size 15 to 20)
#    0.000    1.714    2.857    3.000    0.000    1.143 
#    0.000    0.714    0.000    0.857    0.000    2.000 
#    0.000    0.000    0.000    0.000    0.000    0.000 
#
# Total GULP energy -694418.883019 kJ/mol
# GULP energy per Si atom -12400.337197 kJ/mol
# Density = 1.806021 g / cm^3
# Si number density = 18.101410 Si / 1000 Ang^3
#
#
#
# Elastic Constant Matrix: (Units=GPa)
#
#
# Indices 1 2 3 4 5 6 
#
# 1 119.6787 51.1493 19.6442 0.0000 0.0000 0.0000
# 2 51.1493 95.1472 24.3853 0.0000 0.0000 0.0000
# 3 19.6442 24.3853 52.8783 0.0000 0.0000 0.0000
# 4 0.0000 0.0000 0.0000 24.4175 0.0000 0.0000
# 5 0.0000 0.0000 0.0000 0.0000 21.1386 0.0000
# 6 0.0000 0.0000 0.0000 0.0000 0.0000 23.4939
#
#
#
# Elastic Compliance Matrix: (Units=1/GPa)
#
#
# Indices 1 2 3 4 5 6 
#
# 1 0.010957 -0.005497 -0.001536 0.000000 0.000000 0.000000
# 2 -0.005497 0.014676 -0.004726 0.000000 0.000000 0.000000
# 3 -0.001536 -0.004726 0.021661 0.000000 0.000000 0.000000
# 4 0.000000 0.000000 0.000000 0.040954 0.000000 0.000000
# 5 0.000000 0.000000 0.000000 0.000000 0.047307 0.000000
# 6 0.000000 0.000000 0.000000 0.000000 0.000000 0.042564
#
#
# Mechanical properties :
#
#
# Convention : Reuss Voigt Hill
#
# Bulk Modulus (GPa) = 42.05621 50.89574 46.47597
# Shear Modulus (GPa) = 23.85923 25.31169 24.58546
#
# Velocity S-wave (km/s) = 3.63449 3.74348 3.68938
# Velocity P-wave (km/s) = 6.39506 6.84565 6.62418
#
# Compressibility (1/GPa) = 0.02377770
#
# Stress axis : x y z
#
# Youngs Moduli (GPa) = 91.26589 68.13760 46.16530
#
# Poissons Ratio (x) = 0.37453 0.07089
# Poissons Ratio (y) = 0.50166 0.21818
# Poissons Ratio (z) = 0.14015 0.32202
#
# Static dielectric constant tensor:
#      x y z
#    x 3.552890 0.000000 0.000000 
#    y 0.000000 3.419690 0.000000 
#    z 0.000000 0.000000 3.262330 
# 
# 
# High freq. dielectric constant tensor:
#      x y z
#    x 1.701050 0.000000 0.000000 
#    y 0.000000 1.684100 0.000000 
#    z 0.000000 0.000000 1.693720 
# 
# From -- ./inp_files/7058.got.cif
#   From: 2010.03.12/outbox.cif.g09.slc.cpg/sg57_4_cif.got.tgz:7058.got - 2010.04.16 15:48:40.
