data_PCOD8231802
_publ_section_title
;
Structure prediction by ZEFSAII (Michael W. Deem and Ramdas Pophale) SiO2 
 PCOD8231802
Probable space group: P B C M
;
_chemical_formula_sum "Si O2"
_cell_formula_units_Z 32
_cell_length_a 17.374418
_cell_length_b 5.184170
_cell_length_c 16.825246
_cell_angle_alpha 90.000000
_cell_angle_beta 90.000000
_cell_angle_gamma 90.000000
_cell_volume 1515.482490
_symmetry_space_group_name_H-M "P B C M"
_symmetry_group_IT_number 57
_symmetry_cell_setting 'orthorhombic'
loop_
_space_group_symop_operation_xyz
x,y,z
-x,-y,1/2+z
x,1/2-y,-z
-x,1/2+y,1/2-z
-x,-y,-z
x,y,1/2-z
-x,1/2+y,z
x,1/2-y,1/2+z
loop_
_atom_site_type_symbol
_atom_site_label
_atom_site_fract_x
_atom_site_fract_y
_atom_site_fract_z
Si Si1 0.211669 0.163093 0.412970
Si Si2 0.967165 0.540163 0.088576
Si Si3 0.543039 0.086094 0.344518
Si Si4 0.282873 0.653611 0.157790
O O1 0.238317 0.250000 0.500000
O O2 0.121832 0.104464 0.410704
O O3 0.230547 0.399925 0.354350
O O4 0.254809 0.900697 0.391021
O O5 0.985699 0.270214 0.132749
O O6 0.000000 0.500000 0.000000
O O7 0.538090 0.085077 0.250000
O O8 0.498073 0.332630 0.379511
O O9 0.631365 0.089189 0.372085
O O10 0.281157 0.730261 0.250000
#
# Coordination Sequence:
#
# PCOD8231802 Si02
#       4
#     8   8   8   8
#     4  12  23  38  65  93 121 160 210 256 299 367
#     4  10  19  34  59  89 109 147 205 265 275 329
#     4   9  17  33  59  85 111 156 212 247 280 354
#     4  11  24  40  61  93 131 159 194 259 322 362
#
# _framework density 21.115385
#
# number of rings (size 3 to 8) (size 9 to 14) (size 15 to 20)
#    0.000    1.500    2.500    4.500    3.500    4.000 
#    0.000    0.000    0.000   30.000    0.000    0.000 
#    0.000    0.000    0.000    0.000    0.000    0.000 
#
# Total GULP energy -396712.839369 kJ/mol
# GULP energy per Si atom -12397.276230 kJ/mol
# Density = 2.106733 g / cm^3
# Si number density = 21.115385 Si / 1000 Ang^3
#
#
#
# Elastic Constant Matrix: (Units=GPa)
#
#
# Indices 1 2 3 4 5 6 
#
# 1 155.5999 77.3938 41.1360 0.0000 0.0000 0.0000
# 2 77.3938 207.7475 18.9305 0.0000 0.0000 0.0000
# 3 41.1360 18.9305 29.1506 0.0000 0.0000 0.0000
# 4 0.0000 0.0000 0.0000 23.9855 0.0000 0.0000
# 5 0.0000 0.0000 0.0000 0.0000 23.8369 0.0000
# 6 0.0000 0.0000 0.0000 0.0000 0.0000 49.9102
#
#
#
# Elastic Compliance Matrix: (Units=1/GPa)
#
#
# Indices 1 2 3 4 5 6 
#
# 1 0.011847 -0.003072 -0.014723 0.000000 0.000000 0.000000
# 2 -0.003072 0.005913 0.000495 0.000000 0.000000 0.000000
# 3 -0.014723 0.000495 0.054760 0.000000 0.000000 0.000000
# 4 0.000000 0.000000 0.000000 0.041692 0.000000 0.000000
# 5 0.000000 0.000000 0.000000 0.000000 0.041952 0.000000
# 6 0.000000 0.000000 0.000000 0.000000 0.000000 0.020036
#
#
# Mechanical properties :
#
#
# Convention : Reuss Voigt Hill
#
# Bulk Modulus (GPa) = 26.37151 74.15761 50.26456
# Shear Modulus (GPa) = 22.37751 36.54904 29.46328
#
# Velocity S-wave (km/s) = 3.25895 4.16495 3.73949
# Velocity P-wave (km/s) = 5.16501 7.63711 6.51931
#
# Compressibility (1/GPa) = 0.03791971
#
# Stress axis : x y z
#
# Youngs Moduli (GPa) = 84.40964 169.12452 18.26164
#
# Poissons Ratio (x) = 0.51953 0.26887
# Poissons Ratio (y) = 0.25929 -0.00904
# Poissons Ratio (z) = 1.24277 -0.08373
#
# Static dielectric constant tensor:
#      x y z
#    x 4.033830 0.000000 0.000000 
#    y 0.000000 3.701290 0.000000 
#    z 0.000000 0.000000 3.419490 
# 
# 
# High freq. dielectric constant tensor:
#      x y z
#    x 1.840850 0.000000 0.000000 
#    y 0.000000 1.863500 0.000000 
#    z 0.000000 0.000000 1.773130 
# 
# From -- ./inp_files/22223.got.cif
#   From: 2010.03.12/outbox.cif.g09.slc.cpg/sg57_12_cif.got.tgz:22223.got - 2010.04.16 15:48:40.
