data_PCOD8231342
_publ_section_title
;
Structure prediction by ZEFSAII (Michael W. Deem and Ramdas Pophale) SiO2 
 PCOD8231342
Probable space group: P B C M
;
_chemical_formula_sum "Si O2"
_cell_formula_units_Z 64
_cell_length_a 17.263227
_cell_length_b 22.444925
_cell_length_c 9.018515
_cell_angle_alpha 90.000000
_cell_angle_beta 90.000000
_cell_angle_gamma 90.000000
_cell_volume 3494.420558
_symmetry_space_group_name_H-M "P B C M"
_symmetry_group_IT_number 57
_symmetry_cell_setting 'orthorhombic'
loop_
_space_group_symop_operation_xyz
x,y,z
-x,-y,1/2+z
x,1/2-y,-z
-x,1/2+y,1/2-z
-x,-y,-z
x,y,1/2-z
-x,1/2+y,z
x,1/2-y,1/2+z
loop_
_atom_site_type_symbol
_atom_site_label
_atom_site_fract_x
_atom_site_fract_y
_atom_site_fract_z
Si Si1 0.353082 0.588020 0.073734
Si Si2 0.744744 0.189842 0.923424
Si Si3 0.083242 0.845216 0.419945
Si Si4 0.077175 0.519655 0.577778
Si Si5 0.817304 0.585227 0.075933
Si Si6 0.329138 0.451055 0.081185
Si Si7 0.928708 0.690364 0.425678
Si Si8 0.500308 0.937220 0.078445
O O1 0.355105 0.595922 0.250000
O O2 0.333587 0.519951 0.025695
O O3 0.290815 0.632224 0.002842
O O4 0.438148 0.604660 0.006279
O O5 0.722490 0.189108 0.750000
O O6 0.837179 0.189605 0.945759
O O7 0.712452 0.250000 0.000000
O O8 0.055034 0.839753 0.250000
O O9 0.099519 0.913475 0.463540
O O10 0.017349 0.819109 0.525289
O O11 0.062447 0.510118 0.750000
O O12 0.147220 0.477839 0.524560
O O13 0.000000 0.500000 0.500000
O O14 0.808863 0.591020 0.250000
O O15 0.873728 0.637252 0.016759
O O16 0.731870 0.588656 0.008652
O O17 0.301872 0.452353 0.250000
O O18 0.410660 0.415466 0.064400
O O19 0.895634 0.750000 0.500000
O O20 0.927510 0.696470 0.250000
O O21 0.476019 0.943330 0.250000
O O22 0.500000 0.000000 0.000000
#
# Coordination Sequence:
#
# PCOD8231342 Si02
#       8
#     8   8   8   8   8   8   8   8
#     4  10  20  35  55  82 112 144 180 217 267 325
#     4  11  23  38  55  77 107 145 186 230 273 320
#     4  10  21  36  56  79 105 138 178 221 270 322
#     4  10  19  33  51  76 106 135 170 215 266 320
#     4  10  21  35  52  77 107 138 175 218 267 319
#     4   9  19  33  53  83 113 140 174 216 266 322
#     4  11  23  38  55  74  99 135 180 225 267 313
#     4   9  17  31  52  81 113 142 173 210 257 315
#
# _framework density 18.314912
#
# number of rings (size 3 to 8) (size 9 to 14) (size 15 to 20)
#    0.000    2.000    1.250    3.375    0.000    7.500 
#    0.000    0.000    0.000    0.750    0.000    1.750 
#    0.000    0.000    0.000    0.000    0.000    0.000 
#
# Total GULP energy -793501.285307 kJ/mol
# GULP energy per Si atom -12398.457583 kJ/mol
# Density = 1.827323 g / cm^3
# Si number density = 18.314912 Si / 1000 Ang^3
#
#
#
# Elastic Constant Matrix: (Units=GPa)
#
#
# Indices 1 2 3 4 5 6 
#
# 1 95.4749 24.1038 42.2968 0.0000 0.0000 0.0000
# 2 24.1038 76.0488 32.7612 0.0000 0.0000 0.0000
# 3 42.2968 32.7612 79.3797 0.0000 0.0000 0.0000
# 4 0.0000 0.0000 0.0000 28.3573 0.0000 0.0000
# 5 0.0000 0.0000 0.0000 0.0000 36.2640 0.0000
# 6 0.0000 0.0000 0.0000 0.0000 0.0000 16.3189
#
#
#
# Elastic Compliance Matrix: (Units=1/GPa)
#
#
# Indices 1 2 3 4 5 6 
#
# 1 0.013845 -0.001472 -0.006770 0.000000 0.000000 0.000000
# 2 -0.001472 0.016149 -0.005881 0.000000 0.000000 0.000000
# 3 -0.006770 -0.005881 0.018632 0.000000 0.000000 0.000000
# 4 0.000000 0.000000 0.000000 0.035264 0.000000 0.000000
# 5 0.000000 0.000000 0.000000 0.000000 0.027576 0.000000
# 6 0.000000 0.000000 0.000000 0.000000 0.000000 0.061278
#
#
# Mechanical properties :
#
#
# Convention : Reuss Voigt Hill
#
# Bulk Modulus (GPa) = 49.06421 49.91409 49.48915
# Shear Modulus (GPa) = 24.06366 26.30414 25.18390
#
# Velocity S-wave (km/s) = 3.62869 3.79385 3.71219
# Velocity P-wave (km/s) = 6.66362 6.81935 6.74193
#
# Compressibility (1/GPa) = 0.02038146
#
# Stress axis : x y z
#
# Youngs Moduli (GPa) = 72.23072 61.92197 53.67149
#
# Poissons Ratio (x) = 0.09114 0.36333
# Poissons Ratio (y) = 0.10631 0.31563
# Poissons Ratio (z) = 0.48897 0.36415
#
# Static dielectric constant tensor:
#      x y z
#    x 3.519830 0.000000 0.000000 
#    y 0.000000 3.326680 0.000000 
#    z 0.000000 0.000000 3.465800 
# 
# 
# High freq. dielectric constant tensor:
#      x y z
#    x 1.710770 0.000000 0.000000 
#    y 0.000000 1.688870 0.000000 
#    z 0.000000 0.000000 1.716100 
# 
# From -- ./inp_files/5537.got.cif
#   From: 2010.03.12/outbox.cif.g09.slc.cpg/sg57_3_cif.got.tgz:5537.got - 2010.04.16 15:48:40.
