data_PCOD8231486
_publ_section_title
;
Structure prediction by ZEFSAII (Michael W. Deem and Ramdas Pophale) SiO2 
 PCOD8231486
Probable space group: P B C M
;
_chemical_formula_sum "Si O2"
_cell_formula_units_Z 56
_cell_length_a 16.504408
_cell_length_b 21.065622
_cell_length_c 9.049051
_cell_angle_alpha 90.000000
_cell_angle_beta 90.000000
_cell_angle_gamma 90.000000
_cell_volume 3146.134419
_symmetry_space_group_name_H-M "P B C M"
_symmetry_group_IT_number 57
_symmetry_cell_setting 'orthorhombic'
loop_
_space_group_symop_operation_xyz
x,y,z
-x,-y,1/2+z
x,1/2-y,-z
-x,1/2+y,1/2-z
-x,-y,-z
x,y,1/2-z
-x,1/2+y,z
x,1/2-y,1/2+z
loop_
_atom_site_type_symbol
_atom_site_label
_atom_site_fract_x
_atom_site_fract_y
_atom_site_fract_z
Si Si1 0.484947 0.588083 0.581402
Si Si2 0.789341 0.375643 0.917781
Si Si3 0.952205 0.557913 0.426003
Si Si4 0.205383 0.021810 0.579468
Si Si5 0.625135 0.530658 0.422428
Si Si6 0.044159 0.815089 0.577025
Si Si7 0.352862 0.684450 0.918962
O O1 0.513381 0.577643 0.750000
O O2 0.562744 0.585467 0.474959
O O3 0.417496 0.535855 0.539195
O O4 0.442647 0.656101 0.558867
O O5 0.762964 0.361504 0.750000
O O6 0.817547 0.447988 0.934818
O O7 0.862987 0.330270 0.965951
O O8 0.713290 0.364756 0.022449
O O9 0.955071 0.548661 0.250000
O O10 0.860361 0.560191 0.484750
O O11 0.000000 0.500000 0.500000
O O12 0.989920 0.625396 0.474282
O O13 0.203190 0.043591 0.750000
O O14 0.293218 0.037114 0.514440
O O15 0.644388 0.538418 0.250000
O O16 0.015864 0.750000 0.500000
O O17 0.034791 0.804699 0.750000
O O18 0.332903 0.696553 0.750000
O O19 0.345660 0.750000 0.000000
#
# Coordination Sequence:
#
# PCOD8231486 Si02
#       7
#     8   8   8   8   8   8   8
#     4   9  19  34  51  75 106 140 179 219 263 318
#     4  10  20  35  53  78 112 147 184 223 270 327
#     4  11  22  38  58  83 114 147 189 234 281 336
#     4  11  21  35  56  83 115 146 181 228 280 329
#     4  10  19  33  54  80 106 137 177 219 270 321
#     4  10  22  39  56  80 111 147 189 231 276 332
#     4  11  22  35  51  76 110 147 186 221 266 324
#
# _framework density 17.799620999999998
#
# number of rings (size 3 to 8) (size 9 to 14) (size 15 to 20)
#    0.000    1.714    2.857    2.143    0.000    5.143 
#    0.000    0.000    0.000    0.857    0.000    6.000 
#    0.000    0.000    0.000    0.000    0.000    0.000 
#
# Total GULP energy -694514.533414 kJ/mol
# GULP energy per Si atom -12402.045240 kJ/mol
# Density = 1.775911 g / cm^3
# Si number density = 17.799621 Si / 1000 Ang^3
#
#
#
# Elastic Constant Matrix: (Units=GPa)
#
#
# Indices 1 2 3 4 5 6 
#
# 1 97.3699 41.4752 51.0865 0.0000 0.0000 0.0000
# 2 41.4752 81.4615 42.7392 0.0000 0.0000 0.0000
# 3 51.0865 42.7392 95.2433 0.0000 0.0000 0.0000
# 4 0.0000 0.0000 0.0000 25.9873 0.0000 0.0000
# 5 0.0000 0.0000 0.0000 0.0000 35.6738 0.0000
# 6 0.0000 0.0000 0.0000 0.0000 0.0000 18.6255
#
#
#
# Elastic Compliance Matrix: (Units=1/GPa)
#
#
# Indices 1 2 3 4 5 6 
#
# 1 0.015518 -0.004622 -0.006249 0.000000 0.000000 0.000000
# 2 -0.004622 0.017432 -0.005343 0.000000 0.000000 0.000000
# 3 -0.006249 -0.005343 0.016249 0.000000 0.000000 0.000000
# 4 0.000000 0.000000 0.000000 0.038480 0.000000 0.000000
# 5 0.000000 0.000000 0.000000 0.000000 0.028032 0.000000
# 6 0.000000 0.000000 0.000000 0.000000 0.000000 0.053690
#
#
# Mechanical properties :
#
#
# Convention : Reuss Voigt Hill
#
# Bulk Modulus (GPa) = 59.63064 60.51961 60.07512
# Shear Modulus (GPa) = 24.10564 25.30892 24.70728
#
# Velocity S-wave (km/s) = 3.68404 3.77487 3.72974
# Velocity P-wave (km/s) = 7.18819 7.28518 7.23685
#
# Compressibility (1/GPa) = 0.01676990
#
# Stress axis : x y z
#
# Youngs Moduli (GPa) = 64.44287 57.36447 61.54142
#
# Poissons Ratio (x) = 0.26513 0.38459
# Poissons Ratio (y) = 0.29785 0.32884
# Poissons Ratio (z) = 0.40272 0.30653
#
# Static dielectric constant tensor:
#      x y z
#    x 3.339960 0.000000 0.000000 
#    y 0.000000 3.179180 0.000000 
#    z 0.000000 0.000000 3.389910 
# 
# 
# High freq. dielectric constant tensor:
#      x y z
#    x 1.688070 0.000000 0.000000 
#    y 0.000000 1.667660 0.000000 
#    z 0.000000 0.000000 1.698130 
# 
# From -- ./inp_files/5157.got.cif
#   From: 2010.03.12/outbox.cif.g09.slc.cpg/sg57_3_cif.got.tgz:5157.got - 2010.04.16 15:48:40.
