data_PCOD8231573
_publ_section_title
;
Structure prediction by ZEFSAII (Michael W. Deem and Ramdas Pophale) SiO2 
 PCOD8231573
Probable space group: P B C M
;
_chemical_formula_sum "Si O2"
_cell_formula_units_Z 48
_cell_length_a 12.285073
_cell_length_b 21.839434
_cell_length_c 8.578449
_cell_angle_alpha 90.000000
_cell_angle_beta 90.000000
_cell_angle_gamma 90.000000
_cell_volume 2301.589640
_symmetry_space_group_name_H-M "P B C M"
_symmetry_group_IT_number 57
_symmetry_cell_setting 'orthorhombic'
loop_
_space_group_symop_operation_xyz
x,y,z
-x,-y,1/2+z
x,1/2-y,-z
-x,1/2+y,1/2-z
-x,-y,-z
x,y,1/2-z
-x,1/2+y,z
x,1/2-y,1/2+z
loop_
_atom_site_type_symbol
_atom_site_label
_atom_site_fract_x
_atom_site_fract_y
_atom_site_fract_z
Si Si1 0.146873 0.841960 0.434732
Si Si2 0.111750 0.523073 0.932940
Si Si3 0.248232 0.412164 0.566333
Si Si4 0.625444 0.186489 0.433441
Si Si5 0.083502 0.311146 0.935577
Si Si6 0.487477 0.069276 0.435292
O O1 0.162702 0.836742 0.250000
O O2 0.248300 0.810711 0.519205
O O3 0.034922 0.811324 0.485936
O O4 0.142626 0.911069 0.498262
O O5 0.096902 0.524977 0.750000
O O6 0.209908 0.479426 0.985183
O O7 0.000000 0.500000 0.000000
O O8 0.245288 0.403902 0.750000
O O9 0.161647 0.364161 0.496561
O O10 0.371048 0.404255 0.506297
O O11 0.571825 0.250000 0.500000
O O12 0.610631 0.188574 0.250000
O O13 0.571751 0.122069 0.496024
O O14 0.071951 0.313146 0.750000
O O15 0.140605 0.250000 0.000000
O O16 0.492759 0.063261 0.250000
O O17 0.500000 0.000000 0.500000
#
# Coordination Sequence:
#
# PCOD8231573 Si02
#       6
#     8   8   8   8   8   8
#     4  11  22  37  60  88 120 156 197 247 300 360
#     4  10  19  33  56  85 116 150 187 232 287 350
#     4   9  19  37  59  83 115 153 186 230 293 352
#     4  11  24  41  63  90 122 163 211 261 311 370
#     4  11  22  37  57  81 116 155 193 238 289 351
#     4  10  22  42  66  92 122 159 204 254 310 367
#
# _framework density 20.855152
#
# number of rings (size 3 to 8) (size 9 to 14) (size 15 to 20)
#    0.000    1.667    1.667    3.000    0.000    4.000 
#    0.000    2.500    0.000    0.000    0.000    0.000 
#    0.000    0.000    0.000    0.000    0.000    0.000 
#
# Total GULP energy -594894.818840 kJ/mol
# GULP energy per Si atom -12393.642059 kJ/mol
# Density = 2.080768 g / cm^3
# Si number density = 20.855152 Si / 1000 Ang^3
#
#
#
# Elastic Constant Matrix: (Units=GPa)
#
#
# Indices 1 2 3 4 5 6 
#
# 1 113.3484 39.9778 11.1995 0.0000 0.0000 0.0000
# 2 39.9778 162.8507 27.3722 0.0000 0.0000 0.0000
# 3 11.1995 27.3722 39.9793 0.0000 0.0000 0.0000
# 4 0.0000 0.0000 0.0000 33.1413 0.0000 0.0000
# 5 0.0000 0.0000 0.0000 0.0000 19.4634 0.0000
# 6 0.0000 0.0000 0.0000 0.0000 0.0000 25.5920
#
#
#
# Elastic Compliance Matrix: (Units=1/GPa)
#
#
# Indices 1 2 3 4 5 6 
#
# 1 0.009712 -0.002177 -0.001230 0.000000 0.000000 0.000000
# 2 -0.002177 0.007427 -0.004475 0.000000 0.000000 0.000000
# 3 -0.001230 -0.004475 0.028421 0.000000 0.000000 0.000000
# 4 0.000000 0.000000 0.000000 0.030174 0.000000 0.000000
# 5 0.000000 0.000000 0.000000 0.000000 0.051378 0.000000
# 6 0.000000 0.000000 0.000000 0.000000 0.000000 0.039075
#
#
# Mechanical properties :
#
#
# Convention : Reuss Voigt Hill
#
# Bulk Modulus (GPa) = 33.56185 52.58638 43.07412
# Shear Modulus (GPa) = 26.05734 31.48126 28.76930
#
# Velocity S-wave (km/s) = 3.53858 3.88947 3.71817
# Velocity P-wave (km/s) = 5.72915 6.74095 6.25554
#
# Compressibility (1/GPa) = 0.02979574
#
# Stress axis : x y z
#
# Youngs Moduli (GPa) = 102.96708 134.63784 35.18464
#
# Poissons Ratio (x) = 0.29316 0.04327
# Poissons Ratio (y) = 0.22420 0.15746
# Poissons Ratio (z) = 0.12663 0.60254
#
# Static dielectric constant tensor:
#      x y z
#    x 3.878320 0.000000 0.000000 
#    y 0.000000 4.291730 0.000000 
#    z 0.000000 0.000000 3.501810 
# 
# 
# High freq. dielectric constant tensor:
#      x y z
#    x 1.814970 0.000000 0.000000 
#    y 0.000000 1.842750 0.000000 
#    z 0.000000 0.000000 1.792690 
# 
# From -- ./inp_files/3125.got.cif
#   From: 2010.03.12/outbox.cif.g09.slc.cpg/sg57_2_cif.got.tgz:3125.got - 2010.04.16 15:48:40.
