data_PCOD8231403
_publ_section_title
;
Structure prediction by ZEFSAII (Michael W. Deem and Ramdas Pophale) SiO2 
 PCOD8231403
Probable space group: P B C M
;
_chemical_formula_sum "Si O2"
_cell_formula_units_Z 64
_cell_length_a 11.883351
_cell_length_b 31.298634
_cell_length_c 9.187700
_cell_angle_alpha 90.000000
_cell_angle_beta 90.000000
_cell_angle_gamma 90.000000
_cell_volume 3417.205642
_symmetry_space_group_name_H-M "P B C M"
_symmetry_group_IT_number 57
_symmetry_cell_setting 'orthorhombic'
loop_
_space_group_symop_operation_xyz
x,y,z
-x,-y,1/2+z
x,1/2-y,-z
-x,1/2+y,1/2-z
-x,-y,-z
x,y,1/2-z
-x,1/2+y,z
x,1/2-y,1/2+z
loop_
_atom_site_type_symbol
_atom_site_label
_atom_site_fract_x
_atom_site_fract_y
_atom_site_fract_z
Si Si1 0.738285 0.208801 0.918789
Si Si2 0.023560 0.545116 0.078553
Si Si3 0.886132 0.629062 0.080917
Si Si4 0.585743 0.368579 0.420577
Si Si5 0.366915 0.386781 0.919717
Si Si6 0.754194 0.441408 0.083269
Si Si7 0.396361 0.018592 0.084287
Si Si8 0.998209 0.293153 0.421370
O O1 0.721653 0.217016 0.750000
O O2 0.666750 0.168966 0.974123
O O3 0.867563 0.200220 0.957813
O O4 0.690850 0.250000 0.000000
O O5 0.031379 0.535978 0.250000
O O6 0.928896 0.580951 0.044199
O O7 0.139784 0.565573 0.020986
O O8 0.000000 0.500000 0.000000
O O9 0.911247 0.638920 0.250000
O O10 0.754040 0.633172 0.045248
O O11 0.942625 0.664705 0.981520
O O12 0.563062 0.367324 0.250000
O O13 0.466077 0.362082 0.497861
O O14 0.648783 0.412250 0.466340
O O15 0.393297 0.384562 0.750000
O O16 0.364705 0.435272 0.977458
O O17 0.788349 0.430126 0.250000
O O18 0.715640 0.490284 0.068349
O O19 0.435453 0.021043 0.250000
O O20 0.500000 0.000000 0.000000
O O21 0.042901 0.250000 0.500000
O O22 0.021674 0.288828 0.250000
#
# Coordination Sequence:
#
# PCOD8231403 Si02
#       8
#     8   8   8   8   8   8   8   8
#     4   9  19  35  56  83 112 139 170 214 270 326
#     4  11  23  38  57  81 113 151 192 239 289 345
#     4  10  22  40  58  80 114 154 193 238 290 339
#     4  10  20  35  55  80 109 141 178 221 269 324
#     4  10  21  36  54  77 109 147 187 230 274 325
#     4  10  20  35  55  79 110 143 179 230 281 328
#     4  10  19  33  53  76 107 146 185 228 274 324
#     4  10  20  37  63  91 116 145 183 230 283 344
#
# _framework density 18.728753000000001
#
# number of rings (size 3 to 8) (size 9 to 14) (size 15 to 20)
#    0.000    2.000    1.250    2.250    0.000    6.500 
#    0.000    1.875    0.000    1.500    0.000    0.000 
#    0.000    0.000    0.000    0.000    0.000    0.000 
#
# Total GULP energy -793651.622308 kJ/mol
# GULP energy per Si atom -12400.806599 kJ/mol
# Density = 1.868613 g / cm^3
# Si number density = 18.728753 Si / 1000 Ang^3
#
#
#
# Elastic Constant Matrix: (Units=GPa)
#
#
# Indices 1 2 3 4 5 6 
#
# 1 101.9198 43.3826 50.8501 0.0000 0.0000 0.0000
# 2 43.3826 117.3218 50.3910 0.0000 0.0000 0.0000
# 3 50.8501 50.3910 72.3892 0.0000 0.0000 0.0000
# 4 0.0000 0.0000 0.0000 33.5411 0.0000 0.0000
# 5 0.0000 0.0000 0.0000 0.0000 32.6277 0.0000
# 6 0.0000 0.0000 0.0000 0.0000 0.0000 26.8898
#
#
#
# Elastic Compliance Matrix: (Units=1/GPa)
#
#
# Indices 1 2 3 4 5 6 
#
# 1 0.015285 -0.001484 -0.009704 0.000000 0.000000 0.000000
# 2 -0.001484 0.012303 -0.007522 0.000000 0.000000 0.000000
# 3 -0.009704 -0.007522 0.025867 0.000000 0.000000 0.000000
# 4 0.000000 0.000000 0.000000 0.029814 0.000000 0.000000
# 5 0.000000 0.000000 0.000000 0.000000 0.030649 0.000000
# 6 0.000000 0.000000 0.000000 0.000000 0.000000 0.037189
#
#
# Mechanical properties :
#
#
# Convention : Reuss Voigt Hill
#
# Bulk Modulus (GPa) = 62.36278 64.54204 63.45241
# Shear Modulus (GPa) = 25.79037 28.41218 27.10128
#
# Velocity S-wave (km/s) = 3.71488 3.89914 3.80813
# Velocity P-wave (km/s) = 7.19518 7.40320 7.29993
#
# Compressibility (1/GPa) = 0.01603521
#
# Stress axis : x y z
#
# Youngs Moduli (GPa) = 65.42454 81.28073 38.65968
#
# Poissons Ratio (x) = 0.12062 0.37515
# Poissons Ratio (y) = 0.09709 0.29079
# Poissons Ratio (z) = 0.63487 0.61138
#
# Static dielectric constant tensor:
#      x y z
#    x 3.546580 0.000000 0.000000 
#    y 0.000000 3.643650 0.000000 
#    z 0.000000 0.000000 3.383360 
# 
# 
# High freq. dielectric constant tensor:
#      x y z
#    x 1.725840 0.000000 0.000000 
#    y 0.000000 1.728090 0.000000 
#    z 0.000000 0.000000 1.722850 
# 
# From -- ./inp_files/3851.got.cif
#   From: 2010.03.12/outbox.cif.g09.slc.cpg/sg57_2_cif.got.tgz:3851.got - 2010.04.16 15:48:40.
