data_PCOD8231390
_publ_section_title
;
Structure prediction by ZEFSAII (Michael W. Deem and Ramdas Pophale) SiO2 
 PCOD8231390
Probable space group: P B C M
;
_chemical_formula_sum "Si O2"
_cell_formula_units_Z 48
_cell_length_a 9.038279
_cell_length_b 32.659309
_cell_length_c 9.081484
_cell_angle_alpha 90.000000
_cell_angle_beta 90.000000
_cell_angle_gamma 90.000000
_cell_volume 2680.708289
_symmetry_space_group_name_H-M "P B C M"
_symmetry_group_IT_number 57
_symmetry_cell_setting 'orthorhombic'
loop_
_space_group_symop_operation_xyz
x,y,z
-x,-y,1/2+z
x,1/2-y,-z
-x,1/2+y,1/2-z
-x,-y,-z
x,y,1/2-z
-x,1/2+y,z
x,1/2-y,1/2+z
loop_
_atom_site_type_symbol
_atom_site_label
_atom_site_fract_x
_atom_site_fract_y
_atom_site_fract_z
Si Si1 0.163330 0.345064 0.584367
Si Si2 0.422192 0.633166 0.921261
Si Si3 0.425585 0.291798 0.918626
Si Si4 0.069369 0.038215 0.080752
Si Si5 0.696058 0.583611 0.581086
Si Si6 0.871730 0.118299 0.085060
O O1 0.196928 0.363088 0.750000
O O2 0.249065 0.301864 0.567483
O O3 0.223558 0.374001 0.456617
O O4 0.984851 0.342854 0.566971
O O5 0.427169 0.645180 0.750000
O O6 0.522266 0.592454 0.950510
O O7 0.477250 0.671734 0.014581
O O8 0.256603 0.621705 0.966400
O O9 0.473107 0.286608 0.750000
O O10 0.461904 0.250000 0.000000
O O11 0.087904 0.026866 0.250000
O O12 0.964803 0.077234 0.054926
O O13 0.234147 0.047229 0.016603
O O14 0.000000 0.000000 0.000000
O O15 0.724725 0.572275 0.750000
O O16 0.804372 0.117679 0.250000
#
# Coordination Sequence:
#
# PCOD8231390 Si02
#       6
#     8   8   8   8   8   8
#     4   8  16  31  50  71  95 127 165 202 242 289
#     4  10  20  33  51  76 103 134 171 206 246 299
#     4  10  19  33  53  75 101 131 165 206 250 295
#     4  10  20  34  53  76 101 130 167 209 254 300
#     4   9  17  30  49  72  98 128 165 205 243 291
#     4   9  18  33  52  74 100 130 164 204 250 298
#
# _framework density 17.905715000000001
#
# number of rings (size 3 to 8) (size 9 to 14) (size 15 to 20)
#    0.000    2.667    0.000    3.000    0.000    6.000 
#    0.000    1.667    0.000    2.000    0.000    0.000 
#    0.000    0.000    0.000    0.000    0.000    0.000 
#
# Total GULP energy -594819.842334 kJ/mol
# GULP energy per Si atom -12392.080049 kJ/mol
# Density = 1.786496 g / cm^3
# Si number density = 17.905715 Si / 1000 Ang^3
#
#
#
# Elastic Constant Matrix: (Units=GPa)
#
#
# Indices 1 2 3 4 5 6 
#
# 1 91.8608 15.0468 43.3198 0.0000 0.0000 0.0000
# 2 15.0468 46.6569 28.3843 0.0000 0.0000 0.0000
# 3 43.3198 28.3843 104.6937 0.0000 0.0000 0.0000
# 4 0.0000 0.0000 0.0000 29.8162 0.0000 0.0000
# 5 0.0000 0.0000 0.0000 0.0000 30.2085 0.0000
# 6 0.0000 0.0000 0.0000 0.0000 0.0000 15.8904
#
#
#
# Elastic Compliance Matrix: (Units=1/GPa)
#
#
# Indices 1 2 3 4 5 6 
#
# 1 0.013577 -0.001151 -0.005306 0.000000 0.000000 0.000000
# 2 -0.001151 0.025764 -0.006509 0.000000 0.000000 0.000000
# 3 -0.005306 -0.006509 0.013512 0.000000 0.000000 0.000000
# 4 0.000000 0.000000 0.000000 0.033539 0.000000 0.000000
# 5 0.000000 0.000000 0.000000 0.000000 0.033103 0.000000
# 6 0.000000 0.000000 0.000000 0.000000 0.000000 0.062931
#
#
# Mechanical properties :
#
#
# Convention : Reuss Voigt Hill
#
# Bulk Modulus (GPa) = 37.14481 46.30148 41.72314
# Shear Modulus (GPa) = 23.00648 25.61371 24.31009
#
# Velocity S-wave (km/s) = 3.58839 3.78627 3.68866
# Velocity P-wave (km/s) = 6.16104 6.71037 6.44157
#
# Compressibility (1/GPa) = 0.02692166
#
# Stress axis : x y z
#
# Youngs Moduli (GPa) = 73.65621 38.81390 74.00965
#
# Poissons Ratio (x) = 0.04466 0.39267
# Poissons Ratio (y) = 0.08475 0.48173
# Poissons Ratio (z) = 0.39080 0.25264
#
# Static dielectric constant tensor:
#      x y z
#    x 3.395230 0.000000 0.000000 
#    y 0.000000 3.091440 0.000000 
#    z 0.000000 0.000000 3.411170 
# 
# 
# High freq. dielectric constant tensor:
#      x y z
#    x 1.687290 0.000000 0.000000 
#    y 0.000000 1.659840 0.000000 
#    z 0.000000 0.000000 1.708080 
# 
# From -- ./inp_files/2005.got.cif
#   From: 2010.03.12/outbox.cif.g09.slc.cpg/sg57_2_cif.got.tgz:2005.got - 2010.04.16 15:48:40.
