data_PCOD8231332
_publ_section_title
;
Structure prediction by ZEFSAII (Michael W. Deem and Ramdas Pophale) SiO2 
 PCOD8231332
Probable space group: P B C M
;
_chemical_formula_sum "Si O2"
_cell_formula_units_Z 64
_cell_length_a 19.732257
_cell_length_b 20.281795
_cell_length_c 8.977178
_cell_angle_alpha 90.000000
_cell_angle_beta 90.000000
_cell_angle_gamma 90.000000
_cell_volume 3592.716830
_symmetry_space_group_name_H-M "P B C M"
_symmetry_group_IT_number 57
_symmetry_cell_setting 'orthorhombic'
loop_
_space_group_symop_operation_xyz
x,y,z
-x,-y,1/2+z
x,1/2-y,-z
-x,1/2+y,1/2-z
-x,-y,-z
x,y,1/2-z
-x,1/2+y,z
x,1/2-y,1/2+z
loop_
_atom_site_type_symbol
_atom_site_label
_atom_site_fract_x
_atom_site_fract_y
_atom_site_fract_z
Si Si1 0.939348 0.682264 0.924655
Si Si2 0.670375 0.468718 0.421549
Si Si3 0.182818 0.937001 0.423953
Si Si4 0.429844 0.318537 0.423235
Si Si5 0.700268 0.899406 0.076487
Si Si6 0.476602 0.565960 0.577625
Si Si7 0.161940 0.415012 0.927096
Si Si8 0.903571 0.317071 0.424253
O O1 0.923852 0.686307 0.750000
O O2 0.017963 0.669669 0.959015
O O3 0.914515 0.750000 0.000000
O O4 0.900558 0.621353 0.997160
O O5 0.675764 0.493032 0.250000
O O6 0.737589 0.426633 0.462069
O O7 0.665473 0.532678 0.525325
O O8 0.604136 0.423751 0.446856
O O9 0.169035 0.934740 0.250000
O O10 0.138981 0.877877 0.495794
O O11 0.159067 0.008857 0.481620
O O12 0.444699 0.250000 0.500000
O O13 0.443209 0.309182 0.250000
O O14 0.353038 0.341253 0.454893
O O15 0.483279 0.371679 0.489432
O O16 0.718831 0.904478 0.250000
O O17 0.767662 0.883171 0.982933
O O18 0.500000 0.500000 0.500000
O O19 0.495275 0.558294 0.750000
O O20 0.157686 0.408023 0.750000
O O21 0.878259 0.250000 0.500000
O O22 0.890095 0.309428 0.250000
#
# Coordination Sequence:
#
# PCOD8231332 Si02
#       8
#     8   8   8   8   8   8   8   8
#     4  10  20  34  52  74 100 135 174 214 258 307
#     4   9  17  31  54  78 101 132 170 208 256 313
#     4   8  16  32  52  76 104 135 168 208 257 310
#     4  10  22  36  50  73 105 138 173 214 259 305
#     4  10  19  33  51  73 103 134 170 215 256 304
#     4  10  19  33  54  79 102 133 175 216 259 310
#     4  10  20  34  53  77 105 137 172 211 259 313
#     4   9  18  34  54  74 101 135 174 214 257 310
#
# _framework density 17.813817
#
# number of rings (size 3 to 8) (size 9 to 14) (size 15 to 20)
#    0.000    2.500    1.250    1.875    0.000    3.000 
#    0.000    5.000    0.000    0.000    0.000    0.000 
#    0.000    0.000    0.000    0.000    0.000    0.000 
#
# Total GULP energy -793536.367801 kJ/mol
# GULP energy per Si atom -12399.005747 kJ/mol
# Density = 1.777327 g / cm^3
# Si number density = 17.813817 Si / 1000 Ang^3
#
#
#
# Elastic Constant Matrix: (Units=GPa)
#
#
# Indices 1 2 3 4 5 6 
#
# 1 106.7515 82.9616 40.7463 0.0000 0.0000 0.0000
# 2 82.9616 141.3952 44.1259 0.0000 0.0000 0.0000
# 3 40.7463 44.1259 56.9898 0.0000 0.0000 0.0000
# 4 0.0000 0.0000 0.0000 28.1454 0.0000 0.0000
# 5 0.0000 0.0000 0.0000 0.0000 21.8189 0.0000
# 6 0.0000 0.0000 0.0000 0.0000 0.0000 29.4398
#
#
#
# Elastic Compliance Matrix: (Units=1/GPa)
#
#
# Indices 1 2 3 4 5 6 
#
# 1 0.018879 -0.009052 -0.006489 0.000000 0.000000 0.000000
# 2 -0.009052 0.013666 -0.004109 0.000000 0.000000 0.000000
# 3 -0.006489 -0.004109 0.025369 0.000000 0.000000 0.000000
# 4 0.000000 0.000000 0.000000 0.035530 0.000000 0.000000
# 5 0.000000 0.000000 0.000000 0.000000 0.045832 0.000000
# 6 0.000000 0.000000 0.000000 0.000000 0.000000 0.033968
#
#
# Mechanical properties :
#
#
# Convention : Reuss Voigt Hill
#
# Bulk Modulus (GPa) = 53.72796 71.20045 62.46420
# Shear Modulus (GPa) = 22.85735 25.03435 23.94585
#
# Velocity S-wave (km/s) = 3.58596 3.75284 3.67035
# Velocity P-wave (km/s) = 6.88272 7.67036 7.28719
#
# Compressibility (1/GPa) = 0.01861228
#
# Stress axis : x y z
#
# Youngs Moduli (GPa) = 52.96840 73.17515 39.41889
#
# Poissons Ratio (x) = 0.66237 0.25581
# Poissons Ratio (y) = 0.47946 0.16198
# Poissons Ratio (z) = 0.34374 0.30070
#
# Static dielectric constant tensor:
#      x y z
#    x 3.526660 0.000000 0.000000 
#    y 0.000000 3.339710 0.000000 
#    z 0.000000 0.000000 3.304210 
# 
# 
# High freq. dielectric constant tensor:
#      x y z
#    x 1.696640 0.000000 0.000000 
#    y 0.000000 1.676380 0.000000 
#    z 0.000000 0.000000 1.680330 
# 
# From -- ./inp_files/7254.got.cif
#   From: 2010.03.12/outbox.cif.g09.slc.cpg/sg57_4_cif.got.tgz:7254.got - 2010.04.16 15:48:40.
