data_PCOD8231592
_publ_section_title
;
Structure prediction by ZEFSAII (Michael W. Deem and Ramdas Pophale) SiO2 
 PCOD8231592
Probable space group: P B C M
;
_chemical_formula_sum "Si O2"
_cell_formula_units_Z 32
_cell_length_a 9.925157
_cell_length_b 19.900396
_cell_length_c 8.759346
_cell_angle_alpha 90.000000
_cell_angle_beta 90.000000
_cell_angle_gamma 90.000000
_cell_volume 1730.098324
_symmetry_space_group_name_H-M "P B C M"
_symmetry_group_IT_number 57
_symmetry_cell_setting 'orthorhombic'
loop_
_space_group_symop_operation_xyz
x,y,z
-x,-y,1/2+z
x,1/2-y,-z
-x,1/2+y,1/2-z
-x,-y,-z
x,y,1/2-z
-x,1/2+y,z
x,1/2-y,1/2+z
loop_
_atom_site_type_symbol
_atom_site_label
_atom_site_fract_x
_atom_site_fract_y
_atom_site_fract_z
Si Si1 0.313385 0.554663 0.926075
Si Si2 0.041615 0.570888 0.429515
Si Si3 0.389595 0.419679 0.424648
Si Si4 0.156635 0.322460 0.426885
O O1 0.272117 0.560811 0.750000
O O2 0.453143 0.593555 0.961971
O O3 0.196126 0.587624 0.027275
O O4 0.329384 0.476091 0.964886
O O5 0.024746 0.566357 0.250000
O O6 0.000000 0.500000 0.500000
O O7 0.950404 0.630023 0.492701
O O8 0.374163 0.445247 0.250000
O O9 0.307354 0.351284 0.451140
O O10 0.150017 0.250000 0.500000
O O11 0.118938 0.317622 0.250000
#
# Coordination Sequence:
#
# PCOD8231592 Si02
#       4
#     8   8   8   8
#     4  10  19  33  57  87 116 148 190 242 290 340
#     4  12  23  37  58  87 118 155 198 246 296 351
#     4   9  19  35  56  83 115 150 191 237 287 346
#     4  11  23  40  60  85 118 156 196 242 294 357
#
# _framework density 18.496061000000001
#
# number of rings (size 3 to 8) (size 9 to 14) (size 15 to 20)
#    0.000    1.500    2.500    3.750    0.000    2.000 
#    0.000    1.250    0.000    3.000    0.000    0.000 
#    0.000    0.000    0.000    0.000    0.000    0.000 
#
# Total GULP energy -396881.693098 kJ/mol
# GULP energy per Si atom -12402.552909 kJ/mol
# Density = 1.845396 g / cm^3
# Si number density = 18.496061 Si / 1000 Ang^3
#
#
#
# Elastic Constant Matrix: (Units=GPa)
#
#
# Indices 1 2 3 4 5 6 
#
# 1 146.1417 73.4133 67.5343 0.0000 0.0000 0.0000
# 2 73.4133 126.0835 63.7106 0.0000 0.0000 0.0000
# 3 67.5343 63.7106 136.8666 0.0000 0.0000 0.0000
# 4 0.0000 0.0000 0.0000 30.2971 0.0000 0.0000
# 5 0.0000 0.0000 0.0000 0.0000 31.7789 0.0000
# 6 0.0000 0.0000 0.0000 0.0000 0.0000 27.5147
#
#
#
# Elastic Compliance Matrix: (Units=1/GPa)
#
#
# Indices 1 2 3 4 5 6 
#
# 1 0.010577 -0.004604 -0.003076 0.000000 0.000000 0.000000
# 2 -0.004604 0.012375 -0.003489 0.000000 0.000000 0.000000
# 3 -0.003076 -0.003489 0.010448 0.000000 0.000000 0.000000
# 4 0.000000 0.000000 0.000000 0.033006 0.000000 0.000000
# 5 0.000000 0.000000 0.000000 0.000000 0.031467 0.000000
# 6 0.000000 0.000000 0.000000 0.000000 0.000000 0.036344
#
#
# Mechanical properties :
#
#
# Convention : Reuss Voigt Hill
#
# Bulk Modulus (GPa) = 90.39427 90.93424 90.66426
# Shear Modulus (GPa) = 31.20264 31.54703 31.37484
#
# Velocity S-wave (km/s) = 4.11175 4.13438 4.12308
# Velocity P-wave (km/s) = 8.45697 8.48891 8.47296
#
# Compressibility (1/GPa) = 0.01106265
#
# Stress axis : x y z
#
# Youngs Moduli (GPa) = 94.54495 80.80830 95.71275
#
# Poissons Ratio (x) = 0.37207 0.29438
# Poissons Ratio (y) = 0.43532 0.33390
# Poissons Ratio (z) = 0.29079 0.28190
#
# Static dielectric constant tensor:
#      x y z
#    x 3.954890 0.000000 0.000000 
#    y 0.000000 3.213880 0.000000 
#    z 0.000000 0.000000 3.579980 
# 
# 
# High freq. dielectric constant tensor:
#      x y z
#    x 1.737430 0.000000 0.000000 
#    y 0.000000 1.681650 0.000000 
#    z 0.000000 0.000000 1.733000 
# 
# From -- ./inp_files/1225.got.cif
#   From: 2010.03.12/outbox.cif.g09.slc.cpg/sg57_1_cif.got.tgz:1225.got - 2010.04.16 15:48:40.
