data_PCOD8231639
_publ_section_title
;
Structure prediction by ZEFSAII (Michael W. Deem and Ramdas Pophale) SiO2 
 PCOD8231639
Probable space group: P B C M
;
_chemical_formula_sum "Si O2"
_cell_formula_units_Z 40
_cell_length_a 13.641380
_cell_length_b 18.298331
_cell_length_c 8.476698
_cell_angle_alpha 90.000000
_cell_angle_beta 90.000000
_cell_angle_gamma 90.000000
_cell_volume 2115.906619
_symmetry_space_group_name_H-M "P B C M"
_symmetry_group_IT_number 57
_symmetry_cell_setting 'orthorhombic'
loop_
_space_group_symop_operation_xyz
x,y,z
-x,-y,1/2+z
x,1/2-y,-z
-x,1/2+y,1/2-z
-x,-y,-z
x,y,1/2-z
-x,1/2+y,z
x,1/2-y,1/2+z
loop_
_atom_site_type_symbol
_atom_site_label
_atom_site_fract_x
_atom_site_fract_y
_atom_site_fract_z
Si Si1 0.599301 0.966764 0.062800
Si Si2 0.801582 0.032300 0.063307
Si Si3 0.312651 0.325390 0.936004
Si Si4 0.886476 0.881241 0.064977
Si Si5 0.912358 0.171867 0.434606
O O1 0.597590 0.957157 0.250000
O O2 0.689541 0.018973 0.009060
O O3 0.610833 0.888228 0.981907
O O4 0.500000 0.000000 0.000000
O O5 0.806175 0.035080 0.250000
O O6 0.843250 0.107984 0.991229
O O7 0.870049 0.964824 0.006878
O O8 0.295437 0.324017 0.750000
O O9 0.358604 0.250000 0.000000
O O10 0.210311 0.335708 0.026437
O O11 0.908571 0.876542 0.250000
O O12 0.975350 0.845158 0.972087
O O13 0.878874 0.250000 0.500000
O O14 0.897793 0.174495 0.250000
#
# Coordination Sequence:
#
# PCOD8231639 Si02
#       5
#     8   8   8   8   8
#     4  10  20  38  60  83 107 138 178 223 272 325
#     4   8  18  35  55  75 102 136 176 220 262 308
#     4  11  21  35  55  82 111 141 175 220 270 320
#     4  10  19  34  54  78 105 138 176 219 264 315
#     4  11  21  34  50  74 106 143 178 214 256 306
#
# _framework density 18.904425
#
# number of rings (size 3 to 8) (size 9 to 14) (size 15 to 20)
#    0.000    2.000    0.000    6.000    0.000    0.000 
#    0.000   12.000    0.000    2.400    0.000    0.000 
#    0.000    0.000    0.000    0.000    0.000    0.000 
#
# Total GULP energy -496010.527045 kJ/mol
# GULP energy per Si atom -12400.263176 kJ/mol
# Density = 1.886140 g / cm^3
# Si number density = 18.904425 Si / 1000 Ang^3
#
#
#
# Elastic Constant Matrix: (Units=GPa)
#
#
# Indices 1 2 3 4 5 6 
#
# 1 77.7585 56.5100 7.3645 0.0000 0.0000 0.0000
# 2 56.5100 160.8859 28.7405 0.0000 0.0000 0.0000
# 3 7.3645 28.7405 56.6078 0.0000 0.0000 0.0000
# 4 0.0000 0.0000 0.0000 29.1216 0.0000 0.0000
# 5 0.0000 0.0000 0.0000 0.0000 24.7546 0.0000
# 6 0.0000 0.0000 0.0000 0.0000 0.0000 20.6496
#
#
#
# Elastic Compliance Matrix: (Units=1/GPa)
#
#
# Indices 1 2 3 4 5 6 
#
# 1 0.017312 -0.006245 0.000918 0.000000 0.000000 0.000000
# 2 -0.006245 0.009088 -0.003802 0.000000 0.000000 0.000000
# 3 0.000918 -0.003802 0.019476 0.000000 0.000000 0.000000
# 4 0.000000 0.000000 0.000000 0.034339 0.000000 0.000000
# 5 0.000000 0.000000 0.000000 0.000000 0.040397 0.000000
# 6 0.000000 0.000000 0.000000 0.000000 0.000000 0.048427
#
#
# Mechanical properties :
#
#
# Convention : Reuss Voigt Hill
#
# Bulk Modulus (GPa) = 36.20609 53.38690 44.79649
# Shear Modulus (GPa) = 25.44518 28.41430 26.92974
#
# Velocity S-wave (km/s) = 3.67275 3.88113 3.77838
# Velocity P-wave (km/s) = 6.09748 6.95600 6.54084
#
# Compressibility (1/GPa) = 0.02761966
#
# Stress axis : x y z
#
# Youngs Moduli (GPa) = 57.76500 110.03417 51.34493
#
# Poissons Ratio (x) = 0.68712 -0.04715
# Poissons Ratio (y) = 0.36072 0.19520
# Poissons Ratio (z) = -0.05304 0.41832
#
# Static dielectric constant tensor:
#      x y z
#    x 3.187710 0.000000 0.000000 
#    y 0.000000 3.929320 0.000000 
#    z 0.000000 0.000000 3.415690 
# 
# 
# High freq. dielectric constant tensor:
#      x y z
#    x 1.714850 0.000000 0.000000 
#    y 0.000000 1.747090 0.000000 
#    z 0.000000 0.000000 1.731480 
# 
# From -- ./inp_files/2685.got.cif
#   From: 2010.03.12/outbox.cif.g09.slc.cpg/sg57_2_cif.got.tgz:2685.got - 2010.04.16 15:48:40.
