data_PCOD8231311
_publ_section_title
;
Structure prediction by ZEFSAII (Michael W. Deem and Ramdas Pophale) SiO2 
 PCOD8231311
Probable space group: P B C M
;
_chemical_formula_sum "Si O2"
_cell_formula_units_Z 64
_cell_length_a 23.244467
_cell_length_b 15.778789
_cell_length_c 9.036665
_cell_angle_alpha 90.000000
_cell_angle_beta 90.000000
_cell_angle_gamma 90.000000
_cell_volume 3314.373467
_symmetry_space_group_name_H-M "P B C M"
_symmetry_group_IT_number 57
_symmetry_cell_setting 'orthorhombic'
loop_
_space_group_symop_operation_xyz
x,y,z
-x,-y,1/2+z
x,1/2-y,-z
-x,1/2+y,1/2-z
-x,-y,-z
x,y,1/2-z
-x,1/2+y,z
x,1/2-y,1/2+z
loop_
_atom_site_type_symbol
_atom_site_label
_atom_site_fract_x
_atom_site_fract_y
_atom_site_fract_z
Si Si1 0.360582 0.999646 0.581545
Si Si2 0.569661 0.668560 0.923253
Si Si3 0.935101 0.094059 0.079421
Si Si4 0.242322 0.504506 0.924919
Si Si5 0.524796 0.081579 0.078006
Si Si6 0.180485 0.335840 0.921525
Si Si7 0.935972 0.579813 0.418948
Si Si8 0.830534 0.334412 0.074667
O O1 0.338645 0.002754 0.750000
O O2 0.390713 0.088303 0.539845
O O3 0.307471 0.983609 0.475269
O O4 0.405836 0.921974 0.559876
O O5 0.562183 0.682714 0.750000
O O6 0.599271 0.750000 0.000000
O O7 0.505722 0.660239 0.996381
O O8 0.916603 0.102407 0.250000
O O9 0.001538 0.121588 0.055902
O O10 0.896172 0.155449 0.980222
O O11 0.926383 0.997318 0.030140
O O12 0.240001 0.503045 0.750000
O O13 0.215556 0.416616 0.986492
O O14 0.205484 0.584461 0.982191
O O15 0.507704 0.080896 0.250000
O O16 0.500000 0.000000 0.000000
O O17 0.194372 0.324558 0.750000
O O18 0.112572 0.350009 0.950404
O O19 0.201052 0.250000 0.000000
O O20 0.929990 0.545449 0.250000
O O21 0.829031 0.324383 0.250000
O O22 0.804095 0.250000 0.000000
#
# Coordination Sequence:
#
# PCOD8231311 Si02
#       8
#     8   8   8   8   8   8   8   8
#     4   9  20  36  56  81 110 143 186 231 273 326
#     4  10  20  34  54  84 118 151 184 227 276 325
#     4  10  19  32  57  87 110 144 185 227 288 350
#     4  10  22  40  60  79 110 153 192 237 292 337
#     4   9  17  32  53  79 109 142 177 217 265 318
#     4  10  21  38  56  79 111 149 189 232 281 336
#     4   9  18  35  55  79 116 149 182 230 283 343
#     4  11  23  41  61  83 111 144 187 241 294 349
#
# _framework density 19.309833000000001
#
# number of rings (size 3 to 8) (size 9 to 14) (size 15 to 20)
#    0.000    2.250    1.250    2.250    0.000    6.500 
#    0.000    4.375    0.000    1.500    0.000    0.000 
#    0.000    0.000    0.000    0.000    0.000    0.000 
#
# Total GULP energy -793468.469535 kJ/mol
# GULP energy per Si atom -12397.944836 kJ/mol
# Density = 1.926588 g / cm^3
# Si number density = 19.309833 Si / 1000 Ang^3
#
#
#
# Elastic Constant Matrix: (Units=GPa)
#
#
# Indices 1 2 3 4 5 6 
#
# 1 94.3807 35.7333 33.6799 0.0000 0.0000 0.0000
# 2 35.7333 94.2685 35.8486 0.0000 0.0000 0.0000
# 3 33.6799 35.8486 71.0796 0.0000 0.0000 0.0000
# 4 0.0000 0.0000 0.0000 34.0420 0.0000 0.0000
# 5 0.0000 0.0000 0.0000 0.0000 32.5611 0.0000
# 6 0.0000 0.0000 0.0000 0.0000 0.0000 15.6708
#
#
#
# Elastic Compliance Matrix: (Units=1/GPa)
#
#
# Indices 1 2 3 4 5 6 
#
# 1 0.013548 -0.003334 -0.004738 0.000000 0.000000 0.000000
# 2 -0.003334 0.013946 -0.005454 0.000000 0.000000 0.000000
# 3 -0.004738 -0.005454 0.019065 0.000000 0.000000 0.000000
# 4 0.000000 0.000000 0.000000 0.029375 0.000000 0.000000
# 5 0.000000 0.000000 0.000000 0.000000 0.030711 0.000000
# 6 0.000000 0.000000 0.000000 0.000000 0.000000 0.063813
#
#
# Mechanical properties :
#
#
# Convention : Reuss Voigt Hill
#
# Bulk Modulus (GPa) = 51.26400 52.25027 51.75713
# Shear Modulus (GPa) = 24.50827 26.75258 25.63043
#
# Velocity S-wave (km/s) = 3.56647 3.72619 3.64720
# Velocity P-wave (km/s) = 6.60040 6.75502 6.67816
#
# Compressibility (1/GPa) = 0.01950687
#
# Stress axis : x y z
#
# Youngs Moduli (GPa) = 73.80916 71.70692 52.45346
#
# Poissons Ratio (x) = 0.23905 0.24854
# Poissons Ratio (y) = 0.24606 0.28607
# Poissons Ratio (z) = 0.34973 0.39107
#
# Static dielectric constant tensor:
#      x y z
#    x 3.595200 0.000000 0.000000 
#    y 0.000000 3.538360 0.000000 
#    z 0.000000 0.000000 3.581430 
# 
# 
# High freq. dielectric constant tensor:
#      x y z
#    x 1.744420 0.000000 0.000000 
#    y 0.000000 1.739000 0.000000 
#    z 0.000000 0.000000 1.753040 
# 
# From -- ./inp_files/9374.got.cif
#   From: 2010.03.12/outbox.cif.g09.slc.cpg/sg57_5_cif.got.tgz:9374.got - 2010.04.16 15:48:40.
