data_PCOD8231321
_publ_section_title
;
Structure prediction by ZEFSAII (Michael W. Deem and Ramdas Pophale) SiO2 
 PCOD8231321
Probable space group: P B C M
;
_chemical_formula_sum "Si O2"
_cell_formula_units_Z 48
_cell_length_a 26.317237
_cell_length_b 5.240834
_cell_length_c 15.739280
_cell_angle_alpha 90.000000
_cell_angle_beta 90.000000
_cell_angle_gamma 90.000000
_cell_volume 2170.828711
_symmetry_space_group_name_H-M "P B C M"
_symmetry_group_IT_number 57
_symmetry_cell_setting 'orthorhombic'
loop_
_space_group_symop_operation_xyz
x,y,z
-x,-y,1/2+z
x,1/2-y,-z
-x,1/2+y,1/2-z
-x,-y,-z
x,y,1/2-z
-x,1/2+y,z
x,1/2-y,1/2+z
loop_
_atom_site_type_symbol
_atom_site_label
_atom_site_fract_x
_atom_site_fract_y
_atom_site_fract_z
Si Si1 0.971899 0.259157 0.601118
Si Si2 0.629896 0.163659 0.349107
Si Si3 0.307497 0.343244 0.651563
Si Si4 0.143369 0.735552 0.101492
Si Si5 0.479186 0.550491 0.405309
Si Si6 0.804525 0.766789 0.597106
O O1 0.973486 0.250000 0.500000
O O2 0.914333 0.289096 0.633463
O O3 0.003834 0.498429 0.636966
O O4 0.615619 0.192265 0.250000
O O5 0.661269 0.410222 0.381458
O O6 0.661407 0.910657 0.366762
O O7 0.579091 0.137870 0.404520
O O8 0.294516 0.378205 0.750000
O O9 0.255402 0.312821 0.601464
O O10 0.176320 0.498320 0.138999
O O11 0.167057 0.994073 0.140708
O O12 0.146652 0.750000 0.000000
O O13 0.500000 0.500000 0.500000
O O14 0.511759 0.777329 0.359014
O O15 0.821489 0.750000 0.500000
#
# Coordination Sequence:
#
# PCOD8231321 Si02
#       6
#     8   8   8   8   8   8
#     4   9  15  23  37  61  93 133 174 208 258 312
#     4  10  21  38  59  80 106 140 175 214 265 310
#     4  10  21  38  57  80 107 136 176 225 262 308
#     4   9  17  28  45  66 103 138 170 219 261 317
#     4  10  21  38  56  81 112 138 171 210 257 304
#     4  10  19  33  49  74 102 136 174 207 270 319
#
# _framework density 22.111371999999999
#
# number of rings (size 3 to 8) (size 9 to 14) (size 15 to 20)
#    0.000    2.333    0.000    3.000    0.000    4.667 
#    9.000    0.000    0.000    0.000    0.000    0.000 
#    0.000   13.333    0.000    0.000    0.000    0.000 
#
# Total GULP energy -595008.856119 kJ/mol
# GULP energy per Si atom -12396.017836 kJ/mol
# Density = 2.206105 g / cm^3
# Si number density = 22.111372 Si / 1000 Ang^3
#
#
#
# Elastic Constant Matrix: (Units=GPa)
#
#
# Indices 1 2 3 4 5 6 
#
# 1 182.7411 101.4622 16.3716 0.0000 0.0000 0.0000
# 2 101.4622 247.0246 15.0957 0.0000 0.0000 0.0000
# 3 16.3716 15.0957 17.1500 0.0000 0.0000 0.0000
# 4 0.0000 0.0000 0.0000 2.7053 0.0000 0.0000
# 5 0.0000 0.0000 0.0000 0.0000 -8.2445 0.0000
# 6 0.0000 0.0000 0.0000 0.0000 0.0000 50.1708
#
#
#
# Elastic Compliance Matrix: (Units=1/GPa)
#
#
# Indices 1 2 3 4 5 6 
#
# 1 0.007424 -0.002765 -0.004654 0.000000 0.000000 0.000000
# 2 -0.002765 0.005308 -0.002033 0.000000 0.000000 0.000000
# 3 -0.004654 -0.002033 0.064541 0.000000 0.000000 0.000000
# 4 0.000000 0.000000 0.000000 0.369638 0.000000 0.000000
# 5 0.000000 0.000000 0.000000 0.000000 -0.121293 0.000000
# 6 0.000000 0.000000 0.000000 0.000000 0.000000 0.019932
#
#
# Mechanical properties :
#
#
# Convention : Reuss Voigt Hill
#
# Bulk Modulus (GPa) = 17.13198 79.19719 48.16458
# Shear Modulus (GPa) = 13.02391 29.85875 21.44133
#
# Velocity S-wave (km/s) = 2.42959 3.67874 3.11737
# Velocity P-wave (km/s) = 3.95417 7.34434 5.89808
#
# Compressibility (1/GPa) = 0.05837038
#
# Stress axis : x y z
#
# Youngs Moduli (GPa) = 134.69149 188.39054 15.49415
#
# Poissons Ratio (x) = 0.52092 0.07210
# Poissons Ratio (y) = 0.37243 0.03149
# Poissons Ratio (z) = 0.62679 0.38294
#
# Static dielectric constant tensor:
#      x y z
#    x 4.003820 0.000000 0.000000 
#    y 0.000000 -2.153640 0.000000 
#    z 0.000000 0.000000 3.327670 
# 
# 
# High freq. dielectric constant tensor:
#      x y z
#    x 1.876310 0.000000 0.000000 
#    y 0.000000 1.903030 0.000000 
#    z 0.000000 0.000000 1.811920 
# 
# From -- ./inp_files/25704.got.cif
#   From: 2010.03.12/outbox.cif.g09.slc.cpg/sg57_13_cif.got.tgz:25704.got - 2010.04.16 15:48:40.
