data_PCOD8231994
_publ_section_title
;
Structure prediction by ZEFSAII (Michael W. Deem and Ramdas Pophale) SiO2 
 PCOD8231994
Probable space group: P B C M
;
_chemical_formula_sum "Si O2"
_cell_formula_units_Z 32
_cell_length_a 8.105443
_cell_length_b 10.016381
_cell_length_c 18.999393
_cell_angle_alpha 90.000000
_cell_angle_beta 90.000000
_cell_angle_gamma 90.000000
_cell_volume 1542.507619
_symmetry_space_group_name_H-M "P B C M"
_symmetry_group_IT_number 57
_symmetry_cell_setting 'orthorhombic'
loop_
_space_group_symop_operation_xyz
x,y,z
-x,-y,1/2+z
x,1/2-y,-z
-x,1/2+y,1/2-z
-x,-y,-z
x,y,1/2-z
-x,1/2+y,z
x,1/2-y,1/2+z
loop_
_atom_site_type_symbol
_atom_site_label
_atom_site_fract_x
_atom_site_fract_y
_atom_site_fract_z
Si Si1 0.504486 0.400311 0.902174
Si Si2 0.076635 0.152835 0.940370
Si Si3 0.657945 0.655033 0.667429
Si Si4 0.749362 0.433522 0.018591
O O1 0.474337 0.263770 0.860058
O O2 0.596515 0.507589 0.852919
O O3 0.331858 0.464275 0.926633
O O4 0.609024 0.359744 0.972136
O O5 0.161755 0.186914 0.865817
O O6 0.874961 0.163314 0.937423
O O7 0.149103 0.250000 0.000000
O O8 0.133958 0.004649 0.961073
O O9 0.677290 0.668136 0.750000
#
# Coordination Sequence:
#
# PCOD8231994 Si02
#       4
#     8   8   8   8
#     4  10  21  38  64  91 118 159 203 257 301 358
#     4  10  19  36  60  86 117 156 198 252 298 357
#     4  11  23  40  59  88 128 163 199 247 311 373
#     4   9  20  34  62  92 114 150 206 256 300 350
#
# _framework density 20.745439000000001
#
# number of rings (size 3 to 8) (size 9 to 14) (size 15 to 20)
#    0.000    2.000    2.500    0.750    3.500    0.000 
#    0.000    2.500    0.000    0.000    0.000    0.000 
#    0.000    0.000    0.000    0.000    0.000    0.000 
#
# Total GULP energy -396588.160102 kJ/mol
# GULP energy per Si atom -12393.380003 kJ/mol
# Density = 2.069822 g / cm^3
# Si number density = 20.745439 Si / 1000 Ang^3
#
#
#
# Elastic Constant Matrix: (Units=GPa)
#
#
# Indices 1 2 3 4 5 6 
#
# 1 114.0591 27.7101 44.3350 0.0000 0.0000 0.0000
# 2 27.7101 81.4316 29.6199 0.0000 0.0000 0.0000
# 3 44.3350 29.6199 96.4955 0.0000 0.0000 0.0000
# 4 0.0000 0.0000 0.0000 28.3857 0.0000 0.0000
# 5 0.0000 0.0000 0.0000 0.0000 19.8527 0.0000
# 6 0.0000 0.0000 0.0000 0.0000 0.0000 30.0278
#
#
#
# Elastic Compliance Matrix: (Units=1/GPa)
#
#
# Indices 1 2 3 4 5 6 
#
# 1 0.010996 -0.002144 -0.004394 0.000000 0.000000 0.000000
# 2 -0.002144 0.014242 -0.003387 0.000000 0.000000 0.000000
# 3 -0.004394 -0.003387 0.013422 0.000000 0.000000 0.000000
# 4 0.000000 0.000000 0.000000 0.035229 0.000000 0.000000
# 5 0.000000 0.000000 0.000000 0.000000 0.050371 0.000000
# 6 0.000000 0.000000 0.000000 0.000000 0.000000 0.033302
#
#
# Mechanical properties :
#
#
# Convention : Reuss Voigt Hill
#
# Bulk Modulus (GPa) = 53.16174 55.03512 54.09843
# Shear Modulus (GPa) = 27.22111 28.34131 27.78121
#
# Velocity S-wave (km/s) = 3.62629 3.70015 3.66341
# Velocity P-wave (km/s) = 6.57379 6.69636 6.63536
#
# Compressibility (1/GPa) = 0.01881052
#
# Stress axis : x y z
#
# Youngs Moduli (GPa) = 90.94051 70.21717 74.50623
#
# Poissons Ratio (x) = 0.15051 0.32740
# Poissons Ratio (y) = 0.19493 0.25233
# Poissons Ratio (z) = 0.39962 0.23780
#
# Static dielectric constant tensor:
#      x y z
#    x 4.111390 0.000000 0.000000 
#    y 0.000000 3.743060 0.000000 
#    z 0.000000 0.000000 3.423300 
# 
# 
# High freq. dielectric constant tensor:
#      x y z
#    x 1.820990 0.000000 0.000000 
#    y 0.000000 1.819400 0.000000 
#    z 0.000000 0.000000 1.770540 
# 
# From -- ./inp_files/20467.got.cif
#   From: 2010.03.12/outbox.cif.g09.slc.cpg/sg57_11_cif.got.tgz:20467.got - 2010.04.16 15:48:40.
