data_PCOD8231641
_publ_section_title
;
Structure prediction by ZEFSAII (Michael W. Deem and Ramdas Pophale) SiO2 
 PCOD8231641
Probable space group: P B C M
;
_chemical_formula_sum "Si O2"
_cell_formula_units_Z 64
_cell_length_a 18.210229
_cell_length_b 19.800438
_cell_length_c 9.364097
_cell_angle_alpha 90.000000
_cell_angle_beta 90.000000
_cell_angle_gamma 90.000000
_cell_volume 3376.417234
_symmetry_space_group_name_H-M "P B C M"
_symmetry_group_IT_number 57
_symmetry_cell_setting 'orthorhombic'
loop_
_space_group_symop_operation_xyz
x,y,z
-x,-y,1/2+z
x,1/2-y,-z
-x,1/2+y,1/2-z
-x,-y,-z
x,y,1/2-z
-x,1/2+y,z
x,1/2-y,1/2+z
loop_
_atom_site_type_symbol
_atom_site_label
_atom_site_fract_x
_atom_site_fract_y
_atom_site_fract_z
Si Si1 0.215161 0.462379 0.083285
Si Si2 0.743404 0.685008 0.914390
Si Si3 0.064522 0.536874 0.081256
Si Si4 0.919854 0.310776 0.593063
Si Si5 0.525279 0.436527 0.085848
Si Si6 0.251642 0.811183 0.909689
Si Si7 0.304090 0.563943 0.916865
Si Si8 0.425175 0.314921 0.416455
O O1 0.234782 0.473966 0.250000
O O2 0.209470 0.382174 0.050066
O O3 0.139622 0.498771 0.040914
O O4 0.280338 0.492593 0.985690
O O5 0.750570 0.704833 0.750000
O O6 0.659147 0.668554 0.955074
O O7 0.773568 0.750000 0.000000
O O8 0.051279 0.533354 0.250000
O O9 0.066260 0.614668 0.027463
O O10 0.000000 0.500000 0.000000
O O11 0.955431 0.250000 0.500000
O O12 0.956111 0.306669 0.750000
O O13 0.833914 0.297562 0.607629
O O14 0.508010 0.450865 0.250000
O O15 0.610462 0.422157 0.059914
O O16 0.477286 0.374487 0.029007
O O17 0.500000 0.500000 0.000000
O O18 0.286895 0.815372 0.750000
O O19 0.288311 0.750000 0.000000
O O20 0.260452 0.879741 0.996282
O O21 0.282646 0.565848 0.750000
O O22 0.453164 0.250000 0.500000
O O23 0.435645 0.301284 0.250000
#
# Coordination Sequence:
#
# PCOD8231641 Si02
#       8
#     8   8   8   8   8   8   8   8
#     4  10  20  38  59  79 108 146 183 223 277 340
#     4   9  18  33  57  81 103 137 179 223 273 325
#     4  10  21  38  58  84 115 147 185 226 274 334
#     4   9  18  34  56  81 109 143 183 223 262 318
#     4  10  22  37  52  75 107 141 184 230 275 331
#     4  10  19  34  54  78 109 144 182 225 271 323
#     4  11  22  34  52  81 111 141 183 235 282 330
#     4   9  18  34  53  75 103 138 180 222 266 321
#
# _framework density 18.955003000000001
#
# number of rings (size 3 to 8) (size 9 to 14) (size 15 to 20)
#    0.000    2.250    1.250    1.500    0.000    5.000 
#    0.000    4.375    0.000    3.000    0.000    0.000 
#    0.000    0.000    0.000    0.000    0.000    0.000 
#
# Total GULP energy -793551.641732 kJ/mol
# GULP energy per Si atom -12399.244402 kJ/mol
# Density = 1.891186 g / cm^3
# Si number density = 18.955003 Si / 1000 Ang^3
#
#
#
# Elastic Constant Matrix: (Units=GPa)
#
#
# Indices 1 2 3 4 5 6 
#
# 1 48.9740 44.8413 28.3249 0.0000 0.0000 0.0000
# 2 44.8413 172.8356 66.2619 0.0000 0.0000 0.0000
# 3 28.3249 66.2619 81.3845 0.0000 0.0000 0.0000
# 4 0.0000 0.0000 0.0000 40.1367 0.0000 0.0000
# 5 0.0000 0.0000 0.0000 0.0000 22.5988 0.0000
# 6 0.0000 0.0000 0.0000 0.0000 0.0000 26.5230
#
#
#
# Elastic Compliance Matrix: (Units=1/GPa)
#
#
# Indices 1 2 3 4 5 6 
#
# 1 0.028469 -0.005215 -0.005662 0.000000 0.000000 0.000000
# 2 -0.005215 0.009367 -0.005811 0.000000 0.000000 0.000000
# 3 -0.005662 -0.005811 0.018989 0.000000 0.000000 0.000000
# 4 0.000000 0.000000 0.000000 0.024915 0.000000 0.000000
# 5 0.000000 0.000000 0.000000 0.000000 0.044250 0.000000
# 6 0.000000 0.000000 0.000000 0.000000 0.000000 0.037703
#
#
# Mechanical properties :
#
#
# Convention : Reuss Voigt Hill
#
# Bulk Modulus (GPa) = 42.64756 64.67225 53.65991
# Shear Modulus (GPa) = 24.40376 28.76944 26.58660
#
# Velocity S-wave (km/s) = 3.59201 3.90009 3.74922
# Velocity P-wave (km/s) = 6.30489 7.38064 6.86387
#
# Compressibility (1/GPa) = 0.02344800
#
# Stress axis : x y z
#
# Youngs Moduli (GPa) = 35.12587 106.75952 52.66132
#
# Poissons Ratio (x) = 0.55680 0.29817
# Poissons Ratio (y) = 0.18320 0.30602
# Poissons Ratio (z) = 0.19888 0.62040
#
# Static dielectric constant tensor:
#      x y z
#    x 3.103980 0.000000 0.000000 
#    y 0.000000 3.696890 0.000000 
#    z 0.000000 0.000000 3.624210 
# 
# 
# High freq. dielectric constant tensor:
#      x y z
#    x 1.708320 0.000000 0.000000 
#    y 0.000000 1.749780 0.000000 
#    z 0.000000 0.000000 1.737020 
# 
# From -- ./inp_files/7189.got.cif
#   From: 2010.03.12/outbox.cif.g09.slc.cpg/sg57_4_cif.got.tgz:7189.got - 2010.04.16 15:48:40.
