data_PCOD8231732
_publ_section_title
;
Structure prediction by ZEFSAII (Michael W. Deem and Ramdas Pophale) SiO2 
 PCOD8231732
Probable space group: P B C M
;
_chemical_formula_sum "Si O2"
_cell_formula_units_Z 56
_cell_length_a 17.050271
_cell_length_b 19.651852
_cell_length_c 9.010356
_cell_angle_alpha 90.000000
_cell_angle_beta 90.000000
_cell_angle_gamma 90.000000
_cell_volume 3019.094599
_symmetry_space_group_name_H-M "P B C M"
_symmetry_group_IT_number 57
_symmetry_cell_setting 'orthorhombic'
loop_
_space_group_symop_operation_xyz
x,y,z
-x,-y,1/2+z
x,1/2-y,-z
-x,1/2+y,1/2-z
-x,-y,-z
x,y,1/2-z
-x,1/2+y,z
x,1/2-y,1/2+z
loop_
_atom_site_type_symbol
_atom_site_label
_atom_site_fract_x
_atom_site_fract_y
_atom_site_fract_z
Si Si1 0.390182 0.948064 0.577384
Si Si2 0.316641 0.320461 0.078413
Si Si3 0.945247 0.818041 0.922511
Si Si4 0.194079 0.086924 0.421572
Si Si5 0.123451 0.680027 0.425761
Si Si6 0.461737 0.407199 0.080195
Si Si7 0.772680 0.433169 0.423677
O O1 0.372836 0.935302 0.750000
O O2 0.463233 0.901130 0.526585
O O3 0.315673 0.927132 0.481350
O O4 0.410805 0.026078 0.542187
O O5 0.297970 0.311093 0.250000
O O6 0.406944 0.341898 0.051828
O O7 0.298128 0.250000 0.000000
O O8 0.261654 0.379652 0.018190
O O9 0.942514 0.802409 0.750000
O O10 0.890143 0.881485 0.965612
O O11 0.033627 0.835015 0.973160
O O12 0.912968 0.750000 0.000000
O O13 0.214036 0.100467 0.250000
O O14 0.191309 0.007190 0.457079
O O15 0.152346 0.750000 0.500000
O O16 0.133788 0.685604 0.250000
O O17 0.174859 0.619177 0.486948
O O18 0.490819 0.410930 0.250000
O O19 0.774118 0.415847 0.250000
#
# Coordination Sequence:
#
# PCOD8231732 Si02
#       7
#     8   8   8   8   8   8   8
#     4  10  19  34  57  82 108 140 184 230 277 331
#     4  11  22  36  54  80 116 153 190 231 279 334
#     4   9  19  36  56  80 110 148 190 232 278 332
#     4  10  21  36  55  82 115 150 190 232 278 331
#     4  10  21  39  61  82 109 144 186 233 285 341
#     4   9  19  35  54  78 108 143 184 229 277 331
#     4  11  22  36  57  85 117 148 185 233 282 335
#
# _framework density 18.548607000000001
#
# number of rings (size 3 to 8) (size 9 to 14) (size 15 to 20)
#    0.000    2.000    1.429    2.143    0.000    5.143 
#    0.000    0.714    0.000    1.714    0.000    0.000 
#    0.000    0.000    0.000    0.000    0.000    0.000 
#
# Total GULP energy -694592.233085 kJ/mol
# GULP energy per Si atom -12403.432734 kJ/mol
# Density = 1.850639 g / cm^3
# Si number density = 18.548607 Si / 1000 Ang^3
#
#
#
# Elastic Constant Matrix: (Units=GPa)
#
#
# Indices 1 2 3 4 5 6 
#
# 1 98.6905 55.4170 48.2357 0.0000 0.0000 0.0000
# 2 55.4170 103.4190 53.4158 0.0000 0.0000 0.0000
# 3 48.2357 53.4158 86.9834 0.0000 0.0000 0.0000
# 4 0.0000 0.0000 0.0000 30.5013 0.0000 0.0000
# 5 0.0000 0.0000 0.0000 0.0000 31.4560 0.0000
# 6 0.0000 0.0000 0.0000 0.0000 0.0000 19.8185
#
#
#
# Elastic Compliance Matrix: (Units=1/GPa)
#
#
# Indices 1 2 3 4 5 6 
#
# 1 0.015995 -0.005843 -0.005282 0.000000 0.000000 0.000000
# 2 -0.005843 0.016295 -0.006767 0.000000 0.000000 0.000000
# 3 -0.005282 -0.006767 0.018581 0.000000 0.000000 0.000000
# 4 0.000000 0.000000 0.000000 0.032786 0.000000 0.000000
# 5 0.000000 0.000000 0.000000 0.000000 0.031790 0.000000
# 6 0.000000 0.000000 0.000000 0.000000 0.000000 0.050458
#
#
# Mechanical properties :
#
#
# Convention : Reuss Voigt Hill
#
# Bulk Modulus (GPa) = 66.27627 67.02554 66.65090
# Shear Modulus (GPa) = 24.18761 25.15680 24.67220
#
# Velocity S-wave (km/s) = 3.61503 3.68674 3.65106
# Velocity P-wave (km/s) = 7.29611 7.37132 7.33381
#
# Compressibility (1/GPa) = 0.01508836
#
# Stress axis : x y z
#
# Youngs Moduli (GPa) = 62.51880 61.36730 53.81902
#
# Poissons Ratio (x) = 0.35857 0.28426
# Poissons Ratio (y) = 0.36529 0.36418
# Poissons Ratio (z) = 0.33022 0.41525
#
# Static dielectric constant tensor:
#      x y z
#    x 3.502040 0.000000 0.000000 
#    y 0.000000 3.343480 0.000000 
#    z 0.000000 0.000000 3.462740 
# 
# 
# High freq. dielectric constant tensor:
#      x y z
#    x 1.723770 0.000000 0.000000 
#    y 0.000000 1.707910 0.000000 
#    z 0.000000 0.000000 1.728350 
# 
# From -- ./inp_files/5122.got.cif
#   From: 2010.03.12/outbox.cif.g09.slc.cpg/sg57_3_cif.got.tgz:5122.got - 2010.04.16 15:48:40.
