data_PCOD8231263
_publ_section_title
;
Structure prediction by ZEFSAII (Michael W. Deem and Ramdas Pophale) SiO2 
 PCOD8231263
Probable space group: P B C M
;
_chemical_formula_sum "Si O2"
_cell_formula_units_Z 48
_cell_length_a 10.366783
_cell_length_b 28.092863
_cell_length_c 8.971400
_cell_angle_alpha 90.000000
_cell_angle_beta 90.000000
_cell_angle_gamma 90.000000
_cell_volume 2612.764278
_symmetry_space_group_name_H-M "P B C M"
_symmetry_group_IT_number 57
_symmetry_cell_setting 'orthorhombic'
loop_
_space_group_symop_operation_xyz
x,y,z
-x,-y,1/2+z
x,1/2-y,-z
-x,1/2+y,1/2-z
-x,-y,-z
x,y,1/2-z
-x,1/2+y,z
x,1/2-y,1/2+z
loop_
_atom_site_type_symbol
_atom_site_label
_atom_site_fract_x
_atom_site_fract_y
_atom_site_fract_z
Si Si1 0.520381 0.398501 0.576803
Si Si2 0.109855 0.796940 0.075978
Si Si3 0.748484 0.940782 0.573723
Si Si4 0.991431 0.896417 0.422599
Si Si5 0.756058 0.451037 0.073397
Si Si6 0.382154 0.797113 0.924133
O O1 0.538296 0.410522 0.750000
O O2 0.384450 0.417773 0.515790
O O3 0.633057 0.424482 0.489940
O O4 0.523929 0.341773 0.548301
O O5 0.134459 0.787822 0.250000
O O6 0.013143 0.840486 0.050276
O O7 0.048108 0.750000 0.000000
O O8 0.245491 0.808849 0.999084
O O9 0.756325 0.938821 0.750000
O O10 0.865160 0.910277 0.511287
O O11 0.757125 0.994821 0.515562
O O12 0.970246 0.908254 0.250000
O O13 0.113711 0.925931 0.484631
O O14 0.747010 0.447815 0.250000
O O15 0.360736 0.787456 0.750000
O O16 0.443810 0.750000 0.000000
#
# Coordination Sequence:
#
# PCOD8231263 Si02
#       6
#     8   8   8   8   8   8
#     4  10  21  36  54  81 110 139 179 222 266 321
#     4  10  19  33  54  80 108 135 174 222 266 317
#     4  10  22  37  54  78 111 147 181 220 268 319
#     4  10  21  36  54  80 110 140 179 223 266 318
#     4  10  20  36  57  80 107 142 183 226 267 313
#     4  10  19  32  53  79 106 135 173 219 265 314
#
# _framework density 18.371345999999999
#
# number of rings (size 3 to 8) (size 9 to 14) (size 15 to 20)
#    0.000    2.000    1.667    3.000    0.000    4.000 
#    0.000    0.833    0.000    4.000    0.000    0.000 
#    0.000    0.000    0.000    0.000    0.000    0.000 
#
# Total GULP energy -595280.434414 kJ/mol
# GULP energy per Si atom -12401.675717 kJ/mol
# Density = 1.832953 g / cm^3
# Si number density = 18.371346 Si / 1000 Ang^3
#
#
#
# Elastic Constant Matrix: (Units=GPa)
#
#
# Indices 1 2 3 4 5 6 
#
# 1 111.1450 52.6719 29.3959 0.0000 0.0000 0.0000
# 2 52.6719 129.5469 39.7580 0.0000 0.0000 0.0000
# 3 29.3959 39.7580 59.0390 0.0000 0.0000 0.0000
# 4 0.0000 0.0000 0.0000 28.0863 0.0000 0.0000
# 5 0.0000 0.0000 0.0000 0.0000 24.6421 0.0000
# 6 0.0000 0.0000 0.0000 0.0000 0.0000 13.3704
#
#
#
# Elastic Compliance Matrix: (Units=1/GPa)
#
#
# Indices 1 2 3 4 5 6 
#
# 1 0.011629 -0.003720 -0.003285 0.000000 0.000000 0.000000
# 2 -0.003720 0.010920 -0.005502 0.000000 0.000000 0.000000
# 3 -0.003285 -0.005502 0.022278 0.000000 0.000000 0.000000
# 4 0.000000 0.000000 0.000000 0.035605 0.000000 0.000000
# 5 0.000000 0.000000 0.000000 0.000000 0.040581 0.000000
# 6 0.000000 0.000000 0.000000 0.000000 0.000000 0.074792
#
#
# Mechanical properties :
#
#
# Convention : Reuss Voigt Hill
#
# Bulk Modulus (GPa) = 50.46853 60.37583 55.42218
# Shear Modulus (GPa) = 21.98543 25.08010 23.53277
#
# Velocity S-wave (km/s) = 3.46312 3.69884 3.58292
# Velocity P-wave (km/s) = 6.59711 7.15383 6.88111
#
# Compressibility (1/GPa) = 0.01981433
#
# Stress axis : x y z
#
# Youngs Moduli (GPa) = 85.99181 91.57361 44.88634
#
# Poissons Ratio (x) = 0.34066 0.14745
# Poissons Ratio (y) = 0.31989 0.24695
# Poissons Ratio (z) = 0.28249 0.50380
#
# Static dielectric constant tensor:
#      x y z
#    x 3.265970 0.000000 0.000000 
#    y 0.000000 3.840960 0.000000 
#    z 0.000000 0.000000 3.333960 
# 
# 
# High freq. dielectric constant tensor:
#      x y z
#    x 1.694870 0.000000 0.000000 
#    y 0.000000 1.731710 0.000000 
#    z 0.000000 0.000000 1.711400 
# 
# From -- ./inp_files/2111.got.cif
#   From: 2010.03.12/outbox.cif.g09.slc.cpg/sg57_2_cif.got.tgz:2111.got - 2010.04.16 15:48:40.
