data_PCOD8231260
_publ_section_title
;
Structure prediction by ZEFSAII (Michael W. Deem and Ramdas Pophale) SiO2 
 PCOD8231260
Probable space group: P B C M
;
_chemical_formula_sum "Si O2"
_cell_formula_units_Z 64
_cell_length_a 20.142499
_cell_length_b 19.581181
_cell_length_c 9.077080
_cell_angle_alpha 90.000000
_cell_angle_beta 90.000000
_cell_angle_gamma 90.000000
_cell_volume 3580.126693
_symmetry_space_group_name_H-M "P B C M"
_symmetry_group_IT_number 57
_symmetry_cell_setting 'orthorhombic'
loop_
_space_group_symop_operation_xyz
x,y,z
-x,-y,1/2+z
x,1/2-y,-z
-x,1/2+y,1/2-z
-x,-y,-z
x,y,1/2-z
-x,1/2+y,z
x,1/2-y,1/2+z
loop_
_atom_site_type_symbol
_atom_site_label
_atom_site_fract_x
_atom_site_fract_y
_atom_site_fract_z
Si Si1 0.767749 0.915773 0.424145
Si Si2 0.590115 0.037484 0.082559
Si Si3 0.970349 0.320056 0.418903
Si Si4 0.261214 0.933458 0.921208
Si Si5 0.548054 0.594910 0.080853
Si Si6 0.886022 0.676746 0.576431
Si Si7 0.351874 0.319527 0.423663
Si Si8 0.826397 0.323302 0.076642
O O1 0.771754 0.918215 0.250000
O O2 0.832297 0.876622 0.488036
O O3 0.701366 0.876429 0.471959
O O4 0.764137 0.993300 0.482956
O O5 0.588230 0.007907 0.250000
O O6 0.659988 0.074011 0.053263
O O7 0.531582 0.092751 0.059468
O O8 0.580732 0.975827 0.970233
O O9 0.971975 0.250000 0.500000
O O10 0.969847 0.300266 0.250000
O O11 0.900095 0.356661 0.457314
O O12 0.040657 0.357228 0.456267
O O13 0.242762 0.924554 0.750000
O O14 0.227845 0.874312 0.014534
O O15 0.567439 0.607048 0.250000
O O16 0.576357 0.657178 0.984234
O O17 0.876946 0.750000 0.500000
O O18 0.874785 0.688147 0.750000
O O19 0.329300 0.250000 0.500000
O O20 0.355494 0.308519 0.250000
O O21 0.814783 0.313654 0.250000
O O22 0.818780 0.250000 0.000000
#
# Coordination Sequence:
#
# PCOD8231260 Si02
#       8
#     8   8   8   8   8   8   8   8
#     4   9  18  32  51  73 103 140 176 208 253 306
#     4   9  18  34  55  76 102 133 169 210 253 302
#     4   8  15  28  48  71  98 128 166 210 254 301
#     4  10  19  35  55  76 103 138 171 207 253 308
#     4  10  19  32  53  79 101 130 172 214 256 303
#     4   9  16  29  49  73  99 135 175 213 252 299
#     4  11  21  35  52  75 108 144 179 219 261 306
#     4  10  20  35  54  78 102 129 165 212 263 313
#
# _framework density 17.876462
#
# number of rings (size 3 to 8) (size 9 to 14) (size 15 to 20)
#    0.000    2.500    1.250    1.500    0.000    1.500 
#    0.000    2.500    0.000    0.000    0.000    0.000 
#    0.000    0.000    0.000    0.000    0.000    0.000 
#
# Total GULP energy -793102.001286 kJ/mol
# GULP energy per Si atom -12392.218770 kJ/mol
# Density = 1.783577 g / cm^3
# Si number density = 17.876462 Si / 1000 Ang^3
#
#
#
# Elastic Constant Matrix: (Units=GPa)
#
#
# Indices 1 2 3 4 5 6 
#
# 1 143.5201 60.4921 47.2180 0.0000 0.0000 0.0000
# 2 60.4921 93.2862 37.7631 0.0000 0.0000 0.0000
# 3 47.2180 37.7631 65.9556 0.0000 0.0000 0.0000
# 4 0.0000 0.0000 0.0000 28.5022 0.0000 0.0000
# 5 0.0000 0.0000 0.0000 0.0000 27.9866 0.0000
# 6 0.0000 0.0000 0.0000 0.0000 0.0000 27.7208
#
#
#
# Elastic Compliance Matrix: (Units=1/GPa)
#
#
# Indices 1 2 3 4 5 6 
#
# 1 0.010627 -0.004961 -0.004767 0.000000 0.000000 0.000000
# 2 -0.004961 0.016270 -0.005764 0.000000 0.000000 0.000000
# 3 -0.004767 -0.005764 0.021875 0.000000 0.000000 0.000000
# 4 0.000000 0.000000 0.000000 0.035085 0.000000 0.000000
# 5 0.000000 0.000000 0.000000 0.000000 0.035731 0.000000
# 6 0.000000 0.000000 0.000000 0.000000 0.000000 0.036074
#
#
# Mechanical properties :
#
#
# Convention : Reuss Voigt Hill
#
# Bulk Modulus (GPa) = 56.22023 65.96758 61.09390
# Shear Modulus (GPa) = 25.96365 27.32782 26.64574
#
# Velocity S-wave (km/s) = 3.81516 3.91411 3.86495
# Velocity P-wave (km/s) = 7.13617 7.57687 7.35982
#
# Compressibility (1/GPa) = 0.01778719
#
# Stress axis : x y z
#
# Youngs Moduli (GPa) = 94.09663 61.46222 45.71481
#
# Poissons Ratio (x) = 0.30494 0.21794
# Poissons Ratio (y) = 0.46686 0.26348
# Poissons Ratio (z) = 0.44860 0.35424
#
# Static dielectric constant tensor:
#      x y z
#    x 3.914700 0.000000 0.000000 
#    y 0.000000 3.065070 0.000000 
#    z 0.000000 0.000000 3.221160 
# 
# 
# High freq. dielectric constant tensor:
#      x y z
#    x 1.710150 0.000000 0.000000 
#    y 0.000000 1.658540 0.000000 
#    z 0.000000 0.000000 1.685620 
# 
# From -- ./inp_files/8569.got.cif
#   From: 2010.03.12/outbox.cif.g09.slc.cpg/sg57_5_cif.got.tgz:8569.got - 2010.04.16 15:48:40.
