data_PCOD8231991
_publ_section_title
;
Structure prediction by ZEFSAII (Michael W. Deem and Ramdas Pophale) SiO2 
 PCOD8231991
Probable space group: P B C M
;
_chemical_formula_sum "Si O2"
_cell_formula_units_Z 64
_cell_length_a 11.680766
_cell_length_b 15.263137
_cell_length_c 16.407410
_cell_angle_alpha 90.000000
_cell_angle_beta 90.000000
_cell_angle_gamma 90.000000
_cell_volume 2925.197253
_symmetry_space_group_name_H-M "P B C M"
_symmetry_group_IT_number 57
_symmetry_cell_setting 'orthorhombic'
loop_
_space_group_symop_operation_xyz
x,y,z
-x,-y,1/2+z
x,1/2-y,-z
-x,1/2+y,1/2-z
-x,-y,-z
x,y,1/2-z
-x,1/2+y,z
x,1/2-y,1/2+z
loop_
_atom_site_type_symbol
_atom_site_label
_atom_site_fract_x
_atom_site_fract_y
_atom_site_fract_z
Si Si1 0.326855 0.622747 0.345837
Si Si2 0.019996 0.221316 0.343266
Si Si3 0.726345 0.483582 0.338616
Si Si4 0.819544 0.975935 0.432975
Si Si5 0.945118 0.965619 0.896911
Si Si6 0.755984 0.784105 0.412857
Si Si7 0.409922 0.354234 0.846292
Si Si8 0.790745 0.301664 0.345941
O O1 0.307213 0.601266 0.250000
O O2 0.262752 0.552931 0.402047
O O3 0.459611 0.628008 0.368722
O O4 0.280439 0.717294 0.370614
O O5 0.992507 0.195059 0.250000
O O6 0.013735 0.134753 0.398993
O O7 0.145027 0.263469 0.347885
O O8 0.922191 0.288215 0.375618
O O9 0.667619 0.472870 0.250000
O O10 0.858032 0.515268 0.323432
O O11 0.656997 0.561270 0.384289
O O12 0.731390 0.388928 0.385110
O O13 0.862102 0.988865 0.525819
O O14 0.744213 0.888953 0.416895
O O15 0.941735 0.974734 0.385515
O O16 0.798003 0.750000 0.500000
O O17 0.637952 0.735449 0.387246
O O18 0.390146 0.344574 0.750000
O O19 0.789510 0.318432 0.250000
#
# Coordination Sequence:
#
# PCOD8231991 Si02
#       8
#     8   8   8   8   8   8   8   8
#     4  10  22  41  62  88 122 162 213 266 311 371
#     4  11  20  36  63  90 121 164 204 250 317 380
#     4  10  19  36  60  85 115 159 209 258 312 376
#     4  11  24  39  62  92 128 165 205 255 330 382
#     4  11  21  38  60  92 127 163 201 257 321 388
#     4  12  23  40  61  92 127 165 205 264 317 378
#     4  10  22  40  63  88 121 167 217 265 314 369
#     4   9  19  35  58  88 119 153 201 259 313 370
#
# _framework density 21.878867
#
# number of rings (size 3 to 8) (size 9 to 14) (size 15 to 20)
#    0.000    1.500    3.750    1.500    0.000    2.500 
#    0.000    6.875    0.000    0.000    0.000    0.000 
#    0.000    0.000    0.000    0.000    0.000    0.000 
#
# Total GULP energy -793000.179576 kJ/mol
# GULP energy per Si atom -12390.627806 kJ/mol
# Density = 2.182907 g / cm^3
# Si number density = 21.878867 Si / 1000 Ang^3
#
#
#
# Elastic Constant Matrix: (Units=GPa)
#
#
# Indices 1 2 3 4 5 6 
#
# 1 147.5778 69.3708 31.4326 0.0000 0.0000 0.0000
# 2 69.3708 173.8014 30.5505 0.0000 0.0000 0.0000
# 3 31.4326 30.5505 46.9665 0.0000 0.0000 0.0000
# 4 0.0000 0.0000 0.0000 27.5115 0.0000 0.0000
# 5 0.0000 0.0000 0.0000 0.0000 22.7178 0.0000
# 6 0.0000 0.0000 0.0000 0.0000 0.0000 23.9187
#
#
#
# Elastic Compliance Matrix: (Units=1/GPa)
#
#
# Indices 1 2 3 4 5 6 
#
# 1 0.009010 -0.002864 -0.004167 0.000000 0.000000 0.000000
# 2 -0.002864 0.007407 -0.002901 0.000000 0.000000 0.000000
# 3 -0.004167 -0.002901 0.025968 0.000000 0.000000 0.000000
# 4 0.000000 0.000000 0.000000 0.036348 0.000000 0.000000
# 5 0.000000 0.000000 0.000000 0.000000 0.044018 0.000000
# 6 0.000000 0.000000 0.000000 0.000000 0.000000 0.041808
#
#
# Mechanical properties :
#
#
# Convention : Reuss Voigt Hill
#
# Bulk Modulus (GPa) = 44.40474 70.11705 57.26090
# Shear Modulus (GPa) = 26.05113 30.62905 28.34009
#
# Velocity S-wave (km/s) = 3.45439 3.74563 3.60296
# Velocity P-wave (km/s) = 6.02082 7.12908 6.59826
#
# Compressibility (1/GPa) = 0.02252012
#
# Stress axis : x y z
#
# Youngs Moduli (GPa) = 110.99113 135.01339 38.50916
#
# Poissons Ratio (x) = 0.38663 0.16047
# Poissons Ratio (y) = 0.31784 0.11173
# Poissons Ratio (z) = 0.46251 0.39172
#
# Static dielectric constant tensor:
#      x y z
#    x 3.915460 0.000000 0.000000 
#    y 0.000000 4.183020 0.000000 
#    z 0.000000 0.000000 3.691250 
# 
# 
# High freq. dielectric constant tensor:
#      x y z
#    x 1.853290 0.000000 0.000000 
#    y 0.000000 1.871950 0.000000 
#    z 0.000000 0.000000 1.834470 
# 
# From -- ./inp_files/21998.got.cif
#   From: 2010.03.12/outbox.cif.g09.slc.cpg/sg57_11_cif.got.tgz:21998.got - 2010.04.16 15:48:40.
