data_PCOD8231593
_publ_section_title
;
Structure prediction by ZEFSAII (Michael W. Deem and Ramdas Pophale) SiO2 
 PCOD8231593
Probable space group: P B C M
;
_chemical_formula_sum "Si O2"
_cell_formula_units_Z 48
_cell_length_a 20.110496
_cell_length_b 13.957351
_cell_length_c 8.522224
_cell_angle_alpha 90.000000
_cell_angle_beta 90.000000
_cell_angle_gamma 90.000000
_cell_volume 2392.096675
_symmetry_space_group_name_H-M "P B C M"
_symmetry_group_IT_number 57
_symmetry_cell_setting 'orthorhombic'
loop_
_space_group_symop_operation_xyz
x,y,z
-x,-y,1/2+z
x,1/2-y,-z
-x,1/2+y,1/2-z
-x,-y,-z
x,y,1/2-z
-x,1/2+y,z
x,1/2-y,1/2+z
loop_
_atom_site_type_symbol
_atom_site_label
_atom_site_fract_x
_atom_site_fract_y
_atom_site_fract_z
Si Si1 0.472243 0.650604 0.434543
Si Si2 0.382878 0.351952 0.065281
Si Si3 0.031278 0.145330 0.065886
Si Si4 0.226414 0.646371 0.435386
Si Si5 0.903499 0.468421 0.565458
Si Si6 0.647662 0.042387 0.933598
O O1 0.442399 0.750000 0.500000
O O2 0.486449 0.657165 0.250000
O O3 0.540615 0.628067 0.522651
O O4 0.418855 0.569482 0.471895
O O5 0.372542 0.354847 0.250000
O O6 0.358717 0.250000 0.000000
O O7 0.336916 0.433189 0.984568
O O8 0.030483 0.154152 0.250000
O O9 0.960900 0.103649 0.002944
O O10 0.045454 0.250000 0.000000
O O11 0.089593 0.072644 0.013669
O O12 0.206914 0.750000 0.500000
O O13 0.237981 0.650558 0.250000
O O14 0.167407 0.574562 0.482185
O O15 0.292729 0.611524 0.519690
O O16 0.910441 0.481833 0.750000
O O17 0.634033 0.050858 0.750000
#
# Coordination Sequence:
#
# PCOD8231593 Si02
#       6
#     8   8   8   8   8   8
#     4  11  21  36  57  84 114 146 184 230 282 335
#     4  11  22  39  60  84 111 143 183 230 283 337
#     4  10  19  33  57  87 118 151 188 232 279 327
#     4  11  23  40  60  84 114 149 187 229 278 334
#     4   9  20  37  57  83 116 152 190 231 277 330
#     4  12  24  39  57  81 112 148 188 231 279 332
#
# _framework density 20.066078000000001
#
# number of rings (size 3 to 8) (size 9 to 14) (size 15 to 20)
#    0.000    1.333    0.000    8.000    0.000    2.000 
#    0.000    0.833    0.000    4.000    0.000    0.000 
#    0.000    0.000    0.000    0.000    0.000    0.000 
#
# Total GULP energy -595432.366033 kJ/mol
# GULP energy per Si atom -12404.840959 kJ/mol
# Density = 2.002041 g / cm^3
# Si number density = 20.066078 Si / 1000 Ang^3
#
#
#
# Elastic Constant Matrix: (Units=GPa)
#
#
# Indices 1 2 3 4 5 6 
#
# 1 40.7715 29.1043 23.2077 0.0000 0.0000 0.0000
# 2 29.1043 142.2152 32.7994 0.0000 0.0000 0.0000
# 3 23.2077 32.7994 85.0522 0.0000 0.0000 0.0000
# 4 0.0000 0.0000 0.0000 39.5772 0.0000 0.0000
# 5 0.0000 0.0000 0.0000 0.0000 27.2460 0.0000
# 6 0.0000 0.0000 0.0000 0.0000 0.0000 -349.6527
#
#
#
# Elastic Compliance Matrix: (Units=1/GPa)
#
#
# Indices 1 2 3 4 5 6 
#
# 1 0.031945 -0.004969 -0.006800 0.000000 0.000000 0.000000
# 2 -0.004969 0.008491 -0.001919 0.000000 0.000000 0.000000
# 3 -0.006800 -0.001919 0.014353 0.000000 0.000000 0.000000
# 4 0.000000 0.000000 0.000000 0.025267 0.000000 0.000000
# 5 0.000000 0.000000 0.000000 0.000000 0.036703 0.000000
# 6 0.000000 0.000000 0.000000 0.000000 0.000000 -0.002860
#
#
# Mechanical properties :
#
#
# Convention : Reuss Voigt Hill
#
# Bulk Modulus (GPa) = 36.47927 48.69572 42.58750
# Shear Modulus (GPa) = 33.24196 -44.37073 -5.56439
#
# Velocity S-wave (km/s) = 4.07458 -4.70747 -1.66705
# Velocity P-wave (km/s) = 6.35258 2.28620 4.19098
#
# Compressibility (1/GPa) = 0.02741283
#
# Stress axis : x y z
#
# Youngs Moduli (GPa) = 31.30384 117.77156 69.67219
#
# Poissons Ratio (x) = 0.58522 0.47379
# Poissons Ratio (y) = 0.15555 0.13367
# Poissons Ratio (z) = 0.21288 0.22595
#
# Static dielectric constant tensor:
#      x y z
#    x 3.441380 0.000000 0.000000 
#    y 0.000000 4.005270 0.000000 
#    z 0.000000 0.000000 3.674260 
# 
# 
# High freq. dielectric constant tensor:
#      x y z
#    x 1.757230 0.000000 0.000000 
#    y 0.000000 1.800800 0.000000 
#    z 0.000000 0.000000 1.795690 
# 
# From -- ./inp_files/7854.got.cif
#   From: 2010.03.12/outbox.cif.g09.slc.cpg/sg57_4_cif.got.tgz:7854.got - 2010.04.16 15:48:40.
