data_PCOD8231698
_publ_section_title
;
Structure prediction by ZEFSAII (Michael W. Deem and Ramdas Pophale) SiO2 
 PCOD8231698
Probable space group: P B C M
;
_chemical_formula_sum "Si O2"
_cell_formula_units_Z 48
_cell_length_a 16.429589
_cell_length_b 17.875121
_cell_length_c 8.916964
_cell_angle_alpha 90.000000
_cell_angle_beta 90.000000
_cell_angle_gamma 90.000000
_cell_volume 2618.741936
_symmetry_space_group_name_H-M "P B C M"
_symmetry_group_IT_number 57
_symmetry_cell_setting 'orthorhombic'
loop_
_space_group_symop_operation_xyz
x,y,z
-x,-y,1/2+z
x,1/2-y,-z
-x,1/2+y,1/2-z
-x,-y,-z
x,y,1/2-z
-x,1/2+y,z
x,1/2-y,1/2+z
loop_
_atom_site_type_symbol
_atom_site_label
_atom_site_fract_x
_atom_site_fract_y
_atom_site_fract_z
Si Si1 0.821413 0.608589 0.076441
Si Si2 0.416275 0.021893 0.925251
Si Si3 0.332376 0.174799 0.927413
Si Si4 0.732757 0.045229 0.921630
Si Si5 0.013111 0.419564 0.071712
Si Si6 0.855227 0.329397 0.426333
O O1 0.830284 0.631456 0.250000
O O2 0.795451 0.522692 0.058724
O O3 0.756272 0.662457 0.998444
O O4 0.906340 0.619846 0.991774
O O5 0.426903 0.013787 0.750000
O O6 0.391761 0.106369 0.971138
O O7 0.500000 0.000000 0.000000
O O8 0.346687 0.964553 0.977058
O O9 0.324011 0.183236 0.750000
O O10 0.369965 0.250000 0.000000
O O11 0.703805 0.051202 0.750000
O O12 0.779359 0.119166 0.976165
O O13 0.018296 0.428642 0.250000
O O14 0.939191 0.366698 0.020767
O O15 0.000000 0.500000 0.000000
O O16 0.842740 0.250000 0.500000
O O17 0.855812 0.319454 0.250000
#
# Coordination Sequence:
#
# PCOD8231698 Si02
#       6
#     8   8   8   8   8   8
#     4  10  19  34  56  81 109 145 185 229 282 332
#     4  10  21  37  60  89 114 142 184 225 272 333
#     4  10  21  37  57  85 116 148 185 228 279 336
#     4   9  18  36  57  78 108 142 179 224 274 330
#     4  11  21  35  54  79 111 148 195 240 282 334
#     4  10  22  38  54  78 110 146 188 233 281 328
#
# _framework density 18.329412000000001
#
# number of rings (size 3 to 8) (size 9 to 14) (size 15 to 20)
#    0.000    2.000    1.667    2.000    0.000    5.333 
#    0.000    2.500    0.000    0.000    0.000    0.000 
#    0.000    0.000    0.000    0.000    0.000    0.000 
#
# Total GULP energy -595356.685679 kJ/mol
# GULP energy per Si atom -12403.264285 kJ/mol
# Density = 1.828769 g / cm^3
# Si number density = 18.329412 Si / 1000 Ang^3
#
#
#
# Elastic Constant Matrix: (Units=GPa)
#
#
# Indices 1 2 3 4 5 6 
#
# 1 145.6408 68.6808 62.6404 0.0000 0.0000 0.0000
# 2 68.6808 126.2764 50.9733 0.0000 0.0000 0.0000
# 3 62.6404 50.9733 84.6077 0.0000 0.0000 0.0000
# 4 0.0000 0.0000 0.0000 34.0506 0.0000 0.0000
# 5 0.0000 0.0000 0.0000 0.0000 36.1717 0.0000
# 6 0.0000 0.0000 0.0000 0.0000 0.0000 26.1097
#
#
#
# Elastic Compliance Matrix: (Units=1/GPa)
#
#
# Indices 1 2 3 4 5 6 
#
# 1 0.011205 -0.003628 -0.006110 0.000000 0.000000 0.000000
# 2 -0.003628 0.011639 -0.004326 0.000000 0.000000 0.000000
# 3 -0.006110 -0.004326 0.018949 0.000000 0.000000 0.000000
# 4 0.000000 0.000000 0.000000 0.029368 0.000000 0.000000
# 5 0.000000 0.000000 0.000000 0.000000 0.027646 0.000000
# 6 0.000000 0.000000 0.000000 0.000000 0.000000 0.038300
#
#
# Mechanical properties :
#
#
# Convention : Reuss Voigt Hill
#
# Bulk Modulus (GPa) = 73.17984 80.12376 76.65180
# Shear Modulus (GPa) = 29.44829 30.88176 30.16503
#
# Velocity S-wave (km/s) = 4.01261 4.10911 4.06114
# Velocity P-wave (km/s) = 7.84089 8.14378 7.99377
#
# Compressibility (1/GPa) = 0.01366497
#
# Stress axis : x y z
#
# Youngs Moduli (GPa) = 89.24591 85.92162 52.77296
#
# Poissons Ratio (x) = 0.31171 0.32245
# Poissons Ratio (y) = 0.32377 0.22829
# Poissons Ratio (z) = 0.54530 0.37168
#
# Static dielectric constant tensor:
#      x y z
#    x 3.436350 0.000000 0.000000 
#    y 0.000000 3.261780 0.000000 
#    z 0.000000 0.000000 3.352350 
# 
# 
# High freq. dielectric constant tensor:
#      x y z
#    x 1.706760 0.000000 0.000000 
#    y 0.000000 1.706110 0.000000 
#    z 0.000000 0.000000 1.719510 
# 
# From -- ./inp_files/4546.got.cif
#   From: 2010.03.12/outbox.cif.g09.slc.cpg/sg57_3_cif.got.tgz:4546.got - 2010.04.16 15:48:40.
