data_PCOD8231710
_publ_section_title
;
Structure prediction by ZEFSAII (Michael W. Deem and Ramdas Pophale) SiO2 
 PCOD8231710
Probable space group: P B C M
;
_chemical_formula_sum "Si O2"
_cell_formula_units_Z 64
_cell_length_a 20.351160
_cell_length_b 19.209486
_cell_length_c 8.993519
_cell_angle_alpha 90.000000
_cell_angle_beta 90.000000
_cell_angle_gamma 90.000000
_cell_volume 3515.884256
_symmetry_space_group_name_H-M "P B C M"
_symmetry_group_IT_number 57
_symmetry_cell_setting 'orthorhombic'
loop_
_space_group_symop_operation_xyz
x,y,z
-x,-y,1/2+z
x,1/2-y,-z
-x,1/2+y,1/2-z
-x,-y,-z
x,y,1/2-z
-x,1/2+y,z
x,1/2-y,1/2+z
loop_
_atom_site_type_symbol
_atom_site_label
_atom_site_fract_x
_atom_site_fract_y
_atom_site_fract_z
Si Si1 0.197101 0.464594 0.078143
Si Si2 0.751565 0.682898 0.920116
Si Si3 0.061847 0.534452 0.076149
Si Si4 0.882284 0.320637 0.575690
Si Si5 0.440933 0.459257 0.925988
Si Si6 0.269537 0.820919 0.924675
Si Si7 0.311174 0.545029 0.923548
Si Si8 0.398107 0.321582 0.427181
O O1 0.214056 0.483218 0.250000
O O2 0.201568 0.382318 0.048544
O O3 0.124119 0.487134 0.036057
O O4 0.247057 0.503205 0.971465
O O5 0.748702 0.703256 0.750000
O O6 0.677711 0.666498 0.974937
O O7 0.782179 0.750000 0.000000
O O8 0.048659 0.535489 0.250000
O O9 0.074802 0.613530 0.019593
O O10 0.000000 0.500000 0.000000
O O11 0.908345 0.250000 0.500000
O O12 0.889719 0.310297 0.750000
O O13 0.806531 0.335660 0.533914
O O14 0.451343 0.451966 0.750000
O O15 0.374626 0.500326 0.965349
O O16 0.500000 0.500000 0.000000
O O17 0.439735 0.383537 0.000899
O O18 0.280223 0.815164 0.750000
O O19 0.293731 0.750000 0.000000
O O20 0.314523 0.882404 0.988487
O O21 0.307117 0.561377 0.750000
O O22 0.423877 0.250000 0.500000
O O23 0.408186 0.320410 0.250000
#
# Coordination Sequence:
#
# PCOD8231710 Si02
#       8
#     8   8   8   8   8   8   8   8
#     4  10  19  36  57  79 109 147 185 227 281 335
#     4   9  18  31  53  81 110 144 182 226 280 332
#     4  10  21  37  55  79 112 148 188 230 278 332
#     4   9  18  33  54  79 107 141 182 226 272 329
#     4  11  24  40  58  84 117 152 193 236 281 338
#     4  10  19  34  56  83 115 147 183 230 280 334
#     4  11  22  35  56  86 114 142 183 232 279 331
#     4  10  19  34  58  85 114 148 187 231 282 339
#
# _framework density 18.203102000000001
#
# number of rings (size 3 to 8) (size 9 to 14) (size 15 to 20)
#    0.000    2.000    2.500    1.500    0.000    4.000 
#    0.000    1.250    0.000    6.000    0.000    0.000 
#    0.000    0.000    0.000    0.000    0.000    0.000 
#
# Total GULP energy -793735.409543 kJ/mol
# GULP energy per Si atom -12402.115774 kJ/mol
# Density = 1.816167 g / cm^3
# Si number density = 18.203102 Si / 1000 Ang^3
#
#
#
# Elastic Constant Matrix: (Units=GPa)
#
#
# Indices 1 2 3 4 5 6 
#
# 1 76.3995 65.3698 41.0857 0.0000 0.0000 0.0000
# 2 65.3698 168.5939 66.6455 0.0000 0.0000 0.0000
# 3 41.0857 66.6455 75.8518 0.0000 0.0000 0.0000
# 4 0.0000 0.0000 0.0000 39.6967 0.0000 0.0000
# 5 0.0000 0.0000 0.0000 0.0000 26.1454 0.0000
# 6 0.0000 0.0000 0.0000 0.0000 0.0000 27.0158
#
#
#
# Elastic Compliance Matrix: (Units=1/GPa)
#
#
# Indices 1 2 3 4 5 6 
#
# 1 0.021571 -0.005738 -0.006642 0.000000 0.000000 0.000000
# 2 -0.005738 0.010614 -0.006218 0.000000 0.000000 0.000000
# 3 -0.006642 -0.006218 0.022245 0.000000 0.000000 0.000000
# 4 0.000000 0.000000 0.000000 0.025191 0.000000 0.000000
# 5 0.000000 0.000000 0.000000 0.000000 0.038248 0.000000
# 6 0.000000 0.000000 0.000000 0.000000 0.000000 0.037015
#
#
# Mechanical properties :
#
#
# Convention : Reuss Voigt Hill
#
# Bulk Modulus (GPa) = 58.02784 74.11637 66.07210
# Shear Modulus (GPa) = 25.27490 28.42121 26.84805
#
# Velocity S-wave (km/s) = 3.73029 3.95566 3.84463
# Velocity P-wave (km/s) = 7.10638 7.85288 7.48894
#
# Compressibility (1/GPa) = 0.01723311
#
# Stress axis : x y z
#
# Youngs Moduli (GPa) = 46.35892 94.21347 44.95447
#
# Poissons Ratio (x) = 0.54060 0.29861
# Poissons Ratio (y) = 0.26601 0.27952
# Poissons Ratio (z) = 0.30794 0.58581
#
# Static dielectric constant tensor:
#      x y z
#    x 3.457110 0.000000 0.000000 
#    y 0.000000 5.229410 0.000000 
#    z 0.000000 0.000000 3.402130 
# 
# 
# High freq. dielectric constant tensor:
#      x y z
#    x 1.674120 0.000000 0.000000 
#    y 0.000000 1.723870 0.000000 
#    z 0.000000 0.000000 1.709370 
# 
# From -- ./inp_files/7188.got.cif
#   From: 2010.03.12/outbox.cif.g09.slc.cpg/sg57_4_cif.got.tgz:7188.got - 2010.04.16 15:48:40.
