data_PCOD8231470
_publ_section_title
;
Structure prediction by ZEFSAII (Michael W. Deem and Ramdas Pophale) SiO2 
 PCOD8231470
Probable space group: P B C M
;
_chemical_formula_sum "Si O2"
_cell_formula_units_Z 56
_cell_length_a 11.759517
_cell_length_b 16.237715
_cell_length_c 16.163222
_cell_angle_alpha 90.000000
_cell_angle_beta 90.000000
_cell_angle_gamma 90.000000
_cell_volume 3086.329832
_symmetry_space_group_name_H-M "P B C M"
_symmetry_group_IT_number 57
_symmetry_cell_setting 'orthorhombic'
loop_
_space_group_symop_operation_xyz
x,y,z
-x,-y,1/2+z
x,1/2-y,-z
-x,1/2+y,1/2-z
-x,-y,-z
x,y,1/2-z
-x,1/2+y,z
x,1/2-y,1/2+z
loop_
_atom_site_type_symbol
_atom_site_label
_atom_site_fract_x
_atom_site_fract_y
_atom_site_fract_z
Si Si1 0.898195 0.313994 0.065962
Si Si2 0.606698 0.555580 0.507093
Si Si3 0.469300 0.294598 0.914134
Si Si4 0.278946 0.804394 0.847282
Si Si5 0.183783 0.547534 0.052066
Si Si6 0.337906 0.344764 0.341693
Si Si7 0.909814 0.903883 0.344655
O O1 0.787296 0.270860 0.107158
O O2 0.989594 0.340131 0.134310
O O3 0.952156 0.250000 0.000000
O O4 0.872435 0.398642 0.019015
O O5 0.500000 0.500000 0.500000
O O6 0.596796 0.620519 0.432345
O O7 0.722013 0.504129 0.502171
O O8 0.594431 0.596593 0.596833
O O9 0.587389 0.302139 0.865641
O O10 0.378824 0.247969 0.856722
O O11 0.497268 0.250000 0.000000
O O12 0.257050 0.796182 0.750000
O O13 0.235323 0.893255 0.877477
O O14 0.095288 0.485127 0.096823
O O15 0.369718 0.374100 0.250000
O O16 0.203640 0.350340 0.357298
O O17 0.924527 0.933211 0.250000
#
# Coordination Sequence:
#
# PCOD8231470 Si02
#       7
#     8   8   8   8   8   8   8
#     4  10  22  36  57  80 109 143 186 226 271 326
#     4  10  19  33  54  78 108 143 177 217 269 325
#     4  10  19  34  55  78 108 141 178 220 266 327
#     4  11  21  34  54  81 110 142 179 223 275 327
#     4  10  20  36  56  81 108 140 185 225 273 328
#     4   9  20  35  54  78 105 141 181 223 269 320
#     4  10  20  37  57  79 108 141 184 230 275 322
#
# _framework density 18.144528999999999
#
# number of rings (size 3 to 8) (size 9 to 14) (size 15 to 20)
#    0.000    2.000    1.429    3.000    2.000    3.429 
#    0.000    0.000    0.000    6.857    0.000    0.000 
#    0.000    0.000    0.000    0.000    0.000    0.000 
#
# Total GULP energy -694164.526415 kJ/mol
# GULP energy per Si atom -12395.795115 kJ/mol
# Density = 1.810323 g / cm^3
# Si number density = 18.144529 Si / 1000 Ang^3
#
#
#
# Elastic Constant Matrix: (Units=GPa)
#
#
# Indices 1 2 3 4 5 6 
#
# 1 81.1294 56.3110 49.1624 0.0000 0.0000 0.0000
# 2 56.3110 109.7775 40.2635 0.0000 0.0000 0.0000
# 3 49.1624 40.2635 91.3056 0.0000 0.0000 0.0000
# 4 0.0000 0.0000 0.0000 26.0442 0.0000 0.0000
# 5 0.0000 0.0000 0.0000 0.0000 30.8093 0.0000
# 6 0.0000 0.0000 0.0000 0.0000 0.0000 32.2981
#
#
#
# Elastic Compliance Matrix: (Units=1/GPa)
#
#
# Indices 1 2 3 4 5 6 
#
# 1 0.024024 -0.009041 -0.008948 0.000000 0.000000 0.000000
# 2 -0.009041 0.014269 -0.001424 0.000000 0.000000 0.000000
# 3 -0.008948 -0.001424 0.016399 0.000000 0.000000 0.000000
# 4 0.000000 0.000000 0.000000 0.038396 0.000000 0.000000
# 5 0.000000 0.000000 0.000000 0.000000 0.032458 0.000000
# 6 0.000000 0.000000 0.000000 0.000000 0.000000 0.030962
#
#
# Mechanical properties :
#
#
# Convention : Reuss Voigt Hill
#
# Bulk Modulus (GPa) = 63.03608 63.74292 63.38950
# Shear Modulus (GPa) = 24.92233 26.92869 25.92551
#
# Velocity S-wave (km/s) = 3.71016 3.85661 3.78409
# Velocity P-wave (km/s) = 7.29179 7.41877 7.35555
#
# Compressibility (1/GPa) = 0.01586393
#
# Stress axis : x y z
#
# Youngs Moduli (GPa) = 41.62530 70.07977 60.98108
#
# Poissons Ratio (x) = 0.63360 0.54569
# Poissons Ratio (y) = 0.37634 0.08686
# Poissons Ratio (z) = 0.37248 0.09982
#
# Static dielectric constant tensor:
#      x y z
#    x 3.224990 0.000000 0.000000 
#    y 0.000000 3.579680 0.000000 
#    z 0.000000 0.000000 3.836270 
# 
# 
# High freq. dielectric constant tensor:
#      x y z
#    x 1.695540 0.000000 0.000000 
#    y 0.000000 1.710620 0.000000 
#    z 0.000000 0.000000 1.704570 
# 
# From -- ./inp_files/17705.got.cif
#   From: 2010.03.12/outbox.cif.g09.slc.cpg/sg57_9_cif.got.tgz:17705.got - 2010.04.16 15:48:40.
