data_PCOD8231969
_publ_section_title
;
Structure prediction by ZEFSAII (Michael W. Deem and Ramdas Pophale) SiO2 
 PCOD8231969
Probable space group: P B C M
;
_chemical_formula_sum "Si O2"
_cell_formula_units_Z 64
_cell_length_a 8.878674
_cell_length_b 19.921713
_cell_length_c 18.643453
_cell_angle_alpha 90.000000
_cell_angle_beta 90.000000
_cell_angle_gamma 90.000000
_cell_volume 3297.624049
_symmetry_space_group_name_H-M "P B C M"
_symmetry_group_IT_number 57
_symmetry_cell_setting 'orthorhombic'
loop_
_space_group_symop_operation_xyz
x,y,z
-x,-y,1/2+z
x,1/2-y,-z
-x,1/2+y,1/2-z
-x,-y,-z
x,y,1/2-z
-x,1/2+y,z
x,1/2-y,1/2+z
loop_
_atom_site_type_symbol
_atom_site_label
_atom_site_fract_x
_atom_site_fract_y
_atom_site_fract_z
Si Si1 0.853402 0.873969 0.430011
Si Si2 0.547541 0.684951 0.950618
Si Si3 0.574460 0.061573 0.460711
Si Si4 0.368291 0.750471 0.167873
Si Si5 0.119767 0.372063 0.904406
Si Si6 0.903034 0.481537 0.568368
Si Si7 0.565807 0.882670 0.830689
Si Si8 0.073034 0.756058 0.081618
O O1 0.699640 0.836761 0.409276
O O2 0.830711 0.887307 0.514680
O O3 0.999223 0.829895 0.409104
O O4 0.866788 0.947431 0.391680
O O5 0.434506 0.693721 0.884661
O O6 0.577684 0.750000 0.000000
O O7 0.472760 0.630165 0.001615
O O8 0.753937 0.056410 0.458544
O O9 0.510202 0.060731 0.379867
O O10 0.500000 0.000000 0.500000
O O11 0.363226 0.775733 0.250000
O O12 0.469835 0.684796 0.160673
O O13 0.199175 0.739405 0.140045
O O14 0.260859 0.371842 0.851659
O O15 0.997244 0.429467 0.881576
O O16 0.055604 0.297486 0.902397
O O17 0.000000 0.500000 0.500000
O O18 0.559946 0.909572 0.750000
O O19 0.136351 0.750000 0.000000
#
# Coordination Sequence:
#
# PCOD8231969 Si02
#       8
#     8   8   8   8   8   8   8   8
#     4  10  19  36  59  92 123 156 208 261 312 379
#     4  12  21  37  68  95 123 163 216 265 319 380
#     4  12  22  40  67  97 127 168 216 275 325 389
#     4  11  24  39  58  92 130 165 214 273 332 388
#     4  10  19  36  58  90 122 157 209 261 319 374
#     4  10  21  35  58  92 128 159 203 263 322 382
#     4  11  23  41  64  94 130 170 219 273 334 396
#     4  10  21  34  62  91 122 162 208 270 316 381
#
# _framework density 19.407913000000001
#
# number of rings (size 3 to 8) (size 9 to 14) (size 15 to 20)
#    0.000    1.250    3.750    3.750    5.250    0.500 
#    0.000    1.875    0.000    1.500    0.000    0.000 
#    0.000    0.000    0.000    0.000    0.000    0.000 
#
# Total GULP energy -793423.375479 kJ/mol
# GULP energy per Si atom -12397.240242 kJ/mol
# Density = 1.936374 g / cm^3
# Si number density = 19.407913 Si / 1000 Ang^3
#
#
#
# Elastic Constant Matrix: (Units=GPa)
#
#
# Indices 1 2 3 4 5 6 
#
# 1 125.0235 36.1958 44.0155 0.0000 0.0000 0.0000
# 2 36.1958 112.9447 29.6857 0.0000 0.0000 0.0000
# 3 44.0155 29.6857 106.4490 0.0000 0.0000 0.0000
# 4 0.0000 0.0000 0.0000 16.6858 0.0000 0.0000
# 5 0.0000 0.0000 0.0000 0.0000 19.2977 0.0000
# 6 0.0000 0.0000 0.0000 0.0000 0.0000 34.7188
#
#
#
# Elastic Compliance Matrix: (Units=1/GPa)
#
#
# Indices 1 2 3 4 5 6 
#
# 1 0.009866 -0.002255 -0.003451 0.000000 0.000000 0.000000
# 2 -0.002255 0.010070 -0.001876 0.000000 0.000000 0.000000
# 3 -0.003451 -0.001876 0.011344 0.000000 0.000000 0.000000
# 4 0.000000 0.000000 0.000000 0.059931 0.000000 0.000000
# 5 0.000000 0.000000 0.000000 0.000000 0.051820 0.000000
# 6 0.000000 0.000000 0.000000 0.000000 0.000000 0.028803
#
#
# Mechanical properties :
#
#
# Convention : Reuss Voigt Hill
#
# Bulk Modulus (GPa) = 62.04594 62.69014 62.36804
# Shear Modulus (GPa) = 25.99176 29.77514 27.88345
#
# Velocity S-wave (km/s) = 3.66353 3.92110 3.79450
# Velocity P-wave (km/s) = 7.06640 7.27128 7.16957
#
# Compressibility (1/GPa) = 0.01611709
#
# Stress axis : x y z
#
# Youngs Moduli (GPa) = 101.35649 99.30949 88.15148
#
# Poissons Ratio (x) = 0.22393 0.30419
# Poissons Ratio (y) = 0.22855 0.16535
# Poissons Ratio (z) = 0.34975 0.18628
#
# Static dielectric constant tensor:
#      x y z
#    x 4.133510 0.000000 0.000000 
#    y 0.000000 2.707910 0.000000 
#    z 0.000000 0.000000 3.401330 
# 
# 
# High freq. dielectric constant tensor:
#      x y z
#    x 1.777750 0.000000 0.000000 
#    y 0.000000 1.761360 0.000000 
#    z 0.000000 0.000000 1.711460 
# 
# From -- ./inp_files/21418.got.cif
#   From: 2010.03.12/outbox.cif.g09.slc.cpg/sg57_11_cif.got.tgz:21418.got - 2010.04.16 15:48:40.
