data_PCOD8231045
_publ_section_title
;
Structure prediction by ZEFSAII (Michael W. Deem and Ramdas Pophale) SiO2 
 PCOD8231045
Probable space group: P B C M
;
_chemical_formula_sum "Si O2"
_cell_formula_units_Z 64
_cell_length_a 17.630202
_cell_length_b 22.351799
_cell_length_c 8.965682
_cell_angle_alpha 90.000000
_cell_angle_beta 90.000000
_cell_angle_gamma 90.000000
_cell_volume 3533.077001
_symmetry_space_group_name_H-M "P B C M"
_symmetry_group_IT_number 57
_symmetry_cell_setting 'orthorhombic'
loop_
_space_group_symop_operation_xyz
x,y,z
-x,-y,1/2+z
x,1/2-y,-z
-x,1/2+y,1/2-z
-x,-y,-z
x,y,1/2-z
-x,1/2+y,z
x,1/2-y,1/2+z
loop_
_atom_site_type_symbol
_atom_site_label
_atom_site_fract_x
_atom_site_fract_y
_atom_site_fract_z
Si Si1 0.673401 0.048882 0.925707
Si Si2 0.346717 0.420215 0.425322
Si Si3 0.509745 0.061386 0.920728
Si Si4 0.179139 0.918602 0.926857
Si Si5 0.927700 0.189048 0.073982
Si Si6 0.094572 0.152492 0.079761
Si Si7 0.755925 0.810287 0.073820
Si Si8 0.921349 0.987084 0.921042
O O1 0.690920 0.046189 0.750000
O O2 0.594316 0.085131 0.961284
O O3 0.736369 0.088419 0.009144
O O4 0.672507 0.980881 0.986728
O O5 0.333316 0.432339 0.250000
O O6 0.434810 0.398796 0.456704
O O7 0.293405 0.366687 0.483264
O O8 0.510066 0.044330 0.750000
O O9 0.500000 0.000000 0.000000
O O10 0.180491 0.924104 0.750000
O O11 0.128683 0.862869 0.980660
O O12 0.145396 0.979028 0.994679
O O13 0.924246 0.195452 0.250000
O O14 0.012654 0.173710 0.020859
O O15 0.899397 0.250000 0.000000
O O16 0.108192 0.173313 0.250000
O O17 0.099717 0.081735 0.067428
O O18 0.156961 0.182127 0.974532
O O19 0.750908 0.803860 0.250000
O O20 0.722631 0.750000 0.000000
O O21 0.927351 0.008057 0.750000
O O22 0.000000 0.000000 0.000000
#
# Coordination Sequence:
#
# PCOD8231045 Si02
#       8
#     8   8   8   8   8   8   8   8
#     4  10  19  31  52  84 111 135 170 214 265 315
#     4   9  18  34  54  76 105 142 174 207 259 318
#     4   8  15  29  50  76 106 134 164 202 247 306
#     4  11  22  37  53  75 108 141 175 215 261 310
#     4  10  22  39  55  72  95 130 175 220 260 303
#     4  10  21  38  55  75 104 135 172 216 260 306
#     4  11  23  36  52  75 102 138 181 220 263 311
#     4  11  21  35  55  80 109 138 171 213 262 315
#
# _framework density 18.114521
#
# number of rings (size 3 to 8) (size 9 to 14) (size 15 to 20)
#    0.000    2.000    1.250    2.625    0.000    7.000 
#    0.000    0.000    0.000    0.750    0.000    3.500 
#    0.000    0.000    0.000    0.000    0.000    0.000 
#
# Total GULP energy -793317.161344 kJ/mol
# GULP energy per Si atom -12395.580646 kJ/mol
# Density = 1.807329 g / cm^3
# Si number density = 18.114521 Si / 1000 Ang^3
#
#
#
# Elastic Constant Matrix: (Units=GPa)
#
#
# Indices 1 2 3 4 5 6 
#
# 1 129.6082 39.0946 36.2332 0.0000 0.0000 0.0000
# 2 39.0946 74.2644 26.8656 0.0000 0.0000 0.0000
# 3 36.2332 26.8656 61.0878 0.0000 0.0000 0.0000
# 4 0.0000 0.0000 0.0000 27.2775 0.0000 0.0000
# 5 0.0000 0.0000 0.0000 0.0000 29.1128 0.0000
# 6 0.0000 0.0000 0.0000 0.0000 0.0000 13.5341
#
#
#
# Elastic Compliance Matrix: (Units=1/GPa)
#
#
# Indices 1 2 3 4 5 6 
#
# 1 0.010047 -0.003726 -0.004321 0.000000 0.000000 0.000000
# 2 -0.003726 0.017395 -0.005440 0.000000 0.000000 0.000000
# 3 -0.004321 -0.005440 0.021325 0.000000 0.000000 0.000000
# 4 0.000000 0.000000 0.000000 0.036660 0.000000 0.000000
# 5 0.000000 0.000000 0.000000 0.000000 0.034349 0.000000
# 6 0.000000 0.000000 0.000000 0.000000 0.000000 0.073887
#
#
# Mechanical properties :
#
#
# Convention : Reuss Voigt Hill
#
# Bulk Modulus (GPa) = 45.88479 52.14967 49.01723
# Shear Modulus (GPa) = 21.93923 24.83602 23.38763
#
# Velocity S-wave (km/s) = 3.48392 3.70679 3.59708
# Velocity P-wave (km/s) = 6.44740 6.86817 6.66111
#
# Compressibility (1/GPa) = 0.02179371
#
# Stress axis : x y z
#
# Youngs Moduli (GPa) = 99.52824 57.48823 46.89318
#
# Poissons Ratio (x) = 0.21421 0.20261
# Poissons Ratio (y) = 0.37086 0.25510
# Poissons Ratio (z) = 0.43003 0.31273
#
# Static dielectric constant tensor:
#      x y z
#    x 4.026000 0.000000 0.000000 
#    y 0.000000 3.168870 0.000000 
#    z 0.000000 0.000000 3.334670 
# 
# 
# High freq. dielectric constant tensor:
#      x y z
#    x 1.715250 0.000000 0.000000 
#    y 0.000000 1.673780 0.000000 
#    z 0.000000 0.000000 1.707710 
# 
# From -- ./inp_files/7160.got.cif
#   From: 2010.03.12/outbox.cif.g09.slc.cpg/sg57_4_cif.got.tgz:7160.got - 2010.04.16 15:48:40.
