data_PCOD8231385
_publ_section_title
;
Structure prediction by ZEFSAII (Michael W. Deem and Ramdas Pophale) SiO2 
 PCOD8231385
Probable space group: P B C M
;
_chemical_formula_sum "Si O2"
_cell_formula_units_Z 64
_cell_length_a 6.759628
_cell_length_b 22.714321
_cell_length_c 20.967387
_cell_angle_alpha 90.000000
_cell_angle_beta 90.000000
_cell_angle_gamma 90.000000
_cell_volume 3219.340153
_symmetry_space_group_name_H-M "P B C M"
_symmetry_group_IT_number 57
_symmetry_cell_setting 'orthorhombic'
loop_
_space_group_symop_operation_xyz
x,y,z
-x,-y,1/2+z
x,1/2-y,-z
-x,1/2+y,1/2-z
-x,-y,-z
x,y,1/2-z
-x,1/2+y,z
x,1/2-y,1/2+z
loop_
_atom_site_type_symbol
_atom_site_label
_atom_site_fract_x
_atom_site_fract_y
_atom_site_fract_z
Si Si1 0.525245 0.495963 0.077699
Si Si2 0.340070 0.118913 0.109171
Si Si3 0.902874 0.073977 0.896299
Si Si4 0.642177 0.172407 0.940304
Si Si5 0.947802 0.381842 0.676651
Si Si6 0.312180 0.692723 0.413138
Si Si7 0.207548 0.488526 0.177857
Si Si8 0.283206 0.099205 0.525601
O O1 0.512159 0.564016 0.096858
O O2 0.752951 0.476684 0.081260
O O3 0.385181 0.465613 0.132666
O O4 0.413623 0.463127 0.015853
O O5 0.486474 0.172898 0.122358
O O6 0.184477 0.112139 0.166164
O O7 0.226862 0.128005 0.042072
O O8 0.783255 0.134944 0.893187
O O9 0.011564 0.052645 0.831636
O O10 0.073991 0.082258 0.947362
O O11 0.668867 0.237363 0.913958
O O12 0.418088 0.146274 0.934916
O O13 0.706017 0.167587 0.014753
O O14 0.911100 0.363840 0.750000
O O15 0.869317 0.330300 0.629916
O O16 0.847544 0.444125 0.661106
O O17 0.279688 0.482154 0.250000
#
# Coordination Sequence:
#
# PCOD8231385 Si02
#       8
#     8   8   8   8   8   8   8   8
#     4  10  19  33  52  82 114 150 186 227 287 342
#     4  11  20  34  54  83 116 151 184 227 291 343
#     4  10  19  36  57  84 115 147 183 237 289 338
#     4   9  20  38  61  84 110 148 193 235 293 353
#     4  11  23  37  56  85 116 152 196 236 282 343
#     4  10  21  39  59  83 114 150 191 241 288 342
#     4  10  21  36  54  80 115 153 197 237 279 342
#     4   9  20  33  54  83 115 145 183 233 286 350
#
# _framework density 19.879847999999999
#
# number of rings (size 3 to 8) (size 9 to 14) (size 15 to 20)
#    0.000    2.000    2.500    1.125    0.000    3.000 
#    0.000    3.125    0.000    3.000    0.000    0.000 
#    0.000    0.000    0.000    0.000    0.000    0.000 
#
# Total GULP energy -792986.585572 kJ/mol
# GULP energy per Si atom -12390.415400 kJ/mol
# Density = 1.983460 g / cm^3
# Si number density = 19.879848 Si / 1000 Ang^3
#
#
#
# Elastic Constant Matrix: (Units=GPa)
#
#
# Indices 1 2 3 4 5 6 
#
# 1 102.3083 31.7288 39.2841 0.0000 0.0000 0.0000
# 2 31.7288 109.1052 31.4143 0.0000 0.0000 0.0000
# 3 39.2841 31.4143 56.2088 0.0000 0.0000 0.0000
# 4 0.0000 0.0000 0.0000 24.6522 0.0000 0.0000
# 5 0.0000 0.0000 0.0000 0.0000 20.3258 0.0000
# 6 0.0000 0.0000 0.0000 0.0000 0.0000 30.0449
#
#
#
# Elastic Compliance Matrix: (Units=1/GPa)
#
#
# Indices 1 2 3 4 5 6 
#
# 1 0.013548 -0.001446 -0.008661 0.000000 0.000000 0.000000
# 2 -0.001446 0.011078 -0.005180 0.000000 0.000000 0.000000
# 3 -0.008661 -0.005180 0.026739 0.000000 0.000000 0.000000
# 4 0.000000 0.000000 0.000000 0.040564 0.000000 0.000000
# 5 0.000000 0.000000 0.000000 0.000000 0.049198 0.000000
# 6 0.000000 0.000000 0.000000 0.000000 0.000000 0.033283
#
#
# Mechanical properties :
#
#
# Convention : Reuss Voigt Hill
#
# Bulk Modulus (GPa) = 48.09904 52.49740 50.29822
# Shear Modulus (GPa) = 23.59430 26.01760 24.80595
#
# Velocity S-wave (km/s) = 3.44880 3.62158 3.53624
# Velocity P-wave (km/s) = 6.33296 6.62966 6.48301
#
# Compressibility (1/GPa) = 0.02079043
#
# Stress axis : x y z
#
# Youngs Moduli (GPa) = 73.80941 90.27210 37.39889
#
# Poissons Ratio (x) = 0.13057 0.32389
# Poissons Ratio (y) = 0.10676 0.19373
# Poissons Ratio (z) = 0.63923 0.46763
#
# Static dielectric constant tensor:
#      x y z
#    x 3.644270 0.000000 0.000000 
#    y 0.000000 3.610110 0.000000 
#    z 0.000000 0.000000 3.503220 
# 
# 
# High freq. dielectric constant tensor:
#      x y z
#    x 1.784790 0.000000 0.000000 
#    y 0.000000 1.766610 0.000000 
#    z 0.000000 0.000000 1.754460 
# 
# From -- ./inp_files/26381.got.cif
#   From: 2010.03.12/outbox.cif.g09.slc.cpg/sg57_14_cif.got.tgz:26381.got - 2010.04.16 15:48:40.
