data_PCOD8231746
_publ_section_title
;
Structure prediction by ZEFSAII (Michael W. Deem and Ramdas Pophale) SiO2 
 PCOD8231746
Probable space group: P B C M
;
_chemical_formula_sum "Si O2"
_cell_formula_units_Z 56
_cell_length_a 21.093531
_cell_length_b 14.274871
_cell_length_c 9.157632
_cell_angle_alpha 90.000000
_cell_angle_beta 90.000000
_cell_angle_gamma 90.000000
_cell_volume 2757.431073
_symmetry_space_group_name_H-M "P B C M"
_symmetry_group_IT_number 57
_symmetry_cell_setting 'orthorhombic'
loop_
_space_group_symop_operation_xyz
x,y,z
-x,-y,1/2+z
x,1/2-y,-z
-x,1/2+y,1/2-z
-x,-y,-z
x,y,1/2-z
-x,1/2+y,z
x,1/2-y,1/2+z
loop_
_atom_site_type_symbol
_atom_site_label
_atom_site_fract_x
_atom_site_fract_y
_atom_site_fract_z
Si Si1 0.582990 0.541332 0.916406
Si Si2 0.832936 0.844891 0.917528
Si Si3 0.066154 0.500200 0.582371
Si Si4 0.884222 0.333406 0.910074
Si Si5 0.522194 0.151801 0.421427
Si Si6 0.261692 0.833114 0.591372
Si Si7 0.727581 0.961044 0.419240
O O1 0.560114 0.557187 0.750000
O O2 0.574192 0.430139 0.954702
O O3 0.655572 0.572703 0.935443
O O4 0.544350 0.610443 0.021103
O O5 0.815381 0.825276 0.750000
O O6 0.898390 0.901671 0.930160
O O7 0.847116 0.750000 0.000000
O O8 0.772694 0.894963 0.988435
O O9 0.055412 0.529423 0.750000
O O10 0.112121 0.572779 0.503173
O O11 0.000000 0.500000 0.500000
O O12 0.916860 0.344679 0.750000
O O13 0.811483 0.307078 0.887013
O O14 0.918675 0.250000 0.000000
O O15 0.540090 0.250000 0.500000
O O16 0.516080 0.172465 0.250000
O O17 0.295146 0.750000 0.500000
O O18 0.295715 0.836468 0.750000
O O19 0.268292 0.933897 0.514872
O O20 0.750045 0.961174 0.250000
#
# Coordination Sequence:
#
# PCOD8231746 Si02
#       7
#     8   8   8   8   8   8   8
#     4   9  20  37  58  85 116 154 200 245 291 347
#     4  11  25  43  64  89 118 155 198 242 294 350
#     4  11  24  41  62  88 117 152 196 244 294 350
#     4  10  19  34  57  84 114 147 184 228 282 341
#     4  10  20  36  58  84 117 155 198 245 296 347
#     4   9  18  31  52  81 112 147 182 224 279 340
#     4  10  20  38  61  86 119 156 195 242 294 347
#
# _framework density 20.308758000000001
#
# number of rings (size 3 to 8) (size 9 to 14) (size 15 to 20)
#    0.000    2.000    1.429    1.714    0.000    5.714 
#    0.000    1.429    0.000    0.000    0.000    0.000 
#    0.000    0.000    0.000    0.000    0.000    0.000 
#
# Total GULP energy -694274.889807 kJ/mol
# GULP energy per Si atom -12397.765889 kJ/mol
# Density = 2.026253 g / cm^3
# Si number density = 20.308758 Si / 1000 Ang^3
#
#
#
# Elastic Constant Matrix: (Units=GPa)
#
#
# Indices 1 2 3 4 5 6 
#
# 1 67.5534 12.1298 36.5929 0.0000 0.0000 0.0000
# 2 12.1298 108.6232 60.0663 0.0000 0.0000 0.0000
# 3 36.5929 60.0663 140.9210 0.0000 0.0000 0.0000
# 4 0.0000 0.0000 0.0000 40.3320 0.0000 0.0000
# 5 0.0000 0.0000 0.0000 0.0000 22.6767 0.0000
# 6 0.0000 0.0000 0.0000 0.0000 0.0000 10.8884
#
#
#
# Elastic Compliance Matrix: (Units=1/GPa)
#
#
# Indices 1 2 3 4 5 6 
#
# 1 0.017269 0.000721 -0.004792 0.000000 0.000000 0.000000
# 2 0.000721 0.012075 -0.005334 0.000000 0.000000 0.000000
# 3 -0.004792 -0.005334 0.010614 0.000000 0.000000 0.000000
# 4 0.000000 0.000000 0.000000 0.024794 0.000000 0.000000
# 5 0.000000 0.000000 0.000000 0.000000 0.044098 0.000000
# 6 0.000000 0.000000 0.000000 0.000000 0.000000 0.091841
#
#
# Mechanical properties :
#
#
# Convention : Reuss Voigt Hill
#
# Bulk Modulus (GPa) = 47.28309 59.40840 53.34575
# Shear Modulus (GPa) = 22.07006 28.66665 25.36836
#
# Velocity S-wave (km/s) = 3.30013 3.76112 3.53814
# Velocity P-wave (km/s) = 6.15254 6.94100 6.55863
#
# Compressibility (1/GPa) = 0.02114921
#
# Stress axis : x y z
#
# Youngs Moduli (GPa) = 57.90654 82.81332 94.21386
#
# Poissons Ratio (x) = -0.05973 0.45145
# Poissons Ratio (y) = -0.04177 0.50257
# Poissons Ratio (z) = 0.27747 0.44175
#
# Static dielectric constant tensor:
#      x y z
#    x 3.418610 0.000000 0.000000 
#    y 0.000000 3.827660 0.000000 
#    z 0.000000 0.000000 4.013260 
# 
# 
# High freq. dielectric constant tensor:
#      x y z
#    x 1.776320 0.000000 0.000000 
#    y 0.000000 1.795980 0.000000 
#    z 0.000000 0.000000 1.800760 
# 
# From -- ./inp_files/8188.got.cif
#   From: 2010.03.12/outbox.cif.g09.slc.cpg/sg57_5_cif.got.tgz:8188.got - 2010.04.16 15:48:40.
