data_PCOD8231929
_publ_section_title
;
Structure prediction by ZEFSAII (Michael W. Deem and Ramdas Pophale) SiO2 
 PCOD8231929
Probable space group: P B C M
;
_chemical_formula_sum "Si O2"
_cell_formula_units_Z 48
_cell_length_a 15.602131
_cell_length_b 8.741691
_cell_length_c 15.728639
_cell_angle_alpha 90.000000
_cell_angle_beta 90.000000
_cell_angle_gamma 90.000000
_cell_volume 2145.213473
_symmetry_space_group_name_H-M "P B C M"
_symmetry_group_IT_number 57
_symmetry_cell_setting 'orthorhombic'
loop_
_space_group_symop_operation_xyz
x,y,z
-x,-y,1/2+z
x,1/2-y,-z
-x,1/2+y,1/2-z
-x,-y,-z
x,y,1/2-z
-x,1/2+y,z
x,1/2-y,1/2+z
loop_
_atom_site_type_symbol
_atom_site_label
_atom_site_fract_x
_atom_site_fract_y
_atom_site_fract_z
Si Si1 0.411888 0.671661 0.648595
Si Si2 0.747060 0.688591 0.905765
Si Si3 0.755676 0.148668 0.149239
Si Si4 0.923003 0.817446 0.594018
Si Si5 0.083532 0.852027 0.346449
Si Si6 0.579219 0.834107 0.652802
O O1 0.412973 0.664919 0.750000
O O2 0.329654 0.765884 0.618051
O O3 0.497873 0.749135 0.610418
O O4 0.405893 0.500033 0.610193
O O5 0.761398 0.507295 0.903688
O O6 0.831665 0.767731 0.866184
O O7 0.663838 0.730688 0.851355
O O8 0.731123 0.750000 0.000000
O O9 0.755729 0.114049 0.250000
O O10 0.836072 0.252462 0.122363
O O11 0.932018 0.750000 0.500000
O O12 0.999187 0.752497 0.651304
O O13 0.927254 0.001534 0.592604
O O14 0.098079 0.908634 0.250000
O O15 0.554498 0.860091 0.750000
#
# Coordination Sequence:
#
# PCOD8231929 Si02
#       6
#     8   8   8   8   8   8
#     4   9  18  34  59  89 115 148 194 243 302 362
#     4  11  24  40  57  84 119 160 203 242 295 360
#     4  10  21  39  63  90 120 154 197 253 309 357
#     4  11  24  42  61  87 126 168 202 241 304 373
#     4  11  23  40  67  98 123 154 204 259 302 351
#     4  10  19  35  60  86 116 154 198 248 298 355
#
# _framework density 22.375394
#
# number of rings (size 3 to 8) (size 9 to 14) (size 15 to 20)
#    0.000    1.667    0.000    4.500    0.000    9.333 
#    0.000    7.500    0.000    0.000    0.000    0.000 
#    0.000    0.000    0.000    0.000    0.000    0.000 
#
# Total GULP energy -595350.957497 kJ/mol
# GULP energy per Si atom -12403.144948 kJ/mol
# Density = 2.232447 g / cm^3
# Si number density = 22.375394 Si / 1000 Ang^3
#
#
#
# Elastic Constant Matrix: (Units=GPa)
#
#
# Indices 1 2 3 4 5 6 
#
# 1 194.8896 73.2308 6.4815 0.0000 0.0000 0.0000
# 2 73.2308 196.5543 32.4776 0.0000 0.0000 0.0000
# 3 6.4815 32.4776 44.1078 0.0000 0.0000 0.0000
# 4 0.0000 0.0000 0.0000 31.1631 0.0000 0.0000
# 5 0.0000 0.0000 0.0000 0.0000 14.6172 0.0000
# 6 0.0000 0.0000 0.0000 0.0000 0.0000 46.6736
#
#
#
# Elastic Compliance Matrix: (Units=1/GPa)
#
#
# Indices 1 2 3 4 5 6 
#
# 1 0.005996 -0.002377 0.000870 0.000000 0.000000 0.000000
# 2 -0.002377 0.006735 -0.004610 0.000000 0.000000 0.000000
# 3 0.000870 -0.004610 0.025938 0.000000 0.000000 0.000000
# 4 0.000000 0.000000 0.000000 0.032089 0.000000 0.000000
# 5 0.000000 0.000000 0.000000 0.000000 0.068412 0.000000
# 6 0.000000 0.000000 0.000000 0.000000 0.000000 0.021425
#
#
# Mechanical properties :
#
#
# Convention : Reuss Voigt Hill
#
# Bulk Modulus (GPa) = 37.83091 73.32571 55.57831
# Shear Modulus (GPa) = 27.52657 40.04824 33.78741
#
# Velocity S-wave (km/s) = 3.51125 4.23523 3.89012
# Velocity P-wave (km/s) = 5.77776 7.53380 6.71344
#
# Compressibility (1/GPa) = 0.02643341
#
# Stress axis : x y z
#
# Youngs Moduli (GPa) = 166.79083 148.47506 38.55304
#
# Poissons Ratio (x) = 0.35299 -0.03352
# Poissons Ratio (y) = 0.39654 0.17772
# Poissons Ratio (z) = -0.14503 0.68445
#
# Static dielectric constant tensor:
#      x y z
#    x 4.323480 0.000000 0.000000 
#    y 0.000000 4.156590 0.000000 
#    z 0.000000 0.000000 3.527240 
# 
# 
# High freq. dielectric constant tensor:
#      x y z
#    x 1.901920 0.000000 0.000000 
#    y 0.000000 1.895510 0.000000 
#    z 0.000000 0.000000 1.844640 
# 
# From -- ./inp_files/22466.got.cif
#   From: 2010.03.12/outbox.cif.g09.slc.cpg/sg57_12_cif.got.tgz:22466.got - 2010.04.16 15:48:40.
