data_PCOD8231306
_publ_section_title
;
Structure prediction by ZEFSAII (Michael W. Deem and Ramdas Pophale) SiO2 
 PCOD8231306
Probable space group: P B C M
;
_chemical_formula_sum "Si O2"
_cell_formula_units_Z 56
_cell_length_a 10.301380
_cell_length_b 20.875711
_cell_length_c 12.913832
_cell_angle_alpha 90.000000
_cell_angle_beta 90.000000
_cell_angle_gamma 90.000000
_cell_volume 2777.101903
_symmetry_space_group_name_H-M "P B C M"
_symmetry_group_IT_number 57
_symmetry_cell_setting 'orthorhombic'
loop_
_space_group_symop_operation_xyz
x,y,z
-x,-y,1/2+z
x,1/2-y,-z
-x,1/2+y,1/2-z
-x,-y,-z
x,y,1/2-z
-x,1/2+y,z
x,1/2-y,1/2+z
loop_
_atom_site_type_symbol
_atom_site_label
_atom_site_fract_x
_atom_site_fract_y
_atom_site_fract_z
Si Si1 0.506234 0.352161 0.873195
Si Si2 0.288822 0.682451 0.970042
Si Si3 0.101641 0.009563 0.635637
Si Si4 0.843903 0.440594 0.438062
Si Si5 0.417310 0.008628 0.372614
Si Si6 0.545302 0.713910 0.868642
Si Si7 0.646018 0.583106 0.627853
O O1 0.531117 0.348570 0.750000
O O2 0.426132 0.415963 0.902789
O O3 0.433247 0.286363 0.914997
O O4 0.645062 0.353145 0.930945
O O5 0.182050 0.634770 0.923381
O O6 0.393824 0.696730 0.880799
O O7 0.221580 0.750000 0.000000
O O8 0.134551 0.982941 0.750000
O O9 0.105749 0.951333 0.555305
O O10 0.208120 0.062262 0.601557
O O11 0.959269 0.041077 0.639543
O O12 0.716385 0.482390 0.417533
O O13 0.415841 0.000937 0.250000
O O14 0.541446 0.968704 0.418044
O O15 0.585320 0.718122 0.750000
O O16 0.623958 0.654426 0.920927
O O17 0.621188 0.587049 0.750000
#
# Coordination Sequence:
#
# PCOD8231306 Si02
#       7
#     8   8   8   8   8   8   8
#     4   9  19  32  48  80 120 146 172 225 284 325
#     4  10  20  33  55  83 114 142 183 225 274 325
#     4  10  23  39  55  78 111 145 182 230 281 329
#     4  11  22  36  59  81 108 147 184 228 279 328
#     4  10  19  32  56  87 111 139 185 230 268 324
#     4   9  17  31  51  79 111 144 179 222 275 324
#     4   9  17  31  54  80 106 139 180 223 266 320
#
# _framework density 20.164905999999998
#
# number of rings (size 3 to 8) (size 9 to 14) (size 15 to 20)
#    0.000    2.286    1.429    1.286    2.000    3.429 
#    0.000    0.000    6.286    0.000    0.000    0.000 
#    0.000    0.000    0.000    0.000    0.000    0.000 
#
# Total GULP energy -694094.369713 kJ/mol
# GULP energy per Si atom -12394.542316 kJ/mol
# Density = 2.011901 g / cm^3
# Si number density = 20.164906 Si / 1000 Ang^3
#
#
#
# Elastic Constant Matrix: (Units=GPa)
#
#
# Indices 1 2 3 4 5 6 
#
# 1 105.6623 44.6676 7.7267 0.0000 0.0000 0.0000
# 2 44.6676 133.9125 27.9601 0.0000 0.0000 0.0000
# 3 7.7267 27.9601 32.7911 0.0000 0.0000 0.0000
# 4 0.0000 0.0000 0.0000 28.9492 0.0000 0.0000
# 5 0.0000 0.0000 0.0000 0.0000 18.2360 0.0000
# 6 0.0000 0.0000 0.0000 0.0000 0.0000 18.9907
#
#
#
# Elastic Compliance Matrix: (Units=1/GPa)
#
#
# Indices 1 2 3 4 5 6 
#
# 1 0.011029 -0.003816 0.000655 0.000000 0.000000 0.000000
# 2 -0.003816 0.010405 -0.007973 0.000000 0.000000 0.000000
# 3 0.000655 -0.007973 0.037140 0.000000 0.000000 0.000000
# 4 0.000000 0.000000 0.000000 0.034543 0.000000 0.000000
# 5 0.000000 0.000000 0.000000 0.000000 0.054837 0.000000
# 6 0.000000 0.000000 0.000000 0.000000 0.000000 0.052657
#
#
# Mechanical properties :
#
#
# Convention : Reuss Voigt Hill
#
# Bulk Modulus (GPa) = 27.54331 48.11941 37.83136
# Shear Modulus (GPa) = 21.27825 26.03595 23.65710
#
# Velocity S-wave (km/s) = 3.25193 3.59716 3.42889
# Velocity P-wave (km/s) = 5.27150 6.41619 5.87181
#
# Compressibility (1/GPa) = 0.03630645
#
# Stress axis : x y z
#
# Youngs Moduli (GPa) = 90.66814 96.10788 26.92502
#
# Poissons Ratio (x) = 0.36671 -0.01762
# Poissons Ratio (y) = 0.34595 0.21467
# Poissons Ratio (z) = -0.05935 0.76626
#
# Static dielectric constant tensor:
#      x y z
#    x 3.343330 0.000000 0.000000 
#    y 0.000000 4.070270 0.000000 
#    z 0.000000 0.000000 3.835930 
# 
# 
# High freq. dielectric constant tensor:
#      x y z
#    x 1.737440 0.000000 0.000000 
#    y 0.000000 1.797820 0.000000 
#    z 0.000000 0.000000 1.813360 
# 
# From -- ./inp_files/16759.got.cif
#   From: 2010.03.12/outbox.cif.g09.slc.cpg/sg57_9_cif.got.tgz:16759.got - 2010.04.16 15:48:40.
