data_PCOD8231106
_publ_section_title
;
Structure prediction by ZEFSAII (Michael W. Deem and Ramdas Pophale) SiO2 
 PCOD8231106
Probable space group: P B C M
;
_chemical_formula_sum "Si O2"
_cell_formula_units_Z 56
_cell_length_a 19.445659
_cell_length_b 17.672879
_cell_length_c 9.376079
_cell_angle_alpha 90.000000
_cell_angle_beta 90.000000
_cell_angle_gamma 90.000000
_cell_volume 3222.190609
_symmetry_space_group_name_H-M "P B C M"
_symmetry_group_IT_number 57
_symmetry_cell_setting 'orthorhombic'
loop_
_space_group_symop_operation_xyz
x,y,z
-x,-y,1/2+z
x,1/2-y,-z
-x,1/2+y,1/2-z
-x,-y,-z
x,y,1/2-z
-x,1/2+y,z
x,1/2-y,1/2+z
loop_
_atom_site_type_symbol
_atom_site_label
_atom_site_fract_x
_atom_site_fract_y
_atom_site_fract_z
Si Si1 0.560946 0.467919 0.091258
Si Si2 0.663873 0.673275 0.919305
Si Si3 0.850100 0.025204 0.914890
Si Si4 0.953012 0.941753 0.083192
Si Si5 0.065770 0.672664 0.585561
Si Si6 0.296398 0.467133 0.915422
Si Si7 0.508958 0.817108 0.406743
O O1 0.552473 0.501030 0.250000
O O2 0.636504 0.486553 0.032564
O O3 0.551189 0.378210 0.089768
O O4 0.500000 0.500000 0.000000
O O5 0.677704 0.679838 0.750000
O O6 0.584138 0.652960 0.957237
O O7 0.684988 0.750000 0.000000
O O8 0.710527 0.606982 0.985985
O O9 0.870874 0.011816 0.750000
O O10 0.880104 0.107081 0.963911
O O11 0.768200 0.022963 0.937754
O O12 0.879101 0.954095 0.008358
O O13 0.948298 0.962092 0.250000
O O14 0.987450 0.858641 0.063057
O O15 0.000000 0.000000 0.000000
O O16 0.077372 0.750000 0.500000
O O17 0.078726 0.692387 0.750000
O O18 0.301694 0.442380 0.750000
O O19 0.479965 0.750000 0.500000
O O20 0.520187 0.783797 0.250000
#
# Coordination Sequence:
#
# PCOD8231106 Si02
#       7
#     8   8   8   8   8   8   8
#     4  10  19  32  50  73  98 128 170 217 263 311
#     4  10  19  32  50  72  98 126 165 213 262 318
#     4   9  19  35  52  75 106 140 175 212 255 309
#     4   9  17  31  52  77 102 131 167 207 248 294
#     4   9  18  32  52  78 106 134 168 206 246 292
#     4  10  20  34  53  74 102 140 175 213 267 316
#     4   9  18  31  47  69  95 124 160 209 263 312
#
# _framework density 17.379480999999998
#
# number of rings (size 3 to 8) (size 9 to 14) (size 15 to 20)
#    0.000    2.571    1.429    1.714    0.000    4.571 
#    0.000    1.429    0.000    1.714    0.000    0.000 
#    0.000    0.000    0.000    0.000    0.000    0.000 
#
# Total GULP energy -693939.739047 kJ/mol
# GULP energy per Si atom -12391.781054 kJ/mol
# Density = 1.733992 g / cm^3
# Si number density = 17.379481 Si / 1000 Ang^3
#
#
#
# Elastic Constant Matrix: (Units=GPa)
#
#
# Indices 1 2 3 4 5 6 
#
# 1 102.7062 50.9992 44.2763 0.0000 0.0000 0.0000
# 2 50.9992 103.2052 54.5648 0.0000 0.0000 0.0000
# 3 44.2763 54.5648 83.7135 0.0000 0.0000 0.0000
# 4 0.0000 0.0000 0.0000 33.4499 0.0000 0.0000
# 5 0.0000 0.0000 0.0000 0.0000 20.8959 0.0000
# 6 0.0000 0.0000 0.0000 0.0000 0.0000 20.6611
#
#
#
# Elastic Compliance Matrix: (Units=1/GPa)
#
#
# Indices 1 2 3 4 5 6 
#
# 1 0.013881 -0.004543 -0.004380 0.000000 0.000000 0.000000
# 2 -0.004543 0.016271 -0.008203 0.000000 0.000000 0.000000
# 3 -0.004380 -0.008203 0.019609 0.000000 0.000000 0.000000
# 4 0.000000 0.000000 0.000000 0.029895 0.000000 0.000000
# 5 0.000000 0.000000 0.000000 0.000000 0.047856 0.000000
# 6 0.000000 0.000000 0.000000 0.000000 0.000000 0.048400
#
#
# Mechanical properties :
#
#
# Convention : Reuss Voigt Hill
#
# Bulk Modulus (GPa) = 64.48157 65.47838 64.97997
# Shear Modulus (GPa) = 23.21963 24.32035 23.76999
#
# Velocity S-wave (km/s) = 3.65915 3.74488 3.70226
# Velocity P-wave (km/s) = 7.41857 7.51374 7.46631
#
# Compressibility (1/GPa) = 0.01550831
#
# Stress axis : x y z
#
# Youngs Moduli (GPa) = 72.04159 61.45750 50.99763
#
# Poissons Ratio (x) = 0.27923 0.22338
# Poissons Ratio (y) = 0.32732 0.41832
# Poissons Ratio (z) = 0.31555 0.50412
#
# Static dielectric constant tensor:
#      x y z
#    x 3.524030 0.000000 0.000000 
#    y 0.000000 3.212450 0.000000 
#    z 0.000000 0.000000 3.479260 
# 
# 
# High freq. dielectric constant tensor:
#      x y z
#    x 1.655650 0.000000 0.000000 
#    y 0.000000 1.656060 0.000000 
#    z 0.000000 0.000000 1.677420 
# 
# From -- ./inp_files/8290.got.cif
#   From: 2010.03.12/outbox.cif.g09.slc.cpg/sg57_5_cif.got.tgz:8290.got - 2010.04.16 15:48:40.
