data_PCOD8231041
_publ_section_title
;
Structure prediction by ZEFSAII (Michael W. Deem and Ramdas Pophale) SiO2 
 PCOD8231041
Probable space group: P B C M
;
_chemical_formula_sum "Si O2"
_cell_formula_units_Z 56
_cell_length_a 22.350518
_cell_length_b 14.236465
_cell_length_c 8.975040
_cell_angle_alpha 90.000000
_cell_angle_beta 90.000000
_cell_angle_gamma 90.000000
_cell_volume 2855.789224
_symmetry_space_group_name_H-M "P B C M"
_symmetry_group_IT_number 57
_symmetry_cell_setting 'orthorhombic'
loop_
_space_group_symop_operation_xyz
x,y,z
-x,-y,1/2+z
x,1/2-y,-z
-x,1/2+y,1/2-z
-x,-y,-z
x,y,1/2-z
-x,1/2+y,z
x,1/2-y,1/2+z
loop_
_atom_site_type_symbol
_atom_site_label
_atom_site_fract_x
_atom_site_fract_y
_atom_site_fract_z
Si Si1 0.470371 0.657525 0.078547
Si Si2 0.361009 0.968348 0.925082
Si Si3 0.982154 0.407515 0.079421
Si Si4 0.105606 0.158130 0.924395
Si Si5 0.141960 0.965155 0.075784
Si Si6 0.741834 0.350619 0.427484
Si Si7 0.393661 0.153123 0.427123
O O1 0.471149 0.683759 0.250000
O O2 0.428172 0.569006 0.045249
O O3 0.537571 0.634962 0.024552
O O4 0.444307 0.750000 0.000000
O O5 0.346587 0.975816 0.750000
O O6 0.317091 0.895793 0.003654
O O7 0.354396 0.069678 0.002358
O O8 0.987178 0.432077 0.250000
O O9 0.912078 0.389538 0.038757
O O10 0.033620 0.332052 0.040075
O O11 0.000000 0.500000 0.000000
O O12 0.119499 0.160319 0.750000
O O13 0.135382 0.250000 0.000000
O O14 0.134163 0.063024 0.988990
O O15 0.143012 0.989644 0.250000
O O16 0.202855 0.916315 0.025357
O O17 0.752474 0.250000 0.500000
O O18 0.735505 0.340704 0.250000
O O19 0.370832 0.250000 0.500000
O O20 0.384481 0.155853 0.250000
#
# Coordination Sequence:
#
# PCOD8231041 Si02
#       7
#     8   8   8   8   8   8   8
#     4   9  19  33  53  82 114 147 182 222 270 323
#     4  11  22  37  57  82 112 147 186 228 273 322
#     4   8  15  29  49  74 103 137 174 215 262 313
#     4  10  19  31  52  82 114 145 179 219 269 325
#     4   9  19  37  57  77 107 144 184 227 271 319
#     4  11  24  41  60  82 108 142 183 228 274 322
#     4  10  20  36  57  83 114 146 181 223 272 328
#
# _framework density 19.609290000000001
#
# number of rings (size 3 to 8) (size 9 to 14) (size 15 to 20)
#    0.000    2.286    0.000    2.571    0.000    5.143 
#    0.000    0.714    0.000    3.429    0.000    0.000 
#    0.000    0.000    0.000    0.000    0.000    0.000 
#
# Total GULP energy -693938.826999 kJ/mol
# GULP energy per Si atom -12391.764768 kJ/mol
# Density = 1.956466 g / cm^3
# Si number density = 19.609290 Si / 1000 Ang^3
#
#
#
# Elastic Constant Matrix: (Units=GPa)
#
#
# Indices 1 2 3 4 5 6 
#
# 1 57.0771 33.7834 32.4459 0.0000 0.0000 0.0000
# 2 33.7834 132.9606 64.0148 0.0000 0.0000 0.0000
# 3 32.4459 64.0148 84.3581 0.0000 0.0000 0.0000
# 4 0.0000 0.0000 0.0000 37.1184 0.0000 0.0000
# 5 0.0000 0.0000 0.0000 0.0000 23.8371 0.0000
# 6 0.0000 0.0000 0.0000 0.0000 0.0000 21.3729
#
#
#
# Elastic Compliance Matrix: (Units=1/GPa)
#
#
# Indices 1 2 3 4 5 6 
#
# 1 0.022934 -0.002490 -0.006931 0.000000 0.000000 0.000000
# 2 -0.002490 0.012121 -0.008240 0.000000 0.000000 0.000000
# 3 -0.006931 -0.008240 0.020773 0.000000 0.000000 0.000000
# 4 0.000000 0.000000 0.000000 0.026941 0.000000 0.000000
# 5 0.000000 0.000000 0.000000 0.000000 0.041951 0.000000
# 6 0.000000 0.000000 0.000000 0.000000 0.000000 0.046788
#
#
# Mechanical properties :
#
#
# Convention : Reuss Voigt Hill
#
# Bulk Modulus (GPa) = 48.76847 59.43155 54.10001
# Shear Modulus (GPa) = 23.40084 26.07579 24.73831
#
# Velocity S-wave (km/s) = 3.45824 3.65055 3.55570
# Velocity P-wave (km/s) = 6.39297 6.93847 6.67130
#
# Compressibility (1/GPa) = 0.02050505
#
# Stress axis : x y z
#
# Youngs Moduli (GPa) = 43.60295 82.50107 48.13874
#
# Poissons Ratio (x) = 0.20544 0.33367
# Poissons Ratio (y) = 0.10858 0.39668
# Poissons Ratio (z) = 0.30223 0.67983
#
# Static dielectric constant tensor:
#      x y z
#    x 3.624880 0.000000 0.000000 
#    y 0.000000 3.469090 0.000000 
#    z 0.000000 0.000000 3.562800 
# 
# 
# High freq. dielectric constant tensor:
#      x y z
#    x 1.752230 0.000000 0.000000 
#    y 0.000000 1.760780 0.000000 
#    z 0.000000 0.000000 1.771600 
# 
# From -- ./inp_files/8002.got.cif
#   From: 2010.03.12/outbox.cif.g09.slc.cpg/sg57_5_cif.got.tgz:8002.got - 2010.04.16 15:48:40.
