data_PCOD8231877
_publ_section_title
;
Structure prediction by ZEFSAII (Michael W. Deem and Ramdas Pophale) SiO2 
 PCOD8231877
Probable space group: P B C M
;
_chemical_formula_sum "Si O2"
_cell_formula_units_Z 64
_cell_length_a 19.979706
_cell_length_b 20.071735
_cell_length_c 8.641289
_cell_angle_alpha 90.000000
_cell_angle_beta 90.000000
_cell_angle_gamma 90.000000
_cell_volume 3465.393351
_symmetry_space_group_name_H-M "P B C M"
_symmetry_group_IT_number 57
_symmetry_cell_setting 'orthorhombic'
loop_
_space_group_symop_operation_xyz
x,y,z
-x,-y,1/2+z
x,1/2-y,-z
-x,1/2+y,1/2-z
-x,-y,-z
x,y,1/2-z
-x,1/2+y,z
x,1/2-y,1/2+z
loop_
_atom_site_type_symbol
_atom_site_label
_atom_site_fract_x
_atom_site_fract_y
_atom_site_fract_z
Si Si1 0.930998 0.820306 0.067652
Si Si2 0.311606 0.939406 0.068024
Si Si3 0.340220 0.081374 0.932843
Si Si4 0.806874 0.601868 0.567282
Si Si5 0.409407 0.680398 0.567947
Si Si6 0.553673 0.820191 0.567635
Si Si7 0.967166 0.066003 0.932926
Si Si8 0.172347 0.952940 0.566354
O O1 0.927111 0.814610 0.250000
O O2 0.858338 0.843372 0.999835
O O3 0.986923 0.872543 0.016051
O O4 0.951683 0.750000 0.000000
O O5 0.311348 0.953822 0.250000
O O6 0.358285 0.877596 0.023501
O O7 0.237581 0.919449 0.010092
O O8 0.339993 0.004070 0.980198
O O9 0.351861 0.086354 0.750000
O O10 0.269604 0.115455 0.983325
O O11 0.397982 0.119824 0.021508
O O12 0.811963 0.601476 0.750000
O O13 0.830147 0.529409 0.509548
O O14 0.382033 0.750000 0.500000
O O15 0.418472 0.688146 0.750000
O O16 0.480742 0.661999 0.495627
O O17 0.580006 0.750000 0.500000
O O18 0.550741 0.813533 0.750000
O O19 0.962073 0.058775 0.750000
O O20 0.894553 0.081759 0.004172
O O21 0.000000 0.000000 0.000000
O O22 0.177341 0.945759 0.750000
#
# Coordination Sequence:
#
# PCOD8231877 Si02
#       8
#     8   8   8   8   8   8   8   8
#     4  10  21  37  53  77 112 145 182 229 276 327
#     4  10  21  37  57  86 117 145 183 232 283 337
#     4  10  20  35  57  83 115 151 187 231 281 331
#     4   8  16  33  53  75 106 141 176 220 270 322
#     4  10  21  38  60  83 111 145 188 236 284 343
#     4  11  22  37  57  80 111 148 192 237 282 341
#     4  11  21  35  58  83 110 143 186 234 277 332
#     4  10  19  35  58  83 111 142 183 229 276 331
#
# _framework density 18.468323000000002
#
# number of rings (size 3 to 8) (size 9 to 14) (size 15 to 20)
#    0.000    2.000    1.250    4.500    0.000    4.000 
#    0.000    3.125    0.000    0.000    0.000    0.000 
#    0.000    0.000    0.000    0.000    0.000    0.000 
#
# Total GULP energy -793612.196321 kJ/mol
# GULP energy per Si atom -12400.190568 kJ/mol
# Density = 1.842629 g / cm^3
# Si number density = 18.468323 Si / 1000 Ang^3
#
#
#
# Elastic Constant Matrix: (Units=GPa)
#
#
# Indices 1 2 3 4 5 6 
#
# 1 138.6328 81.8150 44.8720 0.0000 0.0000 0.0000
# 2 81.8150 114.5160 39.5962 0.0000 0.0000 0.0000
# 3 44.8720 39.5962 68.2381 0.0000 0.0000 0.0000
# 4 0.0000 0.0000 0.0000 30.8900 0.0000 0.0000
# 5 0.0000 0.0000 0.0000 0.0000 30.5961 0.0000
# 6 0.0000 0.0000 0.0000 0.0000 0.0000 49.2619
#
#
#
# Elastic Compliance Matrix: (Units=1/GPa)
#
#
# Indices 1 2 3 4 5 6 
#
# 1 0.013309 -0.008109 -0.004046 0.000000 0.000000 0.000000
# 2 -0.008109 0.015865 -0.003874 0.000000 0.000000 0.000000
# 3 -0.004046 -0.003874 0.019563 0.000000 0.000000 0.000000
# 4 0.000000 0.000000 0.000000 0.032373 0.000000 0.000000
# 5 0.000000 0.000000 0.000000 0.000000 0.032684 0.000000
# 6 0.000000 0.000000 0.000000 0.000000 0.000000 0.020300
#
#
# Mechanical properties :
#
#
# Convention : Reuss Voigt Hill
#
# Bulk Modulus (GPa) = 59.95516 72.66148 66.30832
# Shear Modulus (GPa) = 29.11871 32.48983 30.80427
#
# Velocity S-wave (km/s) = 3.97506 4.19886 4.08849
# Velocity P-wave (km/s) = 7.32136 7.93325 7.63344
#
# Compressibility (1/GPa) = 0.01667913
#
# Stress axis : x y z
#
# Youngs Moduli (GPa) = 75.13930 63.03024 51.11725
#
# Poissons Ratio (x) = 0.51113 0.20682
# Poissons Ratio (y) = 0.60932 0.19801
# Poissons Ratio (z) = 0.30401 0.24416
#
# Static dielectric constant tensor:
#      x y z
#    x 3.659630 0.000000 0.000000 
#    y 0.000000 1.718550 0.000000 
#    z 0.000000 0.000000 3.379480 
# 
# 
# High freq. dielectric constant tensor:
#      x y z
#    x 1.727230 0.000000 0.000000 
#    y 0.000000 1.703490 0.000000 
#    z 0.000000 0.000000 1.719770 
# 
# From -- ./inp_files/7166.got.cif
#   From: 2010.03.12/outbox.cif.g09.slc.cpg/sg57_4_cif.got.tgz:7166.got - 2010.04.16 15:48:40.
