data_PCOD8231862
_publ_section_title
;
Structure prediction by ZEFSAII (Michael W. Deem and Ramdas Pophale) SiO2 
 PCOD8231862
Probable space group: P B C M
;
_chemical_formula_sum "Si O2"
_cell_formula_units_Z 64
_cell_length_a 21.559938
_cell_length_b 17.763724
_cell_length_c 8.762216
_cell_angle_alpha 90.000000
_cell_angle_beta 90.000000
_cell_angle_gamma 90.000000
_cell_volume 3355.795438
_symmetry_space_group_name_H-M "P B C M"
_symmetry_group_IT_number 57
_symmetry_cell_setting 'orthorhombic'
loop_
_space_group_symop_operation_xyz
x,y,z
-x,-y,1/2+z
x,1/2-y,-z
-x,1/2+y,1/2-z
-x,-y,-z
x,y,1/2-z
-x,1/2+y,z
x,1/2-y,1/2+z
loop_
_atom_site_type_symbol
_atom_site_label
_atom_site_fract_x
_atom_site_fract_y
_atom_site_fract_z
Si Si1 0.756108 0.088959 0.423985
Si Si2 0.506345 0.170750 0.568619
Si Si3 0.875108 0.172883 0.426014
Si Si4 0.384097 0.913843 0.572543
Si Si5 0.934505 0.480671 0.930148
Si Si6 0.279092 0.331722 0.570772
Si Si7 0.818340 0.952329 0.572066
Si Si8 0.601316 0.924112 0.931109
O O1 0.768095 0.061535 0.250000
O O2 0.802246 0.158321 0.460711
O O3 0.686016 0.116157 0.447559
O O4 0.770947 0.019600 0.534376
O O5 0.484024 0.250000 0.500000
O O6 0.510187 0.175813 0.750000
O O7 0.573157 0.150624 0.498899
O O8 0.458135 0.107347 0.518464
O O9 0.897914 0.250000 0.500000
O O10 0.888980 0.181805 0.250000
O O11 0.914168 0.101936 0.490000
O O12 0.400458 0.927439 0.750000
O O13 0.392256 0.989730 0.477863
O O14 0.939265 0.483161 0.750000
O O15 0.882972 0.541365 0.981765
O O16 0.000000 0.500000 0.000000
O O17 0.278190 0.250000 0.500000
O O18 0.284359 0.323154 0.750000
O O19 0.215912 0.374935 0.524876
O O20 0.338493 0.378384 0.511528
O O21 0.833511 0.954176 0.750000
O O22 0.591560 0.918228 0.750000
#
# Coordination Sequence:
#
# PCOD8231862 Si02
#       8
#     8   8   8   8   8   8   8   8
#     4   9  19  35  56  83 114 148 188 232 280 336
#     4  12  26  43  59  80 111 150 193 243 299 356
#     4   9  19  35  55  84 118 149 187 232 278 331
#     4  11  22  38  61  87 114 151 193 239 293 350
#     4  10  21  38  60  87 116 153 196 238 281 335
#     4  10  22  36  56  85 116 148 188 236 290 344
#     4  10  19  35  57  84 115 148 187 232 280 336
#     4  11  22  40  61  85 114 148 194 243 291 352
#
# _framework density 19.071484000000002
#
# number of rings (size 3 to 8) (size 9 to 14) (size 15 to 20)
#    0.000    1.750    1.250    4.125    0.000    6.500 
#    0.000    1.875    0.000    0.000    0.000    0.000 
#    0.000    0.000    0.000    0.000    0.000    0.000 
#
# Total GULP energy -793731.805525 kJ/mol
# GULP energy per Si atom -12402.059461 kJ/mol
# Density = 1.902808 g / cm^3
# Si number density = 19.071484 Si / 1000 Ang^3
#
#
#
# Elastic Constant Matrix: (Units=GPa)
#
#
# Indices 1 2 3 4 5 6 
#
# 1 124.6855 30.4585 43.2692 0.0000 0.0000 0.0000
# 2 30.4585 76.6324 23.3607 0.0000 0.0000 0.0000
# 3 43.2692 23.3607 67.8531 0.0000 0.0000 0.0000
# 4 0.0000 0.0000 0.0000 35.0311 0.0000 0.0000
# 5 0.0000 0.0000 0.0000 0.0000 29.8846 0.0000
# 6 0.0000 0.0000 0.0000 0.0000 0.0000 22.5657
#
#
#
# Elastic Compliance Matrix: (Units=1/GPa)
#
#
# Indices 1 2 3 4 5 6 
#
# 1 0.010688 -0.002425 -0.005981 0.000000 0.000000 0.000000
# 2 -0.002425 0.015130 -0.003663 0.000000 0.000000 0.000000
# 3 -0.005981 -0.003663 0.019813 0.000000 0.000000 0.000000
# 4 0.000000 0.000000 0.000000 0.028546 0.000000 0.000000
# 5 0.000000 0.000000 0.000000 0.000000 0.033462 0.000000
# 6 0.000000 0.000000 0.000000 0.000000 0.000000 0.044315
#
#
# Mechanical properties :
#
#
# Convention : Reuss Voigt Hill
#
# Bulk Modulus (GPa) = 46.52521 51.48311 49.00416
# Shear Modulus (GPa) = 27.28448 28.96845 28.12647
#
# Velocity S-wave (km/s) = 3.78649 3.90159 3.84447
# Velocity P-wave (km/s) = 6.60036 6.88113 6.74221
#
# Compressibility (1/GPa) = 0.02149372
#
# Stress axis : x y z
#
# Youngs Moduli (GPa) = 93.56253 66.09557 50.47301
#
# Poissons Ratio (x) = 0.16028 0.30187
# Poissons Ratio (y) = 0.22688 0.18486
# Poissons Ratio (z) = 0.55958 0.24208
#
# Static dielectric constant tensor:
#      x y z
#    x 3.664600 0.000000 0.000000 
#    y 0.000000 3.354600 0.000000 
#    z 0.000000 0.000000 3.467870 
# 
# 
# High freq. dielectric constant tensor:
#      x y z
#    x 1.744930 0.000000 0.000000 
#    y 0.000000 1.733440 0.000000 
#    z 0.000000 0.000000 1.747530 
# 
# From -- ./inp_files/8451.got.cif
#   From: 2010.03.12/outbox.cif.g09.slc.cpg/sg57_5_cif.got.tgz:8451.got - 2010.04.16 15:48:40.
