data_PCOD8231226
_publ_section_title
;
Structure prediction by ZEFSAII (Michael W. Deem and Ramdas Pophale) SiO2 
 PCOD8231226
Probable space group: P B C M
;
_chemical_formula_sum "Si O2"
_cell_formula_units_Z 64
_cell_length_a 20.297232
_cell_length_b 19.182037
_cell_length_c 9.588478
_cell_angle_alpha 90.000000
_cell_angle_beta 90.000000
_cell_angle_gamma 90.000000
_cell_volume 3733.199649
_symmetry_space_group_name_H-M "P B C M"
_symmetry_group_IT_number 57
_symmetry_cell_setting 'orthorhombic'
loop_
_space_group_symop_operation_xyz
x,y,z
-x,-y,1/2+z
x,1/2-y,-z
-x,1/2+y,1/2-z
-x,-y,-z
x,y,1/2-z
-x,1/2+y,z
x,1/2-y,1/2+z
loop_
_atom_site_type_symbol
_atom_site_label
_atom_site_fract_x
_atom_site_fract_y
_atom_site_fract_z
Si Si1 0.754876 0.816407 0.088302
Si Si2 0.595410 0.180108 0.587734
Si Si3 0.014825 0.934082 0.091079
Si Si4 0.340145 0.439634 0.409073
Si Si5 0.845848 0.461852 0.411771
Si Si6 0.701341 0.431160 0.411704
Si Si7 0.488954 0.067837 0.909137
Si Si8 0.123778 0.402325 0.089383
O O1 0.743359 0.799014 0.250000
O O2 0.710018 0.880702 0.039080
O O3 0.831028 0.835712 0.055195
O O4 0.733890 0.750000 0.000000
O O5 0.592946 0.250000 0.500000
O O6 0.589077 0.199504 0.750000
O O7 0.664479 0.141180 0.555842
O O8 0.535132 0.130849 0.539146
O O9 0.011275 0.958834 0.250000
O O10 0.953713 0.880798 0.062108
O O11 0.090568 0.910232 0.058890
O O12 0.000000 0.000000 0.000000
O O13 0.324508 0.461024 0.250000
O O14 0.333108 0.507777 0.502583
O O15 0.413348 0.408228 0.422961
O O16 0.843318 0.483231 0.250000
O O17 0.778426 0.422571 0.453986
O O18 0.853023 0.532648 0.497736
O O19 0.693258 0.450852 0.250000
O O20 0.507354 0.048916 0.750000
O O21 0.500000 0.000000 0.000000
O O22 0.134904 0.424392 0.250000
#
# Coordination Sequence:
#
# PCOD8231226 Si02
#       8
#     8   8   8   8   8   8   8   8
#     4  10  21  34  47  68  98 134 173 210 251 300
#     4  10  22  38  54  77 106 135 169 206 247 298
#     4   8  14  24  40  65  94 121 152 194 243 291
#     4  10  20  34  53  76 101 130 167 208 251 300
#     4   9  16  26  45  73  98 123 158 201 249 294
#     4  10  19  32  52  77 104 132 165 207 251 297
#     4  10  20  35  56  80 105 132 166 207 249 297
#     4   9  16  28  45  65  94 128 162 202 247 295
#
# _framework density 17.143471000000002
#
# number of rings (size 3 to 8) (size 9 to 14) (size 15 to 20)
#    0.000    2.500    2.500    0.000    0.000    2.500 
#    0.000    0.000    0.000    0.750    0.000    0.000 
#    0.000    0.000    0.000    0.000    0.000    0.000 
#
# Total GULP energy -793028.969002 kJ/mol
# GULP energy per Si atom -12391.077641 kJ/mol
# Density = 1.710445 g / cm^3
# Si number density = 17.143471 Si / 1000 Ang^3
#
#
#
# Elastic Constant Matrix: (Units=GPa)
#
#
# Indices 1 2 3 4 5 6 
#
# 1 136.7112 48.7398 33.1438 0.0000 0.0000 0.0000
# 2 48.7398 96.7762 46.2098 0.0000 0.0000 0.0000
# 3 33.1438 46.2098 50.6421 0.0000 0.0000 0.0000
# 4 0.0000 0.0000 0.0000 28.8375 0.0000 0.0000
# 5 0.0000 0.0000 0.0000 0.0000 21.0712 0.0000
# 6 0.0000 0.0000 0.0000 0.0000 0.0000 19.7122
#
#
#
# Elastic Compliance Matrix: (Units=1/GPa)
#
#
# Indices 1 2 3 4 5 6 
#
# 1 0.009195 -0.003114 -0.003176 0.000000 0.000000 0.000000
# 2 -0.003114 0.019366 -0.015633 0.000000 0.000000 0.000000
# 3 -0.003176 -0.015633 0.036090 0.000000 0.000000 0.000000
# 4 0.000000 0.000000 0.000000 0.034677 0.000000 0.000000
# 5 0.000000 0.000000 0.000000 0.000000 0.047458 0.000000
# 6 0.000000 0.000000 0.000000 0.000000 0.000000 0.050730
#
#
# Mechanical properties :
#
#
# Convention : Reuss Voigt Hill
#
# Bulk Modulus (GPa) = 48.06725 60.03514 54.05119
# Shear Modulus (GPa) = 20.13711 24.32658 22.23185
#
# Velocity S-wave (km/s) = 3.43100 3.77105 3.60503
# Velocity P-wave (km/s) = 6.61776 7.35230 6.99468
#
# Compressibility (1/GPa) = 0.02080419
#
# Stress axis : x y z
#
# Youngs Moduli (GPa) = 108.75457 51.63630 27.70869
#
# Poissons Ratio (x) = 0.16082 0.08800
# Poissons Ratio (y) = 0.33870 0.43317
# Poissons Ratio (z) = 0.34541 0.80723
#
# Static dielectric constant tensor:
#      x y z
#    x 4.004110 0.000000 0.000000 
#    y 0.000000 2.820440 0.000000 
#    z 0.000000 0.000000 3.203430 
# 
# 
# High freq. dielectric constant tensor:
#      x y z
#    x 1.691630 0.000000 0.000000 
#    y 0.000000 1.611080 0.000000 
#    z 0.000000 0.000000 1.663390 
# 
# From -- ./inp_files/8525.got.cif
#   From: 2010.03.12/outbox.cif.g09.slc.cpg/sg57_5_cif.got.tgz:8525.got - 2010.04.16 15:48:40.
