data_PCOD8231919
_publ_section_title
;
Structure prediction by ZEFSAII (Michael W. Deem and Ramdas Pophale) SiO2 
 PCOD8231919
Probable space group: P B C M
;
_chemical_formula_sum "Si O2"
_cell_formula_units_Z 48
_cell_length_a 9.882444
_cell_length_b 27.988271
_cell_length_c 8.983976
_cell_angle_alpha 90.000000
_cell_angle_beta 90.000000
_cell_angle_gamma 90.000000
_cell_volume 2484.900569
_symmetry_space_group_name_H-M "P B C M"
_symmetry_group_IT_number 57
_symmetry_cell_setting 'orthorhombic'
loop_
_space_group_symop_operation_xyz
x,y,z
-x,-y,1/2+z
x,1/2-y,-z
-x,1/2+y,1/2-z
-x,-y,-z
x,y,1/2-z
-x,1/2+y,z
x,1/2-y,1/2+z
loop_
_atom_site_type_symbol
_atom_site_label
_atom_site_fract_x
_atom_site_fract_y
_atom_site_fract_z
Si Si1 0.230871 0.607867 0.423758
Si Si2 0.732537 0.897939 0.418378
Si Si3 0.328101 0.798634 0.073266
Si Si4 0.033729 0.049242 0.078580
Si Si5 0.542834 0.452030 0.079614
Si Si6 0.361567 0.202626 0.924340
O O1 0.264246 0.614460 0.250000
O O2 0.240970 0.658002 0.508256
O O3 0.330387 0.568820 0.492251
O O4 0.079898 0.588904 0.450317
O O5 0.787430 0.902594 0.250000
O O6 0.824246 0.929871 0.523681
O O7 0.578138 0.914484 0.426727
O O8 0.730687 0.842585 0.470923
O O9 0.309645 0.796803 0.250000
O O10 0.483840 0.806091 0.024778
O O11 0.272075 0.750000 0.000000
O O12 0.048820 0.036771 0.250000
O O13 0.000000 0.000000 0.000000
O O14 0.584663 0.462395 0.250000
O O15 0.500000 0.500000 0.000000
O O16 0.357195 0.210721 0.750000
O O17 0.300696 0.250000 0.000000
#
# Coordination Sequence:
#
# PCOD8231919 Si02
#       6
#     8   8   8   8   8   8
#     4  11  23  39  58  85 118 154 197 243 290 348
#     4  10  21  39  59  83 117 152 191 239 290 346
#     4  10  19  35  59  89 121 154 192 239 293 348
#     4  11  25  42  60  84 115 155 200 241 291 350
#     4  11  22  37  57  85 116 147 192 245 296 351
#     4   9  18  34  56  86 118 149 185 232 287 341
#
# _framework density 19.316669000000001
#
# number of rings (size 3 to 8) (size 9 to 14) (size 15 to 20)
#    0.000    1.667    1.667    3.000    0.000    9.333 
#    0.000    0.833    0.000    2.000    0.000    0.000 
#    0.000    0.000    0.000    0.000    0.000    0.000 
#
# Total GULP energy -595372.783818 kJ/mol
# GULP energy per Si atom -12403.599663 kJ/mol
# Density = 1.927270 g / cm^3
# Si number density = 19.316669 Si / 1000 Ang^3
#
#
#
# Elastic Constant Matrix: (Units=GPa)
#
#
# Indices 1 2 3 4 5 6 
#
# 1 34.6401 -1.7159 22.4051 0.0000 0.0000 0.0000
# 2 -1.7159 115.3753 45.6849 0.0000 0.0000 0.0000
# 3 22.4051 45.6849 99.7702 0.0000 0.0000 0.0000
# 4 0.0000 0.0000 0.0000 42.2509 0.0000 0.0000
# 5 0.0000 0.0000 0.0000 0.0000 29.5723 0.0000
# 6 0.0000 0.0000 0.0000 0.0000 0.0000 25.6805
#
#
#
# Elastic Compliance Matrix: (Units=1/GPa)
#
#
# Indices 1 2 3 4 5 6 
#
# 1 0.035599 0.004513 -0.010061 0.000000 0.000000 0.000000
# 2 0.004513 0.011159 -0.006123 0.000000 0.000000 0.000000
# 3 -0.010061 -0.006123 0.015086 0.000000 0.000000 0.000000
# 4 0.000000 0.000000 0.000000 0.023668 0.000000 0.000000
# 5 0.000000 0.000000 0.000000 0.000000 0.033815 0.000000
# 6 0.000000 0.000000 0.000000 0.000000 0.000000 0.038940
#
#
# Mechanical properties :
#
#
# Convention : Reuss Voigt Hill
#
# Bulk Modulus (GPa) = 25.97228 42.50374 34.23801
# Shear Modulus (GPa) = 25.71426 31.72819 28.72123
#
# Velocity S-wave (km/s) = 3.65251 4.05721 3.86017
# Velocity P-wave (km/s) = 5.59129 6.63320 6.13441
#
# Compressibility (1/GPa) = 0.03850259
#
# Stress axis : x y z
#
# Youngs Moduli (GPa) = 28.09041 89.61280 66.28543
#
# Poissons Ratio (x) = -0.40445 0.66690
# Poissons Ratio (y) = -0.12678 0.40589
# Poissons Ratio (z) = 0.28262 0.54873
#
# Static dielectric constant tensor:
#      x y z
#    x 3.298140 0.000000 0.000000 
#    y 0.000000 3.563260 0.000000 
#    z 0.000000 0.000000 3.601260 
# 
# 
# High freq. dielectric constant tensor:
#      x y z
#    x 1.729720 0.000000 0.000000 
#    y 0.000000 1.770120 0.000000 
#    z 0.000000 0.000000 1.760930 
# 
# From -- ./inp_files/2137.got.cif
#   From: 2010.03.12/outbox.cif.g09.slc.cpg/sg57_2_cif.got.tgz:2137.got - 2010.04.16 15:48:40.
