data_PCOD8231935
_publ_section_title
;
Structure prediction by ZEFSAII (Michael W. Deem and Ramdas Pophale) SiO2 
 PCOD8231935
Probable space group: P B C M
;
_chemical_formula_sum "Si O2"
_cell_formula_units_Z 48
_cell_length_a 9.878539
_cell_length_b 14.064867
_cell_length_c 16.887721
_cell_angle_alpha 90.000000
_cell_angle_beta 90.000000
_cell_angle_gamma 90.000000
_cell_volume 2346.385650
_symmetry_space_group_name_H-M "P B C M"
_symmetry_group_IT_number 57
_symmetry_cell_setting 'orthorhombic'
loop_
_space_group_symop_operation_xyz
x,y,z
-x,-y,1/2+z
x,1/2-y,-z
-x,1/2+y,1/2-z
-x,-y,-z
x,y,1/2-z
-x,1/2+y,z
x,1/2-y,1/2+z
loop_
_atom_site_type_symbol
_atom_site_label
_atom_site_fract_x
_atom_site_fract_y
_atom_site_fract_z
Si Si1 0.062463 0.520942 0.913922
Si Si2 0.394607 0.033045 0.844070
Si Si3 0.992016 0.232390 0.911450
Si Si4 0.283808 0.229413 0.841492
Si Si5 0.672720 0.939236 0.656229
Si Si6 0.156844 0.903733 0.840427
O O1 0.081981 0.632371 0.900872
O O2 0.206472 0.471764 0.900782
O O3 0.962279 0.481063 0.847071
O O4 0.000000 0.500000 0.000000
O O5 0.380001 0.035028 0.750000
O O6 0.354468 0.136459 0.881894
O O7 0.545282 0.003420 0.868966
O O8 0.292132 0.951980 0.876135
O O9 0.879582 0.310177 0.889758
O O10 0.124545 0.238241 0.857768
O O11 0.043048 0.250000 0.000000
O O12 0.302297 0.211693 0.750000
O O13 0.357092 0.328415 0.864722
O O14 0.707400 0.950644 0.750000
O O15 0.175933 0.872966 0.750000
#
# Coordination Sequence:
#
# PCOD8231935 Si02
#       6
#     8   8   8   8   8   8
#     4  12  23  39  63  89 123 161 207 258 310 366
#     4   9  20  37  60  89 125 161 202 260 314 364
#     4  12  23  37  62  89 127 163 209 258 315 366
#     4  10  19  35  61  87 118 162 208 253 312 373
#     4  10  21  38  61  91 123 160 208 257 306 371
#     4  11  22  38  62  93 122 157 207 258 307 368
#
# _framework density 20.456994999999999
#
# number of rings (size 3 to 8) (size 9 to 14) (size 15 to 20)
#    0.000    1.333    5.000    1.000    0.000    3.333 
#    0.000    4.167    0.000    0.000    0.000    0.000 
#    0.000    0.000    0.000    0.000    0.000    0.000 
#
# Total GULP energy -595095.825228 kJ/mol
# GULP energy per Si atom -12397.829692 kJ/mol
# Density = 2.041043 g / cm^3
# Si number density = 20.456995 Si / 1000 Ang^3
#
#
#
# Elastic Constant Matrix: (Units=GPa)
#
#
# Indices 1 2 3 4 5 6 
#
# 1 132.7250 63.9030 22.2813 0.0000 0.0000 0.0000
# 2 63.9030 168.0635 39.9865 0.0000 0.0000 0.0000
# 3 22.2813 39.9865 21.5554 0.0000 0.0000 0.0000
# 4 0.0000 0.0000 0.0000 23.7460 0.0000 0.0000
# 5 0.0000 0.0000 0.0000 0.0000 18.1646 0.0000
# 6 0.0000 0.0000 0.0000 0.0000 0.0000 36.2198
#
#
#
# Elastic Compliance Matrix: (Units=1/GPa)
#
#
# Indices 1 2 3 4 5 6 
#
# 1 0.009591 -0.002306 -0.005637 0.000000 0.000000 0.000000
# 2 -0.002306 0.011205 -0.018404 0.000000 0.000000 0.000000
# 3 -0.005637 -0.018404 0.086358 0.000000 0.000000 0.000000
# 4 0.000000 0.000000 0.000000 0.042112 0.000000 0.000000
# 5 0.000000 0.000000 0.000000 0.000000 0.055052 0.000000
# 6 0.000000 0.000000 0.000000 0.000000 0.000000 0.027609
#
#
# Mechanical properties :
#
#
# Convention : Reuss Voigt Hill
#
# Bulk Modulus (GPa) = 18.36117 63.85395 41.10756
# Shear Modulus (GPa) = 16.51396 28.70426 22.60911
#
# Velocity S-wave (km/s) = 2.84430 3.74993 3.32806
# Velocity P-wave (km/s) = 4.44766 7.07325 5.90815
#
# Compressibility (1/GPa) = 0.05446277
#
# Stress axis : x y z
#
# Youngs Moduli (GPa) = 104.26751 89.24237 11.57966
#
# Poissons Ratio (x) = 0.20575 0.06527
# Poissons Ratio (y) = 0.24040 0.21311
# Poissons Ratio (z) = 0.58773 1.64237
#
# Static dielectric constant tensor:
#      x y z
#    x 3.615770 0.000000 0.000000 
#    y 0.000000 4.186690 0.000000 
#    z 0.000000 0.000000 3.556200 
# 
# 
# High freq. dielectric constant tensor:
#      x y z
#    x 1.784720 0.000000 0.000000 
#    y 0.000000 1.822250 0.000000 
#    z 0.000000 0.000000 1.776040 
# 
# From -- ./inp_files/20987.got.cif
#   From: 2010.03.12/outbox.cif.g09.slc.cpg/sg57_11_cif.got.tgz:20987.got - 2010.04.16 15:48:40.
