data_PCOD8231750
_publ_section_title
;
Structure prediction by ZEFSAII (Michael W. Deem and Ramdas Pophale) SiO2 
 PCOD8231750
Probable space group: P B C M
;
_chemical_formula_sum "Si O2"
_cell_formula_units_Z 32
_cell_length_a 9.893795
_cell_length_b 19.894899
_cell_length_c 8.751954
_cell_angle_alpha 90.000000
_cell_angle_beta 90.000000
_cell_angle_gamma 90.000000
_cell_volume 1722.700075
_symmetry_space_group_name_H-M "P B C M"
_symmetry_group_IT_number 57
_symmetry_cell_setting 'orthorhombic'
loop_
_space_group_symop_operation_xyz
x,y,z
-x,-y,1/2+z
x,1/2-y,-z
-x,1/2+y,1/2-z
-x,-y,-z
x,y,1/2-z
-x,1/2+y,z
x,1/2-y,1/2+z
loop_
_atom_site_type_symbol
_atom_site_label
_atom_site_fract_x
_atom_site_fract_y
_atom_site_fract_z
Si Si1 0.325817 0.544219 0.575362
Si Si2 0.028889 0.571467 0.926635
Si Si3 0.387421 0.407707 0.072847
Si Si4 0.168475 0.322048 0.570185
O O1 0.342827 0.518828 0.750000
O O2 0.189010 0.586949 0.556018
O O3 0.453334 0.590979 0.530276
O O4 0.319148 0.478854 0.468469
O O5 0.984412 0.570843 0.750000
O O6 0.000000 0.500000 0.000000
O O7 0.948498 0.628415 0.014705
O O8 0.363015 0.393280 0.250000
O O9 0.316245 0.348312 0.979297
O O10 0.139266 0.250000 0.500000
O O11 0.162817 0.316464 0.750000
#
# Coordination Sequence:
#
# PCOD8231750 Si02
#       4
#     8   8   8   8
#     4   9  19  34  56  86 118 148 187 236 286 340
#     4  11  21  36  59  89 120 154 194 241 291 347
#     4  10  19  34  57  85 115 149 189 236 287 343
#     4  12  25  41  59  83 116 156 199 244 296 356
#
# _framework density 18.575492000000001
#
# number of rings (size 3 to 8) (size 9 to 14) (size 15 to 20)
#    0.000    1.500    2.500    3.750    0.000    2.000 
#    0.000    1.250    0.000    0.000    0.000    0.000 
#    0.000    0.000    0.000    0.000    0.000    0.000 
#
# Total GULP energy -396874.702204 kJ/mol
# GULP energy per Si atom -12402.334444 kJ/mol
# Density = 1.853321 g / cm^3
# Si number density = 18.575492 Si / 1000 Ang^3
#
#
#
# Elastic Constant Matrix: (Units=GPa)
#
#
# Indices 1 2 3 4 5 6 
#
# 1 114.4542 61.3173 47.2796 0.0000 0.0000 0.0000
# 2 61.3173 127.3616 63.4478 0.0000 0.0000 0.0000
# 3 47.2796 63.4478 140.3719 0.0000 0.0000 0.0000
# 4 0.0000 0.0000 0.0000 33.8674 0.0000 0.0000
# 5 0.0000 0.0000 0.0000 0.0000 29.8490 0.0000
# 6 0.0000 0.0000 0.0000 0.0000 0.0000 24.3160
#
#
#
# Elastic Compliance Matrix: (Units=1/GPa)
#
#
# Indices 1 2 3 4 5 6 
#
# 1 0.012142 -0.004915 -0.001868 0.000000 0.000000 0.000000
# 2 -0.004915 0.012123 -0.003824 0.000000 0.000000 0.000000
# 3 -0.001868 -0.003824 0.009482 0.000000 0.000000 0.000000
# 4 0.000000 0.000000 0.000000 0.029527 0.000000 0.000000
# 5 0.000000 0.000000 0.000000 0.000000 0.033502 0.000000
# 6 0.000000 0.000000 0.000000 0.000000 0.000000 0.041125
#
#
# Mechanical properties :
#
#
# Convention : Reuss Voigt Hill
#
# Bulk Modulus (GPa) = 79.79437 80.69747 80.24592
# Shear Modulus (GPa) = 30.61991 31.61601 31.11796
#
# Velocity S-wave (km/s) = 4.06446 4.13004 4.09738
# Velocity P-wave (km/s) = 8.06700 8.14127 8.10422
#
# Compressibility (1/GPa) = 0.01253221
#
# Stress axis : x y z
#
# Youngs Moduli (GPa) = 82.35910 82.48757 105.46739
#
# Poissons Ratio (x) = 0.40543 0.19701
# Poissons Ratio (y) = 0.40480 0.40332
# Poissons Ratio (z) = 0.15385 0.31544
#
# Static dielectric constant tensor:
#      x y z
#    x 3.841440 0.000000 0.000000 
#    y 0.000000 3.175040 0.000000 
#    z 0.000000 0.000000 3.569940 
# 
# 
# High freq. dielectric constant tensor:
#      x y z
#    x 1.739980 0.000000 0.000000 
#    y 0.000000 1.686320 0.000000 
#    z 0.000000 0.000000 1.736260 
# 
# From -- ./inp_files/2358.got.cif
#   From: 2010.03.12/outbox.cif.g09.slc.cpg/sg57_2_cif.got.tgz:2358.got - 2010.04.16 15:48:40.
