data_PCOD8231871
_publ_section_title
;
Structure prediction by ZEFSAII (Michael W. Deem and Ramdas Pophale) SiO2 
 PCOD8231871
Probable space group: P B C M
;
_chemical_formula_sum "Si O2"
_cell_formula_units_Z 56
_cell_length_a 21.397106
_cell_length_b 14.665112
_cell_length_c 9.018391
_cell_angle_alpha 90.000000
_cell_angle_beta 90.000000
_cell_angle_gamma 90.000000
_cell_volume 2829.889533
_symmetry_space_group_name_H-M "P B C M"
_symmetry_group_IT_number 57
_symmetry_cell_setting 'orthorhombic'
loop_
_space_group_symop_operation_xyz
x,y,z
-x,-y,1/2+z
x,1/2-y,-z
-x,1/2+y,1/2-z
-x,-y,-z
x,y,1/2-z
-x,1/2+y,z
x,1/2-y,1/2+z
loop_
_atom_site_type_symbol
_atom_site_label
_atom_site_fract_x
_atom_site_fract_y
_atom_site_fract_z
Si Si1 0.731795 0.018415 0.079893
Si Si2 0.815980 0.339004 0.075400
Si Si3 0.513399 0.849896 0.574826
Si Si4 0.937492 0.604674 0.582127
Si Si5 0.802970 0.661776 0.920822
Si Si6 0.059236 0.611605 0.082639
Si Si7 0.411246 0.997857 0.922256
O O1 0.745594 0.047398 0.250000
O O2 0.751705 0.915044 0.052060
O O3 0.659458 0.028632 0.039204
O O4 0.772762 0.077348 0.969223
O O5 0.816306 0.328419 0.250000
O O6 0.785831 0.250000 0.000000
O O7 0.886669 0.348644 0.019549
O O8 0.510733 0.750000 0.500000
O O9 0.521306 0.835729 0.750000
O O10 0.570474 0.911566 0.514219
O O11 0.451226 0.908052 0.535242
O O12 0.947441 0.638936 0.750000
O O13 0.871301 0.636462 0.513963
O O14 0.937239 0.496351 0.578422
O O15 0.992654 0.645415 0.480790
O O16 0.811602 0.683206 0.750000
O O17 0.775459 0.750000 0.000000
O O18 0.067390 0.648224 0.250000
O O19 0.419763 0.022611 0.750000
#
# Coordination Sequence:
#
# PCOD8231871 Si02
#       7
#     8   8   8   8   8   8   8
#     4  10  21  42  63  84 119 156 194 242 293 341
#     4  12  25  40  60  85 114 151 196 243 296 356
#     4  10  20  36  60  91 125 158 196 240 285 340
#     4   9  18  34  55  80 110 147 188 235 297 353
#     4  10  21  37  57  81 113 150 189 237 288 347
#     4  10  19  35  58  82 110 145 188 241 299 353
#     4   9  20  38  62  89 119 159 198 239 291 342
#
# _framework density 19.788758000000001
#
# number of rings (size 3 to 8) (size 9 to 14) (size 15 to 20)
#    0.000    2.000    1.429    2.143    0.000    4.571 
#    0.000    4.286    0.000    0.000    0.000    0.000 
#    0.000    0.000    0.000    0.000    0.000    0.000 
#
# Total GULP energy -694459.021836 kJ/mol
# GULP energy per Si atom -12401.053961 kJ/mol
# Density = 1.974372 g / cm^3
# Si number density = 19.788758 Si / 1000 Ang^3
#
#
#
# Elastic Constant Matrix: (Units=GPa)
#
#
# Indices 1 2 3 4 5 6 
#
# 1 81.2694 18.8933 38.4606 0.0000 0.0000 0.0000
# 2 18.8933 81.3159 50.9462 0.0000 0.0000 0.0000
# 3 38.4606 50.9462 116.0248 0.0000 0.0000 0.0000
# 4 0.0000 0.0000 0.0000 35.0947 0.0000 0.0000
# 5 0.0000 0.0000 0.0000 0.0000 22.4546 0.0000
# 6 0.0000 0.0000 0.0000 0.0000 0.0000 -14.1720
#
#
#
# Elastic Compliance Matrix: (Units=1/GPa)
#
#
# Indices 1 2 3 4 5 6 
#
# 1 0.014609 -0.000497 -0.004624 0.000000 0.000000 0.000000
# 2 -0.000497 0.016982 -0.007292 0.000000 0.000000 0.000000
# 3 -0.004624 -0.007292 0.013354 0.000000 0.000000 0.000000
# 4 0.000000 0.000000 0.000000 0.028494 0.000000 0.000000
# 5 0.000000 0.000000 0.000000 0.000000 0.044534 0.000000
# 6 0.000000 0.000000 0.000000 0.000000 0.000000 -0.070562
#
#
# Mechanical properties :
#
#
# Convention : Reuss Voigt Hill
#
# Bulk Modulus (GPa) = 49.70775 55.02337 52.36556
# Shear Modulus (GPa) = 63.33634 20.02945 41.68289
#
# Velocity S-wave (km/s) = 5.66354 3.18490 4.59452
# Velocity P-wave (km/s) = 8.24265 6.43355 7.39364
#
# Compressibility (1/GPa) = 0.02011759
#
# Stress axis : x y z
#
# Youngs Moduli (GPa) = 68.45200 58.88689 74.88612
#
# Poissons Ratio (x) = 0.02927 0.34630
# Poissons Ratio (y) = 0.03402 0.54606
# Poissons Ratio (z) = 0.31655 0.42940
#
# Static dielectric constant tensor:
#      x y z
#    x 3.627550 0.000000 0.000000 
#    y 0.000000 3.634900 0.000000 
#    z 0.000000 0.000000 3.642420 
# 
# 
# High freq. dielectric constant tensor:
#      x y z
#    x 1.768560 0.000000 0.000000 
#    y 0.000000 1.774850 0.000000 
#    z 0.000000 0.000000 1.770000 
# 
# From -- ./inp_files/8149.got.cif
#   From: 2010.03.12/outbox.cif.g09.slc.cpg/sg57_5_cif.got.tgz:8149.got - 2010.04.16 15:48:40.
