data_PCOD8231186
_publ_section_title
;
Structure prediction by ZEFSAII (Michael W. Deem and Ramdas Pophale) SiO2 
 PCOD8231186
Probable space group: P B C M
;
_chemical_formula_sum "Si O2"
_cell_formula_units_Z 48
_cell_length_a 20.376758
_cell_length_b 13.860107
_cell_length_c 8.918108
_cell_angle_alpha 90.000000
_cell_angle_beta 90.000000
_cell_angle_gamma 90.000000
_cell_volume 2518.688146
_symmetry_space_group_name_H-M "P B C M"
_symmetry_group_IT_number 57
_symmetry_cell_setting 'orthorhombic'
loop_
_space_group_symop_operation_xyz
x,y,z
-x,-y,1/2+z
x,1/2-y,-z
-x,1/2+y,1/2-z
-x,-y,-z
x,y,1/2-z
-x,1/2+y,z
x,1/2-y,1/2+z
loop_
_atom_site_type_symbol
_atom_site_label
_atom_site_fract_x
_atom_site_fract_y
_atom_site_fract_z
Si Si1 0.033557 0.646334 0.573838
Si Si2 0.469920 0.152132 0.075865
Si Si3 0.221863 0.353291 0.425740
Si Si4 0.095209 0.030080 0.574234
Si Si5 0.605015 0.152015 0.924508
Si Si6 0.338588 0.456041 0.919990
O O1 0.044050 0.750000 0.500000
O O2 0.042914 0.657714 0.750000
O O3 0.087418 0.570899 0.512582
O O4 0.961938 0.605502 0.531028
O O5 0.484233 0.170142 0.250000
O O6 0.413290 0.074579 0.050238
O O7 0.444623 0.250000 0.000000
O O8 0.536858 0.117209 0.998185
O O9 0.214175 0.250000 0.500000
O O10 0.219289 0.336789 0.250000
O O11 0.163091 0.422474 0.479414
O O12 0.290203 0.403083 0.467297
O O13 0.094276 0.007317 0.750000
O O14 0.591763 0.169993 0.750000
O O15 0.661180 0.071156 0.948411
O O16 0.631118 0.250000 0.000000
O O17 0.317216 0.430721 0.750000
#
# Coordination Sequence:
#
# PCOD8231186 Si02
#       6
#     8   8   8   8   8   8
#     4  10  19  33  57  85 114 146 180 224 270 314
#     4  10  19  32  51  76 104 134 170 215 266 319
#     4  11  23  38  58  81 109 143 177 216 261 314
#     4   9  20  37  55  81 113 146 185 222 263 315
#     4  10  20  35  54  76 102 133 172 220 270 320
#     4  10  22  37  53  76 106 139 178 220 262 313
#
# _framework density 19.057541000000001
#
# number of rings (size 3 to 8) (size 9 to 14) (size 15 to 20)
#    0.000    2.000    0.000    4.500    0.000    6.000 
#    0.000    0.833    0.000    2.000    0.000    0.000 
#    0.000    0.000    0.000    0.000    0.000    0.000 
#
# Total GULP energy -595271.671469 kJ/mol
# GULP energy per Si atom -12401.493156 kJ/mol
# Density = 1.901416 g / cm^3
# Si number density = 19.057541 Si / 1000 Ang^3
#
#
#
# Elastic Constant Matrix: (Units=GPa)
#
#
# Indices 1 2 3 4 5 6 
#
# 1 55.3248 50.2325 40.4064 0.0000 0.0000 0.0000
# 2 50.2325 145.7440 65.5144 0.0000 0.0000 0.0000
# 3 40.4064 65.5144 102.7987 0.0000 0.0000 0.0000
# 4 0.0000 0.0000 0.0000 29.8950 0.0000 0.0000
# 5 0.0000 0.0000 0.0000 0.0000 24.4681 0.0000
# 6 0.0000 0.0000 0.0000 0.0000 0.0000 27.0439
#
#
#
# Elastic Compliance Matrix: (Units=1/GPa)
#
#
# Indices 1 2 3 4 5 6 
#
# 1 0.029692 -0.006990 -0.007216 0.000000 0.000000 0.000000
# 2 -0.006990 0.011262 -0.004430 0.000000 0.000000 0.000000
# 3 -0.007216 -0.004430 0.015387 0.000000 0.000000 0.000000
# 4 0.000000 0.000000 0.000000 0.033450 0.000000 0.000000
# 5 0.000000 0.000000 0.000000 0.000000 0.040870 0.000000
# 6 0.000000 0.000000 0.000000 0.000000 0.000000 0.036977
#
#
# Mechanical properties :
#
#
# Convention : Reuss Voigt Hill
#
# Bulk Modulus (GPa) = 52.43998 68.46379 60.45188
# Shear Modulus (GPa) = 23.66690 26.12901 24.89796
#
# Velocity S-wave (km/s) = 3.52783 3.70680 3.61842
# Velocity P-wave (km/s) = 6.64609 7.37043 7.01761
#
# Compressibility (1/GPa) = 0.01906942
#
# Stress axis : x y z
#
# Youngs Moduli (GPa) = 33.67926 88.79631 64.98912
#
# Poissons Ratio (x) = 0.62068 0.46897
# Poissons Ratio (y) = 0.23542 0.28788
# Poissons Ratio (z) = 0.24303 0.39334
#
# Static dielectric constant tensor:
#      x y z
#    x 3.313860 0.000000 0.000000 
#    y 0.000000 3.565490 0.000000 
#    z 0.000000 0.000000 3.533980 
# 
# 
# High freq. dielectric constant tensor:
#      x y z
#    x 1.719970 0.000000 0.000000 
#    y 0.000000 1.753250 0.000000 
#    z 0.000000 0.000000 1.750070 
# 
# From -- ./inp_files/6538.got.cif
#   From: 2010.03.12/outbox.cif.g09.slc.cpg/sg57_4_cif.got.tgz:6538.got - 2010.04.16 15:48:40.
