data_PCOD8231028
_publ_section_title
;
Structure prediction by ZEFSAII (Michael W. Deem and Ramdas Pophale) SiO2 
 PCOD8231028
Probable space group: P B C M
;
_chemical_formula_sum "Si O2"
_cell_formula_units_Z 64
_cell_length_a 12.484315
_cell_length_b 29.532459
_cell_length_c 8.749010
_cell_angle_alpha 90.000000
_cell_angle_beta 90.000000
_cell_angle_gamma 90.000000
_cell_volume 3225.694552
_symmetry_space_group_name_H-M "P B C M"
_symmetry_group_IT_number 57
_symmetry_cell_setting 'orthorhombic'
loop_
_space_group_symop_operation_xyz
x,y,z
-x,-y,1/2+z
x,1/2-y,-z
-x,1/2+y,1/2-z
-x,-y,-z
x,y,1/2-z
-x,1/2+y,z
x,1/2-y,1/2+z
loop_
_atom_site_type_symbol
_atom_site_label
_atom_site_fract_x
_atom_site_fract_y
_atom_site_fract_z
Si Si1 0.177794 0.317071 0.576157
Si Si2 0.936242 0.204126 0.427635
Si Si3 0.680234 0.066799 0.069210
Si Si4 0.878195 0.592939 0.925015
Si Si5 0.476649 0.390601 0.068040
Si Si6 0.314347 0.465992 0.428099
Si Si7 0.117408 0.889669 0.072754
Si Si8 0.390386 0.295019 0.071806
O O1 0.216795 0.311586 0.750000
O O2 0.168877 0.369906 0.538228
O O3 0.263987 0.293962 0.465694
O O4 0.063657 0.293916 0.548579
O O5 0.887715 0.250000 0.500000
O O6 0.905020 0.200208 0.250000
O O7 0.886423 0.162146 0.518331
O O8 0.665287 0.068424 0.250000
O O9 0.665074 0.015805 0.002539
O O10 0.595468 0.099668 0.989922
O O11 0.798305 0.083262 0.027805
O O12 0.860103 0.609394 0.750000
O O13 0.809855 0.547606 0.958150
O O14 0.003878 0.585120 0.955369
O O15 0.473260 0.390390 0.250000
O O16 0.395492 0.428746 0.000827
O O17 0.442616 0.341109 0.004992
O O18 0.337791 0.468541 0.250000
O O19 0.150286 0.890599 0.250000
O O20 0.408585 0.292474 0.250000
O O21 0.444853 0.250000 0.000000
#
# Coordination Sequence:
#
# PCOD8231028 Si02
#       8
#     8   8   8   8   8   8   8   8
#     4  10  19  31  51  83 120 152 185 228 278 337
#     4  10  20  34  54  82 114 149 191 236 284 336
#     4  11  23  38  59  84 114 150 193 244 291 341
#     4   9  17  34  58  83 115 154 189 227 284 342
#     4  10  21  40  62  82 113 152 192 236 286 344
#     4   9  18  36  61  88 115 148 187 235 295 349
#     4  10  21  37  58  82 114 154 195 236 282 341
#     4  11  22  36  57  83 115 152 187 231 283 341
#
# _framework density 19.840686999999999
#
# number of rings (size 3 to 8) (size 9 to 14) (size 15 to 20)
#    0.000    2.000    1.250    2.625    0.000    4.500 
#    0.000    2.500    0.000    1.500    0.000    0.000 
#    0.000    0.000    0.000    0.000    0.000    0.000 
#
# Total GULP energy -793594.664756 kJ/mol
# GULP energy per Si atom -12399.916637 kJ/mol
# Density = 1.979553 g / cm^3
# Si number density = 19.840687 Si / 1000 Ang^3
#
#
#
# Elastic Constant Matrix: (Units=GPa)
#
#
# Indices 1 2 3 4 5 6 
#
# 1 83.2750 47.2730 14.2104 0.0000 0.0000 0.0000
# 2 47.2730 132.4351 28.8944 0.0000 0.0000 0.0000
# 3 14.2104 28.8944 33.1648 0.0000 0.0000 0.0000
# 4 0.0000 0.0000 0.0000 26.3341 0.0000 0.0000
# 5 0.0000 0.0000 0.0000 0.0000 26.4221 0.0000
# 6 0.0000 0.0000 0.0000 0.0000 0.0000 15.0291
#
#
#
# Elastic Compliance Matrix: (Units=1/GPa)
#
#
# Indices 1 2 3 4 5 6 
#
# 1 0.015189 -0.004941 -0.002203 0.000000 0.000000 0.000000
# 2 -0.004941 0.010930 -0.007406 0.000000 0.000000 0.000000
# 3 -0.002203 -0.007406 0.037549 0.000000 0.000000 0.000000
# 4 0.000000 0.000000 0.000000 0.037974 0.000000 0.000000
# 5 0.000000 0.000000 0.000000 0.000000 0.037847 0.000000
# 6 0.000000 0.000000 0.000000 0.000000 0.000000 0.066537
#
#
# Mechanical properties :
#
#
# Convention : Reuss Voigt Hill
#
# Bulk Modulus (GPa) = 28.92858 47.73671 38.33265
# Shear Modulus (GPa) = 20.27164 24.12353 22.19758
#
# Velocity S-wave (km/s) = 3.19990 3.49070 3.34846
# Velocity P-wave (km/s) = 5.31645 6.35287 5.85762
#
# Compressibility (1/GPa) = 0.03456789
#
# Stress axis : x y z
#
# Youngs Moduli (GPa) = 65.83560 91.48790 26.63199
#
# Poissons Ratio (x) = 0.45205 0.05868
# Poissons Ratio (y) = 0.32530 0.19723
# Poissons Ratio (z) = 0.14506 0.67754
#
# Static dielectric constant tensor:
#      x y z
#    x 3.453930 0.000000 0.000000 
#    y 0.000000 3.817890 0.000000 
#    z 0.000000 0.000000 3.452280 
# 
# 
# High freq. dielectric constant tensor:
#      x y z
#    x 1.756160 0.000000 0.000000 
#    y 0.000000 1.780120 0.000000 
#    z 0.000000 0.000000 1.762510 
# 
# From -- ./inp_files/3902.got.cif
#   From: 2010.03.12/outbox.cif.g09.slc.cpg/sg57_2_cif.got.tgz:3902.got - 2010.04.16 15:48:40.
