data_PCOD8231394
_publ_section_title
;
Structure prediction by ZEFSAII (Michael W. Deem and Ramdas Pophale) SiO2 
 PCOD8231394
Probable space group: P B C M
;
_chemical_formula_sum "Si O2"
_cell_formula_units_Z 56
_cell_length_a 23.605885
_cell_length_b 14.372501
_cell_length_c 9.417164
_cell_angle_alpha 90.000000
_cell_angle_beta 90.000000
_cell_angle_gamma 90.000000
_cell_volume 3195.014021
_symmetry_space_group_name_H-M "P B C M"
_symmetry_group_IT_number 57
_symmetry_cell_setting 'orthorhombic'
loop_
_space_group_symop_operation_xyz
x,y,z
-x,-y,1/2+z
x,1/2-y,-z
-x,1/2+y,1/2-z
-x,-y,-z
x,y,1/2-z
-x,1/2+y,z
x,1/2-y,1/2+z
loop_
_atom_site_type_symbol
_atom_site_label
_atom_site_fract_x
_atom_site_fract_y
_atom_site_fract_z
Si Si1 0.147801 0.153995 0.916523
Si Si2 0.767315 0.500091 0.917599
Si Si3 0.560593 0.337074 0.910016
Si Si4 0.851896 0.153922 0.416621
Si Si5 0.942922 0.499828 0.913427
Si Si6 0.637952 0.987978 0.086184
Si Si7 0.433120 0.156923 0.082705
O O1 0.152552 0.176500 0.750000
O O2 0.202178 0.094541 0.971465
O O3 0.092460 0.092560 0.950146
O O4 0.144570 0.250000 0.000000
O O5 0.774791 0.498691 0.750000
O O6 0.798021 0.406282 0.973197
O O7 0.702281 0.499958 0.964939
O O8 0.558333 0.301275 0.750000
O O9 0.607020 0.414813 0.932818
O O10 0.497800 0.373044 0.952694
O O11 0.580675 0.250000 0.000000
O O12 0.855074 0.250000 0.500000
O O13 0.846687 0.176120 0.250000
O O14 0.907639 0.093122 0.449341
O O15 0.959839 0.500218 0.750000
O O16 0.000000 0.500000 0.000000
O O17 0.633911 0.953312 0.250000
O O18 0.609045 0.919003 0.977360
O O19 0.422677 0.169708 0.250000
O O20 0.417837 0.250000 0.000000
#
# Coordination Sequence:
#
# PCOD8231394 Si02
#       7
#     8   8   8   8   8   8   8
#     4   9  18  34  53  72  96 130 164 197 239 285
#     4   8  17  34  52  70  98 131 162 198 244 292
#     4   9  19  33  50  72  99 130 163 200 247 298
#     4   9  18  34  53  73  99 133 166 199 241 288
#     4   9  19  34  51  73 103 132 161 197 239 285
#     4  10  19  33  53  75  98 128 164 205 251 295
#     4  10  20  34  50  71  99 130 163 202 247 299
#
# _framework density 17.52731
#
# number of rings (size 3 to 8) (size 9 to 14) (size 15 to 20)
#    0.000    2.857    0.000    2.571    0.000    4.000 
#    0.000    7.857    0.000    0.000    0.000    0.000 
#    0.000    0.000    0.000    0.000    0.000    0.000 
#
# Total GULP energy -694229.861753 kJ/mol
# GULP energy per Si atom -12396.961817 kJ/mol
# Density = 1.748742 g / cm^3
# Si number density = 17.527310 Si / 1000 Ang^3
#
#
#
# Elastic Constant Matrix: (Units=GPa)
#
#
# Indices 1 2 3 4 5 6 
#
# 1 123.3458 58.4438 53.2450 0.0000 0.0000 0.0000
# 2 58.4438 125.2071 60.3667 0.0000 0.0000 0.0000
# 3 53.2450 60.3667 69.5202 0.0000 0.0000 0.0000
# 4 0.0000 0.0000 0.0000 38.0946 0.0000 0.0000
# 5 0.0000 0.0000 0.0000 0.0000 25.2551 0.0000
# 6 0.0000 0.0000 0.0000 0.0000 0.0000 18.1794
#
#
#
# Elastic Compliance Matrix: (Units=1/GPa)
#
#
# Indices 1 2 3 4 5 6 
#
# 1 0.012420 -0.002083 -0.007703 0.000000 0.000000 0.000000
# 2 -0.002083 0.014088 -0.010637 0.000000 0.000000 0.000000
# 3 -0.007703 -0.010637 0.029521 0.000000 0.000000 0.000000
# 4 0.000000 0.000000 0.000000 0.026250 0.000000 0.000000
# 5 0.000000 0.000000 0.000000 0.000000 0.039596 0.000000
# 6 0.000000 0.000000 0.000000 0.000000 0.000000 0.055007
#
#
# Mechanical properties :
#
#
# Convention : Reuss Voigt Hill
#
# Bulk Modulus (GPa) = 65.87277 73.57601 69.72439
# Shear Modulus (GPa) = 22.44266 26.04032 24.24149
#
# Velocity S-wave (km/s) = 3.58220 3.85866 3.72300
# Velocity P-wave (km/s) = 7.40095 7.86901 7.63857
#
# Compressibility (1/GPa) = 0.01518078
#
# Stress axis : x y z
#
# Youngs Moduli (GPa) = 80.51788 70.98323 33.87432
#
# Poissons Ratio (x) = 0.14787 0.26094
# Poissons Ratio (y) = 0.16774 0.36033
# Poissons Ratio (z) = 0.62024 0.75508
#
# Static dielectric constant tensor:
#      x y z
#    x 3.405360 0.000000 0.000000 
#    y 0.000000 3.345620 0.000000 
#    z 0.000000 0.000000 3.112680 
# 
# 
# High freq. dielectric constant tensor:
#      x y z
#    x 1.681750 0.000000 0.000000 
#    y 0.000000 1.679990 0.000000 
#    z 0.000000 0.000000 1.663790 
# 
# From -- ./inp_files/8093.got.cif
#   From: 2010.03.12/outbox.cif.g09.slc.cpg/sg57_5_cif.got.tgz:8093.got - 2010.04.16 15:48:40.
