data_PCOD8231372
_publ_section_title
;
Structure prediction by ZEFSAII (Michael W. Deem and Ramdas Pophale) SiO2 
 PCOD8231372
Probable space group: P B C M
;
_chemical_formula_sum "Si O2"
_cell_formula_units_Z 48
_cell_length_a 17.088131
_cell_length_b 9.752766
_cell_length_c 15.843191
_cell_angle_alpha 90.000000
_cell_angle_beta 90.000000
_cell_angle_gamma 90.000000
_cell_volume 2640.371442
_symmetry_space_group_name_H-M "P B C M"
_symmetry_group_IT_number 57
_symmetry_cell_setting 'orthorhombic'
loop_
_space_group_symop_operation_xyz
x,y,z
-x,-y,1/2+z
x,1/2-y,-z
-x,1/2+y,1/2-z
-x,-y,-z
x,y,1/2-z
-x,1/2+y,z
x,1/2-y,1/2+z
loop_
_atom_site_type_symbol
_atom_site_label
_atom_site_fract_x
_atom_site_fract_y
_atom_site_fract_z
Si Si1 0.554385 0.672615 0.845646
Si Si2 0.450965 0.465170 0.918213
Si Si3 0.314930 0.099070 0.525125
Si Si4 0.819400 0.401919 0.504646
Si Si5 0.088783 0.955911 0.345581
Si Si6 0.977290 0.187274 0.085794
O O1 0.581090 0.695992 0.750000
O O2 0.477265 0.574810 0.847701
O O3 0.527631 0.813621 0.887592
O O4 0.627447 0.605331 0.894694
O O5 0.500000 0.500000 0.000000
O O6 0.359386 0.469002 0.944161
O O7 0.285113 0.250000 0.500000
O O8 0.240959 0.005403 0.548786
O O9 0.781769 0.250000 0.500000
O O10 0.838195 0.454913 0.409870
O O11 0.898733 0.395535 0.559577
O O12 0.119709 0.972684 0.250000
O O13 0.041574 0.813123 0.352028
O O14 0.034307 0.084743 0.367214
O O15 0.015425 0.250000 0.000000
#
# Coordination Sequence:
#
# PCOD8231372 Si02
#       6
#     8   8   8   8   8   8
#     4  10  19  33  52  78 104 128 166 217 253 285
#     4   9  18  33  53  74  99 133 167 201 248 304
#     4   9  19  34  51  70  99 137 170 199 244 305
#     4   9  19  34  51  71 100 137 170 203 248 306
#     4  10  19  33  52  77 102 127 166 216 255 291
#     4   9  18  33  53  74 100 134 168 204 252 307
#
# _framework density 18.179259999999999
#
# number of rings (size 3 to 8) (size 9 to 14) (size 15 to 20)
#    0.000    3.000    0.000    4.500    0.000    4.667 
#    0.000    8.333    0.000    0.000    0.000    0.000 
#    0.000    0.000    0.000    0.000    0.000    0.000 
#
# Total GULP energy -594902.660437 kJ/mol
# GULP energy per Si atom -12393.805426 kJ/mol
# Density = 1.813788 g / cm^3
# Si number density = 18.179260 Si / 1000 Ang^3
#
#
#
# Elastic Constant Matrix: (Units=GPa)
#
#
# Indices 1 2 3 4 5 6 
#
# 1 51.3059 49.8118 28.1347 0.0000 0.0000 0.0000
# 2 49.8118 100.9601 38.2017 0.0000 0.0000 0.0000
# 3 28.1347 38.2017 98.3709 0.0000 0.0000 0.0000
# 4 0.0000 0.0000 0.0000 20.5237 0.0000 0.0000
# 5 0.0000 0.0000 0.0000 0.0000 15.2233 0.0000
# 6 0.0000 0.0000 0.0000 0.0000 0.0000 35.5302
#
#
#
# Elastic Compliance Matrix: (Units=1/GPa)
#
#
# Indices 1 2 3 4 5 6 
#
# 1 0.038907 -0.017567 -0.004306 0.000000 0.000000 0.000000
# 2 -0.017567 0.019543 -0.002565 0.000000 0.000000 0.000000
# 3 -0.004306 -0.002565 0.012393 0.000000 0.000000 0.000000
# 4 0.000000 0.000000 0.000000 0.048724 0.000000 0.000000
# 5 0.000000 0.000000 0.000000 0.000000 0.065689 0.000000
# 6 0.000000 0.000000 0.000000 0.000000 0.000000 0.028145
#
#
# Mechanical properties :
#
#
# Convention : Reuss Voigt Hill
#
# Bulk Modulus (GPa) = 45.52107 53.65925 49.59016
# Shear Modulus (GPa) = 18.54606 23.22136 20.88371
#
# Velocity S-wave (km/s) = 3.19749 3.57789 3.39302
# Velocity P-wave (km/s) = 6.22305 6.83002 6.53359
#
# Compressibility (1/GPa) = 0.02196785
#
# Stress axis : x y z
#
# Youngs Moduli (GPa) = 25.70204 51.17011 80.68949
#
# Poissons Ratio (x) = 0.89890 0.34743
# Poissons Ratio (y) = 0.45151 0.20697
# Poissons Ratio (z) = 0.11067 0.13125
#
# Static dielectric constant tensor:
#      x y z
#    x 3.120090 0.000000 0.000000 
#    y 0.000000 3.796350 0.000000 
#    z 0.000000 0.000000 3.364000 
# 
# 
# High freq. dielectric constant tensor:
#      x y z
#    x 1.674400 0.000000 0.000000 
#    y 0.000000 1.719400 0.000000 
#    z 0.000000 0.000000 1.692740 
# 
# From -- ./inp_files/22829.got.cif
#   From: 2010.03.12/outbox.cif.g09.slc.cpg/sg57_12_cif.got.tgz:22829.got - 2010.04.16 15:48:40.
