data_PCOD8231619
_publ_section_title
;
Structure prediction by ZEFSAII (Michael W. Deem and Ramdas Pophale) SiO2 
 PCOD8231619
Probable space group: P B C M
;
_chemical_formula_sum "Si O2"
_cell_formula_units_Z 64
_cell_length_a 23.152258
_cell_length_b 17.776188
_cell_length_c 8.825789
_cell_angle_alpha 90.000000
_cell_angle_beta 90.000000
_cell_angle_gamma 90.000000
_cell_volume 3632.331932
_symmetry_space_group_name_H-M "P B C M"
_symmetry_group_IT_number 57
_symmetry_cell_setting 'orthorhombic'
loop_
_space_group_symop_operation_xyz
x,y,z
-x,-y,1/2+z
x,1/2-y,-z
-x,1/2+y,1/2-z
-x,-y,-z
x,y,1/2-z
-x,1/2+y,z
x,1/2-y,1/2+z
loop_
_atom_site_type_symbol
_atom_site_label
_atom_site_fract_x
_atom_site_fract_y
_atom_site_fract_z
Si Si1 0.037332 0.935380 0.427026
Si Si2 0.261435 0.038046 0.573512
Si Si3 0.061771 0.330696 0.426863
Si Si4 0.375634 0.537231 0.427268
Si Si5 0.317033 0.176311 0.428794
Si Si6 0.570633 0.616987 0.569583
Si Si7 0.548259 0.170561 0.430248
Si Si8 0.870133 0.521724 0.573479
O O1 0.041121 0.948463 0.250000
O O2 0.004933 0.856004 0.462310
O O3 0.100998 0.947487 0.497017
O O4 0.000000 0.000000 0.500000
O O5 0.268490 0.061163 0.750000
O O6 0.274398 0.108503 0.467660
O O7 0.197147 0.011539 0.536411
O O8 0.307635 0.972250 0.531999
O O9 0.075525 0.250000 0.500000
O O10 0.071665 0.319738 0.250000
O O11 0.104941 0.397399 0.486270
O O12 0.384310 0.538929 0.250000
O O13 0.412982 0.466743 0.487644
O O14 0.401883 0.614282 0.492568
O O15 0.286920 0.250000 0.500000
O O16 0.325767 0.182340 0.250000
O O17 0.378376 0.170678 0.513488
O O18 0.563986 0.623655 0.750000
O O19 0.512662 0.641465 0.488552
O O20 0.564556 0.250000 0.500000
O O21 0.546225 0.176632 0.250000
O O22 0.883740 0.517264 0.750000
#
# Coordination Sequence:
#
# PCOD8231619 Si02
#       8
#     8   8   8   8   8   8   8   8
#     4   9  17  30  48  70  97 127 164 201 236 278
#     4   9  18  35  54  72  95 127 166 206 243 288
#     4   9  18  30  45  71 102 131 158 192 235 282
#     4   8  17  33  53  72  94 125 161 199 241 288
#     4  11  21  33  48  69  98 132 165 200 242 290
#     4  10  19  34  53  73  95 123 158 199 247 298
#     4  11  21  33  49  73  99 124 156 197 246 300
#     4   9  18  32  51  74  99 127 163 202 244 290
#
# _framework density 17.619536
#
# number of rings (size 3 to 8) (size 9 to 14) (size 15 to 20)
#    0.000    2.500    0.000    4.500    0.000    3.500 
#    0.000    6.875    0.000    0.750    0.000    3.500 
#    0.000    0.000    0.000    0.000    0.000    0.000 
#
# Total GULP energy -793113.542008 kJ/mol
# GULP energy per Si atom -12392.399094 kJ/mol
# Density = 1.757943 g / cm^3
# Si number density = 17.619536 Si / 1000 Ang^3
#
#
#
# Elastic Constant Matrix: (Units=GPa)
#
#
# Indices 1 2 3 4 5 6 
#
# 1 54.5483 18.2508 17.7585 0.0000 0.0000 0.0000
# 2 18.2508 65.0204 20.1146 0.0000 0.0000 0.0000
# 3 17.7585 20.1146 61.8034 0.0000 0.0000 0.0000
# 4 0.0000 0.0000 0.0000 24.2748 0.0000 0.0000
# 5 0.0000 0.0000 0.0000 0.0000 20.6868 0.0000
# 6 0.0000 0.0000 0.0000 0.0000 0.0000 -2.7897
#
#
#
# Elastic Compliance Matrix: (Units=1/GPa)
#
#
# Indices 1 2 3 4 5 6 
#
# 1 0.021374 -0.004559 -0.004658 0.000000 0.000000 0.000000
# 2 -0.004559 0.018074 -0.004572 0.000000 0.000000 0.000000
# 3 -0.004658 -0.004572 0.019007 0.000000 0.000000 0.000000
# 4 0.000000 0.000000 0.000000 0.041195 0.000000 0.000000
# 5 0.000000 0.000000 0.000000 0.000000 0.048340 0.000000
# 6 0.000000 0.000000 0.000000 0.000000 0.000000 -0.358455
#
#
# Mechanical properties :
#
#
# Convention : Reuss Voigt Hill
#
# Bulk Modulus (GPa) = 32.38679 32.62445 32.50562
# Shear Modulus (GPa) = -28.96955 16.78424 -6.09266
#
# Velocity S-wave (km/s) = -4.05924 3.08976 -1.86156
# Velocity P-wave (km/s) = 1.88383 5.59331 3.72399
#
# Compressibility (1/GPa) = 0.03087678
#
# Stress axis : x y z
#
# Youngs Moduli (GPa) = 46.78582 55.32846 52.61240
#
# Poissons Ratio (x) = 0.25222 0.24507
# Poissons Ratio (y) = 0.21328 0.24057
# Poissons Ratio (z) = 0.21793 0.25299
#
# Static dielectric constant tensor:
#      x y z
#    x 3.503780 0.000000 0.000000 
#    y 0.000000 3.773280 0.000000 
#    z 0.000000 0.000000 3.298630 
# 
# 
# High freq. dielectric constant tensor:
#      x y z
#    x 1.674790 0.000000 0.000000 
#    y 0.000000 1.666070 0.000000 
#    z 0.000000 0.000000 1.676800 
# 
# From -- ./inp_files/9538.got.cif
#   From: 2010.03.12/outbox.cif.g09.slc.cpg/sg57_5_cif.got.tgz:9538.got - 2010.04.16 15:48:40.
