data_PCOD8231397
_publ_section_title
;
Structure prediction by ZEFSAII (Michael W. Deem and Ramdas Pophale) SiO2 
 PCOD8231397
Probable space group: P B C M
;
_chemical_formula_sum "Si O2"
_cell_formula_units_Z 32
_cell_length_a 11.264905
_cell_length_b 18.954190
_cell_length_c 8.731177
_cell_angle_alpha 90.000000
_cell_angle_beta 90.000000
_cell_angle_gamma 90.000000
_cell_volume 1864.256027
_symmetry_space_group_name_H-M "P B C M"
_symmetry_group_IT_number 57
_symmetry_cell_setting 'orthorhombic'
loop_
_space_group_symop_operation_xyz
x,y,z
-x,-y,1/2+z
x,1/2-y,-z
-x,1/2+y,1/2-z
-x,-y,-z
x,y,1/2-z
-x,1/2+y,z
x,1/2-y,1/2+z
loop_
_atom_site_type_symbol
_atom_site_label
_atom_site_fract_x
_atom_site_fract_y
_atom_site_fract_z
Si Si1 0.820125 0.905033 0.070067
Si Si2 0.982269 0.323708 0.931255
Si Si3 0.379642 0.477780 0.578717
Si Si4 0.858163 0.454719 0.075502
O O1 0.821866 0.894996 0.250000
O O2 0.883766 0.838508 0.990699
O O3 0.684252 0.912638 0.011094
O O4 0.898540 0.974287 0.018486
O O5 0.979794 0.320631 0.750000
O O6 0.937719 0.250000 0.000000
O O7 0.893322 0.383578 0.990800
O O8 0.500000 0.500000 0.500000
O O9 0.408587 0.452334 0.750000
O O10 0.286609 0.543113 0.579075
O O11 0.908349 0.456650 0.250000
#
# Coordination Sequence:
#
# PCOD8231397 Si02
#       4
#     8   8   8   8
#     4  10  19  33  53  76 104 135 170 210 254 301
#     4  12  23  35  51  74 105 138 171 209 256 308
#     4   9  18  31  52  78 104 131 169 213 256 297
#     4   9  19  34  52  76 104 134 170 210 253 301
#
# _framework density 17.165023999999999
#
# number of rings (size 3 to 8) (size 9 to 14) (size 15 to 20)
#    1.500    0.500    0.000    6.000    0.000    0.000 
#    0.000    0.000    0.000    1.500    0.000    3.500 
#    0.000    0.000    0.000    0.000    0.000    0.000 
#
# Total GULP energy -396534.612312 kJ/mol
# GULP energy per Si atom -12391.706635 kJ/mol
# Density = 1.712596 g / cm^3
# Si number density = 17.165024 Si / 1000 Ang^3
#
#
#
# Elastic Constant Matrix: (Units=GPa)
#
#
# Indices 1 2 3 4 5 6 
#
# 1 39.1077 6.8403 22.4162 0.0000 0.0000 0.0000
# 2 6.8403 78.9294 40.9779 0.0000 0.0000 0.0000
# 3 22.4162 40.9779 176.3177 0.0000 0.0000 0.0000
# 4 0.0000 0.0000 0.0000 28.5707 0.0000 0.0000
# 5 0.0000 0.0000 0.0000 0.0000 32.7907 0.0000
# 6 0.0000 0.0000 0.0000 0.0000 0.0000 14.7837
#
#
#
# Elastic Compliance Matrix: (Units=1/GPa)
#
#
# Indices 1 2 3 4 5 6 
#
# 1 0.027609 -0.000649 -0.003359 0.000000 0.000000 0.000000
# 2 -0.000649 0.014423 -0.003270 0.000000 0.000000 0.000000
# 3 -0.003359 -0.003270 0.006859 0.000000 0.000000 0.000000
# 4 0.000000 0.000000 0.000000 0.035001 0.000000 0.000000
# 5 0.000000 0.000000 0.000000 0.000000 0.030496 0.000000
# 6 0.000000 0.000000 0.000000 0.000000 0.000000 0.067642
#
#
# Mechanical properties :
#
#
# Convention : Reuss Voigt Hill
#
# Bulk Modulus (GPa) = 29.12399 48.31374 38.71886
# Shear Modulus (GPa) = 24.03483 30.17038 27.10260
#
# Velocity S-wave (km/s) = 3.74601 4.19700 3.97790
# Velocity P-wave (km/s) = 5.97612 7.18986 6.61091
#
# Compressibility (1/GPa) = 0.03433596
#
# Stress axis : x y z
#
# Youngs Moduli (GPa) = 36.21952 69.33239 145.80298
#
# Poissons Ratio (x) = 0.04497 0.48981
# Poissons Ratio (y) = 0.02349 0.47672
# Poissons Ratio (z) = 0.12168 0.22669
#
# Static dielectric constant tensor:
#      x y z
#    x 3.140130 0.000000 0.000000 
#    y 0.000000 2.981990 0.000000 
#    z 0.000000 0.000000 3.364440 
# 
# 
# High freq. dielectric constant tensor:
#      x y z
#    x 1.652100 0.000000 0.000000 
#    y 0.000000 1.625500 0.000000 
#    z 0.000000 0.000000 1.687940 
# 
# From -- ./inp_files/2488.got.cif
#   From: 2010.03.12/outbox.cif.g09.slc.cpg/sg57_2_cif.got.tgz:2488.got - 2010.04.16 15:48:40.
