data_PCOD8231967
_publ_section_title
;
Structure prediction by ZEFSAII (Michael W. Deem and Ramdas Pophale) SiO2 
 PCOD8231967
Probable space group: P B C M
;
_chemical_formula_sum "Si O2"
_cell_formula_units_Z 48
_cell_length_a 14.375784
_cell_length_b 9.033396
_cell_length_c 17.006561
_cell_angle_alpha 90.000000
_cell_angle_beta 90.000000
_cell_angle_gamma 90.000000
_cell_volume 2208.508570
_symmetry_space_group_name_H-M "P B C M"
_symmetry_group_IT_number 57
_symmetry_cell_setting 'orthorhombic'
loop_
_space_group_symop_operation_xyz
x,y,z
-x,-y,1/2+z
x,1/2-y,-z
-x,1/2+y,1/2-z
-x,-y,-z
x,y,1/2-z
-x,1/2+y,z
x,1/2-y,1/2+z
loop_
_atom_site_type_symbol
_atom_site_label
_atom_site_fract_x
_atom_site_fract_y
_atom_site_fract_z
Si Si1 0.883456 0.254619 0.092859
Si Si2 0.390418 0.202726 0.842512
Si Si3 0.027200 0.047230 0.155787
Si Si4 0.527629 0.994862 0.590042
Si Si5 0.203858 0.193842 0.335666
Si Si6 0.296394 0.875926 0.162838
O O1 0.777959 0.263964 0.124322
O O2 0.926720 0.101127 0.125955
O O3 0.880884 0.250000 0.000000
O O4 0.050000 0.613337 0.878187
O O5 0.387188 0.238873 0.750000
O O6 0.450062 0.328058 0.886126
O O7 0.437208 0.045591 0.859998
O O8 0.283197 0.203345 0.876716
O O9 0.031528 0.038388 0.250000
O O10 0.104305 0.167399 0.122400
O O11 0.612294 0.108033 0.608435
O O12 0.500000 0.000000 0.500000
O O13 0.182817 0.262250 0.250000
O O14 0.249155 0.033295 0.327704
O O15 0.324955 0.817646 0.250000
#
# Coordination Sequence:
#
# PCOD8231967 Si02
#       6
#     8   8   8   8   8   8
#     4  11  22  36  58  89 122 155 201 262 312 355
#     4  10  19  36  58  82 111 152 198 241 290 357
#     4  10  19  37  60  83 114 159 203 244 299 371
#     4  11  22  36  57  86 119 152 192 245 299 353
#     4   7  14  30  55  77  99 137 190 234 274 335
#     4   9  18  37  59  79 108 157 202 234 289 371
#
# _framework density 21.734124000000001
#
# number of rings (size 3 to 8) (size 9 to 14) (size 15 to 20)
#    0.000    2.333    0.000    6.000    0.000    1.333 
#    0.000    8.333    0.000    2.000    0.000    0.000 
#    0.000    0.000    0.000    0.000    0.000    0.000 
#
# Total GULP energy -594742.471719 kJ/mol
# GULP energy per Si atom -12390.468161 kJ/mol
# Density = 2.168466 g / cm^3
# Si number density = 21.734124 Si / 1000 Ang^3
#
#
#
# Elastic Constant Matrix: (Units=GPa)
#
#
# Indices 1 2 3 4 5 6 
#
# 1 76.8479 7.5279 43.7459 0.0000 0.0000 0.0000
# 2 7.5279 21.8665 17.4387 0.0000 0.0000 0.0000
# 3 43.7459 17.4387 136.8043 0.0000 0.0000 0.0000
# 4 0.0000 0.0000 0.0000 28.0809 0.0000 0.0000
# 5 0.0000 0.0000 0.0000 0.0000 36.1891 0.0000
# 6 0.0000 0.0000 0.0000 0.0000 0.0000 36.6075
#
#
#
# Elastic Compliance Matrix: (Units=1/GPa)
#
#
# Indices 1 2 3 4 5 6 
#
# 1 0.015958 -0.001585 -0.004901 0.000000 0.000000 0.000000
# 2 -0.001585 0.051065 -0.006002 0.000000 0.000000 0.000000
# 3 -0.004901 -0.006002 0.009642 0.000000 0.000000 0.000000
# 4 0.000000 0.000000 0.000000 0.035611 0.000000 0.000000
# 5 0.000000 0.000000 0.000000 0.000000 0.027633 0.000000
# 6 0.000000 0.000000 0.000000 0.000000 0.000000 0.027317
#
#
# Mechanical properties :
#
#
# Convention : Reuss Voigt Hill
#
# Bulk Modulus (GPa) = 19.34701 41.43820 30.39260
# Shear Modulus (GPa) = 23.87417 31.29592 27.58505
#
# Velocity S-wave (km/s) = 3.31791 3.79878 3.56645
# Velocity P-wave (km/s) = 4.85788 6.19260 5.56540
#
# Compressibility (1/GPa) = 0.05168757
#
# Stress axis : x y z
#
# Youngs Moduli (GPa) = 62.66541 19.58298 103.71351
#
# Poissons Ratio (x) = 0.03105 0.50827
# Poissons Ratio (y) = 0.09935 0.62252
# Poissons Ratio (z) = 0.30711 0.11754
#
# Static dielectric constant tensor:
#      x y z
#    x 4.576660 0.000000 0.000000 
#    y 0.000000 3.669900 0.000000 
#    z 0.000000 0.000000 3.709430 
# 
# 
# High freq. dielectric constant tensor:
#      x y z
#    x 1.871530 0.000000 0.000000 
#    y 0.000000 1.825370 0.000000 
#    z 0.000000 0.000000 1.835310 
# 
# From -- ./inp_files/18411.got.cif
#   From: 2010.03.12/outbox.cif.g09.slc.cpg/sg57_10_cif.got.tgz:18411.got - 2010.04.16 15:48:40.
