data_PCOD8231963
_publ_section_title
;
Structure prediction by ZEFSAII (Michael W. Deem and Ramdas Pophale) SiO2 
 PCOD8231963
Probable space group: P B C M
;
_chemical_formula_sum "Si O2"
_cell_formula_units_Z 56
_cell_length_a 6.932681
_cell_length_b 19.550212
_cell_length_c 20.128906
_cell_angle_alpha 90.000000
_cell_angle_beta 90.000000
_cell_angle_gamma 90.000000
_cell_volume 2728.178990
_symmetry_space_group_name_H-M "P B C M"
_symmetry_group_IT_number 57
_symmetry_cell_setting 'orthorhombic'
loop_
_space_group_symop_operation_xyz
x,y,z
-x,-y,1/2+z
x,1/2-y,-z
-x,1/2+y,1/2-z
-x,-y,-z
x,y,1/2-z
-x,1/2+y,z
x,1/2-y,1/2+z
loop_
_atom_site_type_symbol
_atom_site_label
_atom_site_fract_x
_atom_site_fract_y
_atom_site_fract_z
Si Si1 0.190499 0.420283 0.468410
Si Si2 0.154329 0.725863 0.326125
Si Si3 0.495352 0.958587 0.120905
Si Si4 0.903340 0.977724 0.902467
Si Si5 0.165558 0.275431 0.075218
Si Si6 0.519215 0.686336 0.824035
Si Si7 0.236507 0.574244 0.174792
O O1 0.416354 0.431566 0.449164
O O2 0.179712 0.418673 0.548525
O O3 0.098862 0.353492 0.434651
O O4 0.069215 0.482777 0.440955
O O5 0.069799 0.724877 0.250000
O O6 0.300472 0.788762 0.333702
O O7 0.266684 0.654658 0.340339
O O8 0.993398 0.733994 0.383221
O O9 0.529321 0.896286 0.172046
O O10 0.268036 0.972257 0.118967
O O11 0.605194 0.028807 0.137627
O O12 0.011424 0.943122 0.840612
O O13 0.358107 0.274629 0.119797
O O14 0.206143 0.250000 0.000000
O O15 0.593762 0.706154 0.750000
O O16 0.273198 0.556264 0.250000
#
# Coordination Sequence:
#
# PCOD8231963 Si02
#       7
#     8   8   8   8   8   8   8
#     4   9  20  35  54  84 113 141 186 235 278 343
#     4  10  22  40  59  82 117 158 197 242 297 354
#     4  10  20  36  60  86 114 148 190 237 289 350
#     4  10  19  36  58  79 111 150 180 224 294 347
#     4  11  22  37  58  85 115 151 197 244 293 349
#     4  10  22  40  61  86 117 156 199 244 297 357
#     4  10  22  36  53  83 114 142 188 240 280 336
#
# _framework density 20.526513999999999
#
# number of rings (size 3 to 8) (size 9 to 14) (size 15 to 20)
#    0.000    2.000    0.000    3.000    0.000    4.000 
#    0.000   10.714    0.000    0.000    0.000    0.000 
#    0.000    0.000    0.000    0.000    0.000    0.000 
#
# Total GULP energy -693911.432790 kJ/mol
# GULP energy per Si atom -12391.275586 kJ/mol
# Density = 2.047979 g / cm^3
# Si number density = 20.526514 Si / 1000 Ang^3
#
#
#
# Elastic Constant Matrix: (Units=GPa)
#
#
# Indices 1 2 3 4 5 6 
#
# 1 75.9856 17.8892 27.0108 0.0000 0.0000 0.0000
# 2 17.8892 78.1606 20.9536 0.0000 0.0000 0.0000
# 3 27.0108 20.9536 99.4473 0.0000 0.0000 0.0000
# 4 0.0000 0.0000 0.0000 29.4242 0.0000 0.0000
# 5 0.0000 0.0000 0.0000 0.0000 25.4618 0.0000
# 6 0.0000 0.0000 0.0000 0.0000 0.0000 31.8017
#
#
#
# Elastic Compliance Matrix: (Units=1/GPa)
#
#
# Indices 1 2 3 4 5 6 
#
# 1 0.015008 -0.002482 -0.003553 0.000000 0.000000 0.000000
# 2 -0.002482 0.013971 -0.002269 0.000000 0.000000 0.000000
# 3 -0.003553 -0.002269 0.011499 0.000000 0.000000 0.000000
# 4 0.000000 0.000000 0.000000 0.033986 0.000000 0.000000
# 5 0.000000 0.000000 0.000000 0.000000 0.039275 0.000000
# 6 0.000000 0.000000 0.000000 0.000000 0.000000 0.031445
#
#
# Mechanical properties :
#
#
# Convention : Reuss Voigt Hill
#
# Bulk Modulus (GPa) = 41.89821 42.81121 42.35471
# Shear Modulus (GPa) = 29.45537 29.85353 29.65445
#
# Velocity S-wave (km/s) = 3.79224 3.81778 3.80503
# Velocity P-wave (km/s) = 6.29530 6.35104 6.32323
#
# Compressibility (1/GPa) = 0.02386737
#
# Stress axis : x y z
#
# Youngs Moduli (GPa) = 66.63153 71.57828 86.96536
#
# Poissons Ratio (x) = 0.17769 0.30901
# Poissons Ratio (y) = 0.16541 0.19736
# Poissons Ratio (z) = 0.23676 0.16244
#
# Static dielectric constant tensor:
#      x y z
#    x 3.555630 0.000000 0.000000 
#    y 0.000000 3.742880 0.000000 
#    z 0.000000 0.000000 3.944130 
# 
# 
# High freq. dielectric constant tensor:
#      x y z
#    x 1.787510 0.000000 0.000000 
#    y 0.000000 1.808240 0.000000 
#    z 0.000000 0.000000 1.805740 
# 
# From -- ./inp_files/23786.got.cif
#   From: 2010.03.12/outbox.cif.g09.slc.cpg/sg57_12_cif.got.tgz:23786.got - 2010.04.16 15:48:40.
