data_PCOD8231669
_publ_section_title
;
Structure prediction by ZEFSAII (Michael W. Deem and Ramdas Pophale) SiO2 
 PCOD8231669
Probable space group: P B C M
;
_chemical_formula_sum "Si O2"
_cell_formula_units_Z 48
_cell_length_a 15.064929
_cell_length_b 20.401349
_cell_length_c 8.876230
_cell_angle_alpha 90.000000
_cell_angle_beta 90.000000
_cell_angle_gamma 90.000000
_cell_volume 2728.063793
_symmetry_space_group_name_H-M "P B C M"
_symmetry_group_IT_number 57
_symmetry_cell_setting 'orthorhombic'
loop_
_space_group_symop_operation_xyz
x,y,z
-x,-y,1/2+z
x,1/2-y,-z
-x,1/2+y,1/2-z
-x,-y,-z
x,y,1/2-z
-x,1/2+y,z
x,1/2-y,1/2+z
loop_
_atom_site_type_symbol
_atom_site_label
_atom_site_fract_x
_atom_site_fract_y
_atom_site_fract_z
Si Si1 0.119011 0.185240 0.425747
Si Si2 0.738131 0.507809 0.578709
Si Si3 0.506756 0.814312 0.073018
Si Si4 0.428984 0.951241 0.070989
Si Si5 0.702912 0.657621 0.919984
Si Si6 0.080451 0.460584 0.929252
O O1 0.073535 0.250000 0.500000
O O2 0.107777 0.192983 0.250000
O O3 0.222809 0.184888 0.467999
O O4 0.075259 0.116329 0.479939
O O5 0.752479 0.483163 0.750000
O O6 0.669580 0.461414 0.492206
O O7 0.696757 0.579592 0.577492
O O8 0.830949 0.505782 0.491222
O O9 0.502432 0.807953 0.250000
O O10 0.453888 0.878055 0.019664
O O11 0.608893 0.817560 0.018845
O O12 0.462198 0.750000 0.000000
O O13 0.430609 0.960471 0.250000
O O14 0.500000 0.000000 0.000000
O O15 0.724346 0.681670 0.750000
O O16 0.079083 0.466346 0.750000
O O17 0.000000 0.500000 0.000000
#
# Coordination Sequence:
#
# PCOD8231669 Si02
#       6
#     8   8   8   8   8   8
#     4  10  20  32  49  76 107 139 174 210 259 319
#     4  10  19  34  55  80 107 138 176 221 268 316
#     4  10  21  34  47  70 103 140 181 223 266 313
#     4  11  21  35  53  76 106 141 183 224 263 315
#     4   9  17  31  48  71 104 138 172 211 258 312
#     4  10  21  37  57  83 110 141 178 219 268 321
#
# _framework density 17.594895999999999
#
# number of rings (size 3 to 8) (size 9 to 14) (size 15 to 20)
#    0.000    2.000    1.667    2.500    0.000    6.000 
#    0.000    0.000    0.000    1.000    0.000    7.000 
#    0.000    0.000    0.000    0.000    0.000    0.000 
#
# Total GULP energy -595158.744503 kJ/mol
# GULP energy per Si atom -12399.140510 kJ/mol
# Density = 1.755485 g / cm^3
# Si number density = 17.594896 Si / 1000 Ang^3
#
#
#
# Elastic Constant Matrix: (Units=GPa)
#
#
# Indices 1 2 3 4 5 6 
#
# 1 97.9011 71.2552 43.5368 0.0000 0.0000 0.0000
# 2 71.2552 137.0125 54.3326 0.0000 0.0000 0.0000
# 3 43.5368 54.3326 76.8346 0.0000 0.0000 0.0000
# 4 0.0000 0.0000 0.0000 30.5909 0.0000 0.0000
# 5 0.0000 0.0000 0.0000 0.0000 29.9911 0.0000
# 6 0.0000 0.0000 0.0000 0.0000 0.0000 19.9457
#
#
#
# Elastic Compliance Matrix: (Units=1/GPa)
#
#
# Indices 1 2 3 4 5 6 
#
# 1 0.017661 -0.007249 -0.004881 0.000000 0.000000 0.000000
# 2 -0.007249 0.013118 -0.005169 0.000000 0.000000 0.000000
# 3 -0.004881 -0.005169 0.019436 0.000000 0.000000 0.000000
# 4 0.000000 0.000000 0.000000 0.032689 0.000000 0.000000
# 5 0.000000 0.000000 0.000000 0.000000 0.033343 0.000000
# 6 0.000000 0.000000 0.000000 0.000000 0.000000 0.050136
#
#
# Mechanical properties :
#
#
# Convention : Reuss Voigt Hill
#
# Bulk Modulus (GPa) = 64.03308 72.22195 68.12751
# Shear Modulus (GPa) = 24.24961 25.61378 24.93170
#
# Velocity S-wave (km/s) = 3.71646 3.81957 3.76837
# Velocity P-wave (km/s) = 7.40865 7.78385 7.59857
#
# Compressibility (1/GPa) = 0.01561693
#
# Stress axis : x y z
#
# Youngs Moduli (GPa) = 56.62079 76.22839 51.45135
#
# Poissons Ratio (x) = 0.55261 0.25114
# Poissons Ratio (y) = 0.41047 0.26594
# Poissons Ratio (z) = 0.27637 0.39401
#
# Static dielectric constant tensor:
#      x y z
#    x 3.059640 0.000000 0.000000 
#    y 0.000000 3.746510 0.000000 
#    z 0.000000 0.000000 3.308190 
# 
# 
# High freq. dielectric constant tensor:
#      x y z
#    x 1.650020 0.000000 0.000000 
#    y 0.000000 1.683840 0.000000 
#    z 0.000000 0.000000 1.689840 
# 
# From -- ./inp_files/4838.got.cif
#   From: 2010.03.12/outbox.cif.g09.slc.cpg/sg57_3_cif.got.tgz:4838.got - 2010.04.16 15:48:40.
