data_PCOD8231741
_publ_section_title
;
Structure prediction by ZEFSAII (Michael W. Deem and Ramdas Pophale) SiO2 
 PCOD8231741
Probable space group: P B C M
;
_chemical_formula_sum "Si O2"
_cell_formula_units_Z 64
_cell_length_a 12.298473
_cell_length_b 14.573424
_cell_length_c 18.285542
_cell_angle_alpha 90.000000
_cell_angle_beta 90.000000
_cell_angle_gamma 90.000000
_cell_volume 3277.333447
_symmetry_space_group_name_H-M "P B C M"
_symmetry_group_IT_number 57
_symmetry_cell_setting 'orthorhombic'
loop_
_space_group_symop_operation_xyz
x,y,z
-x,-y,1/2+z
x,1/2-y,-z
-x,1/2+y,1/2-z
-x,-y,-z
x,y,1/2-z
-x,1/2+y,z
x,1/2-y,1/2+z
loop_
_atom_site_type_symbol
_atom_site_label
_atom_site_fract_x
_atom_site_fract_y
_atom_site_fract_z
Si Si1 0.296856 0.281836 0.581964
Si Si2 0.641382 0.976995 0.924431
Si Si3 0.702500 0.146091 0.666131
Si Si4 0.886089 0.832071 0.163071
Si Si5 0.896502 0.230213 0.163441
Si Si6 0.457955 0.317411 0.166180
Si Si7 0.179706 0.536107 0.336292
Si Si8 0.599774 0.001842 0.408481
O O1 0.317940 0.250000 0.500000
O O2 0.277840 0.390669 0.580215
O O3 0.200332 0.227915 0.620022
O O4 0.404659 0.272813 0.632025
O O5 0.520038 0.955849 0.892027
O O6 0.705494 0.052937 0.879035
O O7 0.627837 0.011602 0.006708
O O8 0.727817 0.120636 0.750000
O O9 0.790604 0.216407 0.633822
O O10 0.586103 0.194120 0.657854
O O11 0.868858 0.821750 0.250000
O O12 0.999756 0.788302 0.136370
O O13 0.875523 0.939383 0.138900
O O14 0.895182 0.229183 0.250000
O O15 0.892214 0.123731 0.135686
O O16 0.423373 0.333882 0.250000
O O17 0.404983 0.396779 0.116922
O O18 0.187482 0.538226 0.250000
O O19 0.302757 0.550486 0.364911
#
# Coordination Sequence:
#
# PCOD8231741 Si02
#       8
#     8   8   8   8   8   8   8   8
#     4  12  22  36  56  86 120 157 193 238 294 349
#     4  10  22  35  55  83 120 160 190 234 302 350
#     4   9  20  38  56  82 118 149 190 249 296 345
#     4  10  21  38  60  84 114 152 200 247 289 347
#     4   9  20  38  60  87 115 151 199 247 297 345
#     4  10  19  34  57  83 115 152 193 242 290 342
#     4  10  19  35  60  85 111 150 194 245 294 345
#     4  10  19  37  55  82 117 154 198 236 285 357
#
# _framework density 19.528071000000001
#
# number of rings (size 3 to 8) (size 9 to 14) (size 15 to 20)
#    0.000    2.000    2.500    0.750    1.750    2.500 
#    0.000    4.375    0.000    3.000    0.000    0.000 
#    0.000    0.000    0.000    0.000    0.000    0.000 
#
# Total GULP energy -793238.686010 kJ/mol
# GULP energy per Si atom -12394.354469 kJ/mol
# Density = 1.948362 g / cm^3
# Si number density = 19.528071 Si / 1000 Ang^3
#
#
#
# Elastic Constant Matrix: (Units=GPa)
#
#
# Indices 1 2 3 4 5 6 
#
# 1 107.8075 73.9614 35.9770 0.0000 0.0000 0.0000
# 2 73.9614 144.5034 30.3865 0.0000 0.0000 0.0000
# 3 35.9770 30.3865 47.2510 0.0000 0.0000 0.0000
# 4 0.0000 0.0000 0.0000 6.4203 0.0000 0.0000
# 5 0.0000 0.0000 0.0000 0.0000 8.1505 0.0000
# 6 0.0000 0.0000 0.0000 0.0000 0.0000 26.6655
#
#
#
# Elastic Compliance Matrix: (Units=1/GPa)
#
#
# Indices 1 2 3 4 5 6 
#
# 1 0.016738 -0.006808 -0.008367 0.000000 0.000000 0.000000
# 2 -0.006808 0.010771 -0.001743 0.000000 0.000000 0.000000
# 3 -0.008367 -0.001743 0.028655 0.000000 0.000000 0.000000
# 4 0.000000 0.000000 0.000000 0.155755 0.000000 0.000000
# 5 0.000000 0.000000 0.000000 0.000000 0.122691 0.000000
# 6 0.000000 0.000000 0.000000 0.000000 0.000000 0.037502
#
#
# Mechanical properties :
#
#
# Convention : Reuss Voigt Hill
#
# Bulk Modulus (GPa) = 44.78463 64.46797 54.62630
# Shear Modulus (GPa) = 12.09507 18.86308 15.47908
#
# Velocity S-wave (km/s) = 2.49141 3.11134 2.81847
# Velocity P-wave (km/s) = 5.59101 6.78173 6.21495
#
# Compressibility (1/GPa) = 0.02232909
#
# Stress axis : x y z
#
# Youngs Moduli (GPa) = 59.74280 92.83882 34.89791
#
# Poissons Ratio (x) = 0.63204 0.29198
# Poissons Ratio (y) = 0.40672 0.06084
# Poissons Ratio (z) = 0.49984 0.16185
#
# Static dielectric constant tensor:
#      x y z
#    x 3.705340 0.000000 0.000000 
#    y 0.000000 3.796530 0.000000 
#    z 0.000000 0.000000 3.431810 
# 
# 
# High freq. dielectric constant tensor:
#      x y z
#    x 1.754620 0.000000 0.000000 
#    y 0.000000 1.762520 0.000000 
#    z 0.000000 0.000000 1.745650 
# 
# From -- ./inp_files/22033.got.cif
#   From: 2010.03.12/outbox.cif.g09.slc.cpg/sg57_12_cif.got.tgz:22033.got - 2010.04.16 15:48:40.
