data_PCOD8231308
_publ_section_title
;
Structure prediction by ZEFSAII (Michael W. Deem and Ramdas Pophale) SiO2 
 PCOD8231308
Probable space group: P B C M
;
_chemical_formula_sum "Si O2"
_cell_formula_units_Z 64
_cell_length_a 9.987700
_cell_length_b 19.126070
_cell_length_c 17.605929
_cell_angle_alpha 90.000000
_cell_angle_beta 90.000000
_cell_angle_gamma 90.000000
_cell_volume 3363.180498
_symmetry_space_group_name_H-M "P B C M"
_symmetry_group_IT_number 57
_symmetry_cell_setting 'orthorhombic'
loop_
_space_group_symop_operation_xyz
x,y,z
-x,-y,1/2+z
x,1/2-y,-z
-x,1/2+y,1/2-z
-x,-y,-z
x,y,1/2-z
-x,1/2+y,z
x,1/2-y,1/2+z
loop_
_atom_site_type_symbol
_atom_site_label
_atom_site_fract_x
_atom_site_fract_y
_atom_site_fract_z
Si Si1 0.230172 0.660710 0.336578
Si Si2 0.893525 0.469126 0.900484
Si Si3 0.218783 0.816838 0.163890
Si Si4 0.430189 0.014075 0.419580
Si Si5 0.657987 0.559422 0.838159
Si Si6 0.489965 0.313737 0.103442
Si Si7 0.144598 0.946604 0.425521
Si Si8 0.493871 0.838967 0.929331
O O1 0.282319 0.659714 0.250000
O O2 0.120923 0.599417 0.347516
O O3 0.171025 0.737576 0.355367
O O4 0.351251 0.643281 0.392734
O O5 0.779116 0.527055 0.886358
O O6 0.035881 0.504795 0.883186
O O7 0.888054 0.441808 0.986236
O O8 0.182810 0.836953 0.250000
O O9 0.379211 0.822106 0.155133
O O10 0.138416 0.868581 0.108699
O O11 0.407284 0.097240 0.409488
O O12 0.500000 0.000000 0.500000
O O13 0.523716 0.984758 0.352719
O O14 0.289553 0.977526 0.410241
O O15 0.695815 0.556872 0.750000
O O16 0.631740 0.639515 0.864599
O O17 0.442697 0.232725 0.102824
O O18 0.531501 0.336870 0.019215
#
# Coordination Sequence:
#
# PCOD8231308 Si02
#       8
#     8   8   8   8   8   8   8   8
#     4  10  20  35  56  84 118 155 195 240 295 356
#     4  11  23  39  57  85 118 159 199 242 291 357
#     4  10  20  34  55  84 116 150 194 246 295 348
#     4  12  19  36  62  90 118 147 192 251 292 345
#     4  12  23  37  59  86 117 155 194 238 298 352
#     4  10  19  33  54  86 117 154 195 247 298 345
#     4  11  23  38  60  86 117 153 200 243 291 348
#     4  10  19  32  57  85 118 152 196 247 300 344
#
# _framework density 19.029606999999999
#
# number of rings (size 3 to 8) (size 9 to 14) (size 15 to 20)
#    0.000    1.250    5.000    1.500    0.000    3.000 
#    0.000    1.250    0.000    1.500    0.000    0.000 
#    0.000    0.000    0.000    0.000    0.000    0.000 
#
# Total GULP energy -793652.342210 kJ/mol
# GULP energy per Si atom -12400.817847 kJ/mol
# Density = 1.898629 g / cm^3
# Si number density = 19.029607 Si / 1000 Ang^3
#
#
#
# Elastic Constant Matrix: (Units=GPa)
#
#
# Indices 1 2 3 4 5 6 
#
# 1 79.6076 39.4081 15.2758 0.0000 0.0000 0.0000
# 2 39.4081 157.8201 32.3768 0.0000 0.0000 0.0000
# 3 15.2758 32.3768 72.8346 0.0000 0.0000 0.0000
# 4 0.0000 0.0000 0.0000 30.2444 0.0000 0.0000
# 5 0.0000 0.0000 0.0000 0.0000 11.2333 0.0000
# 6 0.0000 0.0000 0.0000 0.0000 0.0000 24.9095
#
#
#
# Elastic Compliance Matrix: (Units=1/GPa)
#
#
# Indices 1 2 3 4 5 6 
#
# 1 0.014496 -0.003297 -0.001575 0.000000 0.000000 0.000000
# 2 -0.003297 0.007722 -0.002741 0.000000 0.000000 0.000000
# 3 -0.001575 -0.002741 0.015279 0.000000 0.000000 0.000000
# 4 0.000000 0.000000 0.000000 0.033064 0.000000 0.000000
# 5 0.000000 0.000000 0.000000 0.000000 0.089021 0.000000
# 6 0.000000 0.000000 0.000000 0.000000 0.000000 0.040145
#
#
# Mechanical properties :
#
#
# Convention : Reuss Voigt Hill
#
# Bulk Modulus (GPa) = 44.90138 53.82042 49.36090
# Shear Modulus (GPa) = 22.48450 28.15754 25.32102
#
# Velocity S-wave (km/s) = 3.44110 3.85082 3.65171
# Velocity P-wave (km/s) = 6.27973 6.93654 6.61629
#
# Compressibility (1/GPa) = 0.02227103
#
# Stress axis : x y z
#
# Youngs Moduli (GPa) = 68.98608 129.50295 65.45126
#
# Poissons Ratio (x) = 0.42691 0.10307
# Poissons Ratio (y) = 0.22742 0.17941
# Poissons Ratio (z) = 0.10864 0.35499
#
# Static dielectric constant tensor:
#      x y z
#    x 3.182220 0.000000 0.000000 
#    y 0.000000 3.994390 0.000000 
#    z 0.000000 0.000000 3.493500 
# 
# 
# High freq. dielectric constant tensor:
#      x y z
#    x 1.694110 0.000000 0.000000 
#    y 0.000000 1.763480 0.000000 
#    z 0.000000 0.000000 1.743300 
# 
# From -- ./inp_files/21436.got.cif
#   From: 2010.03.12/outbox.cif.g09.slc.cpg/sg57_11_cif.got.tgz:21436.got - 2010.04.16 15:48:40.
