data_PCOD8231100
_publ_section_title
;
Structure prediction by ZEFSAII (Michael W. Deem and Ramdas Pophale) SiO2 
 PCOD8231100
Probable space group: P B C M
;
_chemical_formula_sum "Si O2"
_cell_formula_units_Z 48
_cell_length_a 30.977147
_cell_length_b 9.575243
_cell_length_c 9.018037
_cell_angle_alpha 90.000000
_cell_angle_beta 90.000000
_cell_angle_gamma 90.000000
_cell_volume 2674.873411
_symmetry_space_group_name_H-M "P B C M"
_symmetry_group_IT_number 57
_symmetry_cell_setting 'orthorhombic'
loop_
_space_group_symop_operation_xyz
x,y,z
-x,-y,1/2+z
x,1/2-y,-z
-x,1/2+y,1/2-z
-x,-y,-z
x,y,1/2-z
-x,1/2+y,z
x,1/2-y,1/2+z
loop_
_atom_site_type_symbol
_atom_site_label
_atom_site_fract_x
_atom_site_fract_y
_atom_site_fract_z
Si Si1 0.534323 0.400887 0.074950
Si Si2 0.720768 0.101755 0.923912
Si Si3 0.372128 0.894493 0.420065
Si Si4 0.792058 0.608160 0.075022
Si Si5 0.964586 0.401898 0.074128
Si Si6 0.110478 0.108528 0.077923
O O1 0.525026 0.387464 0.250000
O O2 0.582150 0.470419 0.043829
O O3 0.530926 0.250000 0.000000
O O4 0.500000 0.500000 0.000000
O O5 0.727051 0.123673 0.750000
O O6 0.673530 0.028757 0.958917
O O7 0.759277 0.007437 0.987611
O O8 0.724512 0.250000 0.000000
O O9 0.371997 0.750000 0.500000
O O10 0.371888 0.854325 0.250000
O O11 0.787939 0.625067 0.250000
O O12 0.840959 0.569791 0.027100
O O13 0.777170 0.750000 0.000000
O O14 0.973077 0.387812 0.250000
O O15 0.918807 0.475088 0.039374
O O16 0.965123 0.250000 0.000000
O O17 0.000000 0.500000 0.000000
O O18 0.108546 0.143724 0.250000
O O19 0.093605 0.250000 0.000000
#
# Coordination Sequence:
#
# PCOD8231100 Si02
#       6
#     8   8   8   8   8   8
#     4  10  19  32  50  71  96 126 162 202 246 295
#     4   9  17  30  49  72  97 124 158 199 240 285
#     4   8  15  28  46  67  92 123 157 195 238 285
#     4   9  18  33  51  72 100 132 164 199 242 291
#     4  11  23  38  56  79 107 137 171 210 253 299
#     4   9  19  35  54  75 100 132 168 205 245 291
#
# _framework density 17.944775
#
# number of rings (size 3 to 8) (size 9 to 14) (size 15 to 20)
#    0.000    2.667    0.000    1.500    0.000    4.667 
#    0.000    0.833    0.000    2.000    0.000    0.000 
#    0.000    0.000    0.000    0.000    0.000    0.000 
#
# Total GULP energy -594653.880443 kJ/mol
# GULP energy per Si atom -12388.622509 kJ/mol
# Density = 1.790393 g / cm^3
# Si number density = 17.944775 Si / 1000 Ang^3
#
#
#
# Elastic Constant Matrix: (Units=GPa)
#
#
# Indices 1 2 3 4 5 6 
#
# 1 151.2784 87.5109 52.7480 0.0000 0.0000 0.0000
# 2 87.5109 116.6580 46.1505 0.0000 0.0000 0.0000
# 3 52.7480 46.1505 57.9371 0.0000 0.0000 0.0000
# 4 0.0000 0.0000 0.0000 31.2204 0.0000 0.0000
# 5 0.0000 0.0000 0.0000 0.0000 23.7165 0.0000
# 6 0.0000 0.0000 0.0000 0.0000 0.0000 29.0541
#
#
#
# Elastic Compliance Matrix: (Units=1/GPa)
#
#
# Indices 1 2 3 4 5 6 
#
# 1 0.012928 -0.007361 -0.005906 0.000000 0.000000 0.000000
# 2 -0.007361 0.016708 -0.006607 0.000000 0.000000 0.000000
# 3 -0.005906 -0.006607 0.027900 0.000000 0.000000 0.000000
# 4 0.000000 0.000000 0.000000 0.032030 0.000000 0.000000
# 5 0.000000 0.000000 0.000000 0.000000 0.042165 0.000000
# 6 0.000000 0.000000 0.000000 0.000000 0.000000 0.034419
#
#
# Mechanical properties :
#
#
# Convention : Reuss Voigt Hill
#
# Bulk Modulus (GPa) = 56.22077 77.63248 66.92663
# Shear Modulus (GPa) = 23.60402 26.09583 24.84993
#
# Velocity S-wave (km/s) = 3.63074 3.81757 3.72533
# Velocity P-wave (km/s) = 6.99816 7.92386 7.47536
#
# Compressibility (1/GPa) = 0.01778702
#
# Stress axis : x y z
#
# Youngs Moduli (GPa) = 77.35015 59.85178 35.84205
#
# Poissons Ratio (x) = 0.44060 0.21170
# Poissons Ratio (y) = 0.56941 0.23680
# Poissons Ratio (z) = 0.45686 0.39543
#
# Static dielectric constant tensor:
#      x y z
#    x 4.169400 0.000000 0.000000 
#    y 0.000000 3.373040 0.000000 
#    z 0.000000 0.000000 3.363920 
# 
# 
# High freq. dielectric constant tensor:
#      x y z
#    x 1.720420 0.000000 0.000000 
#    y 0.000000 1.663810 0.000000 
#    z 0.000000 0.000000 1.698400 
# 
# From -- ./inp_files/9982.got.cif
#   From: 2010.03.12/outbox.cif.g09.slc.cpg/sg57_5_cif.got.tgz:9982.got - 2010.04.16 15:48:40.
