data_PCOD8231861
_publ_section_title
;
Structure prediction by ZEFSAII (Michael W. Deem and Ramdas Pophale) SiO2 
 PCOD8231861
Probable space group: P B C M
;
_chemical_formula_sum "Si O2"
_cell_formula_units_Z 64
_cell_length_a 20.305124
_cell_length_b 19.197850
_cell_length_c 8.992702
_cell_angle_alpha 90.000000
_cell_angle_beta 90.000000
_cell_angle_gamma 90.000000
_cell_volume 3505.487655
_symmetry_space_group_name_H-M "P B C M"
_symmetry_group_IT_number 57
_symmetry_cell_setting 'orthorhombic'
loop_
_space_group_symop_operation_xyz
x,y,z
-x,-y,1/2+z
x,1/2-y,-z
-x,1/2+y,1/2-z
-x,-y,-z
x,y,1/2-z
-x,1/2+y,z
x,1/2-y,1/2+z
loop_
_atom_site_type_symbol
_atom_site_label
_atom_site_fract_x
_atom_site_fract_y
_atom_site_fract_z
Si Si1 0.805516 0.466675 0.920708
Si Si2 0.436217 0.531959 0.425741
Si Si3 0.613020 0.180369 0.075190
Si Si4 0.237463 0.682721 0.420963
Si Si5 0.313667 0.463419 0.577309
Si Si6 0.255951 0.318000 0.578936
Si Si7 0.106240 0.177938 0.427311
Si Si8 0.058272 0.041810 0.924650
O O1 0.783423 0.480597 0.750000
O O2 0.808148 0.383950 0.952298
O O3 0.876252 0.497727 0.955340
O O4 0.753689 0.499478 0.032998
O O5 0.500000 0.500000 0.500000
O O6 0.442221 0.525153 0.250000
O O7 0.428965 0.612827 0.473963
O O8 0.373062 0.488991 0.476952
O O9 0.609092 0.190726 0.250000
O O10 0.688171 0.167927 0.021070
O O11 0.583390 0.250000 0.000000
O O12 0.206094 0.750000 0.500000
O O13 0.240477 0.701803 0.250000
O O14 0.328290 0.478470 0.750000
O O15 0.305028 0.381371 0.546555
O O16 0.285257 0.250000 0.500000
O O17 0.251906 0.299281 0.750000
O O18 0.181997 0.335580 0.523467
O O19 0.081524 0.250000 0.500000
O O20 0.096885 0.179795 0.250000
O O21 0.062646 0.116651 0.496944
O O22 0.045139 0.051725 0.750000
O O23 0.000000 0.000000 0.000000
#
# Coordination Sequence:
#
# PCOD8231861 Si02
#       8
#     8   8   8   8   8   8   8   8
#     4  10  20  36  57  81 111 147 187 231 283 336
#     4  11  23  40  58  83 115 151 189 232 279 334
#     4   9  18  33  55  80 110 141 180 227 272 326
#     4   9  17  32  52  80 111 140 178 226 277 329
#     4  11  21  35  57  86 114 144 184 232 281 334
#     4   9  19  33  53  83 115 145 183 233 283 334
#     4  10  19  35  57  84 115 147 189 238 285 344
#     4  11  23  38  58  83 115 156 195 239 291 344
#
# _framework density 18.257089000000001
#
# number of rings (size 3 to 8) (size 9 to 14) (size 15 to 20)
#    0.000    2.000    2.500    1.500    0.000    3.500 
#    0.000    1.250    0.000    1.500    0.000    0.000 
#    0.000    0.000    0.000    0.000    0.000    0.000 
#
# Total GULP energy -793680.818476 kJ/mol
# GULP energy per Si atom -12401.262789 kJ/mol
# Density = 1.821554 g / cm^3
# Si number density = 18.257089 Si / 1000 Ang^3
#
#
#
# Elastic Constant Matrix: (Units=GPa)
#
#
# Indices 1 2 3 4 5 6 
#
# 1 80.7205 60.1719 41.9136 0.0000 0.0000 0.0000
# 2 60.1719 158.5955 67.4230 0.0000 0.0000 0.0000
# 3 41.9136 67.4230 76.0139 0.0000 0.0000 0.0000
# 4 0.0000 0.0000 0.0000 37.1496 0.0000 0.0000
# 5 0.0000 0.0000 0.0000 0.0000 27.4307 0.0000
# 6 0.0000 0.0000 0.0000 0.0000 0.0000 25.4033
#
#
#
# Elastic Compliance Matrix: (Units=1/GPa)
#
#
# Indices 1 2 3 4 5 6 
#
# 1 0.019136 -0.004454 -0.006601 0.000000 0.000000 0.000000
# 2 -0.004454 0.011159 -0.007442 0.000000 0.000000 0.000000
# 3 -0.006601 -0.007442 0.023396 0.000000 0.000000 0.000000
# 4 0.000000 0.000000 0.000000 0.026918 0.000000 0.000000
# 5 0.000000 0.000000 0.000000 0.000000 0.036455 0.000000
# 6 0.000000 0.000000 0.000000 0.000000 0.000000 0.039365
#
#
# Mechanical properties :
#
#
# Convention : Reuss Voigt Hill
#
# Bulk Modulus (GPa) = 59.88931 72.70519 66.29725
# Shear Modulus (GPa) = 25.12701 27.71814 26.42258
#
# Velocity S-wave (km/s) = 3.71386 3.90065 3.80840
# Velocity P-wave (km/s) = 7.15995 7.75862 7.46529
#
# Compressibility (1/GPa) = 0.01669747
#
# Stress axis : x y z
#
# Youngs Moduli (GPa) = 52.25720 89.61372 42.74255
#
# Poissons Ratio (x) = 0.39916 0.28213
# Poissons Ratio (y) = 0.23276 0.31808
# Poissons Ratio (z) = 0.34494 0.66689
#
# Static dielectric constant tensor:
#      x y z
#    x 2.790740 0.000000 0.000000 
#    y 0.000000 3.553590 0.000000 
#    z 0.000000 0.000000 3.397400 
# 
# 
# High freq. dielectric constant tensor:
#      x y z
#    x 1.676040 0.000000 0.000000 
#    y 0.000000 1.723740 0.000000 
#    z 0.000000 0.000000 1.713720 
# 
# From -- ./inp_files/8602.got.cif
#   From: 2010.03.12/outbox.cif.g09.slc.cpg/sg57_5_cif.got.tgz:8602.got - 2010.04.16 15:48:40.
