data_PCOD8231769
_publ_section_title
;
Structure prediction by ZEFSAII (Michael W. Deem and Ramdas Pophale) SiO2 
 PCOD8231769
Probable space group: P B C M
;
_chemical_formula_sum "Si O2"
_cell_formula_units_Z 64
_cell_length_a 21.390686
_cell_length_b 17.992048
_cell_length_c 8.853302
_cell_angle_alpha 90.000000
_cell_angle_beta 90.000000
_cell_angle_gamma 90.000000
_cell_volume 3407.301721
_symmetry_space_group_name_H-M "P B C M"
_symmetry_group_IT_number 57
_symmetry_cell_setting 'orthorhombic'
loop_
_space_group_symop_operation_xyz
x,y,z
-x,-y,1/2+z
x,1/2-y,-z
-x,1/2+y,1/2-z
-x,-y,-z
x,y,1/2-z
-x,1/2+y,z
x,1/2-y,1/2+z
loop_
_atom_site_type_symbol
_atom_site_label
_atom_site_fract_x
_atom_site_fract_y
_atom_site_fract_z
Si Si1 0.610676 0.422290 0.071246
Si Si2 0.063279 0.474710 0.074757
Si Si3 0.730311 0.169112 0.570113
Si Si4 0.240275 0.095617 0.075559
Si Si5 0.809309 0.450850 0.571877
Si Si6 0.129575 0.173779 0.929286
Si Si7 0.492997 0.328472 0.071840
Si Si8 0.382281 0.410649 0.923853
O O1 0.615876 0.424864 0.250000
O O2 0.669015 0.374385 0.010480
O O3 0.546089 0.385749 0.016305
O O4 0.613115 0.506072 0.008095
O O5 0.050261 0.471370 0.250000
O O6 0.117933 0.533285 0.036226
O O7 0.083666 0.392661 0.018576
O O8 0.000000 0.500000 0.000000
O O9 0.729047 0.250000 0.500000
O O10 0.733672 0.174241 0.750000
O O11 0.791296 0.126503 0.507122
O O12 0.220101 0.088955 0.250000
O O13 0.312096 0.120092 0.060379
O O14 0.198781 0.157711 0.992881
O O15 0.233002 0.015700 0.997965
O O16 0.796985 0.447500 0.750000
O O17 0.133687 0.180037 0.750000
O O18 0.103578 0.250000 0.000000
O O19 0.493348 0.319328 0.250000
O O20 0.509328 0.250000 0.000000
O O21 0.425612 0.356529 0.019849
O O22 0.404284 0.409375 0.750000
#
# Coordination Sequence:
#
# PCOD8231769 Si02
#       8
#     8   8   8   8   8   8   8   8
#     4   9  19  37  58  80 108 140 184 233 279 338
#     4   9  20  37  59  86 116 150 191 233 274 327
#     4  11  21  36  57  84 114 148 186 232 286 337
#     4  10  19  34  58  83 110 147 182 226 283 334
#     4  10  20  36  56  83 116 147 184 229 271 328
#     4  10  21  37  57  86 120 151 190 237 280 332
#     4  11  23  38  55  76 106 144 184 231 284 337
#     4  10  20  37  58  81 109 141 182 231 280 338
#
# _framework density 18.783190999999999
#
# number of rings (size 3 to 8) (size 9 to 14) (size 15 to 20)
#    0.000    2.000    1.250    3.375    0.000    4.500 
#    0.000    3.125    0.000    1.500    0.000    0.000 
#    0.000    0.000    0.000    0.000    0.000    0.000 
#
# Total GULP energy -793756.438758 kJ/mol
# GULP energy per Si atom -12402.444356 kJ/mol
# Density = 1.874044 g / cm^3
# Si number density = 18.783191 Si / 1000 Ang^3
#
#
#
# Elastic Constant Matrix: (Units=GPa)
#
#
# Indices 1 2 3 4 5 6 
#
# 1 108.3823 39.0094 41.4841 0.0000 0.0000 0.0000
# 2 39.0094 87.3472 30.5196 0.0000 0.0000 0.0000
# 3 41.4841 30.5196 80.0164 0.0000 0.0000 0.0000
# 4 0.0000 0.0000 0.0000 34.5532 0.0000 0.0000
# 5 0.0000 0.0000 0.0000 0.0000 29.1009 0.0000
# 6 0.0000 0.0000 0.0000 0.0000 0.0000 26.5304
#
#
#
# Elastic Compliance Matrix: (Units=1/GPa)
#
#
# Indices 1 2 3 4 5 6 
#
# 1 0.012535 -0.003839 -0.005035 0.000000 0.000000 0.000000
# 2 -0.003839 0.014385 -0.003496 0.000000 0.000000 0.000000
# 3 -0.005035 -0.003496 0.016441 0.000000 0.000000 0.000000
# 4 0.000000 0.000000 0.000000 0.028941 0.000000 0.000000
# 5 0.000000 0.000000 0.000000 0.000000 0.034363 0.000000
# 6 0.000000 0.000000 0.000000 0.000000 0.000000 0.037693
#
#
# Mechanical properties :
#
#
# Convention : Reuss Voigt Hill
#
# Bulk Modulus (GPa) = 53.70186 55.30800 54.50493
# Shear Modulus (GPa) = 28.52170 29.01908 28.77039
#
# Velocity S-wave (km/s) = 3.90098 3.93485 3.91795
# Velocity P-wave (km/s) = 6.99590 7.08191 7.03904
#
# Compressibility (1/GPa) = 0.01862133
#
# Stress axis : x y z
#
# Youngs Moduli (GPa) = 79.77369 69.51812 60.82323
#
# Poissons Ratio (x) = 0.26690 0.30622
# Poissons Ratio (y) = 0.30627 0.21265
# Poissons Ratio (z) = 0.40163 0.24305
#
# Static dielectric constant tensor:
#      x y z
#    x 3.509400 0.000000 0.000000 
#    y 0.000000 3.536410 0.000000 
#    z 0.000000 0.000000 3.389550 
# 
# 
# High freq. dielectric constant tensor:
#      x y z
#    x 1.725280 0.000000 0.000000 
#    y 0.000000 1.731000 0.000000 
#    z 0.000000 0.000000 1.727880 
# 
# From -- ./inp_files/8512.got.cif
#   From: 2010.03.12/outbox.cif.g09.slc.cpg/sg57_5_cif.got.tgz:8512.got - 2010.04.16 15:48:40.
