data_PCOD8231937
_publ_section_title
;
Structure prediction by ZEFSAII (Michael W. Deem and Ramdas Pophale) SiO2 
 PCOD8231937
Probable space group: P B C M
;
_chemical_formula_sum "Si O2"
_cell_formula_units_Z 48
_cell_length_a 10.079552
_cell_length_b 15.144580
_cell_length_c 14.159679
_cell_angle_alpha 90.000000
_cell_angle_beta 90.000000
_cell_angle_gamma 90.000000
_cell_volume 2161.483235
_symmetry_space_group_name_H-M "P B C M"
_symmetry_group_IT_number 57
_symmetry_cell_setting 'orthorhombic'
loop_
_space_group_symop_operation_xyz
x,y,z
-x,-y,1/2+z
x,1/2-y,-z
-x,1/2+y,1/2-z
-x,-y,-z
x,y,1/2-z
-x,1/2+y,z
x,1/2-y,1/2+z
loop_
_atom_site_type_symbol
_atom_site_label
_atom_site_fract_x
_atom_site_fract_y
_atom_site_fract_z
Si Si1 0.833006 0.875446 0.354961
Si Si2 0.489485 0.393749 0.637860
Si Si3 0.066170 0.591417 0.972381
Si Si4 0.334456 0.563347 0.862578
Si Si5 0.787151 0.418843 0.646171
Si Si6 0.557026 0.698723 0.637061
O O1 0.854908 0.835300 0.250000
O O2 0.695980 0.840845 0.399430
O O3 0.956060 0.846626 0.422284
O O4 0.831777 0.980570 0.347158
O O5 0.482788 0.390598 0.750000
O O6 0.388853 0.468582 0.600762
O O7 0.638069 0.417512 0.606528
O O8 0.452968 0.297856 0.595444
O O9 0.187943 0.576811 0.901495
O O10 0.120905 0.633809 0.070733
O O11 0.000000 0.500000 0.000000
O O12 0.327235 0.565781 0.750000
O O13 0.434947 0.639183 0.900443
O O14 0.799245 0.373717 0.750000
O O15 0.554206 0.697649 0.750000
#
# Coordination Sequence:
#
# PCOD8231937 Si02
#       6
#     8   8   8   8   8   8
#     4   9  16  32  57  85 118 153 185 230 295 353
#     4   9  17  32  58  89 114 146 198 246 290 343
#     4  10  21  34  56  85 117 157 194 234 290 353
#     4  10  19  35  61  89 115 150 196 241 290 351
#     4   9  17  33  56  81 113 151 191 240 292 343
#     4   9  17  32  60  89 115 153 194 241 295 345
#
# _framework density 22.206972
#
# number of rings (size 3 to 8) (size 9 to 14) (size 15 to 20)
#    0.000    2.667    1.667    0.500    0.000    1.333 
#    0.000    0.833   11.000    0.000    0.000    0.000 
#    0.000    0.000    0.000    0.000    0.000    0.000 
#
# Total GULP energy -594941.932878 kJ/mol
# GULP energy per Si atom -12394.623602 kJ/mol
# Density = 2.215643 g / cm^3
# Si number density = 22.206972 Si / 1000 Ang^3
#
#
#
# Elastic Constant Matrix: (Units=GPa)
#
#
# Indices 1 2 3 4 5 6 
#
# 1 175.1899 37.7498 54.4112 0.0000 0.0000 0.0000
# 2 37.7498 87.8656 13.9545 0.0000 0.0000 0.0000
# 3 54.4112 13.9545 62.7078 0.0000 0.0000 0.0000
# 4 0.0000 0.0000 0.0000 11.1304 0.0000 0.0000
# 5 0.0000 0.0000 0.0000 0.0000 39.5468 0.0000
# 6 0.0000 0.0000 0.0000 0.0000 0.0000 12.8887
#
#
#
# Elastic Compliance Matrix: (Units=1/GPa)
#
#
# Indices 1 2 3 4 5 6 
#
# 1 0.008318 -0.002516 -0.006658 0.000000 0.000000 0.000000
# 2 -0.002516 0.012559 -0.000611 0.000000 0.000000 0.000000
# 3 -0.006658 -0.000611 0.021860 0.000000 0.000000 0.000000
# 4 0.000000 0.000000 0.000000 0.089844 0.000000 0.000000
# 5 0.000000 0.000000 0.000000 0.000000 0.025286 0.000000
# 6 0.000000 0.000000 0.000000 0.000000 0.000000 0.077587
#
#
# Mechanical properties :
#
#
# Convention : Reuss Voigt Hill
#
# Bulk Modulus (GPa) = 43.16595 59.77716 51.47155
# Shear Modulus (GPa) = 19.02966 27.35636 23.19301
#
# Velocity S-wave (km/s) = 2.93050 3.51362 3.23523
# Velocity P-wave (km/s) = 5.56153 6.59070 6.09787
#
# Compressibility (1/GPa) = 0.02316641
#
# Stress axis : x y z
#
# Youngs Moduli (GPa) = 120.22048 79.62267 45.74613
#
# Poissons Ratio (x) = 0.20036 0.30456
# Poissons Ratio (y) = 0.30252 0.02797
# Poissons Ratio (z) = 0.80037 0.04868
#
# Static dielectric constant tensor:
#      x y z
#    x 4.240920 0.000000 0.000000 
#    y 0.000000 3.813980 0.000000 
#    z 0.000000 0.000000 4.433010 
# 
# 
# High freq. dielectric constant tensor:
#      x y z
#    x 1.879220 0.000000 0.000000 
#    y 0.000000 1.835250 0.000000 
#    z 0.000000 0.000000 1.880320 
# 
# From -- ./inp_files/21115.got.cif
#   From: 2010.03.12/outbox.cif.g09.slc.cpg/sg57_11_cif.got.tgz:21115.got - 2010.04.16 15:48:40.
