data_PCOD8231545
_publ_section_title
;
Structure prediction by ZEFSAII (Michael W. Deem and Ramdas Pophale) SiO2 
 PCOD8231545
Probable space group: P B C M
;
_chemical_formula_sum "Si O2"
_cell_formula_units_Z 48
_cell_length_a 11.446442
_cell_length_b 23.671300
_cell_length_c 8.545372
_cell_angle_alpha 90.000000
_cell_angle_beta 90.000000
_cell_angle_gamma 90.000000
_cell_volume 2315.387023
_symmetry_space_group_name_H-M "P B C M"
_symmetry_group_IT_number 57
_symmetry_cell_setting 'orthorhombic'
loop_
_space_group_symop_operation_xyz
x,y,z
-x,-y,1/2+z
x,1/2-y,-z
-x,1/2+y,1/2-z
-x,-y,-z
x,y,1/2-z
-x,1/2+y,z
x,1/2-y,1/2+z
loop_
_atom_site_type_symbol
_atom_site_label
_atom_site_fract_x
_atom_site_fract_y
_atom_site_fract_z
Si Si1 0.112485 0.136377 0.928420
Si Si2 0.646915 0.809298 0.069949
Si Si3 0.876259 0.188107 0.935116
Si Si4 0.277634 0.584392 0.932323
Si Si5 0.468917 0.084663 0.431894
Si Si6 0.751941 0.529550 0.565352
O O1 0.079813 0.123733 0.750000
O O2 0.214025 0.182811 0.943543
O O3 0.996771 0.162541 0.008695
O O4 0.156797 0.076489 0.002121
O O5 0.605963 0.815463 0.250000
O O6 0.609648 0.750000 0.000000
O O7 0.582726 0.853769 0.960968
O O8 0.886197 0.193958 0.750000
O O9 0.773591 0.144977 0.986079
O O10 0.847856 0.250000 0.000000
O O11 0.256434 0.575759 0.750000
O O12 0.412787 0.580018 0.971801
O O13 0.207472 0.533491 0.019324
O O14 0.495624 0.075085 0.250000
O O15 0.376739 0.038215 0.491570
O O16 0.739900 0.537971 0.750000
#
# Coordination Sequence:
#
# PCOD8231545 Si02
#       6
#     8   8   8   8   8   8
#     4   8  17  35  58  84 113 144 180 228 281 330
#     4  10  19  33  55  83 114 146 186 235 285 336
#     4  10  22  40  60  82 112 150 189 229 273 326
#     4  11  23  38  56  81 115 151 188 229 276 331
#     4  11  22  37  57  81 112 149 190 233 284 338
#     4  10  20  37  61  87 115 144 181 229 282 337
#
# _framework density 20.730875000000001
#
# number of rings (size 3 to 8) (size 9 to 14) (size 15 to 20)
#    0.000    2.000    0.000    5.000    0.000    2.667 
#    0.000    5.833    0.000    0.000    0.000    0.000 
#    0.000    0.000    0.000    0.000    0.000    0.000 
#
# Total GULP energy -595115.320864 kJ/mol
# GULP energy per Si atom -12398.235851 kJ/mol
# Density = 2.068369 g / cm^3
# Si number density = 20.730875 Si / 1000 Ang^3
#
#
#
# Elastic Constant Matrix: (Units=GPa)
#
#
# Indices 1 2 3 4 5 6 
#
# 1 57.9761 46.1170 13.4454 0.0000 0.0000 0.0000
# 2 46.1170 151.3238 16.6056 0.0000 0.0000 0.0000
# 3 13.4454 16.6056 42.8970 0.0000 0.0000 0.0000
# 4 0.0000 0.0000 0.0000 34.4360 0.0000 0.0000
# 5 0.0000 0.0000 0.0000 0.0000 19.0183 0.0000
# 6 0.0000 0.0000 0.0000 0.0000 0.0000 12.5690
#
#
#
# Elastic Compliance Matrix: (Units=1/GPa)
#
#
# Indices 1 2 3 4 5 6 
#
# 1 0.023691 -0.006689 -0.004836 0.000000 0.000000 0.000000
# 2 -0.006689 0.008790 -0.001306 0.000000 0.000000 0.000000
# 3 -0.004836 -0.001306 0.025333 0.000000 0.000000 0.000000
# 4 0.000000 0.000000 0.000000 0.029039 0.000000 0.000000
# 5 0.000000 0.000000 0.000000 0.000000 0.052581 0.000000
# 6 0.000000 0.000000 0.000000 0.000000 0.000000 0.079561
#
#
# Mechanical properties :
#
#
# Convention : Reuss Voigt Hill
#
# Bulk Modulus (GPa) = 31.10291 44.94807 38.02549
# Shear Modulus (GPa) = 19.57898 24.93992 22.25945
#
# Velocity S-wave (km/s) = 3.07650 3.47224 3.28034
# Velocity P-wave (km/s) = 5.25886 6.14850 5.72100
#
# Compressibility (1/GPa) = 0.03215133
#
# Stress axis : x y z
#
# Youngs Moduli (GPa) = 42.20999 113.76189 39.47415
#
# Poissons Ratio (x) = 0.76099 0.19090
# Poissons Ratio (y) = 0.28236 0.05156
# Poissons Ratio (z) = 0.20413 0.14858
#
# Static dielectric constant tensor:
#      x y z
#    x 3.753240 0.000000 0.000000 
#    y 0.000000 3.999260 0.000000 
#    z 0.000000 0.000000 3.546540 
# 
# 
# High freq. dielectric constant tensor:
#      x y z
#    x 1.799860 0.000000 0.000000 
#    y 0.000000 1.828300 0.000000 
#    z 0.000000 0.000000 1.792790 
# 
# From -- ./inp_files/3301.got.cif
#   From: 2010.03.12/outbox.cif.g09.slc.cpg/sg57_2_cif.got.tgz:3301.got - 2010.04.16 15:48:40.
