data_PCOD8231150
_publ_section_title
;
Structure prediction by ZEFSAII (Michael W. Deem and Ramdas Pophale) SiO2 
 PCOD8231150
Probable space group: P B C M
;
_chemical_formula_sum "Si O2"
_cell_formula_units_Z 56
_cell_length_a 19.200753
_cell_length_b 18.054909
_cell_length_c 8.968604
_cell_angle_alpha 90.000000
_cell_angle_beta 90.000000
_cell_angle_gamma 90.000000
_cell_volume 3109.126650
_symmetry_space_group_name_H-M "P B C M"
_symmetry_group_IT_number 57
_symmetry_cell_setting 'orthorhombic'
loop_
_space_group_symop_operation_xyz
x,y,z
-x,-y,1/2+z
x,1/2-y,-z
-x,1/2+y,1/2-z
-x,-y,-z
x,y,1/2-z
-x,1/2+y,z
x,1/2-y,1/2+z
loop_
_atom_site_type_symbol
_atom_site_label
_atom_site_fract_x
_atom_site_fract_y
_atom_site_fract_z
Si Si1 0.642161 0.325177 0.574219
Si Si2 0.912199 0.328150 0.076474
Si Si3 0.571296 0.022743 0.074914
Si Si4 0.063813 0.170038 0.574274
Si Si5 0.302371 0.044289 0.421296
Si Si6 0.230306 0.605988 0.922594
Si Si7 0.198138 0.329244 0.925503
O O1 0.612800 0.250000 0.500000
O O2 0.643412 0.314737 0.750000
O O3 0.592646 0.393799 0.526653
O O4 0.720404 0.340272 0.518105
O O5 0.909333 0.311076 0.250000
O O6 0.849902 0.382614 0.027509
O O7 0.987730 0.365716 0.038510
O O8 0.901474 0.250000 0.000000
O O9 0.562593 0.016573 0.250000
O O10 0.629988 0.964637 0.023621
O O11 0.500000 0.000000 0.000000
O O12 0.063034 0.250000 0.500000
O O13 0.077653 0.175338 0.750000
O O14 0.129588 0.129650 0.495889
O O15 0.326795 0.042154 0.250000
O O16 0.265418 0.121223 0.461338
O O17 0.247337 0.979253 0.454571
O O18 0.241702 0.626711 0.750000
O O19 0.186572 0.320268 0.750000
O O20 0.211835 0.250000 0.000000
#
# Coordination Sequence:
#
# PCOD8231150 Si02
#       7
#     8   8   8   8   8   8   8
#     4  10  20  33  51  78 106 134 168 203 238 284
#     4   9  17  27  42  65  93 126 164 203 244 288
#     4  10  21  37  58  81 106 134 165 199 240 290
#     4   9  16  27  43  64  91 124 162 204 248 293
#     4   9  19  35  54  74  98 128 162 198 243 298
#     4   9  17  31  49  69  97 132 165 202 246 292
#     4  10  19  32  51  73  95 124 164 209 252 297
#
# _framework density 18.011489000000001
#
# number of rings (size 3 to 8) (size 9 to 14) (size 15 to 20)
#    0.000    2.571    0.000    3.000    0.000    5.143 
#    0.000    1.429    0.000    0.000    0.000    0.000 
#    0.000    0.000    0.000    0.000    0.000    0.000 
#
# Total GULP energy -694114.381278 kJ/mol
# GULP energy per Si atom -12394.899666 kJ/mol
# Density = 1.797049 g / cm^3
# Si number density = 18.011489 Si / 1000 Ang^3
#
#
#
# Elastic Constant Matrix: (Units=GPa)
#
#
# Indices 1 2 3 4 5 6 
#
# 1 151.5621 64.7295 62.9267 0.0000 0.0000 0.0000
# 2 64.7295 80.7419 42.3837 0.0000 0.0000 0.0000
# 3 62.9267 42.3837 81.6314 0.0000 0.0000 0.0000
# 4 0.0000 0.0000 0.0000 23.7082 0.0000 0.0000
# 5 0.0000 0.0000 0.0000 0.0000 31.3320 0.0000
# 6 0.0000 0.0000 0.0000 0.0000 0.0000 21.7393
#
#
#
# Elastic Compliance Matrix: (Units=1/GPa)
#
#
# Indices 1 2 3 4 5 6 
#
# 1 0.011688 -0.006379 -0.005698 0.000000 0.000000 0.000000
# 2 -0.006379 0.020507 -0.005730 0.000000 0.000000 0.000000
# 3 -0.005698 -0.005730 0.019617 0.000000 0.000000 0.000000
# 4 0.000000 0.000000 0.000000 0.042180 0.000000 0.000000
# 5 0.000000 0.000000 0.000000 0.000000 0.031916 0.000000
# 6 0.000000 0.000000 0.000000 0.000000 0.000000 0.046000
#
#
# Mechanical properties :
#
#
# Convention : Reuss Voigt Hill
#
# Bulk Modulus (GPa) = 61.73325 72.66836 67.20081
# Shear Modulus (GPa) = 23.48285 24.94892 24.21589
#
# Velocity S-wave (km/s) = 3.61469 3.72582 3.67068
# Velocity P-wave (km/s) = 7.19515 7.67738 7.44017
#
# Compressibility (1/GPa) = 0.01619873
#
# Stress axis : x y z
#
# Youngs Moduli (GPa) = 85.55757 48.76366 50.97511
#
# Poissons Ratio (x) = 0.31107 0.29044
# Poissons Ratio (y) = 0.54579 0.29208
# Poissons Ratio (z) = 0.48749 0.27941
#
# Static dielectric constant tensor:
#      x y z
#    x 3.705520 0.000000 0.000000 
#    y 0.000000 3.169040 0.000000 
#    z 0.000000 0.000000 3.413230 
# 
# 
# High freq. dielectric constant tensor:
#      x y z
#    x 1.701320 0.000000 0.000000 
#    y 0.000000 1.670060 0.000000 
#    z 0.000000 0.000000 1.704840 
# 
# From -- ./inp_files/8195.got.cif
#   From: 2010.03.12/outbox.cif.g09.slc.cpg/sg57_5_cif.got.tgz:8195.got - 2010.04.16 15:48:40.
