data_PCOD8231264
_publ_section_title
;
Structure prediction by ZEFSAII (Michael W. Deem and Ramdas Pophale) SiO2 
 PCOD8231264
Probable space group: P B C M
;
_chemical_formula_sum "Si O2"
_cell_formula_units_Z 48
_cell_length_a 30.998455
_cell_length_b 9.510560
_cell_length_c 8.931760
_cell_angle_alpha 90.000000
_cell_angle_beta 90.000000
_cell_angle_gamma 90.000000
_cell_volume 2633.195979
_symmetry_space_group_name_H-M "P B C M"
_symmetry_group_IT_number 57
_symmetry_cell_setting 'orthorhombic'
loop_
_space_group_symop_operation_xyz
x,y,z
-x,-y,1/2+z
x,1/2-y,-z
-x,1/2+y,1/2-z
-x,-y,-z
x,y,1/2-z
-x,1/2+y,z
x,1/2-y,1/2+z
loop_
_atom_site_type_symbol
_atom_site_label
_atom_site_fract_x
_atom_site_fract_y
_atom_site_fract_z
Si Si1 0.967120 0.897626 0.077849
Si Si2 0.291341 0.603489 0.922755
Si Si3 0.463232 0.095558 0.071167
Si Si4 0.615054 0.401424 0.074407
Si Si5 0.198448 0.901816 0.425955
Si Si6 0.869380 0.601572 0.922562
O O1 0.979930 0.881193 0.250000
O O2 0.918305 0.953949 0.059596
O O3 0.972241 0.750000 0.000000
O O4 0.000000 0.000000 0.000000
O O5 0.294305 0.637258 0.750000
O O6 0.337316 0.535146 0.971603
O O7 0.245856 0.523652 0.956621
O O8 0.287061 0.750000 0.000000
O O9 0.469093 0.106597 0.250000
O O10 0.418577 0.020311 0.024138
O O11 0.464490 0.250000 0.000000
O O12 0.500000 0.000000 0.000000
O O13 0.610947 0.374566 0.250000
O O14 0.605684 0.250000 0.000000
O O15 0.196550 0.750000 0.500000
O O16 0.189722 0.886955 0.250000
O O17 0.161443 0.992814 0.498053
O O18 0.856416 0.617118 0.750000
O O19 0.863212 0.750000 0.000000
#
# Coordination Sequence:
#
# PCOD8231264 Si02
#       6
#     8   8   8   8   8   8
#     4  10  21  37  57  79 104 135 171 213 259 309
#     4   8  15  29  49  74 103 134 170 211 255 302
#     4  11  23  38  56  78 106 139 175 216 261 310
#     4   9  18  33  54  78 104 135 171 212 258 308
#     4  10  19  32  53  79 107 139 176 218 258 301
#     4  10  21  37  55  76 104 138 174 212 259 312
#
# _framework density 18.228798999999999
#
# number of rings (size 3 to 8) (size 9 to 14) (size 15 to 20)
#    0.000    2.333    0.000    2.500    0.000    6.000 
#    0.000    0.833    0.000    2.000    0.000    0.000 
#    0.000    0.000    0.000    0.000    0.000    0.000 
#
# Total GULP energy -594695.750823 kJ/mol
# GULP energy per Si atom -12389.494809 kJ/mol
# Density = 1.818731 g / cm^3
# Si number density = 18.228799 Si / 1000 Ang^3
#
#
#
# Elastic Constant Matrix: (Units=GPa)
#
#
# Indices 1 2 3 4 5 6 
#
# 1 161.1407 81.7851 78.8150 0.0000 0.0000 0.0000
# 2 81.7851 95.6284 55.9952 0.0000 0.0000 0.0000
# 3 78.8150 55.9952 109.0086 0.0000 0.0000 0.0000
# 4 0.0000 0.0000 0.0000 33.1940 0.0000 0.0000
# 5 0.0000 0.0000 0.0000 0.0000 32.3042 0.0000
# 6 0.0000 0.0000 0.0000 0.0000 0.0000 30.7961
#
#
#
# Elastic Compliance Matrix: (Units=1/GPa)
#
#
# Indices 1 2 3 4 5 6 
#
# 1 0.012715 -0.007854 -0.005159 0.000000 0.000000 0.000000
# 2 -0.007854 0.019806 -0.004496 0.000000 0.000000 0.000000
# 3 -0.005159 -0.004496 0.015213 0.000000 0.000000 0.000000
# 4 0.000000 0.000000 0.000000 0.030126 0.000000 0.000000
# 5 0.000000 0.000000 0.000000 0.000000 0.030956 0.000000
# 6 0.000000 0.000000 0.000000 0.000000 0.000000 0.032472
#
#
# Mechanical properties :
#
#
# Convention : Reuss Voigt Hill
#
# Bulk Modulus (GPa) = 78.63069 88.77425 83.70247
# Shear Modulus (GPa) = 27.69413 29.20434 28.44923
#
# Velocity S-wave (km/s) = 3.90199 4.00696 3.95482
# Velocity P-wave (km/s) = 7.97055 8.37934 8.17750
#
# Compressibility (1/GPa) = 0.01271768
#
# Stress axis : x y z
#
# Youngs Moduli (GPa) = 78.64708 50.48890 65.73316
#
# Poissons Ratio (x) = 0.39652 0.33912
# Poissons Ratio (y) = 0.61766 0.29552
# Poissons Ratio (z) = 0.40574 0.22699
#
# Static dielectric constant tensor:
#      x y z
#    x 4.158860 0.000000 0.000000 
#    y 0.000000 3.104790 0.000000 
#    z 0.000000 0.000000 3.509450 
# 
# 
# High freq. dielectric constant tensor:
#      x y z
#    x 1.733190 0.000000 0.000000 
#    y 0.000000 1.676220 0.000000 
#    z 0.000000 0.000000 1.721100 
# 
# From -- ./inp_files/9893.got.cif
#   From: 2010.03.12/outbox.cif.g09.slc.cpg/sg57_5_cif.got.tgz:9893.got - 2010.04.16 15:48:40.
