data_PCOD8231269
_publ_section_title
;
Structure prediction by ZEFSAII (Michael W. Deem and Ramdas Pophale) SiO2 
 PCOD8231269
Probable space group: P B C M
;
_chemical_formula_sum "Si O2"
_cell_formula_units_Z 64
_cell_length_a 21.538815
_cell_length_b 17.821967
_cell_length_c 9.219142
_cell_angle_alpha 90.000000
_cell_angle_beta 90.000000
_cell_angle_gamma 90.000000
_cell_volume 3538.897187
_symmetry_space_group_name_H-M "P B C M"
_symmetry_group_IT_number 57
_symmetry_cell_setting 'orthorhombic'
loop_
_space_group_symop_operation_xyz
x,y,z
-x,-y,1/2+z
x,1/2-y,-z
-x,1/2+y,1/2-z
-x,-y,-z
x,y,1/2-z
-x,1/2+y,z
x,1/2-y,1/2+z
loop_
_atom_site_type_symbol
_atom_site_label
_atom_site_fract_x
_atom_site_fract_y
_atom_site_fract_z
Si Si1 0.311431 0.538607 0.084186
Si Si2 0.993110 0.672872 0.419623
Si Si3 0.123278 0.422152 0.583026
Si Si4 0.111679 0.922543 0.579425
Si Si5 0.560013 0.525298 0.584143
Si Si6 0.772749 0.173940 0.083371
Si Si7 0.262877 0.098457 0.418265
Si Si8 0.370134 0.324357 0.077935
O O1 0.298655 0.511246 0.250000
O O2 0.384890 0.533981 0.052164
O O3 0.288646 0.623298 0.061512
O O4 0.273999 0.485702 0.974961
O O5 0.005361 0.750000 0.500000
O O6 0.994827 0.689992 0.250000
O O7 0.927590 0.638031 0.469166
O O8 0.046711 0.614691 0.464151
O O9 0.112182 0.444129 0.750000
O O10 0.116199 0.496827 0.491542
O O11 0.190245 0.383552 0.560800
O O12 0.118820 0.934509 0.750000
O O13 0.167286 0.869707 0.521633
O O14 0.500000 0.500000 0.500000
O O15 0.540522 0.525262 0.750000
O O16 0.582924 0.608282 0.538457
O O17 0.783677 0.194483 0.250000
O O18 0.760952 0.250000 0.000000
O O19 0.282701 0.103902 0.250000
O O20 0.302272 0.157435 0.512545
O O21 0.364124 0.312484 0.250000
O O22 0.396301 0.250000 0.000000
#
# Coordination Sequence:
#
# PCOD8231269 Si02
#       8
#     8   8   8   8   8   8   8   8
#     4   9  18  35  54  75 107 141 177 219 263 317
#     4  10  22  38  52  73 104 138 178 223 270 323
#     4  10  21  35  53  79 108 136 176 224 268 323
#     4  10  20  35  56  77 100 137 181 221 268 323
#     4   9  19  35  57  82 109 144 181 220 263 311
#     4  10  20  33  52  78 106 136 175 220 268 320
#     4  10  19  32  53  80 107 139 176 219 270 322
#     4  10  21  37  57  83 114 147 183 226 271 316
#
# _framework density 18.08473
#
# number of rings (size 3 to 8) (size 9 to 14) (size 15 to 20)
#    0.000    2.250    1.250    2.250    0.000    5.500 
#    0.000    1.875    0.000    3.000    0.000    0.000 
#    0.000    0.000    0.000    0.000    0.000    0.000 
#
# Total GULP energy -793685.404303 kJ/mol
# GULP energy per Si atom -12401.334442 kJ/mol
# Density = 1.804357 g / cm^3
# Si number density = 18.084730 Si / 1000 Ang^3
#
#
#
# Elastic Constant Matrix: (Units=GPa)
#
#
# Indices 1 2 3 4 5 6 
#
# 1 125.1628 43.0463 44.2206 0.0000 0.0000 0.0000
# 2 43.0463 84.4935 43.5174 0.0000 0.0000 0.0000
# 3 44.2206 43.5174 67.1277 0.0000 0.0000 0.0000
# 4 0.0000 0.0000 0.0000 36.5840 0.0000 0.0000
# 5 0.0000 0.0000 0.0000 0.0000 27.4598 0.0000
# 6 0.0000 0.0000 0.0000 0.0000 0.0000 21.1130
#
#
#
# Elastic Compliance Matrix: (Units=1/GPa)
#
#
# Indices 1 2 3 4 5 6 
#
# 1 0.010827 -0.002766 -0.005339 0.000000 0.000000 0.000000
# 2 -0.002766 0.018474 -0.010154 0.000000 0.000000 0.000000
# 3 -0.005339 -0.010154 0.024997 0.000000 0.000000 0.000000
# 4 0.000000 0.000000 0.000000 0.027334 0.000000 0.000000
# 5 0.000000 0.000000 0.000000 0.000000 0.036417 0.000000
# 6 0.000000 0.000000 0.000000 0.000000 0.000000 0.047364
#
#
# Mechanical properties :
#
#
# Convention : Reuss Voigt Hill
#
# Bulk Modulus (GPa) = 56.24540 59.81694 58.03117
# Shear Modulus (GPa) = 24.05464 26.76467 25.40965
#
# Velocity S-wave (km/s) = 3.65102 3.85120 3.75244
# Velocity P-wave (km/s) = 6.99584 7.27485 7.13671
#
# Compressibility (1/GPa) = 0.01777923
#
# Stress axis : x y z
#
# Youngs Moduli (GPa) = 92.35879 54.12911 40.00474
#
# Poissons Ratio (x) = 0.14973 0.21360
# Poissons Ratio (y) = 0.25548 0.40622
# Poissons Ratio (z) = 0.49313 0.54964
#
# Static dielectric constant tensor:
#      x y z
#    x 3.455110 0.000000 0.000000 
#    y 0.000000 3.261780 0.000000 
#    z 0.000000 0.000000 3.335400 
# 
# 
# High freq. dielectric constant tensor:
#      x y z
#    x 1.701820 0.000000 0.000000 
#    y 0.000000 1.694370 0.000000 
#    z 0.000000 0.000000 1.700570 
# 
# From -- ./inp_files/8421.got.cif
#   From: 2010.03.12/outbox.cif.g09.slc.cpg/sg57_5_cif.got.tgz:8421.got - 2010.04.16 15:48:40.
