data_PCOD8231962
_publ_section_title
;
Structure prediction by ZEFSAII (Michael W. Deem and Ramdas Pophale) SiO2 
 PCOD8231962
Probable space group: P B C M
;
_chemical_formula_sum "Si O2"
_cell_formula_units_Z 48
_cell_length_a 8.007443
_cell_length_b 33.720750
_cell_length_c 9.204709
_cell_angle_alpha 90.000000
_cell_angle_beta 90.000000
_cell_angle_gamma 90.000000
_cell_volume 2485.427759
_symmetry_space_group_name_H-M "P B C M"
_symmetry_group_IT_number 57
_symmetry_cell_setting 'orthorhombic'
loop_
_space_group_symop_operation_xyz
x,y,z
-x,-y,1/2+z
x,1/2-y,-z
-x,1/2+y,1/2-z
-x,-y,-z
x,y,1/2-z
-x,1/2+y,z
x,1/2-y,1/2+z
loop_
_atom_site_type_symbol
_atom_site_label
_atom_site_fract_x
_atom_site_fract_y
_atom_site_fract_z
Si Si1 0.825416 0.845361 0.921653
Si Si2 0.681848 0.583553 0.920536
Si Si3 0.191164 0.662152 0.417301
Si Si4 0.653260 0.080726 0.418190
Si Si5 0.172413 0.500799 0.419300
Si Si6 0.489149 0.291611 0.577161
O O1 0.825674 0.853873 0.750000
O O2 0.673265 0.817123 0.967527
O O3 0.004211 0.826106 0.970920
O O4 0.813220 0.887275 0.003633
O O5 0.683631 0.591507 0.750000
O O6 0.724559 0.538284 0.959117
O O7 0.501696 0.593101 0.984267
O O8 0.207038 0.672461 0.250000
O O9 0.210648 0.615049 0.443331
O O10 0.343061 0.687402 0.488043
O O11 0.596798 0.078708 0.250000
O O12 0.724498 0.038903 0.473181
O O13 0.134120 0.504113 0.250000
O O14 0.000000 0.500000 0.500000
O O15 0.469570 0.250000 0.500000
O O16 0.494912 0.286046 0.750000
#
# Coordination Sequence:
#
# PCOD8231962 Si02
#       6
#     8   8   8   8   8   8
#     4  10  20  38  63  84 111 155 195 230 276 340
#     4  11  22  35  53  84 119 147 187 242 291 333
#     4   9  18  35  60  86 108 142 196 236 267 332
#     4  10  19  36  58  79 108 152 199 234 277 342
#     4  10  22  36  53  80 114 151 194 242 287 338
#     4  10  21  38  59  86 115 146 186 232 282 342
#
# _framework density 19.312571999999999
#
# number of rings (size 3 to 8) (size 9 to 14) (size 15 to 20)
#    0.000    2.000    1.667    2.000    0.000    4.667 
#    0.000    1.667    0.000    0.000    0.000    0.000 
#    0.000    0.000    0.000    0.000    0.000    0.000 
#
# Total GULP energy -595127.844297 kJ/mol
# GULP energy per Si atom -12398.496756 kJ/mol
# Density = 1.926862 g / cm^3
# Si number density = 19.312572 Si / 1000 Ang^3
#
#
#
# Elastic Constant Matrix: (Units=GPa)
#
#
# Indices 1 2 3 4 5 6 
#
# 1 155.4658 51.1175 32.0019 0.0000 0.0000 0.0000
# 2 51.1175 112.0144 28.6747 0.0000 0.0000 0.0000
# 3 32.0019 28.6747 34.2793 0.0000 0.0000 0.0000
# 4 0.0000 0.0000 0.0000 31.2924 0.0000 0.0000
# 5 0.0000 0.0000 0.0000 0.0000 20.7837 0.0000
# 6 0.0000 0.0000 0.0000 0.0000 0.0000 21.1927
#
#
#
# Elastic Compliance Matrix: (Units=1/GPa)
#
#
# Indices 1 2 3 4 5 6 
#
# 1 0.008414 -0.002327 -0.005908 0.000000 0.000000 0.000000
# 2 -0.002327 0.012004 -0.007869 0.000000 0.000000 0.000000
# 3 -0.005908 -0.007869 0.041270 0.000000 0.000000 0.000000
# 4 0.000000 0.000000 0.000000 0.031957 0.000000 0.000000
# 5 0.000000 0.000000 0.000000 0.000000 0.048115 0.000000
# 6 0.000000 0.000000 0.000000 0.000000 0.000000 0.047186
#
#
# Mechanical properties :
#
#
# Convention : Reuss Voigt Hill
#
# Bulk Modulus (GPa) = 33.92181 58.37198 46.14689
# Shear Modulus (GPa) = 21.64708 27.31813 24.48260
#
# Velocity S-wave (km/s) = 3.35159 3.76510 3.56434
# Velocity P-wave (km/s) = 5.70791 7.01368 6.39422
#
# Compressibility (1/GPa) = 0.02947956
#
# Stress axis : x y z
#
# Youngs Moduli (GPa) = 118.85563 83.30769 24.23088
#
# Poissons Ratio (x) = 0.19387 0.14315
# Poissons Ratio (y) = 0.27659 0.19066
# Poissons Ratio (z) = 0.70219 0.65551
#
# Static dielectric constant tensor:
#      x y z
#    x 3.504210 0.000000 0.000000 
#    y 0.000000 3.391770 0.000000 
#    z 0.000000 0.000000 3.288420 
# 
# 
# High freq. dielectric constant tensor:
#      x y z
#    x 1.765730 0.000000 0.000000 
#    y 0.000000 1.753830 0.000000 
#    z 0.000000 0.000000 1.724390 
# 
# From -- ./inp_files/2019.got.cif
#   From: 2010.03.12/outbox.cif.g09.slc.cpg/sg57_2_cif.got.tgz:2019.got - 2010.04.16 15:48:40.
