data_PCOD8231145
_publ_section_title
;
Structure prediction by ZEFSAII (Michael W. Deem and Ramdas Pophale) SiO2 
 PCOD8231145
Probable space group: P B C M
;
_chemical_formula_sum "Si O2"
_cell_formula_units_Z 64
_cell_length_a 15.526753
_cell_length_b 28.331015
_cell_length_c 8.744456
_cell_angle_alpha 90.000000
_cell_angle_beta 90.000000
_cell_angle_gamma 90.000000
_cell_volume 3846.587138
_symmetry_space_group_name_H-M "P B C M"
_symmetry_group_IT_number 57
_symmetry_cell_setting 'orthorhombic'
loop_
_space_group_symop_operation_xyz
x,y,z
-x,-y,1/2+z
x,1/2-y,-z
-x,1/2+y,1/2-z
-x,-y,-z
x,y,1/2-z
-x,1/2+y,z
x,1/2-y,1/2+z
loop_
_atom_site_type_symbol
_atom_site_label
_atom_site_fract_x
_atom_site_fract_y
_atom_site_fract_z
Si Si1 0.396922 0.700553 0.931670
Si Si2 0.650746 0.896657 0.573267
Si Si3 0.993384 0.550453 0.574259
Si Si4 0.816711 0.054592 0.926520
Si Si5 0.506893 0.051397 0.930414
Si Si6 0.335805 0.608039 0.429712
Si Si7 0.581414 0.702792 0.426810
Si Si8 0.175845 0.445125 0.571301
O O1 0.393131 0.701902 0.750000
O O2 0.363842 0.750000 0.000000
O O3 0.335211 0.659619 0.994308
O O4 0.493865 0.689737 0.985680
O O5 0.634951 0.911276 0.750000
O O6 0.578356 0.919599 0.468614
O O7 0.648451 0.840006 0.554552
O O8 0.742820 0.914859 0.513723
O O9 0.973245 0.543281 0.750000
O O10 0.911276 0.577327 0.501466
O O11 0.000000 0.500000 0.500000
O O12 0.086293 0.575427 0.550355
O O13 0.787652 0.059871 0.750000
O O14 0.811366 0.999698 0.976077
O O15 0.755622 0.084262 0.036418
O O16 0.518854 0.048055 0.750000
O O17 0.589462 0.076348 0.000452
O O18 0.500000 0.000000 0.000000
O O19 0.350618 0.612810 0.250000
O O20 0.622941 0.750000 0.500000
O O21 0.558607 0.712154 0.250000
O O22 0.164281 0.440330 0.750000
#
# Coordination Sequence:
#
# PCOD8231145 Si02
#       8
#     8   8   8   8   8   8   8   8
#     4  11  21  35  54  74  98 129 166 210 256 298
#     4  10  20  34  51  72 100 133 168 206 248 297
#     4   9  17  30  49  71  97 128 163 205 249 293
#     4   9  18  32  49  71 100 133 167 205 251 298
#     4  12  24  36  50  68  97 136 172 206 244 291
#     4  12  23  35  51  74 101 132 170 208 249 300
#     4  10  19  32  51  72  98 129 167 210 253 295
#     4   9  18  32  50  72 100 132 166 206 250 295
#
# _framework density 16.638126
#
# number of rings (size 3 to 8) (size 9 to 14) (size 15 to 20)
#    0.000    1.750    1.250    6.375    0.000    4.500 
#    0.000    0.000    0.000    0.000    0.000    0.875 
#    0.000    4.000    0.000    0.000    0.000    0.000 
#
# Total GULP energy -793547.767586 kJ/mol
# GULP energy per Si atom -12399.183869 kJ/mol
# Density = 1.660026 g / cm^3
# Si number density = 16.638126 Si / 1000 Ang^3
#
#
#
# Elastic Constant Matrix: (Units=GPa)
#
#
# Indices 1 2 3 4 5 6 
#
# 1 112.2994 48.9136 45.8748 0.0000 0.0000 0.0000
# 2 48.9136 95.6377 44.3977 0.0000 0.0000 0.0000
# 3 45.8748 44.3977 114.6086 0.0000 0.0000 0.0000
# 4 0.0000 0.0000 0.0000 24.9966 0.0000 0.0000
# 5 0.0000 0.0000 0.0000 0.0000 28.6779 0.0000
# 6 0.0000 0.0000 0.0000 0.0000 0.0000 4.6311
#
#
#
# Elastic Compliance Matrix: (Units=1/GPa)
#
#
# Indices 1 2 3 4 5 6 
#
# 1 0.012259 -0.004867 -0.003021 0.000000 0.000000 0.000000
# 2 -0.004867 0.014681 -0.003739 0.000000 0.000000 0.000000
# 3 -0.003021 -0.003739 0.011383 0.000000 0.000000 0.000000
# 4 0.000000 0.000000 0.000000 0.040005 0.000000 0.000000
# 5 0.000000 0.000000 0.000000 0.000000 0.034870 0.000000
# 6 0.000000 0.000000 0.000000 0.000000 0.000000 0.215932
#
#
# Mechanical properties :
#
#
# Convention : Reuss Voigt Hill
#
# Bulk Modulus (GPa) = 66.36594 66.76866 66.56730
# Shear Modulus (GPa) = 13.98956 23.88509 18.93733
#
# Velocity S-wave (km/s) = 2.90282 3.79299 3.37737
# Velocity P-wave (km/s) = 7.15609 7.70710 7.43670
#
# Compressibility (1/GPa) = 0.01506797
#
# Stress axis : x y z
#
# Youngs Moduli (GPa) = 81.57248 68.11422 87.84848
#
# Poissons Ratio (x) = 0.33152 0.26543
# Poissons Ratio (y) = 0.39703 0.32847
# Poissons Ratio (z) = 0.24647 0.25468
#
# Static dielectric constant tensor:
#      x y z
#    x 3.474820 0.000000 0.000000 
#    y 0.000000 3.185080 0.000000 
#    z 0.000000 0.000000 3.326560 
# 
# 
# High freq. dielectric constant tensor:
#      x y z
#    x 1.629830 0.000000 0.000000 
#    y 0.000000 1.620940 0.000000 
#    z 0.000000 0.000000 1.654920 
# 
# From -- ./inp_files/6016.got.cif
#   From: 2010.03.12/outbox.cif.g09.slc.cpg/sg57_4_cif.got.tgz:6016.got - 2010.04.16 15:48:40.
