data_PCOD8231982
_publ_section_title
;
Structure prediction by ZEFSAII (Michael W. Deem and Ramdas Pophale) SiO2 
 PCOD8231982
Probable space group: P B C M
;
_chemical_formula_sum "Si O2"
_cell_formula_units_Z 48
_cell_length_a 15.162956
_cell_length_b 9.035275
_cell_length_c 16.342407
_cell_angle_alpha 90.000000
_cell_angle_beta 90.000000
_cell_angle_gamma 90.000000
_cell_volume 2238.933901
_symmetry_space_group_name_H-M "P B C M"
_symmetry_group_IT_number 57
_symmetry_cell_setting 'orthorhombic'
loop_
_space_group_symop_operation_xyz
x,y,z
-x,-y,1/2+z
x,1/2-y,-z
-x,1/2+y,1/2-z
-x,-y,-z
x,y,1/2-z
-x,1/2+y,z
x,1/2-y,1/2+z
loop_
_atom_site_type_symbol
_atom_site_label
_atom_site_fract_x
_atom_site_fract_y
_atom_site_fract_z
Si Si1 0.278316 0.398149 0.153885
Si Si2 0.604920 0.123207 0.846716
Si Si3 0.098600 0.198137 0.592753
Si Si4 0.560564 0.800848 0.652716
Si Si5 0.230578 0.711645 0.092933
Si Si6 0.054878 0.609756 0.156884
O O1 0.282147 0.436928 0.250000
O O2 0.194371 0.294651 0.134779
O O3 0.364729 0.313220 0.123272
O O4 0.273457 0.549763 0.103000
O O5 0.599313 0.116078 0.750000
O O6 0.534031 0.243179 0.879825
O O7 0.703313 0.165473 0.872400
O O8 0.580223 0.962847 0.884051
O O9 0.104420 0.250000 0.500000
O O10 0.036102 0.306900 0.643053
O O11 0.061333 0.031019 0.596819
O O12 0.561233 0.808823 0.750000
O O13 0.137264 0.719699 0.140210
O O14 0.210509 0.750000 0.000000
O O15 0.059833 0.552908 0.250000
#
# Coordination Sequence:
#
# PCOD8231982 Si02
#       6
#     8   8   8   8   8   8
#     4  10  21  41  62  85 117 159 201 242 290 352
#     4  10  19  36  59  86 115 152 196 243 293 350
#     4  11  23  39  61  90 122 156 193 245 301 349
#     4   9  19  34  60  88 113 148 197 244 288 343
#     4  11  23  38  57  85 118 154 194 242 297 350
#     4  11  23  42  64  88 118 159 201 242 289 352
#
# _framework density 21.438776000000001
#
# number of rings (size 3 to 8) (size 9 to 14) (size 15 to 20)
#    0.000    1.667    0.000    6.000    0.000    8.000 
#    0.000    7.500    0.000    0.000    0.000    0.000 
#    0.000    0.000    0.000    0.000    0.000    0.000 
#
# Total GULP energy -595308.303998 kJ/mol
# GULP energy per Si atom -12402.256333 kJ/mol
# Density = 2.138998 g / cm^3
# Si number density = 21.438776 Si / 1000 Ang^3
#
#
#
# Elastic Constant Matrix: (Units=GPa)
#
#
# Indices 1 2 3 4 5 6 
#
# 1 54.2282 2.5100 19.2294 0.0000 0.0000 0.0000
# 2 2.5100 74.9735 36.1249 0.0000 0.0000 0.0000
# 3 19.2294 36.1249 74.1673 0.0000 0.0000 0.0000
# 4 0.0000 0.0000 0.0000 12.0474 0.0000 0.0000
# 5 0.0000 0.0000 0.0000 0.0000 4.2099 0.0000
# 6 0.0000 0.0000 0.0000 0.0000 0.0000 42.6391
#
#
#
# Elastic Compliance Matrix: (Units=1/GPa)
#
#
# Indices 1 2 3 4 5 6 
#
# 1 0.020651 0.002468 -0.006556 0.000000 0.000000 0.000000
# 2 0.002468 0.017723 -0.009272 0.000000 0.000000 0.000000
# 3 -0.006556 -0.009272 0.019699 0.000000 0.000000 0.000000
# 4 0.000000 0.000000 0.000000 0.083006 0.000000 0.000000
# 5 0.000000 0.000000 0.000000 0.000000 0.237534 0.000000
# 6 0.000000 0.000000 0.000000 0.000000 0.000000 0.023453
#
#
# Mechanical properties :
#
#
# Convention : Reuss Voigt Hill
#
# Bulk Modulus (GPa) = 31.89605 35.45529 33.67567
# Shear Modulus (GPa) = 11.38335 21.47960 16.43147
#
# Velocity S-wave (km/s) = 2.30678 3.16872 2.77146
# Velocity P-wave (km/s) = 4.69095 5.47372 5.09738
#
# Compressibility (1/GPa) = 0.03135185
#
# Stress axis : x y z
#
# Youngs Moduli (GPa) = 48.42341 56.42349 50.76375
#
# Poissons Ratio (x) = -0.13923 0.33281
# Poissons Ratio (y) = -0.11949 0.47069
# Poissons Ratio (z) = 0.31747 0.52317
#
# Static dielectric constant tensor:
#      x y z
#    x 4.122200 0.000000 0.000000 
#    y 0.000000 3.980820 0.000000 
#    z 0.000000 0.000000 3.579680 
# 
# 
# High freq. dielectric constant tensor:
#      x y z
#    x 1.857100 0.000000 0.000000 
#    y 0.000000 1.843680 0.000000 
#    z 0.000000 0.000000 1.819690 
# 
# From -- ./inp_files/18924.got.cif
#   From: 2010.03.12/outbox.cif.g09.slc.cpg/sg57_10_cif.got.tgz:18924.got - 2010.04.16 15:48:40.
