data_PCOD8231852
_publ_section_title
;
Structure prediction by ZEFSAII (Michael W. Deem and Ramdas Pophale) SiO2 
 PCOD8231852
Probable space group: P B C M
;
_chemical_formula_sum "Si O2"
_cell_formula_units_Z 56
_cell_length_a 17.091724
_cell_length_b 19.610088
_cell_length_c 8.976645
_cell_angle_alpha 90.000000
_cell_angle_beta 90.000000
_cell_angle_gamma 90.000000
_cell_volume 3008.704005
_symmetry_space_group_name_H-M "P B C M"
_symmetry_group_IT_number 57
_symmetry_cell_setting 'orthorhombic'
loop_
_space_group_symop_operation_xyz
x,y,z
-x,-y,1/2+z
x,1/2-y,-z
-x,1/2+y,1/2-z
-x,-y,-z
x,y,1/2-z
-x,1/2+y,z
x,1/2-y,1/2+z
loop_
_atom_site_type_symbol
_atom_site_label
_atom_site_fract_x
_atom_site_fract_y
_atom_site_fract_z
Si Si1 0.695592 0.912156 0.922917
Si Si2 0.378122 0.819564 0.574676
Si Si3 0.721487 0.432963 0.421720
Si Si4 0.822114 0.820937 0.073598
Si Si5 0.048088 0.099457 0.077107
Si Si6 0.099199 0.947930 0.078930
Si Si7 0.445299 0.182019 0.077207
O O1 0.719271 0.900743 0.750000
O O2 0.610618 0.881311 0.960898
O O3 0.691295 0.991690 0.960769
O O4 0.760157 0.877923 0.026271
O O5 0.347819 0.750000 0.500000
O O6 0.372131 0.810650 0.750000
O O7 0.324097 0.881464 0.526097
O O8 0.467034 0.835338 0.522003
O O9 0.704662 0.415509 0.250000
O O10 0.813071 0.425673 0.457934
O O11 0.823334 0.813092 0.250000
O O12 0.796617 0.750000 0.000000
O O13 0.907856 0.842201 0.015543
O O14 0.050619 0.119012 0.250000
O O15 0.090861 0.027982 0.044051
O O16 0.958211 0.096227 0.024281
O O17 0.077000 0.933950 0.250000
O O18 0.445471 0.198502 0.250000
O O19 0.412339 0.250000 0.000000
#
# Coordination Sequence:
#
# PCOD8231852 Si02
#       7
#     8   8   8   8   8   8   8
#     4  10  20  37  57  82 115 150 188 230 282 337
#     4  10  21  38  58  82 109 144 189 235 284 339
#     4  10  20  36  58  84 116 150 182 228 284 336
#     4  12  24  37  55  81 116 154 192 235 283 335
#     4  10  19  35  57  81 109 145 186 228 274 326
#     4   9  18  34  56  82 111 144 182 224 274 330
#     4   9  19  35  56  79 110 149 190 233 279 333
#
# _framework density 18.612665
#
# number of rings (size 3 to 8) (size 9 to 14) (size 15 to 20)
#    0.000    2.000    1.429    2.571    0.000    4.571 
#    0.000    0.714    0.000    3.429    0.000    0.000 
#    0.000    0.000    0.000    0.000    0.000    0.000 
#
# Total GULP energy -694629.618040 kJ/mol
# GULP energy per Si atom -12404.100322 kJ/mol
# Density = 1.857030 g / cm^3
# Si number density = 18.612665 Si / 1000 Ang^3
#
#
#
# Elastic Constant Matrix: (Units=GPa)
#
#
# Indices 1 2 3 4 5 6 
#
# 1 95.3799 57.0060 47.8052 0.0000 0.0000 0.0000
# 2 57.0060 103.1589 52.2204 0.0000 0.0000 0.0000
# 3 47.8052 52.2204 92.9514 0.0000 0.0000 0.0000
# 4 0.0000 0.0000 0.0000 32.4744 0.0000 0.0000
# 5 0.0000 0.0000 0.0000 0.0000 30.3242 0.0000
# 6 0.0000 0.0000 0.0000 0.0000 0.0000 19.0013
#
#
#
# Elastic Compliance Matrix: (Units=1/GPa)
#
#
# Indices 1 2 3 4 5 6 
#
# 1 0.017100 -0.006984 -0.004871 0.000000 0.000000 0.000000
# 2 -0.006984 0.016398 -0.005621 0.000000 0.000000 0.000000
# 3 -0.004871 -0.005621 0.016421 0.000000 0.000000 0.000000
# 4 0.000000 0.000000 0.000000 0.030793 0.000000 0.000000
# 5 0.000000 0.000000 0.000000 0.000000 0.032977 0.000000
# 6 0.000000 0.000000 0.000000 0.000000 0.000000 0.052628
#
#
# Mechanical properties :
#
#
# Convention : Reuss Voigt Hill
#
# Bulk Modulus (GPa) = 66.80803 67.28372 67.04588
# Shear Modulus (GPa) = 24.24144 25.32388 24.78266
#
# Velocity S-wave (km/s) = 3.61282 3.69260 3.65292
# Velocity P-wave (km/s) = 7.30582 7.37620 7.34109
#
# Compressibility (1/GPa) = 0.01496826
#
# Stress axis : x y z
#
# Youngs Moduli (GPa) = 58.48064 60.98169 60.89629
#
# Poissons Ratio (x) = 0.42587 0.29663
# Poissons Ratio (y) = 0.40840 0.34230
# Poissons Ratio (z) = 0.28486 0.34278
#
# Static dielectric constant tensor:
#      x y z
#    x 3.532710 0.000000 0.000000 
#    y 0.000000 3.324660 0.000000 
#    z 0.000000 0.000000 3.391890 
# 
# 
# High freq. dielectric constant tensor:
#      x y z
#    x 1.727040 0.000000 0.000000 
#    y 0.000000 1.711090 0.000000 
#    z 0.000000 0.000000 1.723090 
# 
# From -- ./inp_files/5214.got.cif
#   From: 2010.03.12/outbox.cif.g09.slc.cpg/sg57_3_cif.got.tgz:5214.got - 2010.04.16 15:48:40.
