data_PCOD8231349
_publ_section_title
;
Structure prediction by ZEFSAII (Michael W. Deem and Ramdas Pophale) SiO2 
 PCOD8231349
Probable space group: P B C M
;
_chemical_formula_sum "Si O2"
_cell_formula_units_Z 56
_cell_length_a 21.611051
_cell_length_b 15.235638
_cell_length_c 8.892842
_cell_angle_alpha 90.000000
_cell_angle_beta 90.000000
_cell_angle_gamma 90.000000
_cell_volume 2928.040704
_symmetry_space_group_name_H-M "P B C M"
_symmetry_group_IT_number 57
_symmetry_cell_setting 'orthorhombic'
loop_
_space_group_symop_operation_xyz
x,y,z
-x,-y,1/2+z
x,1/2-y,-z
-x,1/2+y,1/2-z
-x,-y,-z
x,y,1/2-z
-x,1/2+y,z
x,1/2-y,1/2+z
loop_
_atom_site_type_symbol
_atom_site_label
_atom_site_fract_x
_atom_site_fract_y
_atom_site_fract_z
Si Si1 0.286773 0.991804 0.927894
Si Si2 0.618875 0.345946 0.571148
Si Si3 0.920291 0.840654 0.927338
Si Si4 0.853747 0.498513 0.571958
Si Si5 0.938731 0.339832 0.573455
Si Si6 0.361145 0.343974 0.074919
Si Si7 0.501806 0.656123 0.925213
O O1 0.292368 0.996495 0.750000
O O2 0.325222 0.907762 0.985179
O O3 0.216245 0.980022 0.979768
O O4 0.314219 0.083411 0.992640
O O5 0.628857 0.250000 0.500000
O O6 0.616281 0.338051 0.750000
O O7 0.555023 0.391837 0.510945
O O8 0.913187 0.833858 0.750000
O O9 0.990985 0.861322 0.975100
O O10 0.898130 0.750000 0.000000
O O11 0.875968 0.914748 0.990042
O O12 0.859626 0.511798 0.750000
O O13 0.895368 0.417836 0.514658
O O14 0.915224 0.250000 0.500000
O O15 0.932873 0.328040 0.750000
O O16 0.349828 0.327987 0.250000
O O17 0.430166 0.384893 0.048663
O O18 0.349635 0.250000 0.000000
O O19 0.485312 0.663354 0.750000
O O20 0.505446 0.750000 0.000000
#
# Coordination Sequence:
#
# PCOD8231349 Si02
#       7
#     8   8   8   8   8   8   8
#     4   9  20  36  52  72 102 139 172 202 248 305
#     4  10  19  33  52  73 100 133 167 207 254 301
#     4  10  20  35  55  81 108 135 170 212 258 305
#     4  10  20  36  55  76 105 140 175 212 255 303
#     4   9  19  34  55  81 107 136 171 212 258 305
#     4   9  18  34  53  73  98 129 165 207 254 302
#     4   9  16  28  49  74  97 123 161 208 256 302
#
# _framework density 19.125416999999999
#
# number of rings (size 3 to 8) (size 9 to 14) (size 15 to 20)
#    0.000    2.571    0.000    2.571    0.000    3.429 
#    0.000    5.000    0.000    0.000    0.000    0.000 
#    0.000    0.000    0.000    0.000    0.000    0.000 
#
# Total GULP energy -694176.960637 kJ/mol
# GULP energy per Si atom -12396.017154 kJ/mol
# Density = 1.908189 g / cm^3
# Si number density = 19.125417 Si / 1000 Ang^3
#
#
#
# Elastic Constant Matrix: (Units=GPa)
#
#
# Indices 1 2 3 4 5 6 
#
# 1 83.9120 36.7289 24.8686 0.0000 0.0000 0.0000
# 2 36.7289 91.8289 26.0120 0.0000 0.0000 0.0000
# 3 24.8686 26.0120 54.0124 0.0000 0.0000 0.0000
# 4 0.0000 0.0000 0.0000 27.3625 0.0000 0.0000
# 5 0.0000 0.0000 0.0000 0.0000 18.9450 0.0000
# 6 0.0000 0.0000 0.0000 0.0000 0.0000 -6.5782
#
#
#
# Elastic Compliance Matrix: (Units=1/GPa)
#
#
# Indices 1 2 3 4 5 6 
#
# 1 0.015447 -0.004822 -0.004790 0.000000 0.000000 0.000000
# 2 -0.004822 0.014115 -0.004578 0.000000 0.000000 0.000000
# 3 -0.004790 -0.004578 0.022924 0.000000 0.000000 0.000000
# 4 0.000000 0.000000 0.000000 0.036546 0.000000 0.000000
# 5 0.000000 0.000000 0.000000 0.000000 0.052784 0.000000
# 6 0.000000 0.000000 0.000000 0.000000 0.000000 -0.152017
#
#
# Mechanical properties :
#
#
# Convention : Reuss Voigt Hill
#
# Bulk Modulus (GPa) = 41.48065 44.99693 43.23879
# Shear Modulus (GPa) = 190.72891 17.42213 104.07552
#
# Velocity S-wave (km/s) = 9.99709 3.02145 7.38482
# Velocity P-wave (km/s) = 12.44956 5.97918 9.76581
#
# Compressibility (1/GPa) = 0.02410763
#
# Stress axis : x y z
#
# Youngs Moduli (GPa) = 64.73600 70.84654 43.62157
#
# Poissons Ratio (x) = 0.34159 0.20896
# Poissons Ratio (y) = 0.31213 0.19969
# Poissons Ratio (z) = 0.31010 0.32432
#
# Static dielectric constant tensor:
#      x y z
#    x 4.001540 0.000000 0.000000 
#    y 0.000000 3.772220 0.000000 
#    z 0.000000 0.000000 3.438140 
# 
# 
# High freq. dielectric constant tensor:
#      x y z
#    x 1.748690 0.000000 0.000000 
#    y 0.000000 1.740170 0.000000 
#    z 0.000000 0.000000 1.729800 
# 
# From -- ./inp_files/8153.got.cif
#   From: 2010.03.12/outbox.cif.g09.slc.cpg/sg57_5_cif.got.tgz:8153.got - 2010.04.16 15:48:40.
