data_PCOD8231151
_publ_section_title
;
Structure prediction by ZEFSAII (Michael W. Deem and Ramdas Pophale) SiO2 
 PCOD8231151
Probable space group: P B C M
;
_chemical_formula_sum "Si O2"
_cell_formula_units_Z 48
_cell_length_a 9.128589
_cell_length_b 32.168600
_cell_length_c 9.069498
_cell_angle_alpha 90.000000
_cell_angle_beta 90.000000
_cell_angle_gamma 90.000000
_cell_volume 2663.293714
_symmetry_space_group_name_H-M "P B C M"
_symmetry_group_IT_number 57
_symmetry_cell_setting 'orthorhombic'
loop_
_space_group_symop_operation_xyz
x,y,z
-x,-y,1/2+z
x,1/2-y,-z
-x,1/2+y,1/2-z
-x,-y,-z
x,y,1/2-z
-x,1/2+y,z
x,1/2-y,1/2+z
loop_
_atom_site_type_symbol
_atom_site_label
_atom_site_fract_x
_atom_site_fract_y
_atom_site_fract_z
Si Si1 0.430715 0.039285 0.922100
Si Si2 0.890210 0.708814 0.922929
Si Si3 0.181738 0.418422 0.583982
Si Si4 0.360021 0.333620 0.584117
Si Si5 0.937852 0.125882 0.922011
Si Si6 0.603396 0.376861 0.420833
O O1 0.411033 0.030375 0.750000
O O2 0.537810 0.077853 0.952153
O O3 0.270417 0.047280 0.991159
O O4 0.500000 0.000000 0.000000
O O5 0.874556 0.716240 0.750000
O O6 0.001280 0.671546 0.959914
O O7 0.954653 0.750000 0.000000
O O8 0.729208 0.699865 0.988905
O O9 0.157732 0.434896 0.750000
O O10 0.272571 0.376326 0.583153
O O11 0.024984 0.409921 0.509196
O O12 0.380524 0.316723 0.750000
O O13 0.518365 0.341368 0.511649
O O14 0.955881 0.116084 0.750000
O O15 0.770635 0.123567 0.974132
O O16 0.589601 0.365005 0.250000
#
# Coordination Sequence:
#
# PCOD8231151 Si02
#       6
#     8   8   8   8   8   8
#     4  10  19  32  51  73  98 128 164 206 250 295
#     4  10  19  32  51  73  98 127 160 198 239 284
#     4   9  17  30  49  72  97 126 162 200 239 288
#     4   9  17  30  49  72  96 124 160 198 235 280
#     4   9  18  33  52  73  98 130 165 200 242 292
#     4   9  18  33  52  73  98 129 163 200 245 295
#
# _framework density 18.022796
#
# number of rings (size 3 to 8) (size 9 to 14) (size 15 to 20)
#    0.000    2.667    0.000    2.000    0.000    6.000 
#    0.000    1.667    0.000    2.000    0.000    0.000 
#    0.000    0.000    0.000    0.000    0.000    0.000 
#
# Total GULP energy -595248.902468 kJ/mol
# GULP energy per Si atom -12401.018801 kJ/mol
# Density = 1.798178 g / cm^3
# Si number density = 18.022796 Si / 1000 Ang^3
#
#
#
# Elastic Constant Matrix: (Units=GPa)
#
#
# Indices 1 2 3 4 5 6 
#
# 1 123.8768 19.3315 47.4946 0.0000 0.0000 0.0000
# 2 19.3315 43.6738 31.7964 0.0000 0.0000 0.0000
# 3 47.4946 31.7964 105.3862 0.0000 0.0000 0.0000
# 4 0.0000 0.0000 0.0000 31.0436 0.0000 0.0000
# 5 0.0000 0.0000 0.0000 0.0000 26.3505 0.0000
# 6 0.0000 0.0000 0.0000 0.0000 0.0000 15.5635
#
#
#
# Elastic Compliance Matrix: (Units=1/GPa)
#
#
# Indices 1 2 3 4 5 6 
#
# 1 0.009829 -0.001443 -0.003994 0.000000 0.000000 0.000000
# 2 -0.001443 0.029554 -0.008267 0.000000 0.000000 0.000000
# 3 -0.003994 -0.008267 0.013783 0.000000 0.000000 0.000000
# 4 0.000000 0.000000 0.000000 0.032213 0.000000 0.000000
# 5 0.000000 0.000000 0.000000 0.000000 0.037950 0.000000
# 6 0.000000 0.000000 0.000000 0.000000 0.000000 0.064253
#
#
# Mechanical properties :
#
#
# Convention : Reuss Voigt Hill
#
# Bulk Modulus (GPa) = 38.82143 52.24243 45.53193
# Shear Modulus (GPa) = 22.36376 26.21246 24.28811
#
# Velocity S-wave (km/s) = 3.52641 3.81780 3.67499
# Velocity P-wave (km/s) = 6.17800 6.96304 6.58223
#
# Compressibility (1/GPa) = 0.02575897
#
# Stress axis : x y z
#
# Youngs Moduli (GPa) = 101.73816 33.83626 72.55160
#
# Poissons Ratio (x) = 0.04881 0.28981
# Poissons Ratio (y) = 0.14676 0.59976
# Poissons Ratio (z) = 0.40639 0.27972
#
# Static dielectric constant tensor:
#      x y z
#    x 3.397650 0.000000 0.000000 
#    y 0.000000 3.127540 0.000000 
#    z 0.000000 0.000000 3.491500 
# 
# 
# High freq. dielectric constant tensor:
#      x y z
#    x 1.690910 0.000000 0.000000 
#    y 0.000000 1.674040 0.000000 
#    z 0.000000 0.000000 1.709320 
# 
# From -- ./inp_files/1982.got.cif
#   From: 2010.03.12/outbox.cif.g09.slc.cpg/sg57_1_cif.got.tgz:1982.got - 2010.04.16 15:48:40.
