data_PCOD8231449
_publ_section_title
;
Structure prediction by ZEFSAII (Michael W. Deem and Ramdas Pophale) SiO2 
 PCOD8231449
Probable space group: P B C M
;
_chemical_formula_sum "Si O2"
_cell_formula_units_Z 64
_cell_length_a 15.494841
_cell_length_b 23.680737
_cell_length_c 8.880166
_cell_angle_alpha 90.000000
_cell_angle_beta 90.000000
_cell_angle_gamma 90.000000
_cell_volume 3258.392691
_symmetry_space_group_name_H-M "P B C M"
_symmetry_group_IT_number 57
_symmetry_cell_setting 'orthorhombic'
loop_
_space_group_symop_operation_xyz
x,y,z
-x,-y,1/2+z
x,1/2-y,-z
-x,1/2+y,1/2-z
-x,-y,-z
x,y,1/2-z
-x,1/2+y,z
x,1/2-y,1/2+z
loop_
_atom_site_type_symbol
_atom_site_label
_atom_site_fract_x
_atom_site_fract_y
_atom_site_fract_z
Si Si1 0.039535 0.689220 0.927321
Si Si2 0.452107 0.377848 0.071554
Si Si3 0.122023 0.382150 0.072295
Si Si4 0.376067 0.485407 0.923063
Si Si5 0.821649 0.510787 0.080135
Si Si6 0.798158 0.115239 0.927978
Si Si7 0.378220 0.606616 0.071066
Si Si8 0.715462 0.689618 0.927935
O O1 0.031560 0.696340 0.750000
O O2 0.129474 0.660233 0.972300
O O3 0.961456 0.650923 0.989737
O O4 0.034169 0.750000 0.000000
O O5 0.463044 0.378865 0.250000
O O6 0.376147 0.335764 0.020393
O O7 0.432176 0.440539 0.013480
O O8 0.540865 0.356999 0.992596
O O9 0.120142 0.384983 0.250000
O O10 0.207737 0.350589 0.013470
O O11 0.119137 0.446538 0.014394
O O12 0.407505 0.489410 0.750000
O O13 0.276386 0.467629 0.930593
O O14 0.389247 0.544545 0.004186
O O15 0.856096 0.512025 0.250000
O O16 0.828652 0.446898 0.016577
O O17 0.778940 0.112691 0.750000
O O18 0.710994 0.134021 0.012911
O O19 0.379061 0.605847 0.250000
O O20 0.720091 0.695806 0.750000
O O21 0.728999 0.750000 0.000000
#
# Coordination Sequence:
#
# PCOD8231449 Si02
#       8
#     8   8   8   8   8   8   8   8
#     4  10  22  40  63  86 114 148 190 241 287 340
#     4  11  21  35  54  79 112 151 191 235 280 332
#     4  10  20  36  57  86 118 149 185 231 285 339
#     4  10  19  33  53  81 116 153 188 229 277 334
#     4   9  18  32  54  83 116 152 188 227 280 342
#     4   9  20  40  59  82 116 152 189 236 292 341
#     4  11  22  35  55  83 112 146 188 236 283 337
#     4  10  22  37  55  79 112 151 191 235 283 336
#
# _framework density 19.641586
#
# number of rings (size 3 to 8) (size 9 to 14) (size 15 to 20)
#    0.000    2.000    1.250    3.375    0.000    5.000 
#    0.000    0.625    0.000    0.000    0.000    0.000 
#    0.000    0.000    0.000    0.000    0.000    0.000 
#
# Total GULP energy -793685.951704 kJ/mol
# GULP energy per Si atom -12401.342995 kJ/mol
# Density = 1.959688 g / cm^3
# Si number density = 19.641586 Si / 1000 Ang^3
#
#
#
# Elastic Constant Matrix: (Units=GPa)
#
#
# Indices 1 2 3 4 5 6 
#
# 1 75.8258 18.9865 18.3365 0.0000 0.0000 0.0000
# 2 18.9865 27.5409 11.6711 0.0000 0.0000 0.0000
# 3 18.3365 11.6711 49.8427 0.0000 0.0000 0.0000
# 4 0.0000 0.0000 0.0000 28.4063 0.0000 0.0000
# 5 0.0000 0.0000 0.0000 0.0000 24.7909 0.0000
# 6 0.0000 0.0000 0.0000 0.0000 0.0000 24.1288
#
#
#
# Elastic Compliance Matrix: (Units=1/GPa)
#
#
# Indices 1 2 3 4 5 6 
#
# 1 0.016562 -0.009809 -0.003796 0.000000 0.000000 0.000000
# 2 -0.009809 0.046119 -0.007191 0.000000 0.000000 0.000000
# 3 -0.003796 -0.007191 0.023143 0.000000 0.000000 0.000000
# 4 0.000000 0.000000 0.000000 0.035203 0.000000 0.000000
# 5 0.000000 0.000000 0.000000 0.000000 0.040337 0.000000
# 6 0.000000 0.000000 0.000000 0.000000 0.000000 0.041444
#
#
# Mechanical properties :
#
#
# Convention : Reuss Voigt Hill
#
# Bulk Modulus (GPa) = 22.60750 27.91083 25.25917
# Shear Modulus (GPa) = 19.29413 22.41289 20.85351
#
# Velocity S-wave (km/s) = 3.13758 3.38167 3.26191
# Velocity P-wave (km/s) = 4.96597 5.43033 5.20334
#
# Compressibility (1/GPa) = 0.04423311
#
# Stress axis : x y z
#
# Youngs Moduli (GPa) = 60.37802 21.68293 43.20885
#
# Poissons Ratio (x) = 0.21269 0.16403
# Poissons Ratio (y) = 0.59226 0.31070
# Poissons Ratio (z) = 0.22920 0.15591
#
# Static dielectric constant tensor:
#      x y z
#    x 3.947520 0.000000 0.000000 
#    y 0.000000 3.392880 0.000000 
#    z 0.000000 0.000000 3.519310 
# 
# 
# High freq. dielectric constant tensor:
#      x y z
#    x 1.776290 0.000000 0.000000 
#    y 0.000000 1.747950 0.000000 
#    z 0.000000 0.000000 1.757900 
# 
# From -- ./inp_files/5764.got.cif
#   From: 2010.03.12/outbox.cif.g09.slc.cpg/sg57_3_cif.got.tgz:5764.got - 2010.04.16 15:48:40.
