data_PCOD8231251
_publ_section_title
;
Structure prediction by ZEFSAII (Michael W. Deem and Ramdas Pophale) SiO2 
 PCOD8231251
Probable space group: P B C M
;
_chemical_formula_sum "Si O2"
_cell_formula_units_Z 64
_cell_length_a 15.097946
_cell_length_b 24.088483
_cell_length_c 8.892484
_cell_angle_alpha 90.000000
_cell_angle_beta 90.000000
_cell_angle_gamma 90.000000
_cell_volume 3234.077410
_symmetry_space_group_name_H-M "P B C M"
_symmetry_group_IT_number 57
_symmetry_cell_setting 'orthorhombic'
loop_
_space_group_symop_operation_xyz
x,y,z
-x,-y,1/2+z
x,1/2-y,-z
-x,1/2+y,1/2-z
-x,-y,-z
x,y,1/2-z
-x,1/2+y,z
x,1/2-y,1/2+z
loop_
_atom_site_type_symbol
_atom_site_label
_atom_site_fract_x
_atom_site_fract_y
_atom_site_fract_z
Si Si1 0.118639 0.123396 0.573289
Si Si2 0.620138 0.402124 0.926458
Si Si3 0.037118 0.808967 0.926536
Si Si4 0.712755 0.692660 0.923975
Si Si5 0.630010 0.516411 0.423955
Si Si6 0.836334 0.985882 0.577016
Si Si7 0.179410 0.599226 0.075259
Si Si8 0.548293 0.622627 0.572840
O O1 0.101049 0.122269 0.750000
O O2 0.216243 0.145722 0.531349
O O3 0.107809 0.061172 0.509562
O O4 0.049893 0.164492 0.496567
O O5 0.605292 0.394649 0.750000
O O6 0.720138 0.386573 0.975162
O O7 0.599069 0.464972 0.975087
O O8 0.551067 0.362291 0.016215
O O9 0.022121 0.801506 0.750000
O O10 0.121264 0.847384 0.962800
O O11 0.057039 0.750000 0.000000
O O12 0.718202 0.704923 0.750000
O O13 0.614638 0.672462 0.970573
O O14 0.737475 0.750000 0.000000
O O15 0.607942 0.504211 0.250000
O O16 0.733576 0.527119 0.447813
O O17 0.576835 0.568945 0.480579
O O18 0.864599 0.984145 0.750000
O O19 0.859882 0.046603 0.513501
O O20 0.177476 0.583265 0.250000
O O21 0.551231 0.610560 0.750000
#
# Coordination Sequence:
#
# PCOD8231251 Si02
#       8
#     8   8   8   8   8   8   8   8
#     4  11  22  39  62  89 120 156 192 236 293 353
#     4  10  20  35  56  82 112 150 191 237 286 339
#     4  11  24  43  65  90 115 149 196 245 295 349
#     4  10  23  39  57  80 112 153 194 237 288 344
#     4  10  19  32  52  82 116 153 190 232 280 337
#     4  10  20  34  58  91 123 155 194 238 289 349
#     4   9  21  41  62  84 118 156 194 241 295 352
#     4  11  21  35  53  79 113 151 192 236 283 340
#
# _framework density 19.789261
#
# number of rings (size 3 to 8) (size 9 to 14) (size 15 to 20)
#    0.000    1.750    1.250    3.000    0.000    6.000 
#    0.000    0.625    0.000    3.000    0.000    0.000 
#    0.000    0.000    0.000    0.000    0.000    0.000 
#
# Total GULP energy -793789.624166 kJ/mol
# GULP energy per Si atom -12402.962878 kJ/mol
# Density = 1.974422 g / cm^3
# Si number density = 19.789261 Si / 1000 Ang^3
#
#
#
# Elastic Constant Matrix: (Units=GPa)
#
#
# Indices 1 2 3 4 5 6 
#
# 1 74.5763 59.1154 48.9329 0.0000 0.0000 0.0000
# 2 59.1154 114.8678 60.9941 0.0000 0.0000 0.0000
# 3 48.9329 60.9941 89.9028 0.0000 0.0000 0.0000
# 4 0.0000 0.0000 0.0000 33.4739 0.0000 0.0000
# 5 0.0000 0.0000 0.0000 0.0000 30.7710 0.0000
# 6 0.0000 0.0000 0.0000 0.0000 0.0000 29.8821
#
#
#
# Elastic Compliance Matrix: (Units=1/GPa)
#
#
# Indices 1 2 3 4 5 6 
#
# 1 0.025772 -0.009089 -0.007861 0.000000 0.000000 0.000000
# 2 -0.009089 0.016813 -0.006460 0.000000 0.000000 0.000000
# 3 -0.007861 -0.006460 0.019784 0.000000 0.000000 0.000000
# 4 0.000000 0.000000 0.000000 0.029874 0.000000 0.000000
# 5 0.000000 0.000000 0.000000 0.000000 0.032498 0.000000
# 6 0.000000 0.000000 0.000000 0.000000 0.000000 0.033465
#
#
# Mechanical properties :
#
#
# Convention : Reuss Voigt Hill
#
# Bulk Modulus (GPa) = 64.30893 68.60350 66.45621
# Shear Modulus (GPa) = 23.78584 26.17903 24.98244
#
# Velocity S-wave (km/s) = 3.47069 3.64110 3.55692
# Velocity P-wave (km/s) = 6.97340 7.24011 7.10800
#
# Compressibility (1/GPa) = 0.01554994
#
# Stress axis : x y z
#
# Youngs Moduli (GPa) = 38.80234 59.47623 50.54513
#
# Poissons Ratio (x) = 0.54059 0.39732
# Poissons Ratio (y) = 0.35268 0.32652
# Poissons Ratio (z) = 0.30501 0.38421
#
# Static dielectric constant tensor:
#      x y z
#    x 3.923940 0.000000 0.000000 
#    y 0.000000 3.450560 0.000000 
#    z 0.000000 0.000000 3.650300 
# 
# 
# High freq. dielectric constant tensor:
#      x y z
#    x 1.779860 0.000000 0.000000 
#    y 0.000000 1.754200 0.000000 
#    z 0.000000 0.000000 1.779720 
# 
# From -- ./inp_files/5606.got.cif
#   From: 2010.03.12/outbox.cif.g09.slc.cpg/sg57_3_cif.got.tgz:5606.got - 2010.04.16 15:48:40.
