data_PCOD8231036
_publ_section_title
;
Structure prediction by ZEFSAII (Michael W. Deem and Ramdas Pophale) SiO2 
 PCOD8231036
Probable space group: P B C M
;
_chemical_formula_sum "Si O2"
_cell_formula_units_Z 56
_cell_length_a 21.957229
_cell_length_b 14.476583
_cell_length_c 8.978188
_cell_angle_alpha 90.000000
_cell_angle_beta 90.000000
_cell_angle_gamma 90.000000
_cell_volume 2853.857547
_symmetry_space_group_name_H-M "P B C M"
_symmetry_group_IT_number 57
_symmetry_cell_setting 'orthorhombic'
loop_
_space_group_symop_operation_xyz
x,y,z
-x,-y,1/2+z
x,1/2-y,-z
-x,1/2+y,1/2-z
-x,-y,-z
x,y,1/2-z
-x,1/2+y,z
x,1/2-y,1/2+z
loop_
_atom_site_type_symbol
_atom_site_label
_atom_site_fract_x
_atom_site_fract_y
_atom_site_fract_z
Si Si1 0.363824 0.458296 0.425895
Si Si2 0.536018 0.655710 0.072924
Si Si3 0.036501 0.157229 0.925329
Si Si4 0.897793 0.159921 0.921875
Si Si5 0.133751 0.460546 0.922956
Si Si6 0.603656 0.159536 0.078354
Si Si7 0.253996 0.349713 0.573430
O O1 0.363268 0.437499 0.250000
O O2 0.427727 0.427629 0.496664
O O3 0.357057 0.568050 0.457528
O O4 0.310416 0.404595 0.507336
O O5 0.546753 0.656785 0.250000
O O6 0.465807 0.642230 0.027642
O O7 0.561410 0.750000 0.000000
O O8 0.043534 0.166075 0.750000
O O9 0.966936 0.141342 0.976360
O O10 0.062808 0.250000 0.000000
O O11 0.076323 0.072209 0.982030
O O12 0.898072 0.183835 0.750000
O O13 0.857362 0.069572 0.957570
O O14 0.869144 0.250000 0.000000
O O15 0.118267 0.445364 0.750000
O O16 0.194159 0.406879 0.970620
O O17 0.604906 0.183463 0.250000
O O18 0.632045 0.250000 0.000000
O O19 0.249074 0.250000 0.500000
O O20 0.261994 0.339522 0.750000
#
# Coordination Sequence:
#
# PCOD8231036 Si02
#       7
#     8   8   8   8   8   8   8
#     4  11  22  37  56  80 109 142 181 223 266 315
#     4  10  19  33  54  82 113 144 177 216 265 319
#     4  10  19  31  52  81 112 143 176 215 266 321
#     4   9  19  35  54  80 111 142 176 218 264 317
#     4  10  21  37  56  78 107 141 181 224 267 314
#     4   9  20  36  56  82 111 142 177 218 264 316
#     4  11  24  41  59  79 105 140 179 222 267 314
#
# _framework density 19.622564000000001
#
# number of rings (size 3 to 8) (size 9 to 14) (size 15 to 20)
#    0.000    2.000    0.000    3.429    0.000    5.143 
#    0.000    0.714    0.000    3.429    0.000    0.000 
#    0.000    0.000    0.000    0.000    0.000    0.000 
#
# Total GULP energy -694484.718102 kJ/mol
# GULP energy per Si atom -12401.512823 kJ/mol
# Density = 1.957790 g / cm^3
# Si number density = 19.622564 Si / 1000 Ang^3
#
#
#
# Elastic Constant Matrix: (Units=GPa)
#
#
# Indices 1 2 3 4 5 6 
#
# 1 63.4759 56.4863 34.9998 0.0000 0.0000 0.0000
# 2 56.4863 156.2760 58.5578 0.0000 0.0000 0.0000
# 3 34.9998 58.5578 76.0791 0.0000 0.0000 0.0000
# 4 0.0000 0.0000 0.0000 36.6003 0.0000 0.0000
# 5 0.0000 0.0000 0.0000 0.0000 18.5856 0.0000
# 6 0.0000 0.0000 0.0000 0.0000 0.0000 37.8967
#
#
#
# Elastic Compliance Matrix: (Units=1/GPa)
#
#
# Indices 1 2 3 4 5 6 
#
# 1 0.025301 -0.006723 -0.006465 0.000000 0.000000 0.000000
# 2 -0.006723 0.010779 -0.005204 0.000000 0.000000 0.000000
# 3 -0.006465 -0.005204 0.020124 0.000000 0.000000 0.000000
# 4 0.000000 0.000000 0.000000 0.027322 0.000000 0.000000
# 5 0.000000 0.000000 0.000000 0.000000 0.053805 0.000000
# 6 0.000000 0.000000 0.000000 0.000000 0.000000 0.026388
#
#
# Mechanical properties :
#
#
# Convention : Reuss Voigt Hill
#
# Bulk Modulus (GPa) = 51.49179 66.21319 58.85249
# Shear Modulus (GPa) = 24.15751 28.33566 26.24658
#
# Velocity S-wave (km/s) = 3.51252 3.80417 3.66125
# Velocity P-wave (km/s) = 6.53823 7.28781 6.92318
#
# Compressibility (1/GPa) = 0.01942057
#
# Stress axis : x y z
#
# Youngs Moduli (GPa) = 39.52374 92.77610 49.69247
#
# Poissons Ratio (x) = 0.62369 0.32128
# Poissons Ratio (y) = 0.26570 0.25858
# Poissons Ratio (z) = 0.25554 0.48277
#
# Static dielectric constant tensor:
#      x y z
#    x 3.394820 0.000000 0.000000 
#    y 0.000000 3.784820 0.000000 
#    z 0.000000 0.000000 3.579950 
# 
# 
# High freq. dielectric constant tensor:
#      x y z
#    x 1.739480 0.000000 0.000000 
#    y 0.000000 1.779620 0.000000 
#    z 0.000000 0.000000 1.769070 
# 
# From -- ./inp_files/8099.got.cif
#   From: 2010.03.12/outbox.cif.g09.slc.cpg/sg57_5_cif.got.tgz:8099.got - 2010.04.16 15:48:40.
