data_PCOD8231659
_publ_section_title
;
Structure prediction by ZEFSAII (Michael W. Deem and Ramdas Pophale) SiO2 
 PCOD8231659
Probable space group: P B C M
;
_chemical_formula_sum "Si O2"
_cell_formula_units_Z 56
_cell_length_a 19.041127
_cell_length_b 17.307337
_cell_length_c 8.765849
_cell_angle_alpha 90.000000
_cell_angle_beta 90.000000
_cell_angle_gamma 90.000000
_cell_volume 2888.796073
_symmetry_space_group_name_H-M "P B C M"
_symmetry_group_IT_number 57
_symmetry_cell_setting 'orthorhombic'
loop_
_space_group_symop_operation_xyz
x,y,z
-x,-y,1/2+z
x,1/2-y,-z
-x,1/2+y,1/2-z
-x,-y,-z
x,y,1/2-z
-x,1/2+y,z
x,1/2-y,1/2+z
loop_
_atom_site_type_symbol
_atom_site_label
_atom_site_fract_x
_atom_site_fract_y
_atom_site_fract_z
Si Si1 0.291398 0.436919 0.578661
Si Si2 0.034617 0.074061 0.077093
Si Si3 0.830989 0.665289 0.066664
Si Si4 0.774890 0.398354 0.077611
Si Si5 0.643162 0.331139 0.569401
Si Si6 0.425398 0.979468 0.433012
Si Si7 0.099627 0.668660 0.076373
O O1 0.306943 0.411097 0.750000
O O2 0.244352 0.368259 0.504485
O O3 0.243669 0.512389 0.572409
O O4 0.367519 0.457504 0.504578
O O5 0.047979 0.049139 0.250000
O O6 0.107510 0.107148 0.007012
O O7 0.981163 0.145332 0.063393
O O8 0.000000 0.000000 0.000000
O O9 0.833100 0.668960 0.250000
O O10 0.842564 0.750000 0.000000
O O11 0.769780 0.366527 0.250000
O O12 0.724059 0.346761 0.972759
O O13 0.853447 0.393600 0.013424
O O14 0.618411 0.250000 0.500000
O O15 0.632763 0.331738 0.750000
O O16 0.594028 0.395217 0.492658
O O17 0.425635 0.978244 0.250000
O O18 0.500000 0.000000 0.500000
O O19 0.124938 0.672302 0.250000
O O20 0.112422 0.750000 0.000000
#
# Coordination Sequence:
#
# PCOD8231659 Si02
#       7
#     8   8   8   8   8   8   8
#     4   8  17  34  57  79 104 138 179 220 267 325
#     4  10  22  37  55  77 104 137 181 230 280 332
#     4  10  20  37  57  80 108 143 184 232 282 333
#     4  10  19  34  55  78 105 142 181 222 270 326
#     4  11  21  35  55  82 114 147 182 226 275 333
#     4  10  20  37  59  85 114 149 188 229 279 336
#     4  11  22  34  48  73 105 138 174 217 265 319
#
# _framework density 19.385238999999999
#
# number of rings (size 3 to 8) (size 9 to 14) (size 15 to 20)
#    0.000    2.000    0.000    5.143    0.000    2.857 
#    0.000    5.000    0.000    1.714    0.000    0.000 
#    0.000    0.000    0.000    0.000    0.000    0.000 
#
# Total GULP energy -694112.800004 kJ/mol
# GULP energy per Si atom -12394.871429 kJ/mol
# Density = 1.934112 g / cm^3
# Si number density = 19.385239 Si / 1000 Ang^3
#
#
#
# Elastic Constant Matrix: (Units=GPa)
#
#
# Indices 1 2 3 4 5 6 
#
# 1 135.3970 57.9819 37.9921 0.0000 0.0000 0.0000
# 2 57.9819 97.8336 34.2029 0.0000 0.0000 0.0000
# 3 37.9921 34.2029 86.1945 0.0000 0.0000 0.0000
# 4 0.0000 0.0000 0.0000 30.0958 0.0000 0.0000
# 5 0.0000 0.0000 0.0000 0.0000 27.4469 0.0000
# 6 0.0000 0.0000 0.0000 0.0000 0.0000 24.3052
#
#
#
# Elastic Compliance Matrix: (Units=1/GPa)
#
#
# Indices 1 2 3 4 5 6 
#
# 1 0.010330 -0.005260 -0.002466 0.000000 0.000000 0.000000
# 2 -0.005260 0.014546 -0.003454 0.000000 0.000000 0.000000
# 3 -0.002466 -0.003454 0.014059 0.000000 0.000000 0.000000
# 4 0.000000 0.000000 0.000000 0.033227 0.000000 0.000000
# 5 0.000000 0.000000 0.000000 0.000000 0.036434 0.000000
# 6 0.000000 0.000000 0.000000 0.000000 0.000000 0.041144
#
#
# Mechanical properties :
#
#
# Convention : Reuss Voigt Hill
#
# Bulk Modulus (GPa) = 60.32795 64.41987 62.37391
# Shear Modulus (GPa) = 28.14917 28.98613 28.56765
#
# Velocity S-wave (km/s) = 3.81477 3.87106 3.84302
# Velocity P-wave (km/s) = 7.11276 7.29957 7.20677
#
# Compressibility (1/GPa) = 0.01657606
#
# Stress axis : x y z
#
# Youngs Moduli (GPa) = 96.80318 68.74592 71.12875
#
# Poissons Ratio (x) = 0.36162 0.17540
# Poissons Ratio (y) = 0.50920 0.24565
# Poissons Ratio (z) = 0.23871 0.23742
#
# Static dielectric constant tensor:
#      x y z
#    x 4.107880 0.000000 0.000000 
#    y 0.000000 3.472200 0.000000 
#    z 0.000000 0.000000 3.494620 
# 
# 
# High freq. dielectric constant tensor:
#      x y z
#    x 1.757660 0.000000 0.000000 
#    y 0.000000 1.751320 0.000000 
#    z 0.000000 0.000000 1.742900 
# 
# From -- ./inp_files/8076.got.cif
#   From: 2010.03.12/outbox.cif.g09.slc.cpg/sg57_5_cif.got.tgz:8076.got - 2010.04.16 15:48:40.
