data_PCOD8231579
_publ_section_title
;
Structure prediction by ZEFSAII (Michael W. Deem and Ramdas Pophale) SiO2 
 PCOD8231579
Probable space group: P B C M
;
_chemical_formula_sum "Si O2"
_cell_formula_units_Z 56
_cell_length_a 23.537797
_cell_length_b 13.659900
_cell_length_c 8.912367
_cell_angle_alpha 90.000000
_cell_angle_beta 90.000000
_cell_angle_gamma 90.000000
_cell_volume 2865.539471
_symmetry_space_group_name_H-M "P B C M"
_symmetry_group_IT_number 57
_symmetry_cell_setting 'orthorhombic'
loop_
_space_group_symop_operation_xyz
x,y,z
-x,-y,1/2+z
x,1/2-y,-z
-x,1/2+y,1/2-z
-x,-y,-z
x,y,1/2-z
-x,1/2+y,z
x,1/2-y,1/2+z
loop_
_atom_site_type_symbol
_atom_site_label
_atom_site_fract_x
_atom_site_fract_y
_atom_site_fract_z
Si Si1 0.467805 0.353456 0.424702
Si Si2 0.077900 0.550581 0.077102
Si Si3 0.195675 0.646925 0.074490
Si Si4 0.410444 0.855058 0.073950
Si Si5 0.298902 0.964701 0.072051
Si Si6 0.343793 0.144157 0.572295
Si Si7 0.976489 0.849747 0.074626
O O1 0.473138 0.250000 0.500000
O O2 0.465465 0.333287 0.250000
O O3 0.527965 0.407764 0.465841
O O4 0.406958 0.399878 0.471261
O O5 0.061255 0.567368 0.250000
O O6 0.143538 0.573242 0.046863
O O7 0.066299 0.437888 0.030515
O O8 0.039753 0.624306 0.980483
O O9 0.208238 0.661793 0.250000
O O10 0.180534 0.750000 0.000000
O O11 0.249941 0.602156 0.994203
O O12 0.405027 0.838743 0.250000
O O13 0.358862 0.920895 0.016932
O O14 0.404909 0.750000 0.000000
O O15 0.292472 0.971020 0.250000
O O16 0.296713 0.073024 0.000322
O O17 0.335251 0.250000 0.500000
O O18 0.334333 0.150834 0.750000
O O19 0.978852 0.831759 0.250000
O O20 0.954032 0.750000 0.000000
#
# Coordination Sequence:
#
# PCOD8231579 Si02
#       7
#     8   8   8   8   8   8   8
#     4   8  15  29  49  73 100 131 167 210 265 326
#     4   9  20  37  57  83 115 153 194 232 272 322
#     4  11  23  40  60  82 111 146 186 229 272 320
#     4   9  18  32  50  74 105 137 171 215 267 324
#     4  11  23  37  54  78 107 141 183 226 271 323
#     4  10  20  36  57  78 102 134 174 221 274 331
#     4  10  19  33  56  87 121 153 186 227 275 324
#
# _framework density 19.542567999999999
#
# number of rings (size 3 to 8) (size 9 to 14) (size 15 to 20)
#    0.000    2.286    0.000    2.571    0.000    6.286 
#    0.000    0.714    0.000    1.714    0.000    0.000 
#    0.000    0.000    0.000    0.000    0.000    0.000 
#
# Total GULP energy -694025.149453 kJ/mol
# GULP energy per Si atom -12393.306240 kJ/mol
# Density = 1.949809 g / cm^3
# Si number density = 19.542568 Si / 1000 Ang^3
#
#
#
# Elastic Constant Matrix: (Units=GPa)
#
#
# Indices 1 2 3 4 5 6 
#
# 1 75.3545 45.6693 39.1647 0.0000 0.0000 0.0000
# 2 45.6693 102.3984 43.2110 0.0000 0.0000 0.0000
# 3 39.1647 43.2110 73.3063 0.0000 0.0000 0.0000
# 4 0.0000 0.0000 0.0000 32.4593 0.0000 0.0000
# 5 0.0000 0.0000 0.0000 0.0000 27.3658 0.0000
# 6 0.0000 0.0000 0.0000 0.0000 0.0000 36.3888
#
#
#
# Elastic Compliance Matrix: (Units=1/GPa)
#
#
# Indices 1 2 3 4 5 6 
#
# 1 0.020920 -0.006142 -0.007557 0.000000 0.000000 0.000000
# 2 -0.006142 0.014802 -0.005444 0.000000 0.000000 0.000000
# 3 -0.007557 -0.005444 0.020888 0.000000 0.000000 0.000000
# 4 0.000000 0.000000 0.000000 0.030808 0.000000 0.000000
# 5 0.000000 0.000000 0.000000 0.000000 0.036542 0.000000
# 6 0.000000 0.000000 0.000000 0.000000 0.000000 0.027481
#
#
# Mechanical properties :
#
#
# Convention : Reuss Voigt Hill
#
# Bulk Modulus (GPa) = 54.56872 56.34991 55.45931
# Shear Modulus (GPa) = 25.53181 27.44373 26.48777
#
# Velocity S-wave (km/s) = 3.61844 3.75147 3.68555
# Velocity P-wave (km/s) = 6.74100 6.90375 6.82286
#
# Compressibility (1/GPa) = 0.01832552
#
# Stress axis : x y z
#
# Youngs Moduli (GPa) = 47.80060 67.55737 47.87502
#
# Poissons Ratio (x) = 0.41490 0.36178
# Poissons Ratio (y) = 0.29357 0.26064
# Poissons Ratio (z) = 0.36122 0.36779
#
# Static dielectric constant tensor:
#      x y z
#    x 3.670250 0.000000 0.000000 
#    y 0.000000 3.495690 0.000000 
#    z 0.000000 0.000000 3.432840 
# 
# 
# High freq. dielectric constant tensor:
#      x y z
#    x 1.753910 0.000000 0.000000 
#    y 0.000000 1.757450 0.000000 
#    z 0.000000 0.000000 1.768070 
# 
# From -- ./inp_files/8039.got.cif
#   From: 2010.03.12/outbox.cif.g09.slc.cpg/sg57_5_cif.got.tgz:8039.got - 2010.04.16 15:48:40.
