data_PCOD8231975
_publ_section_title
;
Structure prediction by ZEFSAII (Michael W. Deem and Ramdas Pophale) SiO2 
 PCOD8231975
Probable space group: P B C M
;
_chemical_formula_sum "Si O2"
_cell_formula_units_Z 48
_cell_length_a 14.745318
_cell_length_b 10.245339
_cell_length_c 17.512929
_cell_angle_alpha 90.000000
_cell_angle_beta 90.000000
_cell_angle_gamma 90.000000
_cell_volume 2645.691872
_symmetry_space_group_name_H-M "P B C M"
_symmetry_group_IT_number 57
_symmetry_cell_setting 'orthorhombic'
loop_
_space_group_symop_operation_xyz
x,y,z
-x,-y,1/2+z
x,1/2-y,-z
-x,1/2+y,1/2-z
-x,-y,-z
x,y,1/2-z
-x,1/2+y,z
x,1/2-y,1/2+z
loop_
_atom_site_type_symbol
_atom_site_label
_atom_site_fract_x
_atom_site_fract_y
_atom_site_fract_z
Si Si1 0.238373 0.270120 0.337062
Si Si2 0.549070 0.495140 0.340311
Si Si3 0.889980 0.381498 0.455124
Si Si4 0.244074 0.970631 0.164510
Si Si5 0.096290 0.127128 0.945438
Si Si6 0.569411 0.769291 0.409939
O O1 0.258108 0.312620 0.250000
O O2 0.155174 0.355207 0.369126
O O3 0.326860 0.296105 0.387573
O O4 0.209870 0.119190 0.340786
O O5 0.531704 0.485746 0.250000
O O6 0.652118 0.460440 0.362440
O O7 0.528807 0.643266 0.366624
O O8 0.485935 0.396633 0.385815
O O9 0.874882 0.250000 0.500000
O O10 0.819149 0.379482 0.386307
O O11 0.867635 0.500214 0.511308
O O12 0.991634 0.391418 0.421543
O O13 0.235021 0.917154 0.250000
O O14 0.110137 0.250000 0.000000
O O15 0.561837 0.750000 0.500000
#
# Coordination Sequence:
#
# PCOD8231975 Si02
#       6
#     8   8   8   8   8   8
#     4  10  20  36  60  84 108 149 194 232 278 337
#     4  10  21  39  59  82 115 152 189 231 288 343
#     4  10  21  35  56  85 113 146 182 233 286 330
#     4   9  19  36  58  79 109 153 189 223 281 345
#     4  10  19  36  59  81 109 145 188 230 278 333
#     4  11  22  37  60  88 113 147 193 241 280 339
#
# _framework density 18.142702
#
# number of rings (size 3 to 8) (size 9 to 14) (size 15 to 20)
#    0.000    2.000    1.667    3.500    2.333    1.333 
#    3.000    0.833    0.000    0.000    0.000    0.000 
#    0.000    0.000    0.000    0.000    0.000    0.000 
#
# Total GULP energy -595351.663474 kJ/mol
# GULP energy per Si atom -12403.159656 kJ/mol
# Density = 1.810141 g / cm^3
# Si number density = 18.142702 Si / 1000 Ang^3
#
#
#
# Elastic Constant Matrix: (Units=GPa)
#
#
# Indices 1 2 3 4 5 6 
#
# 1 69.5157 29.2487 38.5398 0.0000 0.0000 0.0000
# 2 29.2487 73.9377 23.5073 0.0000 0.0000 0.0000
# 3 38.5398 23.5073 91.4126 0.0000 0.0000 0.0000
# 4 0.0000 0.0000 0.0000 28.2108 0.0000 0.0000
# 5 0.0000 0.0000 0.0000 0.0000 25.0655 0.0000
# 6 0.0000 0.0000 0.0000 0.0000 0.0000 35.3264
#
#
#
# Elastic Compliance Matrix: (Units=1/GPa)
#
#
# Indices 1 2 3 4 5 6 
#
# 1 0.020938 -0.005964 -0.007294 0.000000 0.000000 0.000000
# 2 -0.005964 0.016428 -0.001710 0.000000 0.000000 0.000000
# 3 -0.007294 -0.001710 0.014454 0.000000 0.000000 0.000000
# 4 0.000000 0.000000 0.000000 0.035447 0.000000 0.000000
# 5 0.000000 0.000000 0.000000 0.000000 0.039895 0.000000
# 6 0.000000 0.000000 0.000000 0.000000 0.000000 0.028307
#
#
# Mechanical properties :
#
#
# Convention : Reuss Voigt Hill
#
# Bulk Modulus (GPa) = 45.69446 46.38416 46.03931
# Shear Modulus (GPa) = 25.94682 27.29188 26.61935
#
# Velocity S-wave (km/s) = 3.78584 3.88273 3.83459
# Velocity P-wave (km/s) = 6.65965 6.76184 6.71094
#
# Compressibility (1/GPa) = 0.02188449
#
# Stress axis : x y z
#
# Youngs Moduli (GPa) = 47.75918 60.87226 69.18327
#
# Poissons Ratio (x) = 0.36304 0.50462
# Poissons Ratio (y) = 0.28483 0.11831
# Poissons Ratio (z) = 0.34836 0.10410
#
# Static dielectric constant tensor:
#      x y z
#    x 3.342450 0.000000 0.000000 
#    y 0.000000 3.229070 0.000000 
#    z 0.000000 0.000000 3.323340 
# 
# 
# High freq. dielectric constant tensor:
#      x y z
#    x 1.704390 0.000000 0.000000 
#    y 0.000000 1.697010 0.000000 
#    z 0.000000 0.000000 1.704830 
# 
# From -- ./inp_files/18414.got.cif
#   From: 2010.03.12/outbox.cif.g09.slc.cpg/sg57_10_cif.got.tgz:18414.got - 2010.04.16 15:48:40.
