data_PCOD8231715
_publ_section_title
;
Structure prediction by ZEFSAII (Michael W. Deem and Ramdas Pophale) SiO2 
 PCOD8231715
Probable space group: P B C M
;
_chemical_formula_sum "Si O2"
_cell_formula_units_Z 56
_cell_length_a 21.385178
_cell_length_b 14.286642
_cell_length_c 8.826088
_cell_angle_alpha 90.000000
_cell_angle_beta 90.000000
_cell_angle_gamma 90.000000
_cell_volume 2696.567431
_symmetry_space_group_name_H-M "P B C M"
_symmetry_group_IT_number 57
_symmetry_cell_setting 'orthorhombic'
loop_
_space_group_symop_operation_xyz
x,y,z
-x,-y,1/2+z
x,1/2-y,-z
-x,1/2+y,1/2-z
-x,-y,-z
x,y,1/2-z
-x,1/2+y,z
x,1/2-y,1/2+z
loop_
_atom_site_type_symbol
_atom_site_label
_atom_site_fract_x
_atom_site_fract_y
_atom_site_fract_z
Si Si1 0.589668 0.529817 0.928008
Si Si2 0.835901 0.849818 0.929687
Si Si3 0.066813 0.478491 0.430486
Si Si4 0.873626 0.336570 0.914058
Si Si5 0.531230 0.146811 0.570651
Si Si6 0.272259 0.839812 0.918810
Si Si7 0.714793 0.965812 0.572326
O O1 0.591545 0.514054 0.750000
O O2 0.536097 0.603498 0.974147
O O3 0.581707 0.426850 0.004363
O O4 0.654191 0.576180 0.986911
O O5 0.841744 0.843802 0.750000
O O6 0.777653 0.914188 0.981560
O O7 0.821795 0.750000 0.000000
O O8 0.901294 0.887022 0.997791
O O9 0.063204 0.466031 0.250000
O O10 0.110696 0.563836 0.488095
O O11 0.000000 0.500000 0.500000
O O12 0.905749 0.336545 0.750000
O O13 0.800557 0.319853 0.900535
O O14 0.905570 0.250000 0.000000
O O15 0.538913 0.250000 0.500000
O O16 0.540190 0.154272 0.750000
O O17 0.301190 0.855956 0.750000
O O18 0.304252 0.750000 0.000000
O O19 0.281680 0.926229 0.028441
O O20 0.704923 0.954582 0.750000
#
# Coordination Sequence:
#
# PCOD8231715 Si02
#       7
#     8   8   8   8   8   8   8
#     4  10  22  39  61  90 123 162 206 253 304 360
#     4  11  25  44  66  91 122 163 208 256 310 366
#     4  11  23  41  63  90 122 159 203 252 306 363
#     4   9  19  34  56  83 112 146 185 232 288 349
#     4  10  21  39  63  90 123 162 205 254 306 360
#     4  10  19  34  56  84 116 151 191 237 294 358
#     4  11  23  39  61  90 124 161 204 253 305 364
#
# _framework density 20.767142
#
# number of rings (size 3 to 8) (size 9 to 14) (size 15 to 20)
#    0.000    1.714    1.429    2.571    0.000    6.857 
#    0.000    7.143    0.000    0.000    0.000    0.000 
#    0.000    0.000    0.000    0.000    0.000    0.000 
#
# Total GULP energy -694298.592069 kJ/mol
# GULP energy per Si atom -12398.189144 kJ/mol
# Density = 2.071988 g / cm^3
# Si number density = 20.767142 Si / 1000 Ang^3
#
#
#
# Elastic Constant Matrix: (Units=GPa)
#
#
# Indices 1 2 3 4 5 6 
#
# 1 94.0000 25.9323 38.0503 0.0000 0.0000 0.0000
# 2 25.9323 95.5791 32.5032 0.0000 0.0000 0.0000
# 3 38.0503 32.5032 90.5746 0.0000 0.0000 0.0000
# 4 0.0000 0.0000 0.0000 37.2440 0.0000 0.0000
# 5 0.0000 0.0000 0.0000 0.0000 32.8291 0.0000
# 6 0.0000 0.0000 0.0000 0.0000 0.0000 14.0748
#
#
#
# Elastic Compliance Matrix: (Units=1/GPa)
#
#
# Indices 1 2 3 4 5 6 
#
# 1 0.013120 -0.001920 -0.004823 0.000000 0.000000 0.000000
# 2 -0.001920 0.012198 -0.003571 0.000000 0.000000 0.000000
# 3 -0.004823 -0.003571 0.014348 0.000000 0.000000 0.000000
# 4 0.000000 0.000000 0.000000 0.026850 0.000000 0.000000
# 5 0.000000 0.000000 0.000000 0.000000 0.030461 0.000000
# 6 0.000000 0.000000 0.000000 0.000000 0.000000 0.071049
#
#
# Mechanical properties :
#
#
# Convention : Reuss Voigt Hill
#
# Bulk Modulus (GPa) = 52.52282 52.56947 52.54615
# Shear Modulus (GPa) = 25.64124 29.07412 27.35768
#
# Velocity S-wave (km/s) = 3.51764 3.74572 3.63347
# Velocity P-wave (km/s) = 6.46874 6.63898 6.55441
#
# Compressibility (1/GPa) = 0.01903934
#
# Stress axis : x y z
#
# Youngs Moduli (GPa) = 76.21878 81.98295 69.69567
#
# Poissons Ratio (x) = 0.15738 0.33613
# Poissons Ratio (y) = 0.14631 0.24887
# Poissons Ratio (z) = 0.36759 0.29274
#
# Static dielectric constant tensor:
#      x y z
#    x 3.820240 0.000000 0.000000 
#    y 0.000000 3.822950 0.000000 
#    z 0.000000 0.000000 3.977880 
# 
# 
# High freq. dielectric constant tensor:
#      x y z
#    x 1.811150 0.000000 0.000000 
#    y 0.000000 1.812420 0.000000 
#    z 0.000000 0.000000 1.822430 
# 
# From -- ./inp_files/8191.got.cif
#   From: 2010.03.12/outbox.cif.g09.slc.cpg/sg57_5_cif.got.tgz:8191.got - 2010.04.16 15:48:40.
