data_PCOD8231175
_publ_section_title
;
Structure prediction by ZEFSAII (Michael W. Deem and Ramdas Pophale) SiO2 
 PCOD8231175
Probable space group: P B C M
;
_chemical_formula_sum "Si O2"
_cell_formula_units_Z 56
_cell_length_a 16.601608
_cell_length_b 21.226435
_cell_length_c 8.952497
_cell_angle_alpha 90.000000
_cell_angle_beta 90.000000
_cell_angle_gamma 90.000000
_cell_volume 3154.796856
_symmetry_space_group_name_H-M "P B C M"
_symmetry_group_IT_number 57
_symmetry_cell_setting 'orthorhombic'
loop_
_space_group_symop_operation_xyz
x,y,z
-x,-y,1/2+z
x,1/2-y,-z
-x,1/2+y,1/2-z
-x,-y,-z
x,y,1/2-z
-x,1/2+y,z
x,1/2-y,1/2+z
loop_
_atom_site_type_symbol
_atom_site_label
_atom_site_fract_x
_atom_site_fract_y
_atom_site_fract_z
Si Si1 0.547061 0.184785 0.076773
Si Si2 0.702879 0.505409 0.420270
Si Si3 0.141934 0.684132 0.925297
Si Si4 0.287646 0.621050 0.422668
Si Si5 0.883343 0.517845 0.421240
Si Si6 0.538179 0.939570 0.577320
Si Si7 0.032868 0.595285 0.421976
O O1 0.527784 0.192804 0.250000
O O2 0.641226 0.170856 0.048654
O O3 0.494808 0.126410 0.010025
O O4 0.522170 0.250000 0.000000
O O5 0.699650 0.480148 0.250000
O O6 0.682429 0.448214 0.531455
O O7 0.790611 0.535535 0.454439
O O8 0.635067 0.558839 0.444661
O O9 0.140106 0.692807 0.750000
O O10 0.160963 0.750000 0.000000
O O11 0.212103 0.636354 0.972657
O O12 0.056428 0.656584 0.981541
O O13 0.261237 0.621527 0.250000
O O14 0.895403 0.494743 0.250000
O O15 0.910623 0.462829 0.531344
O O16 0.938931 0.579197 0.450716
O O17 0.512690 0.942958 0.750000
O O18 0.500000 0.000000 0.500000
O O19 0.049957 0.610544 0.250000
#
# Coordination Sequence:
#
# PCOD8231175 Si02
#       7
#     8   8   8   8   8   8   8
#     4  10  22  37  53  76 107 142 183 223 266 322
#     4  10  19  32  54  80 108 141 175 218 269 319
#     4  12  24  37  52  74 106 142 181 216 261 318
#     4  11  21  34  52  78 110 141 176 216 265 322
#     4   9  18  32  51  77 104 134 171 212 261 313
#     4  10  20  35  54  79 108 141 181 226 273 321
#     4  10  19  32  51  75 104 136 172 214 260 307
#
# _framework density 17.750745999999999
#
# number of rings (size 3 to 8) (size 9 to 14) (size 15 to 20)
#    0.000    1.714    2.857    2.571    0.000    3.429 
#    0.000    0.000    0.000    0.857    0.000    2.000 
#    0.000    0.000    0.000    0.000    0.000    0.000 
#
# Total GULP energy -694416.551425 kJ/mol
# GULP energy per Si atom -12400.295561 kJ/mol
# Density = 1.771034 g / cm^3
# Si number density = 17.750746 Si / 1000 Ang^3
#
#
#
# Elastic Constant Matrix: (Units=GPa)
#
#
# Indices 1 2 3 4 5 6 
#
# 1 101.6956 44.2980 35.5909 0.0000 0.0000 0.0000
# 2 44.2980 98.5327 39.6041 0.0000 0.0000 0.0000
# 3 35.5909 39.6041 88.7324 0.0000 0.0000 0.0000
# 4 0.0000 0.0000 0.0000 30.7074 0.0000 0.0000
# 5 0.0000 0.0000 0.0000 0.0000 19.4088 0.0000
# 6 0.0000 0.0000 0.0000 0.0000 0.0000 25.5986
#
#
#
# Elastic Compliance Matrix: (Units=1/GPa)
#
#
# Indices 1 2 3 4 5 6 
#
# 1 0.012914 -0.004538 -0.003154 0.000000 0.000000 0.000000
# 2 -0.004538 0.013962 -0.004412 0.000000 0.000000 0.000000
# 3 -0.003154 -0.004412 0.014504 0.000000 0.000000 0.000000
# 4 0.000000 0.000000 0.000000 0.032565 0.000000 0.000000
# 5 0.000000 0.000000 0.000000 0.000000 0.051523 0.000000
# 6 0.000000 0.000000 0.000000 0.000000 0.000000 0.039065
#
#
# Mechanical properties :
#
#
# Convention : Reuss Voigt Hill
#
# Bulk Modulus (GPa) = 58.23295 58.66076 58.44686
# Shear Modulus (GPa) = 25.71148 26.44078 26.07613
#
# Velocity S-wave (km/s) = 3.81001 3.86367 3.83693
# Velocity P-wave (km/s) = 7.22717 7.28166 7.25447
#
# Compressibility (1/GPa) = 0.01717241
#
# Stress axis : x y z
#
# Youngs Moduli (GPa) = 77.43576 71.62163 68.94588
#
# Poissons Ratio (x) = 0.32501 0.21748
# Poissons Ratio (y) = 0.35140 0.30416
# Poissons Ratio (z) = 0.24426 0.31597
#
# Static dielectric constant tensor:
#      x y z
#    x 3.519490 0.000000 0.000000 
#    y 0.000000 3.223490 0.000000 
#    z 0.000000 0.000000 3.342840 
# 
# 
# High freq. dielectric constant tensor:
#      x y z
#    x 1.687870 0.000000 0.000000 
#    y 0.000000 1.661730 0.000000 
#    z 0.000000 0.000000 1.690290 
# 
# From -- ./inp_files/7078.got.cif
#   From: 2010.03.12/outbox.cif.g09.slc.cpg/sg57_4_cif.got.tgz:7078.got - 2010.04.16 15:48:40.
