data_PCOD8231626
_publ_section_title
;
Structure prediction by ZEFSAII (Michael W. Deem and Ramdas Pophale) SiO2 
 PCOD8231626
Probable space group: P B C M
;
_chemical_formula_sum "Si O2"
_cell_formula_units_Z 40
_cell_length_a 9.634436
_cell_length_b 25.661963
_cell_length_c 8.505644
_cell_angle_alpha 90.000000
_cell_angle_beta 90.000000
_cell_angle_gamma 90.000000
_cell_volume 2102.923006
_symmetry_space_group_name_H-M "P B C M"
_symmetry_group_IT_number 57
_symmetry_cell_setting 'orthorhombic'
loop_
_space_group_symop_operation_xyz
x,y,z
-x,-y,1/2+z
x,1/2-y,-z
-x,1/2+y,1/2-z
-x,-y,-z
x,y,1/2-z
-x,1/2+y,z
x,1/2-y,1/2+z
loop_
_atom_site_type_symbol
_atom_site_label
_atom_site_fract_x
_atom_site_fract_y
_atom_site_fract_z
Si Si1 0.026098 0.878335 0.066099
Si Si2 0.459184 0.605346 0.433618
Si Si3 0.744911 0.307046 0.936724
Si Si4 0.786912 0.033749 0.066716
Si Si5 0.760400 0.920716 0.935701
O O1 0.003460 0.871916 0.250000
O O2 0.109658 0.828673 0.001571
O O3 0.103536 0.932405 0.030395
O O4 0.876207 0.878336 0.981170
O O5 0.476106 0.613471 0.250000
O O6 0.379850 0.656191 0.501093
O O7 0.368501 0.553921 0.471725
O O8 0.612614 0.598717 0.506182
O O9 0.752139 0.307484 0.750000
O O10 0.715449 0.250000 0.000000
O O11 0.821722 0.041230 0.250000
O O12 0.801777 0.974393 0.018341
O O13 0.752760 0.929535 0.750000
#
# Coordination Sequence:
#
# PCOD8231626 Si02
#       5
#     8   8   8   8   8
#     4  11  22  36  53  78 107 142 182 220 260 311
#     4   8  18  34  54  78 107 139 176 216 261 312
#     4  10  20  39  62  83 103 132 172 218 266 318
#     4  10  19  34  53  77 108 145 182 219 259 312
#     4  11  20  33  52  78 111 146 177 217 264 311
#
# _framework density 19.021142999999999
#
# number of rings (size 3 to 8) (size 9 to 14) (size 15 to 20)
#    0.000    2.000    0.000    6.000    0.000    0.000 
#    0.000   12.000    0.000    2.400    0.000    0.000 
#    0.000    0.000    0.000    0.000    0.000    0.000 
#
# Total GULP energy -496036.163311 kJ/mol
# GULP energy per Si atom -12400.904083 kJ/mol
# Density = 1.897785 g / cm^3
# Si number density = 19.021143 Si / 1000 Ang^3
#
#
#
# Elastic Constant Matrix: (Units=GPa)
#
#
# Indices 1 2 3 4 5 6 
#
# 1 98.1276 7.3496 14.4532 0.0000 0.0000 0.0000
# 2 7.3496 74.4657 10.7900 0.0000 0.0000 0.0000
# 3 14.4532 10.7900 55.8991 0.0000 0.0000 0.0000
# 4 0.0000 0.0000 0.0000 29.4049 0.0000 0.0000
# 5 0.0000 0.0000 0.0000 0.0000 21.9039 0.0000
# 6 0.0000 0.0000 0.0000 0.0000 0.0000 13.8775
#
#
#
# Elastic Compliance Matrix: (Units=1/GPa)
#
#
# Indices 1 2 3 4 5 6 
#
# 1 0.010627 -0.000669 -0.002618 0.000000 0.000000 0.000000
# 2 -0.000669 0.013858 -0.002502 0.000000 0.000000 0.000000
# 3 -0.002618 -0.002502 0.019049 0.000000 0.000000 0.000000
# 4 0.000000 0.000000 0.000000 0.034008 0.000000 0.000000
# 5 0.000000 0.000000 0.000000 0.000000 0.045654 0.000000
# 6 0.000000 0.000000 0.000000 0.000000 0.000000 0.072059
#
#
# Mechanical properties :
#
#
# Convention : Reuss Voigt Hill
#
# Bulk Modulus (GPa) = 31.29471 32.63088 31.96279
# Shear Modulus (GPa) = 22.99010 26.09724 24.54367
#
# Velocity S-wave (km/s) = 3.48035 3.70809 3.59602
# Velocity P-wave (km/s) = 5.71303 5.96033 5.83799
#
# Compressibility (1/GPa) = 0.03195429
#
# Stress axis : x y z
#
# Youngs Moduli (GPa) = 94.10336 72.16266 52.49536
#
# Poissons Ratio (x) = 0.04831 0.13745
# Poissons Ratio (y) = 0.06299 0.13133
# Poissons Ratio (z) = 0.24640 0.18054
#
# Static dielectric constant tensor:
#      x y z
#    x 3.871780 0.000000 0.000000 
#    y 0.000000 3.243390 0.000000 
#    z 0.000000 0.000000 3.347890 
# 
# 
# High freq. dielectric constant tensor:
#      x y z
#    x 1.749410 0.000000 0.000000 
#    y 0.000000 1.720170 0.000000 
#    z 0.000000 0.000000 1.734550 
# 
# From -- ./inp_files/1541.got.cif
#   From: 2010.03.12/outbox.cif.g09.slc.cpg/sg57_1_cif.got.tgz:1541.got - 2010.04.16 15:48:40.
