data_PCOD8231885
_publ_section_title
;
Structure prediction by ZEFSAII (Michael W. Deem and Ramdas Pophale) SiO2 
 PCOD8231885
Probable space group: P B C M
;
_chemical_formula_sum "Si O2"
_cell_formula_units_Z 64
_cell_length_a 23.658503
_cell_length_b 14.815019
_cell_length_c 9.024138
_cell_angle_alpha 90.000000
_cell_angle_beta 90.000000
_cell_angle_gamma 90.000000
_cell_volume 3162.970940
_symmetry_space_group_name_H-M "P B C M"
_symmetry_group_IT_number 57
_symmetry_cell_setting 'orthorhombic'
loop_
_space_group_symop_operation_xyz
x,y,z
-x,-y,1/2+z
x,1/2-y,-z
-x,1/2+y,1/2-z
-x,-y,-z
x,y,1/2-z
-x,1/2+y,z
x,1/2-y,1/2+z
loop_
_atom_site_type_symbol
_atom_site_label
_atom_site_fract_x
_atom_site_fract_y
_atom_site_fract_z
Si Si1 0.870216 0.989640 0.419645
Si Si2 0.256318 0.475397 0.421020
Si Si3 0.440302 0.486321 0.575447
Si Si4 0.042415 0.341765 0.423751
Si Si5 0.738250 0.164471 0.584797
Si Si6 0.086299 0.657723 0.576151
Si Si7 0.392447 0.669091 0.910016
Si Si8 0.653239 0.652093 0.426786
O O1 0.883697 0.015978 0.250000
O O2 0.808777 0.943068 0.432387
O O3 0.916870 0.920612 0.482370
O O4 0.872251 0.079879 0.518052
O O5 0.276650 0.477544 0.250000
O O6 0.257405 0.575421 0.486945
O O7 0.294364 0.406505 0.513944
O O8 0.500000 0.500000 0.500000
O O9 0.449247 0.485128 0.750000
O O10 0.402545 0.570752 0.519283
O O11 0.405928 0.396453 0.528239
O O12 0.062106 0.250000 0.500000
O O13 0.049417 0.327827 0.250000
O O14 0.978222 0.366486 0.467771
O O15 0.767050 0.250000 0.500000
O O16 0.765474 0.152285 0.750000
O O17 0.673147 0.188379 0.606752
O O18 0.105349 0.750000 0.500000
O O19 0.093669 0.668716 0.750000
O O20 0.422243 0.670796 0.750000
O O21 0.421989 0.750000 0.000000
O O22 0.653996 0.750000 0.500000
O O23 0.659464 0.660012 0.250000
#
# Coordination Sequence:
#
# PCOD8231885 Si02
#       8
#     8   8   8   8   8   8   8   8
#     4  10  22  38  56  83 119 152 193 247 296 349
#     4  11  23  39  60  87 118 158 202 246 299 354
#     4  10  22  40  61  88 122 155 192 240 292 345
#     4   9  19  36  57  82 113 149 191 243 297 353
#     4  10  19  35  58  84 114 148 188 236 288 348
#     4  10  20  35  58  85 114 153 196 238 295 358
#     4   9  18  34  55  82 113 144 180 224 277 335
#     4  11  24  45  67  89 121 161 204 250 296 350
#
# _framework density 20.234141000000001
#
# number of rings (size 3 to 8) (size 9 to 14) (size 15 to 20)
#    0.000    2.000    1.250    1.875    0.000    5.500 
#    0.000    3.750    0.000    0.000    0.000    0.000 
#    0.000    0.000    0.000    0.000    0.000    0.000 
#
# Total GULP energy -793456.701051 kJ/mol
# GULP energy per Si atom -12397.760954 kJ/mol
# Density = 2.018809 g / cm^3
# Si number density = 20.234141 Si / 1000 Ang^3
#
#
#
# Elastic Constant Matrix: (Units=GPa)
#
#
# Indices 1 2 3 4 5 6 
#
# 1 87.9729 45.7144 35.4708 0.0000 0.0000 0.0000
# 2 45.7144 143.5955 54.3418 0.0000 0.0000 0.0000
# 3 35.4708 54.3418 90.0549 0.0000 0.0000 0.0000
# 4 0.0000 0.0000 0.0000 41.0327 0.0000 0.0000
# 5 0.0000 0.0000 0.0000 0.0000 25.5302 0.0000
# 6 0.0000 0.0000 0.0000 0.0000 0.0000 10.7365
#
#
#
# Elastic Compliance Matrix: (Units=1/GPa)
#
#
# Indices 1 2 3 4 5 6 
#
# 1 0.014563 -0.003195 -0.003808 0.000000 0.000000 0.000000
# 2 -0.003195 0.009726 -0.004610 0.000000 0.000000 0.000000
# 3 -0.003808 -0.004610 0.015386 0.000000 0.000000 0.000000
# 4 0.000000 0.000000 0.000000 0.024371 0.000000 0.000000
# 5 0.000000 0.000000 0.000000 0.000000 0.039169 0.000000
# 6 0.000000 0.000000 0.000000 0.000000 0.000000 0.093140
#
#
# Mechanical properties :
#
#
# Convention : Reuss Voigt Hill
#
# Bulk Modulus (GPa) = 60.79750 65.85302 63.32526
# Shear Modulus (GPa) = 22.21582 27.86631 25.04106
#
# Velocity S-wave (km/s) = 3.31711 3.71508 3.52172
# Velocity P-wave (km/s) = 6.69202 7.14273 6.92105
#
# Compressibility (1/GPa) = 0.01644804
#
# Stress axis : x y z
#
# Youngs Moduli (GPa) = 68.66801 102.81786 64.99284
#
# Poissons Ratio (x) = 0.32851 0.24749
# Poissons Ratio (y) = 0.21940 0.29965
# Poissons Ratio (z) = 0.26149 0.47404
#
# Static dielectric constant tensor:
#      x y z
#    x 3.682640 0.000000 0.000000 
#    y 0.000000 3.788940 0.000000 
#    z 0.000000 0.000000 3.880300 
# 
# 
# High freq. dielectric constant tensor:
#      x y z
#    x 1.784990 0.000000 0.000000 
#    y 0.000000 1.792530 0.000000 
#    z 0.000000 0.000000 1.793790 
# 
# From -- ./inp_files/9429.got.cif
#   From: 2010.03.12/outbox.cif.g09.slc.cpg/sg57_5_cif.got.tgz:9429.got - 2010.04.16 15:48:40.
