data_PCOD8231455
_publ_section_title
;
Structure prediction by ZEFSAII (Michael W. Deem and Ramdas Pophale) SiO2 
 PCOD8231455
Probable space group: P B C M
;
_chemical_formula_sum "Si O2"
_cell_formula_units_Z 40
_cell_length_a 22.361048
_cell_length_b 5.118794
_cell_length_c 17.247160
_cell_angle_alpha 90.000000
_cell_angle_beta 90.000000
_cell_angle_gamma 90.000000
_cell_volume 1974.137500
_symmetry_space_group_name_H-M "P B C M"
_symmetry_group_IT_number 57
_symmetry_cell_setting 'orthorhombic'
loop_
_space_group_symop_operation_xyz
x,y,z
-x,-y,1/2+z
x,1/2-y,-z
-x,1/2+y,1/2-z
-x,-y,-z
x,y,1/2-z
-x,1/2+y,z
x,1/2-y,1/2+z
loop_
_atom_site_type_symbol
_atom_site_label
_atom_site_fract_x
_atom_site_fract_y
_atom_site_fract_z
Si Si1 0.727119 0.793430 0.410850
Si Si2 0.146886 0.492815 0.050372
Si Si3 0.334066 0.709890 0.908884
Si Si4 0.038070 0.532256 0.160358
Si Si5 0.461522 0.854190 0.340110
O O1 0.709783 0.750000 0.500000
O O2 0.709986 0.514269 0.372984
O O3 0.796034 0.880884 0.402858
O O4 0.686019 0.015554 0.370528
O O5 0.097145 0.581861 0.110889
O O6 0.164764 0.750000 0.000000
O O7 0.121902 0.250000 0.000000
O O8 0.402015 0.642164 0.890628
O O9 0.324685 0.750000 0.000000
O O10 0.056591 0.549983 0.250000
O O11 0.990087 0.753811 0.139223
O O12 0.443837 0.850959 0.250000
O O13 0.500913 0.606745 0.363118
#
# Coordination Sequence:
#
# PCOD8231455 Si02
#       5
#     8   8   8   8   8
#     4   9  18  33  52  77 106 134 165 211 267 306
#     4  11  21  35  58  84 110 142 184 227 268 323
#     4  10  19  33  54  76 101 134 171 209 253 311
#     4  10  22  39  56  78 113 150 181 223 278 323
#     4  10  21  36  52  73 104 137 169 212 263 307
#
# _framework density 20.262013
#
# number of rings (size 3 to 8) (size 9 to 14) (size 15 to 20)
#    0.000    2.000    0.000    5.400    0.000    3.200 
#    0.000    2.000    0.000    0.000    0.000    1.400 
#    0.000    0.000    0.000    0.000    0.000    0.000 
#
# Total GULP energy -495857.373512 kJ/mol
# GULP energy per Si atom -12396.434338 kJ/mol
# Density = 2.021590 g / cm^3
# Si number density = 20.262013 Si / 1000 Ang^3
#
#
#
# Elastic Constant Matrix: (Units=GPa)
#
#
# Indices 1 2 3 4 5 6 
#
# 1 129.3852 51.1670 35.0169 0.0000 0.0000 0.0000
# 2 51.1670 141.2225 25.8708 0.0000 0.0000 0.0000
# 3 35.0169 25.8708 23.7582 0.0000 0.0000 0.0000
# 4 0.0000 0.0000 0.0000 27.6029 0.0000 0.0000
# 5 0.0000 0.0000 0.0000 0.0000 -0.3629 0.0000
# 6 0.0000 0.0000 0.0000 0.0000 0.0000 28.6540
#
#
#
# Elastic Compliance Matrix: (Units=1/GPa)
#
#
# Indices 1 2 3 4 5 6 
#
# 1 0.013111 -0.001512 -0.017678 0.000000 0.000000 0.000000
# 2 -0.001512 0.009020 -0.007594 0.000000 0.000000 0.000000
# 3 -0.017678 -0.007594 0.076415 0.000000 0.000000 0.000000
# 4 0.000000 0.000000 0.000000 0.036228 0.000000 0.000000
# 5 0.000000 0.000000 0.000000 0.000000 -2.755206 0.000000
# 6 0.000000 0.000000 0.000000 0.000000 0.000000 0.034899
#
#
# Mechanical properties :
#
#
# Convention : Reuss Voigt Hill
#
# Bulk Modulus (GPa) = 22.23260 57.60838 39.92049
# Shear Modulus (GPa) = -1.98651 23.33286 10.67318
#
# Velocity S-wave (km/s) = -0.99123 3.39714 2.29761
# Velocity P-wave (km/s) = 3.11229 6.62426 5.17529
#
# Compressibility (1/GPa) = 0.04497899
#
# Stress axis : x y z
#
# Youngs Moduli (GPa) = 76.27098 110.86608 13.08644
#
# Poissons Ratio (x) = 0.16762 0.23134
# Poissons Ratio (y) = 0.11531 0.09937
# Poissons Ratio (z) = 1.34832 0.84187
#
# Static dielectric constant tensor:
#      x y z
#    x 3.465950 0.000000 0.000000 
#    y 0.000000 4.314960 0.000000 
#    z 0.000000 0.000000 3.233060 
# 
# 
# High freq. dielectric constant tensor:
#      x y z
#    x 1.794020 0.000000 0.000000 
#    y 0.000000 1.824660 0.000000 
#    z 0.000000 0.000000 1.742410 
# 
# From -- ./inp_files/22763.got.cif
#   From: 2010.03.12/outbox.cif.g09.slc.cpg/sg57_12_cif.got.tgz:22763.got - 2010.04.16 15:48:40.
