data_PCOD8231780
_publ_section_title
;
Structure prediction by ZEFSAII (Michael W. Deem and Ramdas Pophale) SiO2 
 PCOD8231780
Probable space group: P B C M
;
_chemical_formula_sum "Si O2"
_cell_formula_units_Z 48
_cell_length_a 26.455577
_cell_length_b 5.203900
_cell_length_c 15.545479
_cell_angle_alpha 90.000000
_cell_angle_beta 90.000000
_cell_angle_gamma 90.000000
_cell_volume 2140.179939
_symmetry_space_group_name_H-M "P B C M"
_symmetry_group_IT_number 57
_symmetry_cell_setting 'orthorhombic'
loop_
_space_group_symop_operation_xyz
x,y,z
-x,-y,1/2+z
x,1/2-y,-z
-x,1/2+y,1/2-z
-x,-y,-z
x,y,1/2-z
-x,1/2+y,z
x,1/2-y,1/2+z
loop_
_atom_site_type_symbol
_atom_site_label
_atom_site_fract_x
_atom_site_fract_y
_atom_site_fract_z
Si Si1 0.638215 0.330792 0.596908
Si Si2 0.806631 0.590214 0.148297
Si Si3 0.305502 0.330080 0.848869
Si Si4 0.133400 0.906755 0.647608
Si Si5 0.021593 0.530391 0.403888
Si Si6 0.525572 0.117298 0.150145
O O1 0.629243 0.250000 0.500000
O O2 0.672447 0.586894 0.599394
O O3 0.585353 0.401801 0.639777
O O4 0.661665 0.088730 0.646641
O O5 0.803862 0.569970 0.250000
O O6 0.749676 0.605397 0.111905
O O7 0.835327 0.338467 0.113420
O O8 0.836199 0.842468 0.118505
O O9 0.301901 0.241574 0.750000
O O10 0.123924 0.898669 0.750000
O O11 0.080791 0.911907 0.597174
O O12 0.000000 0.500000 0.500000
O O13 0.008007 0.263557 0.355895
O O14 0.511396 0.119701 0.250000
O O15 0.501976 0.372211 0.106352
#
# Coordination Sequence:
#
# PCOD8231780 Si02
#       6
#     8   8   8   8   8   8
#     4  12  25  40  63  93 136 170 207 267 325 382
#     4   9  19  35  60  90 114 145 194 255 304 356
#     4  11  22  41  68  92 122 168 220 261 317 387
#     4  10  19  34  58  87 114 143 190 248 304 348
#     4  10  21  36  55  75 113 150 188 230 279 359
#     4  10  21  38  61  90 123 163 217 267 310 374
#
# _framework density 22.42802
#
# number of rings (size 3 to 8) (size 9 to 14) (size 15 to 20)
#    0.000    1.667    0.000    5.000    0.000    5.333 
#    0.000    0.000   36.667    0.000    0.000    0.000 
#    0.000    0.000    0.000    0.000    0.000    0.000 
#
# Total GULP energy -595213.866164 kJ/mol
# GULP energy per Si atom -12400.288878 kJ/mol
# Density = 2.237697 g / cm^3
# Si number density = 22.428020 Si / 1000 Ang^3
#
#
#
# Elastic Constant Matrix: (Units=GPa)
#
#
# Indices 1 2 3 4 5 6 
#
# 1 168.4453 89.8611 7.4573 0.0000 0.0000 0.0000
# 2 89.8611 227.1514 11.9428 0.0000 0.0000 0.0000
# 3 7.4573 11.9428 22.3104 0.0000 0.0000 0.0000
# 4 0.0000 0.0000 0.0000 0.0975 0.0000 0.0000
# 5 0.0000 0.0000 0.0000 0.0000 3.1787 0.0000
# 6 0.0000 0.0000 0.0000 0.0000 0.0000 52.0314
#
#
#
# Elastic Compliance Matrix: (Units=1/GPa)
#
#
# Indices 1 2 3 4 5 6 
#
# 1 0.007544 -0.002934 -0.000951 0.000000 0.000000 0.000000
# 2 -0.002934 0.005671 -0.002055 0.000000 0.000000 0.000000
# 3 -0.000951 -0.002055 0.046240 0.000000 0.000000 0.000000
# 4 0.000000 0.000000 0.000000 10.251462 0.000000 0.000000
# 5 0.000000 0.000000 0.000000 0.000000 0.314590 0.000000
# 6 0.000000 0.000000 0.000000 0.000000 0.000000 0.019219
#
#
# Mechanical properties :
#
#
# Convention : Reuss Voigt Hill
#
# Bulk Modulus (GPa) = 21.01950 70.71439 45.86695
# Shear Modulus (GPa) = 0.46850 31.63794 16.05322
#
# Velocity S-wave (km/s) = 0.45754 3.75993 2.67828
# Velocity P-wave (km/s) = 3.10990 7.10263 5.48265
#
# Compressibility (1/GPa) = 0.04757487
#
# Stress axis : x y z
#
# Youngs Moduli (GPa) = 132.55189 176.32699 21.62630
#
# Poissons Ratio (x) = 0.51743 0.02056
# Poissons Ratio (y) = 0.38897 0.04444
# Poissons Ratio (z) = 0.12603 0.36235
#
# Static dielectric constant tensor:
#      x y z
#    x 4.067120 0.000000 0.000000 
#    y 0.000000 -0.420840 0.000000 
#    z 0.000000 0.000000 3.529130 
# 
# 
# High freq. dielectric constant tensor:
#      x y z
#    x 1.894000 0.000000 0.000000 
#    y 0.000000 1.912540 0.000000 
#    z 0.000000 0.000000 1.848920 
# 
# From -- ./inp_files/23106.got.cif
#   From: 2010.03.12/outbox.cif.g09.slc.cpg/sg57_12_cif.got.tgz:23106.got - 2010.04.16 15:48:40.
