data_PCOD8231828
_publ_section_title
;
Structure prediction by ZEFSAII (Michael W. Deem and Ramdas Pophale) SiO2 
 PCOD8231828
Probable space group: P B C M
;
_chemical_formula_sum "Si O2"
_cell_formula_units_Z 64
_cell_length_a 26.754422
_cell_length_b 5.106806
_cell_length_c 27.392305
_cell_angle_alpha 90.000000
_cell_angle_beta 90.000000
_cell_angle_gamma 90.000000
_cell_volume 3742.600848
_symmetry_space_group_name_H-M "P B C M"
_symmetry_group_IT_number 57
_symmetry_cell_setting 'orthorhombic'
loop_
_space_group_symop_operation_xyz
x,y,z
-x,-y,1/2+z
x,1/2-y,-z
-x,1/2+y,1/2-z
-x,-y,-z
x,y,1/2-z
-x,1/2+y,z
x,1/2-y,1/2+z
loop_
_atom_site_type_symbol
_atom_site_label
_atom_site_fract_x
_atom_site_fract_y
_atom_site_fract_z
Si Si1 0.857170 0.238272 0.691970
Si Si2 0.361903 0.799458 0.151304
Si Si3 0.244535 0.280390 0.554285
Si Si4 0.970802 0.268325 0.191869
Si Si5 0.689566 0.700947 0.692689
Si Si6 0.689735 0.220006 0.445721
Si Si7 0.467854 0.779970 0.806180
Si Si8 0.199163 0.238305 0.652935
O O1 0.854375 0.239274 0.750000
O O2 0.914054 0.233202 0.673026
O O3 0.830973 0.492613 0.671548
O O4 0.828920 0.991010 0.671438
O O5 0.328754 0.591146 0.180949
O O6 0.353709 0.767678 0.093388
O O7 0.420252 0.757770 0.159782
O O8 0.346990 0.090180 0.167712
O O9 0.221392 0.250000 0.500000
O O10 0.265818 0.571685 0.561943
O O11 0.201010 0.235769 0.593935
O O12 0.288838 0.070951 0.562096
O O13 0.971315 0.268012 0.250000
O O14 0.999664 0.519356 0.171008
O O15 0.688461 0.747031 0.750000
O O16 0.745088 0.739972 0.673357
O O17 0.666686 0.250000 0.500000
O O18 0.450379 0.760064 0.750000
O O19 0.509029 0.561599 0.818014
#
# Coordination Sequence:
#
# PCOD8231828 Si02
#       8
#     8   8   8   8   8   8   8   8
#     4  11  22  33  49  74 109 148 174 205 257 309
#     4  12  21  37  55  77 102 133 178 212 250 305
#     4  10  20  36  54  73 100 135 175 216 252 292
#     4   9  17  31  49  68  94 133 182 223 249 284
#     4  12  23  33  50  76 108 144 171 203 240 303
#     4  10  19  35  56  77  98 128 172 216 257 297
#     4  10  21  36  53  73  99 132 168 211 258 299
#     4  12  21  35  49  74 110 141 171 206 254 313
#
# _framework density 17.100408999999999
#
# number of rings (size 3 to 8) (size 9 to 14) (size 15 to 20)
#    0.000    1.250    2.500    5.250    0.000    3.000 
#    0.000    0.000    0.000    0.750    0.000    0.000 
#    0.000   10.000    0.000    0.000    0.000    0.000 
#
# Total GULP energy -793840.049469 kJ/mol
# GULP energy per Si atom -12403.750773 kJ/mol
# Density = 1.706149 g / cm^3
# Si number density = 17.100409 Si / 1000 Ang^3
#
#
#
# Elastic Constant Matrix: (Units=GPa)
#
#
# Indices 1 2 3 4 5 6 
#
# 1 101.5735 28.9747 40.1002 0.0000 0.0000 0.0000
# 2 28.9747 100.0903 22.7901 0.0000 0.0000 0.0000
# 3 40.1002 22.7901 114.2561 0.0000 0.0000 0.0000
# 4 0.0000 0.0000 0.0000 11.7893 0.0000 0.0000
# 5 0.0000 0.0000 0.0000 0.0000 6.0260 0.0000
# 6 0.0000 0.0000 0.0000 0.0000 0.0000 19.3305
#
#
#
# Elastic Compliance Matrix: (Units=1/GPa)
#
#
# Indices 1 2 3 4 5 6 
#
# 1 0.012064 -0.002648 -0.003706 0.000000 0.000000 0.000000
# 2 -0.002648 0.011048 -0.001274 0.000000 0.000000 0.000000
# 3 -0.003706 -0.001274 0.010307 0.000000 0.000000 0.000000
# 4 0.000000 0.000000 0.000000 0.084823 0.000000 0.000000
# 5 0.000000 0.000000 0.000000 0.000000 0.165947 0.000000
# 6 0.000000 0.000000 0.000000 0.000000 0.000000 0.051732
#
#
# Mechanical properties :
#
#
# Convention : Reuss Voigt Hill
#
# Bulk Modulus (GPa) = 55.06048 55.51665 55.28857
# Shear Modulus (GPa) = 13.99660 22.36617 18.18138
#
# Velocity S-wave (km/s) = 2.86404 3.62046 3.26423
# Velocity P-wave (km/s) = 6.57307 7.07195 6.82707
#
# Compressibility (1/GPa) = 0.01816185
#
# Stress axis : x y z
#
# Youngs Moduli (GPa) = 82.89451 90.51599 97.02170
#
# Poissons Ratio (x) = 0.23973 0.35953
# Poissons Ratio (y) = 0.21954 0.12362
# Poissons Ratio (z) = 0.30718 0.11533
#
# Static dielectric constant tensor:
#      x y z
#    x 3.116460 0.000000 0.000000 
#    y 0.000000 3.488690 0.000000 
#    z 0.000000 0.000000 3.367730 
# 
# 
# High freq. dielectric constant tensor:
#      x y z
#    x 1.641780 0.000000 0.000000 
#    y 0.000000 1.688130 0.000000 
#    z 0.000000 0.000000 1.643610 
# 
# From -- ./inp_files/28941.got.cif
#   From: 2010.03.12/outbox.cif.g09.slc.cpg/sg57_15_cif.got.tgz:28941.got - 2010.04.16 15:48:40.
