data_PCOD8231820
_publ_section_title
;
Structure prediction by ZEFSAII (Michael W. Deem and Ramdas Pophale) SiO2 
 PCOD8231820
Probable space group: P B C M
;
_chemical_formula_sum "Si O2"
_cell_formula_units_Z 56
_cell_length_a 11.762686
_cell_length_b 16.971717
_cell_length_c 14.891573
_cell_angle_alpha 90.000000
_cell_angle_beta 90.000000
_cell_angle_gamma 90.000000
_cell_volume 2972.849064
_symmetry_space_group_name_H-M "P B C M"
_symmetry_group_IT_number 57
_symmetry_cell_setting 'orthorhombic'
loop_
_space_group_symop_operation_xyz
x,y,z
-x,-y,1/2+z
x,1/2-y,-z
-x,1/2+y,1/2-z
-x,-y,-z
x,y,1/2-z
-x,1/2+y,z
x,1/2-y,1/2+z
loop_
_atom_site_type_symbol
_atom_site_label
_atom_site_fract_x
_atom_site_fract_y
_atom_site_fract_z
Si Si1 0.382407 0.697116 0.913943
Si Si2 0.815514 0.416150 0.352130
Si Si3 0.191241 0.067967 0.019189
Si Si4 0.554851 0.691467 0.346211
Si Si5 0.446612 0.083441 0.997148
Si Si6 0.071154 0.125095 0.647317
Si Si7 0.805457 0.786502 0.645833
O O1 0.274428 0.651843 0.876038
O O2 0.442712 0.754280 0.842610
O O3 0.348036 0.750000 0.000000
O O4 0.485773 0.637189 0.928482
O O5 0.792886 0.446735 0.250000
O O6 0.810726 0.487558 0.423072
O O7 0.935627 0.372445 0.357163
O O8 0.314042 0.080630 0.974572
O O9 0.155155 0.139674 0.084749
O O10 0.111527 0.063533 0.930149
O O11 0.576084 0.654575 0.250000
O O12 0.532239 0.615546 0.404192
O O13 0.672975 0.734820 0.375896
O O14 0.500000 0.000000 0.000000
O O15 0.109794 0.101608 0.750000
O O16 0.119462 0.210747 0.620541
O O17 0.824681 0.809122 0.750000
#
# Coordination Sequence:
#
# PCOD8231820 Si02
#       7
#     8   8   8   8   8   8   8
#     4  10  20  35  56  79 114 152 182 222 275 337
#     4  11  23  38  57  83 113 148 188 234 280 336
#     4  11  20  36  62  82 113 147 187 231 290 329
#     4   9  18  33  55  82 110 143 184 226 270 323
#     4  10  19  35  54  83 114 142 180 226 274 331
#     4  10  22  38  55  80 112 145 192 238 278 332
#     4   9  18  34  58  87 110 140 188 238 275 326
#
# _framework density 18.837147999999999
#
# number of rings (size 3 to 8) (size 9 to 14) (size 15 to 20)
#    0.000    2.000    1.429    2.571    0.000    4.000 
#    0.000    1.429    0.000    0.000    0.000    0.000 
#    0.000    0.000    0.000    0.000    0.000    0.000 
#
# Total GULP energy -693843.125826 kJ/mol
# GULP energy per Si atom -12390.055818 kJ/mol
# Density = 1.879427 g / cm^3
# Si number density = 18.837148 Si / 1000 Ang^3
#
#
#
# Elastic Constant Matrix: (Units=GPa)
#
#
# Indices 1 2 3 4 5 6 
#
# 1 108.3322 48.8663 49.0114 0.0000 0.0000 0.0000
# 2 48.8663 87.9997 40.9657 0.0000 0.0000 0.0000
# 3 49.0114 40.9657 94.0996 0.0000 0.0000 0.0000
# 4 0.0000 0.0000 0.0000 15.1467 0.0000 0.0000
# 5 0.0000 0.0000 0.0000 0.0000 32.3096 0.0000
# 6 0.0000 0.0000 0.0000 0.0000 0.0000 25.5344
#
#
#
# Elastic Compliance Matrix: (Units=1/GPa)
#
#
# Indices 1 2 3 4 5 6 
#
# 1 0.013888 -0.005449 -0.004861 0.000000 0.000000 0.000000
# 2 -0.005449 0.016390 -0.004297 0.000000 0.000000 0.000000
# 3 -0.004861 -0.004297 0.015030 0.000000 0.000000 0.000000
# 4 0.000000 0.000000 0.000000 0.066021 0.000000 0.000000
# 5 0.000000 0.000000 0.000000 0.000000 0.030951 0.000000
# 6 0.000000 0.000000 0.000000 0.000000 0.000000 0.039163
#
#
# Mechanical properties :
#
#
# Convention : Reuss Voigt Hill
#
# Bulk Modulus (GPa) = 62.13974 63.12427 62.63201
# Shear Modulus (GPa) = 23.14579 24.70400 23.92489
#
# Velocity S-wave (km/s) = 3.50913 3.62532 3.56770
# Velocity P-wave (km/s) = 7.03407 7.14893 7.09173
#
# Compressibility (1/GPa) = 0.01609276
#
# Stress axis : x y z
#
# Youngs Moduli (GPa) = 72.00352 61.01300 66.53433
#
# Poissons Ratio (x) = 0.33246 0.32345
# Poissons Ratio (y) = 0.39235 0.28591
# Poissons Ratio (z) = 0.35004 0.26218
#
# Static dielectric constant tensor:
#      x y z
#    x 3.552410 0.000000 0.000000 
#    y 0.000000 3.094310 0.000000 
#    z 0.000000 0.000000 3.486490 
# 
# 
# High freq. dielectric constant tensor:
#      x y z
#    x 1.731890 0.000000 0.000000 
#    y 0.000000 1.721270 0.000000 
#    z 0.000000 0.000000 1.740650 
# 
# From -- ./inp_files/17734.got.cif
#   From: 2010.03.12/outbox.cif.g09.slc.cpg/sg57_9_cif.got.tgz:17734.got - 2010.04.16 15:48:40.
