data_PCOD8231417
_publ_section_title
;
Structure prediction by ZEFSAII (Michael W. Deem and Ramdas Pophale) SiO2 
 PCOD8231417
Probable space group: P B C M
;
_chemical_formula_sum "Si O2"
_cell_formula_units_Z 64
_cell_length_a 22.513163
_cell_length_b 17.607797
_cell_length_c 8.663246
_cell_angle_alpha 90.000000
_cell_angle_beta 90.000000
_cell_angle_gamma 90.000000
_cell_volume 3434.173124
_symmetry_space_group_name_H-M "P B C M"
_symmetry_group_IT_number 57
_symmetry_cell_setting 'orthorhombic'
loop_
_space_group_symop_operation_xyz
x,y,z
-x,-y,1/2+z
x,1/2-y,-z
-x,1/2+y,1/2-z
-x,-y,-z
x,y,1/2-z
-x,1/2+y,z
x,1/2-y,1/2+z
loop_
_atom_site_type_symbol
_atom_site_label
_atom_site_fract_x
_atom_site_fract_y
_atom_site_fract_z
Si Si1 0.465903 0.430573 0.927932
Si Si2 0.240590 0.016040 0.931105
Si Si3 0.915545 0.623626 0.567547
Si Si4 0.640100 0.030427 0.571778
Si Si5 0.444642 0.830453 0.430930
Si Si6 0.044731 0.671843 0.931510
Si Si7 0.205473 0.171774 0.432579
Si Si8 0.120948 0.529757 0.567367
O O1 0.482509 0.423763 0.750000
O O2 0.396430 0.451155 0.950674
O O3 0.500000 0.500000 0.000000
O O4 0.488980 0.353554 0.009887
O O5 0.227569 0.016941 0.750000
O O6 0.241759 0.102201 0.993477
O O7 0.302349 0.974261 0.964879
O O8 0.189630 0.968367 0.017660
O O9 0.906252 0.634326 0.750000
O O10 0.863942 0.667522 0.476718
O O11 0.913755 0.535229 0.524903
O O12 0.978310 0.655427 0.507750
O O13 0.658938 0.039057 0.750000
O O14 0.602348 0.104389 0.519470
O O15 0.424584 0.750000 0.500000
O O16 0.447844 0.822206 0.250000
O O17 0.043439 0.677227 0.750000
O O18 0.090568 0.607660 0.985280
O O19 0.068839 0.750000 0.000000
O O20 0.232152 0.250000 0.500000
O O21 0.213254 0.169290 0.250000
O O22 0.115890 0.515073 0.750000
#
# Coordination Sequence:
#
# PCOD8231417 Si02
#       8
#     8   8   8   8   8   8   8   8
#     4   9  17  31  53  79 108 139 172 208 254 306
#     4  11  22  36  56  80 103 137 181 221 261 311
#     4  10  19  33  53  79 104 130 168 210 258 320
#     4   9  19  36  56  79 107 143 181 219 260 308
#     4  10  20  34  55  83 115 146 180 221 266 309
#     4  10  22  35  51  75 103 134 169 212 264 317
#     4  11  21  35  54  77 106 137 169 212 263 315
#     4  10  20  36  54  74 101 136 174 215 263 314
#
# _framework density 18.636216999999998
#
# number of rings (size 3 to 8) (size 9 to 14) (size 15 to 20)
#    0.000    2.000    0.000    6.750    0.000    6.000 
#    0.000    1.250    0.000    3.000    0.000    0.000 
#    0.000    0.000    0.000    0.000    0.000    0.000 
#
# Total GULP energy -793532.529172 kJ/mol
# GULP energy per Si atom -12398.945768 kJ/mol
# Density = 1.859380 g / cm^3
# Si number density = 18.636217 Si / 1000 Ang^3
#
#
#
# Elastic Constant Matrix: (Units=GPa)
#
#
# Indices 1 2 3 4 5 6 
#
# 1 65.6261 36.6614 15.5275 0.0000 0.0000 0.0000
# 2 36.6614 107.3848 21.4067 0.0000 0.0000 0.0000
# 3 15.5275 21.4067 64.0211 0.0000 0.0000 0.0000
# 4 0.0000 0.0000 0.0000 34.8825 0.0000 0.0000
# 5 0.0000 0.0000 0.0000 0.0000 27.6561 0.0000
# 6 0.0000 0.0000 0.0000 0.0000 0.0000 17.1078
#
#
#
# Elastic Compliance Matrix: (Units=1/GPa)
#
#
# Indices 1 2 3 4 5 6 
#
# 1 0.019238 -0.006041 -0.002646 0.000000 0.000000 0.000000
# 2 -0.006041 0.011874 -0.002505 0.000000 0.000000 0.000000
# 3 -0.002646 -0.002505 0.017099 0.000000 0.000000 0.000000
# 4 0.000000 0.000000 0.000000 0.028668 0.000000 0.000000
# 5 0.000000 0.000000 0.000000 0.000000 0.036158 0.000000
# 6 0.000000 0.000000 0.000000 0.000000 0.000000 0.058453
#
#
# Mechanical properties :
#
#
# Convention : Reuss Voigt Hill
#
# Bulk Modulus (GPa) = 38.71812 42.69144 40.70478
# Shear Modulus (GPa) = 24.69331 26.82503 25.75917
#
# Velocity S-wave (km/s) = 3.64403 3.79806 3.72184
# Velocity P-wave (km/s) = 6.20694 6.49548 6.35285
#
# Compressibility (1/GPa) = 0.02582770
#
# Stress axis : x y z
#
# Youngs Moduli (GPa) = 51.97933 84.21790 58.48175
#
# Poissons Ratio (x) = 0.50872 0.15476
# Poissons Ratio (y) = 0.31398 0.14651
# Poissons Ratio (z) = 0.13755 0.21099
#
# Static dielectric constant tensor:
#      x y z
#    x 0.000000 0.000000 0.000000 
#    y 0.000000 0.000000 0.000000 
#    z 0.000000 0.000000 0.000000 
# 
# 
# High freq. dielectric constant tensor:
#      x y z
#    x 1.707780 0.000000 0.000000 
#    y 0.000000 1.718600 0.000000 
#    z 0.000000 0.000000 1.734230 
# 
# From -- ./inp_files/9532.got.cif
#   From: 2010.03.12/outbox.cif.g09.slc.cpg/sg57_5_cif.got.tgz:9532.got - 2010.04.16 15:48:40.
