data_PCOD8231023
_publ_section_title
;
Structure prediction by ZEFSAII (Michael W. Deem and Ramdas Pophale) SiO2 
 PCOD8231023
Probable space group: P B C M
;
_chemical_formula_sum "Si O2"
_cell_formula_units_Z 64
_cell_length_a 15.750158
_cell_length_b 24.649573
_cell_length_c 9.162563
_cell_angle_alpha 90.000000
_cell_angle_beta 90.000000
_cell_angle_gamma 90.000000
_cell_volume 3557.224617
_symmetry_space_group_name_H-M "P B C M"
_symmetry_group_IT_number 57
_symmetry_cell_setting 'orthorhombic'
loop_
_space_group_symop_operation_xyz
x,y,z
-x,-y,1/2+z
x,1/2-y,-z
-x,1/2+y,1/2-z
-x,-y,-z
x,y,1/2-z
-x,1/2+y,z
x,1/2-y,1/2+z
loop_
_atom_site_type_symbol
_atom_site_label
_atom_site_fract_x
_atom_site_fract_y
_atom_site_fract_z
Si Si1 0.674283 0.403849 0.087379
Si Si2 0.614878 0.305292 0.578522
Si Si3 0.797762 0.479058 0.921855
Si Si4 0.430301 0.350156 0.918073
Si Si5 0.512290 0.946334 0.410136
Si Si6 0.024238 0.947568 0.584367
Si Si7 0.150605 0.089874 0.078831
Si Si8 0.748970 0.804214 0.579429
O O1 0.713733 0.395035 0.250000
O O2 0.576489 0.416919 0.105585
O O3 0.678922 0.349820 0.989007
O O4 0.718085 0.453632 0.004281
O O5 0.639252 0.250000 0.500000
O O6 0.632721 0.301119 0.750000
O O7 0.516053 0.317647 0.546272
O O8 0.778129 0.485048 0.750000
O O9 0.876370 0.436191 0.950438
O O10 0.815419 0.538527 0.987821
O O11 0.427129 0.367757 0.750000
O O12 0.349955 0.313241 0.959474
O O13 0.423089 0.405782 0.009181
O O14 0.549513 0.960151 0.250000
O O15 0.500000 0.000000 0.500000
O O16 0.017308 0.965358 0.750000
O O17 0.952055 0.901926 0.551682
O O18 0.000000 0.000000 0.500000
O O19 0.170523 0.079874 0.250000
O O20 0.196304 0.144416 0.023433
O O21 0.781154 0.750000 0.500000
O O22 0.763126 0.795589 0.750000
#
# Coordination Sequence:
#
# PCOD8231023 Si02
#       8
#     8   8   8   8   8   8   8   8
#     4  10  21  35  50  72 101 134 168 204 252 305
#     4  10  19  33  53  73  97 129 168 213 254 296
#     4  10  19  31  51  79 106 131 167 213 259 307
#     4   9  19  34  50  71  98 131 171 211 250 296
#     4  10  21  34  49  69  98 135 170 207 252 304
#     4   8  15  29  49  73 100 129 160 197 243 298
#     4   9  18  33  52  74 102 137 170 204 256 311
#     4  10  21  35  52  74 102 135 173 214 253 300
#
# _framework density 17.991553
#
# number of rings (size 3 to 8) (size 9 to 14) (size 15 to 20)
#    0.000    2.500    0.000    1.875    1.750    3.500 
#    0.000    0.000    0.000    0.750    0.000    1.750 
#    0.000    0.000    0.000    0.000    0.000    0.000 
#
# Total GULP energy -793092.801808 kJ/mol
# GULP energy per Si atom -12392.075028 kJ/mol
# Density = 1.795060 g / cm^3
# Si number density = 17.991553 Si / 1000 Ang^3
#
#
#
# Elastic Constant Matrix: (Units=GPa)
#
#
# Indices 1 2 3 4 5 6 
#
# 1 56.5877 29.1850 22.0755 0.0000 0.0000 0.0000
# 2 29.1850 117.5977 56.3907 0.0000 0.0000 0.0000
# 3 22.0755 56.3907 96.3597 0.0000 0.0000 0.0000
# 4 0.0000 0.0000 0.0000 34.3224 0.0000 0.0000
# 5 0.0000 0.0000 0.0000 0.0000 17.8089 0.0000
# 6 0.0000 0.0000 0.0000 0.0000 0.0000 20.8980
#
#
#
# Elastic Compliance Matrix: (Units=1/GPa)
#
#
# Indices 1 2 3 4 5 6 
#
# 1 0.020660 -0.003972 -0.002408 0.000000 0.000000 0.000000
# 2 -0.003972 0.012585 -0.006455 0.000000 0.000000 0.000000
# 3 -0.002408 -0.006455 0.014707 0.000000 0.000000 0.000000
# 4 0.000000 0.000000 0.000000 0.029135 0.000000 0.000000
# 5 0.000000 0.000000 0.000000 0.000000 0.056152 0.000000
# 6 0.000000 0.000000 0.000000 0.000000 0.000000 0.047852
#
#
# Mechanical properties :
#
#
# Convention : Reuss Voigt Hill
#
# Bulk Modulus (GPa) = 44.88211 53.98304 49.43257
# Shear Modulus (GPa) = 23.34402 25.46546 24.40474
#
# Velocity S-wave (km/s) = 3.60599 3.76628 3.68700
# Velocity P-wave (km/s) = 6.50676 6.99878 6.75725
#
# Compressibility (1/GPa) = 0.02228059
#
# Stress axis : x y z
#
# Youngs Moduli (GPa) = 48.40273 79.46266 67.99588
#
# Poissons Ratio (x) = 0.31566 0.16376
# Poissons Ratio (y) = 0.19228 0.43888
# Poissons Ratio (z) = 0.11657 0.51289
#
# Static dielectric constant tensor:
#      x y z
#    x 3.742780 0.000000 0.000000 
#    y 0.000000 3.248190 0.000000 
#    z 0.000000 0.000000 3.546390 
# 
# 
# High freq. dielectric constant tensor:
#      x y z
#    x 1.683390 0.000000 0.000000 
#    y 0.000000 1.676790 0.000000 
#    z 0.000000 0.000000 1.708210 
# 
# From -- ./inp_files/5536.got.cif
#   From: 2010.03.12/outbox.cif.g09.slc.cpg/sg57_3_cif.got.tgz:5536.got - 2010.04.16 15:48:40.
