data_PCOD8231147
_publ_section_title
;
Structure prediction by ZEFSAII (Michael W. Deem and Ramdas Pophale) SiO2 
 PCOD8231147
Probable space group: P B C M
;
_chemical_formula_sum "Si O2"
_cell_formula_units_Z 48
_cell_length_a 15.097084
_cell_length_b 20.127449
_cell_length_c 8.862735
_cell_angle_alpha 90.000000
_cell_angle_beta 90.000000
_cell_angle_gamma 90.000000
_cell_volume 2693.081957
_symmetry_space_group_name_H-M "P B C M"
_symmetry_group_IT_number 57
_symmetry_cell_setting 'orthorhombic'
loop_
_space_group_symop_operation_xyz
x,y,z
-x,-y,1/2+z
x,1/2-y,-z
-x,1/2+y,1/2-z
-x,-y,-z
x,y,1/2-z
-x,1/2+y,z
x,1/2-y,1/2+z
loop_
_atom_site_type_symbol
_atom_site_label
_atom_site_fract_x
_atom_site_fract_y
_atom_site_fract_z
Si Si1 0.756584 0.895900 0.070514
Si Si2 0.395349 0.934165 0.582685
Si Si3 0.043479 0.564210 0.073296
Si Si4 0.779754 0.038386 0.571268
Si Si5 0.908787 0.681974 0.073342
Si Si6 0.437070 0.089163 0.916887
O O1 0.766097 0.904618 0.250000
O O2 0.654772 0.877663 0.026782
O O3 0.817102 0.837142 0.008238
O O4 0.785871 0.964131 0.992763
O O5 0.372305 0.908524 0.750000
O O6 0.310152 0.923859 0.476526
O O7 0.479838 0.892286 0.522645
O O8 0.421131 0.010742 0.585740
O O9 0.055944 0.551352 0.250000
O O10 0.982778 0.627364 0.040092
O O11 0.137887 0.579211 0.996204
O O12 0.000000 0.500000 0.000000
O O13 0.785939 0.035205 0.750000
O O14 0.890997 0.690938 0.250000
O O15 0.943233 0.750000 0.000000
O O16 0.461070 0.114528 0.750000
#
# Coordination Sequence:
#
# PCOD8231147 Si02
#       6
#     8   8   8   8   8   8
#     4  10  19  32  51  73 102 137 174 216 261 314
#     4   9  16  26  41  65  98 134 168 209 255 303
#     4  11  22  36  55  79 105 138 179 223 270 324
#     4  11  20  30  48  74 104 138 175 217 265 317
#     4  11  24  39  56  78 106 140 179 221 270 323
#     4   8  15  26  41  65  96 132 167 204 252 303
#
# _framework density 17.823445
#
# number of rings (size 3 to 8) (size 9 to 14) (size 15 to 20)
#    0.000    2.000    1.667    4.500    0.000    6.667 
#    0.000    0.000    0.000    0.000    0.000    1.167 
#    0.000    2.667    0.000    0.000    0.000    0.000 
#
# Total GULP energy -595159.214201 kJ/mol
# GULP energy per Si atom -12399.150296 kJ/mol
# Density = 1.778288 g / cm^3
# Si number density = 17.823445 Si / 1000 Ang^3
#
#
#
# Elastic Constant Matrix: (Units=GPa)
#
#
# Indices 1 2 3 4 5 6 
#
# 1 141.4149 44.3810 72.9146 0.0000 0.0000 0.0000
# 2 44.3810 60.1209 45.6327 0.0000 0.0000 0.0000
# 3 72.9146 45.6327 137.5251 0.0000 0.0000 0.0000
# 4 0.0000 0.0000 0.0000 20.2010 0.0000 0.0000
# 5 0.0000 0.0000 0.0000 0.0000 36.7424 0.0000
# 6 0.0000 0.0000 0.0000 0.0000 0.0000 14.4918
#
#
#
# Elastic Compliance Matrix: (Units=1/GPa)
#
#
# Indices 1 2 3 4 5 6 
#
# 1 0.010673 -0.004790 -0.004069 0.000000 0.000000 0.000000
# 2 -0.004790 0.024382 -0.005551 0.000000 0.000000 0.000000
# 3 -0.004069 -0.005551 0.011271 0.000000 0.000000 0.000000
# 4 0.000000 0.000000 0.000000 0.049503 0.000000 0.000000
# 5 0.000000 0.000000 0.000000 0.000000 0.027217 0.000000
# 6 0.000000 0.000000 0.000000 0.000000 0.000000 0.069004
#
#
# Mechanical properties :
#
#
# Convention : Reuss Voigt Hill
#
# Bulk Modulus (GPa) = 57.12414 73.87973 65.50193
# Shear Modulus (GPa) = 22.05517 26.02922 24.04219
#
# Velocity S-wave (km/s) = 3.52152 3.82565 3.67673
# Velocity P-wave (km/s) = 6.97527 7.81377 7.40640
#
# Compressibility (1/GPa) = 0.01750574
#
# Stress axis : x y z
#
# Youngs Moduli (GPa) = 93.69624 41.01355 88.72579
#
# Poissons Ratio (x) = 0.19645 0.36105
# Poissons Ratio (y) = 0.44880 0.49249
# Poissons Ratio (z) = 0.38127 0.22766
#
# Static dielectric constant tensor:
#      x y z
#    x 3.753690 0.000000 0.000000 
#    y 0.000000 2.831230 0.000000 
#    z 0.000000 0.000000 3.494830 
# 
# 
# High freq. dielectric constant tensor:
#      x y z
#    x 1.708400 0.000000 0.000000 
#    y 0.000000 1.621150 0.000000 
#    z 0.000000 0.000000 1.706900 
# 
# From -- ./inp_files/4883.got.cif
#   From: 2010.03.12/outbox.cif.g09.slc.cpg/sg57_3_cif.got.tgz:4883.got - 2010.04.16 15:48:40.
