data_PCOD8231858
_publ_section_title
;
Structure prediction by ZEFSAII (Michael W. Deem and Ramdas Pophale) SiO2 
 PCOD8231858
Probable space group: P B C M
;
_chemical_formula_sum "Si O2"
_cell_formula_units_Z 64
_cell_length_a 14.861095
_cell_length_b 24.052818
_cell_length_c 8.700470
_cell_angle_alpha 90.000000
_cell_angle_beta 90.000000
_cell_angle_gamma 90.000000
_cell_volume 3109.993558
_symmetry_space_group_name_H-M "P B C M"
_symmetry_group_IT_number 57
_symmetry_cell_setting 'orthorhombic'
loop_
_space_group_symop_operation_xyz
x,y,z
-x,-y,1/2+z
x,1/2-y,-z
-x,1/2+y,1/2-z
-x,-y,-z
x,y,1/2-z
-x,1/2+y,z
x,1/2-y,1/2+z
loop_
_atom_site_type_symbol
_atom_site_label
_atom_site_fract_x
_atom_site_fract_y
_atom_site_fract_z
Si Si1 0.848911 0.308335 0.567841
Si Si2 0.644591 0.883800 0.071026
Si Si3 0.275181 0.001111 0.930885
Si Si4 0.036724 0.151440 0.074178
Si Si5 0.512293 0.188356 0.068312
Si Si6 0.682119 0.120433 0.068404
Si Si7 0.915265 0.531493 0.067258
Si Si8 0.776013 0.694286 0.426769
O O1 0.817730 0.250000 0.500000
O O2 0.853042 0.302537 0.750000
O O3 0.945599 0.325910 0.495052
O O4 0.776767 0.353988 0.514221
O O5 0.623937 0.875386 0.250000
O O6 0.655000 0.949122 0.028334
O O7 0.569429 0.852507 0.972750
O O8 0.740025 0.857308 0.024889
O O9 0.256190 0.999678 0.750000
O O10 0.321563 0.943669 0.988339
O O11 0.178793 0.006759 0.010560
O O12 0.011708 0.139763 0.250000
O O13 0.072973 0.094069 0.003257
O O14 0.116004 0.196490 0.058127
O O15 0.516707 0.195239 0.250000
O O16 0.601045 0.157797 0.000205
O O17 0.500973 0.250000 0.000000
O O18 0.673419 0.122065 0.250000
O O19 0.915344 0.528446 0.250000
O O20 0.000000 0.500000 0.000000
O O21 0.734895 0.750000 0.500000
O O22 0.745148 0.689002 0.250000
#
# Coordination Sequence:
#
# PCOD8231858 Si02
#       8
#     8   8   8   8   8   8   8   8
#     4  10  19  35  57  82 114 152 194 241 293 350
#     4  11  23  39  61  89 120 154 194 246 299 354
#     4  10  21  40  63  88 119 156 200 246 299 363
#     4   9  19  34  54  79 113 154 193 236 290 349
#     4  11  23  41  65  91 120 157 200 247 301 362
#     4   9  20  39  63  87 117 157 196 241 304 363
#     4  11  21  36  57  84 118 160 206 248 297 351
#     4  11  21  36  56  82 116 154 195 239 289 349
#
# _framework density 20.578818999999999
#
# number of rings (size 3 to 8) (size 9 to 14) (size 15 to 20)
#    0.000    1.750    1.250    3.375    0.000    3.000 
#    0.000    5.625    0.000    0.000    0.000    0.000 
#    0.000    0.000    0.000    0.000    0.000    0.000 
#
# Total GULP energy -793452.785790 kJ/mol
# GULP energy per Si atom -12397.699778 kJ/mol
# Density = 2.053198 g / cm^3
# Si number density = 20.578819 Si / 1000 Ang^3
#
#
#
# Elastic Constant Matrix: (Units=GPa)
#
#
# Indices 1 2 3 4 5 6 
#
# 1 116.0052 56.5358 24.3098 0.0000 0.0000 0.0000
# 2 56.5358 162.8482 34.9680 0.0000 0.0000 0.0000
# 3 24.3098 34.9680 47.4699 0.0000 0.0000 0.0000
# 4 0.0000 0.0000 0.0000 24.1349 0.0000 0.0000
# 5 0.0000 0.0000 0.0000 0.0000 22.0927 0.0000
# 6 0.0000 0.0000 0.0000 0.0000 0.0000 35.5161
#
#
#
# Elastic Compliance Matrix: (Units=1/GPa)
#
#
# Indices 1 2 3 4 5 6 
#
# 1 0.010791 -0.003041 -0.003286 0.000000 0.000000 0.000000
# 2 -0.003041 0.008151 -0.004447 0.000000 0.000000 0.000000
# 3 -0.003286 -0.004447 0.026025 0.000000 0.000000 0.000000
# 4 0.000000 0.000000 0.000000 0.041434 0.000000 0.000000
# 5 0.000000 0.000000 0.000000 0.000000 0.045264 0.000000
# 6 0.000000 0.000000 0.000000 0.000000 0.000000 0.028156
#
#
# Mechanical properties :
#
#
# Convention : Reuss Voigt Hill
#
# Bulk Modulus (GPa) = 42.70110 61.99449 52.34779
# Shear Modulus (GPa) = 26.43047 30.38273 28.40660
#
# Velocity S-wave (km/s) = 3.58767 3.84657 3.71938
# Velocity P-wave (km/s) = 6.16092 7.06534 6.62857
#
# Compressibility (1/GPa) = 0.02341860
#
# Stress axis : x y z
#
# Youngs Moduli (GPa) = 92.67139 122.68042 38.42455
#
# Poissons Ratio (x) = 0.37302 0.12627
# Poissons Ratio (y) = 0.28178 0.17089
# Poissons Ratio (z) = 0.30454 0.54561
#
# Static dielectric constant tensor:
#      x y z
#    x 3.777940 0.000000 0.000000 
#    y 0.000000 3.996030 0.000000 
#    z 0.000000 0.000000 3.456570 
# 
# 
# High freq. dielectric constant tensor:
#      x y z
#    x 1.810050 0.000000 0.000000 
#    y 0.000000 1.820070 0.000000 
#    z 0.000000 0.000000 1.778690 
# 
# From -- ./inp_files/5683.got.cif
#   From: 2010.03.12/outbox.cif.g09.slc.cpg/sg57_3_cif.got.tgz:5683.got - 2010.04.16 15:48:40.
