data_PCOD8231522
_publ_section_title
;
Structure prediction by ZEFSAII (Michael W. Deem and Ramdas Pophale) SiO2 
 PCOD8231522
Probable space group: P B C M
;
_chemical_formula_sum "Si O2"
_cell_formula_units_Z 56
_cell_length_a 22.003936
_cell_length_b 14.443928
_cell_length_c 8.722983
_cell_angle_alpha 90.000000
_cell_angle_beta 90.000000
_cell_angle_gamma 90.000000
_cell_volume 2772.366958
_symmetry_space_group_name_H-M "P B C M"
_symmetry_group_IT_number 57
_symmetry_cell_setting 'orthorhombic'
loop_
_space_group_symop_operation_xyz
x,y,z
-x,-y,1/2+z
x,1/2-y,-z
-x,1/2+y,1/2-z
-x,-y,-z
x,y,1/2-z
-x,1/2+y,z
x,1/2-y,1/2+z
loop_
_atom_site_type_symbol
_atom_site_label
_atom_site_fract_x
_atom_site_fract_y
_atom_site_fract_z
Si Si1 0.358922 0.468692 0.930755
Si Si2 0.531114 0.844294 0.929254
Si Si3 0.251007 0.351447 0.431008
Si Si4 0.101320 0.842395 0.427192
Si Si5 0.606351 0.346567 0.931627
Si Si6 0.036445 0.346350 0.067287
Si Si7 0.140415 0.459062 0.570404
O O1 0.349053 0.474665 0.750000
O O2 0.425235 0.428764 0.975738
O O3 0.309362 0.401203 0.000390
O O4 0.352564 0.570699 0.002412
O O5 0.530446 0.828894 0.750000
O O6 0.462911 0.863537 0.989098
O O7 0.557526 0.750000 0.000000
O O8 0.244621 0.250000 0.500000
O O9 0.257844 0.343745 0.250000
O O10 0.191792 0.410214 0.471503
O O11 0.130512 0.750000 0.500000
O O12 0.096455 0.822060 0.250000
O O13 0.032924 0.860036 0.488137
O O14 0.143783 0.930659 0.461655
O O15 0.611914 0.344179 0.750000
O O16 0.630842 0.250000 0.000000
O O17 0.044816 0.349862 0.250000
O O18 0.061912 0.250000 0.000000
O O19 0.074561 0.426904 0.986447
O O20 0.149153 0.437202 0.750000
#
# Coordination Sequence:
#
# PCOD8231522 Si02
#       7
#     8   8   8   8   8   8   8
#     4  11  22  38  59  85 115 151 192 237 284 337
#     4   9  19  33  54  84 118 152 188 230 282 338
#     4  12  26  44  63  85 112 147 188 234 283 336
#     4   9  20  36  57  84 116 149 185 228 278 332
#     4  10  20  36  57  85 118 153 190 233 282 337
#     4  10  19  33  54  84 117 151 186 227 278 335
#     4  11  22  38  58  83 113 149 190 235 282 333
#
# _framework density 20.199345999999998
#
# number of rings (size 3 to 8) (size 9 to 14) (size 15 to 20)
#    0.000    1.714    0.000    4.714    0.000    4.571 
#    0.000    0.714    0.000    1.714    0.000    0.000 
#    0.000    0.000    0.000    0.000    0.000    0.000 
#
# Total GULP energy -694554.720266 kJ/mol
# GULP energy per Si atom -12402.762862 kJ/mol
# Density = 2.015337 g / cm^3
# Si number density = 20.199346 Si / 1000 Ang^3
#
#
#
# Elastic Constant Matrix: (Units=GPa)
#
#
# Indices 1 2 3 4 5 6 
#
# 1 50.4670 31.2279 20.9145 0.0000 0.0000 0.0000
# 2 31.2279 128.2718 47.2462 0.0000 0.0000 0.0000
# 3 20.9145 47.2462 73.3163 0.0000 0.0000 0.0000
# 4 0.0000 0.0000 0.0000 38.1066 0.0000 0.0000
# 5 0.0000 0.0000 0.0000 0.0000 30.0336 0.0000
# 6 0.0000 0.0000 0.0000 0.0000 0.0000 31.6304
#
#
#
# Elastic Compliance Matrix: (Units=1/GPa)
#
#
# Indices 1 2 3 4 5 6 
#
# 1 0.024225 -0.004396 -0.004078 0.000000 0.000000 0.000000
# 2 -0.004396 0.011020 -0.005847 0.000000 0.000000 0.000000
# 3 -0.004078 -0.005847 0.018571 0.000000 0.000000 0.000000
# 4 0.000000 0.000000 0.000000 0.026242 0.000000 0.000000
# 5 0.000000 0.000000 0.000000 0.000000 0.033296 0.000000
# 6 0.000000 0.000000 0.000000 0.000000 0.000000 0.031615
#
#
# Mechanical properties :
#
#
# Convention : Reuss Voigt Hill
#
# Bulk Modulus (GPa) = 39.72386 50.09249 44.90818
# Shear Modulus (GPa) = 27.47221 30.13188 28.80204
#
# Velocity S-wave (km/s) = 3.69189 3.86648 3.78019
# Velocity P-wave (km/s) = 6.15484 6.69222 6.42914
#
# Compressibility (1/GPa) = 0.02517379
#
# Stress axis : x y z
#
# Youngs Moduli (GPa) = 41.28008 90.74548 53.84740
#
# Poissons Ratio (x) = 0.39888 0.21958
# Poissons Ratio (y) = 0.18145 0.31487
# Poissons Ratio (z) = 0.16834 0.53063
#
# Static dielectric constant tensor:
#      x y z
#    x 3.590960 0.000000 0.000000 
#    y 0.000000 3.851030 0.000000 
#    z 0.000000 0.000000 3.669270 
# 
# 
# High freq. dielectric constant tensor:
#      x y z
#    x 1.767400 0.000000 0.000000 
#    y 0.000000 1.803140 0.000000 
#    z 0.000000 0.000000 1.795370 
# 
# From -- ./inp_files/8198.got.cif
#   From: 2010.03.12/outbox.cif.g09.slc.cpg/sg57_5_cif.got.tgz:8198.got - 2010.04.16 15:48:40.
