data_PCOD8231285
_publ_section_title
;
Structure prediction by ZEFSAII (Michael W. Deem and Ramdas Pophale) SiO2 
 PCOD8231285
Probable space group: P B C M
;
_chemical_formula_sum "Si O2"
_cell_formula_units_Z 48
_cell_length_a 11.512931
_cell_length_b 23.325644
_cell_length_c 9.224745
_cell_angle_alpha 90.000000
_cell_angle_beta 90.000000
_cell_angle_gamma 90.000000
_cell_volume 2477.273259
_symmetry_space_group_name_H-M "P B C M"
_symmetry_group_IT_number 57
_symmetry_cell_setting 'orthorhombic'
loop_
_space_group_symop_operation_xyz
x,y,z
-x,-y,1/2+z
x,1/2-y,-z
-x,1/2+y,1/2-z
-x,-y,-z
x,y,1/2-z
-x,1/2+y,z
x,1/2-y,1/2+z
loop_
_atom_site_type_symbol
_atom_site_label
_atom_site_fract_x
_atom_site_fract_y
_atom_site_fract_z
Si Si1 0.448858 0.417879 0.585305
Si Si2 0.326334 0.303095 0.589613
Si Si3 0.895937 0.870090 0.921218
Si Si4 0.705194 0.087586 0.081095
Si Si5 0.135853 0.689248 0.422235
Si Si6 0.230424 0.464254 0.080635
O O1 0.439263 0.442407 0.750000
O O2 0.426360 0.350148 0.587435
O O3 0.577224 0.424793 0.515222
O O4 0.356710 0.449254 0.483578
O O5 0.373129 0.250000 0.500000
O O6 0.300869 0.280562 0.750000
O O7 0.206532 0.328238 0.525098
O O8 0.888436 0.882283 0.750000
O O9 0.015098 0.840443 0.967585
O O10 0.874865 0.930904 0.001531
O O11 0.685394 0.097794 0.250000
O O12 0.765354 0.145301 0.019895
O O13 0.788084 0.032434 0.054914
O O14 0.151589 0.750000 0.500000
O O15 0.140828 0.698741 0.250000
O O16 0.229791 0.448741 0.250000
#
# Coordination Sequence:
#
# PCOD8231285 Si02
#       6
#     8   8   8   8   8   8
#     4   9  18  34  52  72 104 142 173 207 262 317
#     4   9  17  28  45  69  95 127 166 208 253 299
#     4   9  19  35  53  74 103 137 169 209 265 315
#     4   9  19  35  54  76 106 141 171 208 260 312
#     4  10  21  38  57  77 105 141 177 211 253 306
#     4  10  19  32  54  82 105 130 172 219 259 304
#
# _framework density 19.376142999999999
#
# number of rings (size 3 to 8) (size 9 to 14) (size 15 to 20)
#    0.000    2.667    0.000    2.500    0.000    4.667 
#    0.000    3.333    0.000    0.000    0.000    0.000 
#    0.000    0.000    0.000    0.000    0.000    0.000 
#
# Total GULP energy -594989.182217 kJ/mol
# GULP energy per Si atom -12395.607963 kJ/mol
# Density = 1.933204 g / cm^3
# Si number density = 19.376143 Si / 1000 Ang^3
#
#
#
# Elastic Constant Matrix: (Units=GPa)
#
#
# Indices 1 2 3 4 5 6 
#
# 1 54.4895 34.9800 17.4618 0.0000 0.0000 0.0000
# 2 34.9800 123.0833 43.3843 0.0000 0.0000 0.0000
# 3 17.4618 43.3843 55.3767 0.0000 0.0000 0.0000
# 4 0.0000 0.0000 0.0000 31.9596 0.0000 0.0000
# 5 0.0000 0.0000 0.0000 0.0000 19.3077 0.0000
# 6 0.0000 0.0000 0.0000 0.0000 0.0000 21.3414
#
#
#
# Elastic Compliance Matrix: (Units=1/GPa)
#
#
# Indices 1 2 3 4 5 6 
#
# 1 0.022784 -0.005447 -0.002917 0.000000 0.000000 0.000000
# 2 -0.005447 0.012526 -0.008096 0.000000 0.000000 0.000000
# 3 -0.002917 -0.008096 0.025321 0.000000 0.000000 0.000000
# 4 0.000000 0.000000 0.000000 0.031289 0.000000 0.000000
# 5 0.000000 0.000000 0.000000 0.000000 0.051793 0.000000
# 6 0.000000 0.000000 0.000000 0.000000 0.000000 0.046857
#
#
# Mechanical properties :
#
#
# Convention : Reuss Voigt Hill
#
# Bulk Modulus (GPa) = 36.08704 47.17797 41.63250
# Shear Modulus (GPa) = 21.48442 23.66330 22.57386
#
# Velocity S-wave (km/s) = 3.33349 3.49844 3.41696
# Velocity P-wave (km/s) = 5.78629 6.38123 6.09103
#
# Compressibility (1/GPa) = 0.02771078
#
# Stress axis : x y z
#
# Youngs Moduli (GPa) = 43.89122 79.83243 39.49342
#
# Poissons Ratio (x) = 0.43484 0.11520
# Poissons Ratio (y) = 0.23907 0.31974
# Poissons Ratio (z) = 0.12803 0.64632
#
# Static dielectric constant tensor:
#      x y z
#    x 3.593000 0.000000 0.000000 
#    y 0.000000 3.570950 0.000000 
#    z 0.000000 0.000000 3.319390 
# 
# 
# High freq. dielectric constant tensor:
#      x y z
#    x 1.748650 0.000000 0.000000 
#    y 0.000000 1.759550 0.000000 
#    z 0.000000 0.000000 1.729410 
# 
# From -- ./inp_files/3170.got.cif
#   From: 2010.03.12/outbox.cif.g09.slc.cpg/sg57_2_cif.got.tgz:3170.got - 2010.04.16 15:48:40.
