data_PCOD8231853
_publ_section_title
;
Structure prediction by ZEFSAII (Michael W. Deem and Ramdas Pophale) SiO2 
 PCOD8231853
Probable space group: P B C M
;
_chemical_formula_sum "Si O2"
_cell_formula_units_Z 48
_cell_length_a 16.584436
_cell_length_b 18.066885
_cell_length_c 8.617956
_cell_angle_alpha 90.000000
_cell_angle_beta 90.000000
_cell_angle_gamma 90.000000
_cell_volume 2582.190383
_symmetry_space_group_name_H-M "P B C M"
_symmetry_group_IT_number 57
_symmetry_cell_setting 'orthorhombic'
loop_
_space_group_symop_operation_xyz
x,y,z
-x,-y,1/2+z
x,1/2-y,-z
-x,1/2+y,1/2-z
-x,-y,-z
x,y,1/2-z
-x,1/2+y,z
x,1/2-y,1/2+z
loop_
_atom_site_type_symbol
_atom_site_label
_atom_site_fract_x
_atom_site_fract_y
_atom_site_fract_z
Si Si1 0.759881 0.953487 0.071454
Si Si2 0.162702 0.828711 0.433469
Si Si3 0.916930 0.470442 0.935204
Si Si4 0.679287 0.392982 0.929409
Si Si5 0.512122 0.081406 0.566318
Si Si6 0.644764 0.830884 0.434263
O O1 0.775272 0.937313 0.250000
O O2 0.718567 0.880778 0.997183
O O3 0.846604 0.974931 0.998665
O O4 0.697457 0.020448 0.049775
O O5 0.135252 0.750000 0.500000
O O6 0.154844 0.829433 0.250000
O O7 0.100938 0.888289 0.504341
O O8 0.254865 0.844291 0.481357
O O9 0.917380 0.468389 0.750000
O O10 0.000000 0.500000 0.000000
O O11 0.681010 0.369233 0.750000
O O12 0.591731 0.378570 0.001033
O O13 0.517192 0.075270 0.750000
O O14 0.439057 0.133426 0.510628
O O15 0.500000 0.000000 0.500000
O O16 0.655329 0.750000 0.500000
O O17 0.648118 0.829086 0.250000
#
# Coordination Sequence:
#
# PCOD8231853 Si02
#       6
#     8   8   8   8   8   8
#     4   8  16  34  56  76 105 143 179 224 278 330
#     4  11  22  38  59  87 119 152 191 236 291 349
#     4  10  20  37  62  89 117 151 190 233 284 343
#     4  10  19  35  57  81 110 146 187 233 286 340
#     4  11  21  34  54  79 110 148 195 240 285 339
#     4  10  21  37  53  76 108 145 186 232 282 331
#
# _framework density 18.58887
#
# number of rings (size 3 to 8) (size 9 to 14) (size 15 to 20)
#    0.000    2.000    1.667    4.000    0.000    2.000 
#    0.000    4.167    0.000    2.000    0.000    0.000 
#    0.000    0.000    0.000    0.000    0.000    0.000 
#
# Total GULP energy -595138.565560 kJ/mol
# GULP energy per Si atom -12398.720116 kJ/mol
# Density = 1.854656 g / cm^3
# Si number density = 18.588870 Si / 1000 Ang^3
#
#
#
# Elastic Constant Matrix: (Units=GPa)
#
#
# Indices 1 2 3 4 5 6 
#
# 1 151.0287 76.4006 44.3934 0.0000 0.0000 0.0000
# 2 76.4006 137.3800 40.5694 0.0000 0.0000 0.0000
# 3 44.3934 40.5694 87.6990 0.0000 0.0000 0.0000
# 4 0.0000 0.0000 0.0000 31.8478 0.0000 0.0000
# 5 0.0000 0.0000 0.0000 0.0000 29.8890 0.0000
# 6 0.0000 0.0000 0.0000 0.0000 0.0000 7.7760
#
#
#
# Elastic Compliance Matrix: (Units=1/GPa)
#
#
# Indices 1 2 3 4 5 6 
#
# 1 0.009780 -0.004606 -0.002820 0.000000 0.000000 0.000000
# 2 -0.004606 0.010600 -0.002572 0.000000 0.000000 0.000000
# 3 -0.002820 -0.002572 0.014020 0.000000 0.000000 0.000000
# 4 0.000000 0.000000 0.000000 0.031399 0.000000 0.000000
# 5 0.000000 0.000000 0.000000 0.000000 0.033457 0.000000
# 6 0.000000 0.000000 0.000000 0.000000 0.000000 0.128601
#
#
# Mechanical properties :
#
#
# Convention : Reuss Voigt Hill
#
# Bulk Modulus (GPa) = 69.42485 77.64827 73.53656
# Shear Modulus (GPa) = 19.78974 28.21884 24.00429
#
# Velocity S-wave (km/s) = 3.26636 3.90044 3.59740
# Velocity P-wave (km/s) = 7.18708 7.88332 7.54324
#
# Compressibility (1/GPa) = 0.01440406
#
# Stress axis : x y z
#
# Youngs Moduli (GPa) = 102.24573 94.33679 71.32733
#
# Poissons Ratio (x) = 0.43455 0.20114
# Poissons Ratio (y) = 0.47098 0.18345
# Poissons Ratio (z) = 0.28833 0.24263
#
# Static dielectric constant tensor:
#      x y z
#    x 3.661710 0.000000 0.000000 
#    y 0.000000 3.599120 0.000000 
#    z 0.000000 0.000000 3.341290 
# 
# 
# High freq. dielectric constant tensor:
#      x y z
#    x 1.722170 0.000000 0.000000 
#    y 0.000000 1.716790 0.000000 
#    z 0.000000 0.000000 1.716220 
# 
# From -- ./inp_files/6665.got.cif
#   From: 2010.03.12/outbox.cif.g09.slc.cpg/sg57_4_cif.got.tgz:6665.got - 2010.04.16 15:48:40.
