data_PCOD8231492
_publ_section_title
;
Structure prediction by ZEFSAII (Michael W. Deem and Ramdas Pophale) SiO2 
 PCOD8231492
Probable space group: P B C M
;
_chemical_formula_sum "Si O2"
_cell_formula_units_Z 64
_cell_length_a 20.402170
_cell_length_b 19.183042
_cell_length_c 8.869996
_cell_angle_alpha 90.000000
_cell_angle_beta 90.000000
_cell_angle_gamma 90.000000
_cell_volume 3471.500752
_symmetry_space_group_name_H-M "P B C M"
_symmetry_group_IT_number 57
_symmetry_cell_setting 'orthorhombic'
loop_
_space_group_symop_operation_xyz
x,y,z
-x,-y,1/2+z
x,1/2-y,-z
-x,1/2+y,1/2-z
-x,-y,-z
x,y,1/2-z
-x,1/2+y,z
x,1/2-y,1/2+z
loop_
_atom_site_type_symbol
_atom_site_label
_atom_site_fract_x
_atom_site_fract_y
_atom_site_fract_z
Si Si1 0.496659 0.675105 0.927022
Si Si2 0.138092 0.673959 0.572130
Si Si3 0.854730 0.673912 0.928040
Si Si4 0.387371 0.427300 0.427572
Si Si5 0.759674 0.427804 0.575842
Si Si6 0.390560 0.914626 0.578015
Si Si7 0.003561 0.177052 0.577282
Si Si8 0.250778 0.425750 0.571630
O O1 0.496088 0.685432 0.750000
O O2 0.555164 0.624251 0.978781
O O3 0.507165 0.750000 0.000000
O O4 0.428406 0.640517 0.975322
O O5 0.141178 0.750000 0.500000
O O6 0.153131 0.678085 0.750000
O O7 0.191942 0.628754 0.489839
O O8 0.065739 0.638589 0.540185
O O9 0.840342 0.678008 0.750000
O O10 0.927223 0.639006 0.961579
O O11 0.851318 0.750000 0.000000
O O12 0.801181 0.627987 0.008687
O O13 0.372765 0.424478 0.250000
O O14 0.406724 0.506243 0.473735
O O15 0.322233 0.403370 0.513218
O O16 0.775560 0.442989 0.750000
O O17 0.686157 0.399107 0.557246
O O18 0.769463 0.498228 0.483885
O O19 0.412742 0.903291 0.750000
O O20 0.002595 0.250000 0.500000
O O21 0.004082 0.196579 0.750000
O O22 0.250445 0.423861 0.750000
#
# Coordination Sequence:
#
# PCOD8231492 Si02
#       8
#     8   8   8   8   8   8   8   8
#     4  11  23  37  56  82 112 141 173 215 263 310
#     4  10  19  33  54  81 109 140 180 224 269 321
#     4  10  19  34  55  79 108 142 179 222 269 319
#     4   9  20  39  59  79 105 141 179 217 261 315
#     4  10  21  38  57  79 108 143 180 223 270 317
#     4   9  19  37  59  79 103 136 177 219 263 315
#     4   8  16  30  50  75 104 138 177 219 265 317
#     4  11  22  36  56  82 109 141 179 221 267 320
#
# _framework density 18.435829999999999
#
# number of rings (size 3 to 8) (size 9 to 14) (size 15 to 20)
#    0.000    2.250    0.000    3.750    0.000    5.500 
#    0.000    1.875    0.000    0.000    0.000    0.000 
#    0.000    0.000    0.000    0.000    0.000    0.000 
#
# Total GULP energy -793267.373559 kJ/mol
# GULP energy per Si atom -12394.802712 kJ/mol
# Density = 1.839387 g / cm^3
# Si number density = 18.435830 Si / 1000 Ang^3
#
#
#
# Elastic Constant Matrix: (Units=GPa)
#
#
# Indices 1 2 3 4 5 6 
#
# 1 121.8348 60.6072 56.9774 0.0000 0.0000 0.0000
# 2 60.6072 71.5956 32.6449 0.0000 0.0000 0.0000
# 3 56.9774 32.6449 86.0949 0.0000 0.0000 0.0000
# 4 0.0000 0.0000 0.0000 30.7308 0.0000 0.0000
# 5 0.0000 0.0000 0.0000 0.0000 1646.0315 0.0000
# 6 0.0000 0.0000 0.0000 0.0000 0.0000 41.8777
#
#
#
# Elastic Compliance Matrix: (Units=1/GPa)
#
#
# Indices 1 2 3 4 5 6 
#
# 1 0.017112 -0.011271 -0.007051 0.000000 0.000000 0.000000
# 2 -0.011271 0.024310 -0.001759 0.000000 0.000000 0.000000
# 3 -0.007051 -0.001759 0.016948 0.000000 0.000000 0.000000
# 4 0.000000 0.000000 0.000000 0.032541 0.000000 0.000000
# 5 0.000000 0.000000 0.000000 0.000000 0.000608 0.000000
# 6 0.000000 0.000000 0.000000 0.000000 0.000000 0.023879
#
#
# Mechanical properties :
#
#
# Convention : Reuss Voigt Hill
#
# Bulk Modulus (GPa) = 54.91714 64.44269 59.67991
# Shear Modulus (GPa) = 30.93508 352.34773 191.64141
#
# Velocity S-wave (km/s) = 4.10077 13.83966 10.20667
# Velocity P-wave (km/s) = 7.23012 17.04149 13.08983
#
# Compressibility (1/GPa) = 0.01820925
#
# Stress axis : x y z
#
# Youngs Moduli (GPa) = 58.43861 41.13513 59.00245
#
# Poissons Ratio (x) = 0.46362 0.41603
# Poissons Ratio (y) = 0.65864 0.10378
# Poissons Ratio (z) = 0.41206 0.07235
#
# Static dielectric constant tensor:
#      x y z
#    x 3.837590 0.000000 0.000000 
#    y 0.000000 3.177900 0.000000 
#    z 0.000000 0.000000 3.497310 
# 
# 
# High freq. dielectric constant tensor:
#      x y z
#    x 1.733710 0.000000 0.000000 
#    y 0.000000 1.692790 0.000000 
#    z 0.000000 0.000000 1.726290 
# 
# From -- ./inp_files/7205.got.cif
#   From: 2010.03.12/outbox.cif.g09.slc.cpg/sg57_4_cif.got.tgz:7205.got - 2010.04.16 15:48:40.
