data_PCOD8231412
_publ_section_title
;
Structure prediction by ZEFSAII (Michael W. Deem and Ramdas Pophale) SiO2 
 PCOD8231412
Probable space group: P B C M
;
_chemical_formula_sum "Si O2"
_cell_formula_units_Z 64
_cell_length_a 19.943659
_cell_length_b 19.729545
_cell_length_c 8.851892
_cell_angle_alpha 90.000000
_cell_angle_beta 90.000000
_cell_angle_gamma 90.000000
_cell_volume 3483.036425
_symmetry_space_group_name_H-M "P B C M"
_symmetry_group_IT_number 57
_symmetry_cell_setting 'orthorhombic'
loop_
_space_group_symop_operation_xyz
x,y,z
-x,-y,1/2+z
x,1/2-y,-z
-x,1/2+y,1/2-z
-x,-y,-z
x,y,1/2-z
-x,1/2+y,z
x,1/2-y,1/2+z
loop_
_atom_site_type_symbol
_atom_site_label
_atom_site_fract_x
_atom_site_fract_y
_atom_site_fract_z
Si Si1 0.022884 0.320849 0.926052
Si Si2 0.824673 0.043978 0.574565
Si Si3 0.446744 0.048428 0.427298
Si Si4 0.284525 0.316078 0.082580
Si Si5 0.134478 0.820581 0.574070
Si Si6 0.703258 0.549062 0.423306
Si Si7 0.556113 0.815537 0.419266
Si Si8 0.939381 0.541777 0.929803
O O1 0.041662 0.320066 0.750000
O O2 0.944142 0.332984 0.950903
O O3 0.045526 0.250000 0.000000
O O4 0.061876 0.381531 0.008487
O O5 0.847015 0.043831 0.750000
O O6 0.825846 0.119763 0.509828
O O7 0.749014 0.017008 0.554940
O O8 0.871394 0.994720 0.477821
O O9 0.451618 0.041086 0.250000
O O10 0.371154 0.032033 0.486249
O O11 0.467969 0.122916 0.478183
O O12 0.500000 0.000000 0.500000
O O13 0.254119 0.316965 0.250000
O O14 0.364170 0.310510 0.085423
O O15 0.253866 0.250000 0.000000
O O16 0.263016 0.386174 0.003968
O O17 0.157212 0.750000 0.500000
O O18 0.153284 0.819884 0.750000
O O19 0.696720 0.570848 0.250000
O O20 0.525103 0.750000 0.500000
O O21 0.527155 0.822524 0.250000
O O22 0.946319 0.542091 0.750000
O O23 0.000000 0.500000 0.000000
#
# Coordination Sequence:
#
# PCOD8231412 Si02
#       8
#     8   8   8   8   8   8   8   8
#     4  10  20  35  55  80 110 143 180 224 271 319
#     4  11  22  37  57  80 109 143 179 222 270 319
#     4  10  19  33  53  78 107 139 177 219 267 319
#     4   9  16  27  47  72 100 134 172 214 255 303
#     4  10  20  34  55  81 108 138 177 222 269 318
#     4   9  20  36  53  76 107 142 178 219 266 318
#     4   9  16  27  45  72 102 133 169 210 257 306
#     4  12  23  36  55  80 109 142 178 220 267 316
#
# _framework density 18.374770999999999
#
# number of rings (size 3 to 8) (size 9 to 14) (size 15 to 20)
#    0.000    2.000    1.250    3.375    0.000    5.500 
#    0.000    0.625    0.000    3.750    0.000    3.500 
#    0.000    0.000    0.000    0.000    0.000    0.000 
#
# Total GULP energy -793666.982967 kJ/mol
# GULP energy per Si atom -12401.046609 kJ/mol
# Density = 1.833295 g / cm^3
# Si number density = 18.374771 Si / 1000 Ang^3
#
#
#
# Elastic Constant Matrix: (Units=GPa)
#
#
# Indices 1 2 3 4 5 6 
#
# 1 52.5929 47.6934 33.2086 0.0000 0.0000 0.0000
# 2 47.6934 159.5383 66.6647 0.0000 0.0000 0.0000
# 3 33.2086 66.6647 126.6589 0.0000 0.0000 0.0000
# 4 0.0000 0.0000 0.0000 41.8630 0.0000 0.0000
# 5 0.0000 0.0000 0.0000 0.0000 19.0371 0.0000
# 6 0.0000 0.0000 0.0000 0.0000 0.0000 22.8538
#
#
#
# Elastic Compliance Matrix: (Units=1/GPa)
#
#
# Indices 1 2 3 4 5 6 
#
# 1 0.027360 -0.006642 -0.003677 0.000000 0.000000 0.000000
# 2 -0.006642 0.009648 -0.003336 0.000000 0.000000 0.000000
# 3 -0.003677 -0.003336 0.010615 0.000000 0.000000 0.000000
# 4 0.000000 0.000000 0.000000 0.023887 0.000000 0.000000
# 5 0.000000 0.000000 0.000000 0.000000 0.052529 0.000000
# 6 0.000000 0.000000 0.000000 0.000000 0.000000 0.043756
#
#
# Mechanical properties :
#
#
# Convention : Reuss Voigt Hill
#
# Bulk Modulus (GPa) = 49.23525 70.43596 59.83561
# Shear Modulus (GPa) = 24.76736 29.49899 27.13318
#
# Velocity S-wave (km/s) = 3.67536 4.01110 3.84689
# Velocity P-wave (km/s) = 6.69808 7.73745 7.23645
#
# Compressibility (1/GPa) = 0.02031065
#
# Stress axis : x y z
#
# Youngs Moduli (GPa) = 36.55028 103.64829 94.20239
#
# Poissons Ratio (x) = 0.68848 0.34640
# Poissons Ratio (y) = 0.24278 0.31430
# Poissons Ratio (z) = 0.13440 0.34582
#
# Static dielectric constant tensor:
#      x y z
#    x 3.055350 0.000000 0.000000 
#    y 0.000000 3.517930 0.000000 
#    z 0.000000 0.000000 3.600430 
# 
# 
# High freq. dielectric constant tensor:
#      x y z
#    x 1.665490 0.000000 0.000000 
#    y 0.000000 1.723600 0.000000 
#    z 0.000000 0.000000 1.730080 
# 
# From -- ./inp_files/8633.got.cif
#   From: 2010.03.12/outbox.cif.g09.slc.cpg/sg57_5_cif.got.tgz:8633.got - 2010.04.16 15:48:40.
