data_PCOD8231370
_publ_section_title
;
Structure prediction by ZEFSAII (Michael W. Deem and Ramdas Pophale) SiO2 
 PCOD8231370
Probable space group: P B C M
;
_chemical_formula_sum "Si O2"
_cell_formula_units_Z 40
_cell_length_a 10.151758
_cell_length_b 22.692445
_cell_length_c 9.048176
_cell_angle_alpha 90.000000
_cell_angle_beta 90.000000
_cell_angle_gamma 90.000000
_cell_volume 2084.412110
_symmetry_space_group_name_H-M "P B C M"
_symmetry_group_IT_number 57
_symmetry_cell_setting 'orthorhombic'
loop_
_space_group_symop_operation_xyz
x,y,z
-x,-y,1/2+z
x,1/2-y,-z
-x,1/2+y,1/2-z
-x,-y,-z
x,y,1/2-z
-x,1/2+y,z
x,1/2-y,1/2+z
loop_
_atom_site_type_symbol
_atom_site_label
_atom_site_fract_x
_atom_site_fract_y
_atom_site_fract_z
Si Si1 0.259613 0.868621 0.074650
Si Si2 0.250177 0.395947 0.420357
Si Si3 0.482812 0.192533 0.919621
Si Si4 0.011368 0.312913 0.074648
Si Si5 0.642458 0.005042 0.574356
O O1 0.260791 0.867808 0.250000
O O2 0.375875 0.826553 0.014121
O O3 0.121840 0.843475 0.014388
O O4 0.286102 0.935107 0.021168
O O5 0.231602 0.414734 0.250000
O O6 0.385052 0.361244 0.443818
O O7 0.259171 0.453669 0.521532
O O8 0.129445 0.355726 0.473973
O O9 0.494642 0.209627 0.750000
O O10 0.427743 0.250000 0.000000
O O11 0.009290 0.303667 0.250000
O O12 0.032050 0.250000 0.000000
O O13 0.623185 0.002934 0.750000
O O14 0.500000 0.000000 0.500000
#
# Coordination Sequence:
#
# PCOD8231370 Si02
#       5
#     8   8   8   8   8
#     4   9  19  36  56  79 112 149 181 229 287 329
#     4  10  21  37  56  81 114 149 184 229 282 330
#     4  10  19  33  52  76 108 142 183 230 275 325
#     4  10  21  38  59  82 115 152 186 229 281 335
#     4  11  21  37  60  84 114 148 189 235 285 337
#
# _framework density 19.190062999999999
#
# number of rings (size 3 to 8) (size 9 to 14) (size 15 to 20)
#    0.000    2.000    2.000    1.800    0.000    2.400 
#    0.000    2.000    0.000    0.000    0.000    0.000 
#    0.000    0.000    0.000    0.000    0.000    0.000 
#
# Total GULP energy -496049.006729 kJ/mol
# GULP energy per Si atom -12401.225168 kJ/mol
# Density = 1.914639 g / cm^3
# Si number density = 19.190063 Si / 1000 Ang^3
#
#
#
# Elastic Constant Matrix: (Units=GPa)
#
#
# Indices 1 2 3 4 5 6 
#
# 1 104.8004 21.4111 19.2739 0.0000 0.0000 0.0000
# 2 21.4111 110.5969 37.6955 0.0000 0.0000 0.0000
# 3 19.2739 37.6955 44.2509 0.0000 0.0000 0.0000
# 4 0.0000 0.0000 0.0000 35.6542 0.0000 0.0000
# 5 0.0000 0.0000 0.0000 0.0000 14.8638 0.0000
# 6 0.0000 0.0000 0.0000 0.0000 0.0000 8.7751
#
#
#
# Elastic Compliance Matrix: (Units=1/GPa)
#
#
# Indices 1 2 3 4 5 6 
#
# 1 0.010407 -0.000662 -0.003969 0.000000 0.000000 0.000000
# 2 -0.000662 0.012783 -0.010601 0.000000 0.000000 0.000000
# 3 -0.003969 -0.010601 0.033358 0.000000 0.000000 0.000000
# 4 0.000000 0.000000 0.000000 0.028047 0.000000 0.000000
# 5 0.000000 0.000000 0.000000 0.000000 0.067278 0.000000
# 6 0.000000 0.000000 0.000000 0.000000 0.000000 0.113959
#
#
# Mechanical properties :
#
#
# Convention : Reuss Voigt Hill
#
# Bulk Modulus (GPa) = 38.33782 46.26767 42.30274
# Shear Modulus (GPa) = 16.39391 23.94312 20.16852
#
# Velocity S-wave (km/s) = 2.92600 3.53609 3.24541
# Velocity P-wave (km/s) = 5.60684 6.39018 6.01128
#
# Compressibility (1/GPa) = 0.02608390
#
# Stress axis : x y z
#
# Youngs Moduli (GPa) = 96.08791 78.22716 29.97792
#
# Poissons Ratio (x) = 0.05179 0.11898
# Poissons Ratio (y) = 0.06361 0.31780
# Poissons Ratio (z) = 0.38137 0.82930
#
# Static dielectric constant tensor:
#      x y z
#    x 3.740990 0.000000 0.000000 
#    y 0.000000 3.630190 0.000000 
#    z 0.000000 0.000000 3.229120 
# 
# 
# High freq. dielectric constant tensor:
#      x y z
#    x 1.754680 0.000000 0.000000 
#    y 0.000000 1.759630 0.000000 
#    z 0.000000 0.000000 1.719880 
# 
# From -- ./inp_files/1512.got.cif
#   From: 2010.03.12/outbox.cif.g09.slc.cpg/sg57_1_cif.got.tgz:1512.got - 2010.04.16 15:48:40.
