data_PCOD8231346
_publ_section_title
;
Structure prediction by ZEFSAII (Michael W. Deem and Ramdas Pophale) SiO2 
 PCOD8231346
Probable space group: P B C M
;
_chemical_formula_sum "Si O2"
_cell_formula_units_Z 56
_cell_length_a 12.467604
_cell_length_b 9.803931
_cell_length_c 27.232197
_cell_angle_alpha 90.000000
_cell_angle_beta 90.000000
_cell_angle_gamma 90.000000
_cell_volume 3328.633087
_symmetry_space_group_name_H-M "P B C M"
_symmetry_group_IT_number 57
_symmetry_cell_setting 'orthorhombic'
loop_
_space_group_symop_operation_xyz
x,y,z
-x,-y,1/2+z
x,1/2-y,-z
-x,1/2+y,1/2-z
-x,-y,-z
x,y,1/2-z
-x,1/2+y,z
x,1/2-y,1/2+z
loop_
_atom_site_type_symbol
_atom_site_label
_atom_site_fract_x
_atom_site_fract_y
_atom_site_fract_z
Si Si1 0.413553 0.807386 0.804177
Si Si2 0.283064 0.513704 0.903934
Si Si3 0.887876 0.102288 0.445542
Si Si4 0.461435 0.120067 0.033947
Si Si5 0.331073 0.676205 0.094433
Si Si6 0.612660 0.501313 0.195774
Si Si7 0.931450 0.098075 0.560392
O O1 0.364991 0.840813 0.750000
O O2 0.328659 0.848442 0.846544
O O3 0.441821 0.647413 0.808790
O O4 0.523210 0.885994 0.812699
O O5 0.350212 0.411100 0.938141
O O6 0.316471 0.666237 0.919148
O O7 0.298717 0.480602 0.846365
O O8 0.156335 0.502397 0.913073
O O9 0.763145 0.085740 0.430170
O O10 0.899862 0.101537 0.503599
O O11 0.932598 0.244098 0.421833
O O12 0.955001 0.971875 0.426433
O O13 0.552743 0.136584 0.074776
O O14 0.441813 0.250000 0.000000
O O15 0.500000 0.000000 0.000000
O O16 0.665633 0.518507 0.250000
#
# Coordination Sequence:
#
# PCOD8231346 Si02
#       7
#     8   8   8   8   8   8   8
#     4   9  17  30  48  71  96 125 162 197 235 289
#     4  10  19  34  50  71  99 131 161 198 241 292
#     4   9  18  33  51  67  91 126 165 202 238 280
#     4  12  22  32  45  70 103 133 162 189 235 291
#     4  10  19  33  52  69  98 134 159 194 249 289
#     4   9  17  30  49  71  96 126 161 197 238 287
#     4   9  18  34  50  68  93 125 165 202 238 280
#
# _framework density 16.823723000000001
#
# number of rings (size 3 to 8) (size 9 to 14) (size 15 to 20)
#    0.000    2.286    2.857    0.857    2.000    0.000 
#    7.714    0.000    0.000    0.857    0.000    0.000 
#    0.000    0.000    0.000    0.000    0.000    0.000 
#
# Total GULP energy -694080.784128 kJ/mol
# GULP energy per Si atom -12394.299717 kJ/mol
# Density = 1.678543 g / cm^3
# Si number density = 16.823723 Si / 1000 Ang^3
#
#
#
# Elastic Constant Matrix: (Units=GPa)
#
#
# Indices 1 2 3 4 5 6 
#
# 1 70.4210 25.3294 36.0554 0.0000 0.0000 0.0000
# 2 25.3294 57.4146 32.8595 0.0000 0.0000 0.0000
# 3 36.0554 32.8595 83.9282 0.0000 0.0000 0.0000
# 4 0.0000 0.0000 0.0000 20.2809 0.0000 0.0000
# 5 0.0000 0.0000 0.0000 0.0000 18.8260 0.0000
# 6 0.0000 0.0000 0.0000 0.0000 0.0000 27.8979
#
#
#
# Elastic Compliance Matrix: (Units=1/GPa)
#
#
# Indices 1 2 3 4 5 6 
#
# 1 0.019190 -0.004830 -0.006353 0.000000 0.000000 0.000000
# 2 -0.004830 0.023663 -0.007189 0.000000 0.000000 0.000000
# 3 -0.006353 -0.007189 0.017459 0.000000 0.000000 0.000000
# 4 0.000000 0.000000 0.000000 0.049307 0.000000 0.000000
# 5 0.000000 0.000000 0.000000 0.000000 0.053118 0.000000
# 6 0.000000 0.000000 0.000000 0.000000 0.000000 0.035845
#
#
# Mechanical properties :
#
#
# Convention : Reuss Voigt Hill
#
# Bulk Modulus (GPa) = 42.43241 44.47248 43.45245
# Shear Modulus (GPa) = 20.56060 21.23558 20.89809
#
# Velocity S-wave (km/s) = 3.49968 3.55666 3.52828
# Velocity P-wave (km/s) = 6.45034 6.58469 6.51786
#
# Compressibility (1/GPa) = 0.02356689
#
# Stress axis : x y z
#
# Youngs Moduli (GPa) = 52.10932 42.26060 57.27702
#
# Poissons Ratio (x) = 0.20413 0.36389
# Poissons Ratio (y) = 0.25170 0.41179
# Poissons Ratio (z) = 0.33105 0.30383
#
# Static dielectric constant tensor:
#      x y z
#    x 3.196390 0.000000 0.000000 
#    y 0.000000 3.289790 0.000000 
#    z 0.000000 0.000000 3.318960 
# 
# 
# High freq. dielectric constant tensor:
#      x y z
#    x 1.620460 0.000000 0.000000 
#    y 0.000000 1.647990 0.000000 
#    z 0.000000 0.000000 1.647010 
# 
# From -- ./inp_files/27234.got.cif
#   From: 2010.03.12/outbox.cif.g09.slc.cpg/sg57_14_cif.got.tgz:27234.got - 2010.04.16 15:48:40.
