data_PCOD8231225
_publ_section_title
;
Structure prediction by ZEFSAII (Michael W. Deem and Ramdas Pophale) SiO2 
 PCOD8231225
Probable space group: P B C M
;
_chemical_formula_sum "Si O2"
_cell_formula_units_Z 40
_cell_length_a 12.654184
_cell_length_b 19.790063
_cell_length_c 8.926281
_cell_angle_alpha 90.000000
_cell_angle_beta 90.000000
_cell_angle_gamma 90.000000
_cell_volume 2235.382652
_symmetry_space_group_name_H-M "P B C M"
_symmetry_group_IT_number 57
_symmetry_cell_setting 'orthorhombic'
loop_
_space_group_symop_operation_xyz
x,y,z
-x,-y,1/2+z
x,1/2-y,-z
-x,1/2+y,1/2-z
-x,-y,-z
x,y,1/2-z
-x,1/2+y,z
x,1/2-y,1/2+z
loop_
_atom_site_type_symbol
_atom_site_label
_atom_site_fract_x
_atom_site_fract_y
_atom_site_fract_z
Si Si1 0.619251 0.566494 0.423056
Si Si2 0.375940 0.571302 0.076286
Si Si3 0.774158 0.177536 0.575597
Si Si4 0.211371 0.322935 0.573583
Si Si5 0.992703 0.677632 0.575270
O O1 0.634179 0.546513 0.250000
O O2 0.656314 0.503033 0.521097
O O3 0.498572 0.585666 0.457895
O O4 0.689304 0.630634 0.468121
O O5 0.348540 0.577281 0.250000
O O6 0.311072 0.626801 0.987923
O O7 0.761364 0.250000 0.500000
O O8 0.753435 0.188395 0.750000
O O9 0.891497 0.145076 0.548455
O O10 0.230677 0.250000 0.500000
O O11 0.198202 0.314153 0.750000
O O12 0.105497 0.359760 0.506631
O O13 0.996617 0.750000 0.500000
O O14 0.966796 0.683931 0.750000
#
# Coordination Sequence:
#
# PCOD8231225 Si02
#       5
#     8   8   8   8   8
#     4   9  20  37  53  73 102 135 169 207 253 301
#     4  10  20  35  55  76 100 133 171 209 253 303
#     4  10  20  34  53  77 105 134 167 209 251 296
#     4  10  19  32  52  76 103 132 165 206 249 296
#     4   9  17  30  49  73 101 132 165 202 248 297
#
# _framework density 17.894027999999999
#
# number of rings (size 3 to 8) (size 9 to 14) (size 15 to 20)
#    0.000    2.400    0.000    3.600    0.000    5.600 
#    0.000    3.000    0.000    0.000    0.000    0.000 
#    0.000    0.000    0.000    0.000    0.000    0.000 
#
# Total GULP energy -495834.858117 kJ/mol
# GULP energy per Si atom -12395.871453 kJ/mol
# Density = 1.785330 g / cm^3
# Si number density = 17.894028 Si / 1000 Ang^3
#
#
#
# Elastic Constant Matrix: (Units=GPa)
#
#
# Indices 1 2 3 4 5 6 
#
# 1 122.4791 75.1208 68.2735 0.0000 0.0000 0.0000
# 2 75.1208 90.8302 59.5410 0.0000 0.0000 0.0000
# 3 68.2735 59.5410 116.8950 0.0000 0.0000 0.0000
# 4 0.0000 0.0000 0.0000 30.8453 0.0000 0.0000
# 5 0.0000 0.0000 0.0000 0.0000 42.2097 0.0000
# 6 0.0000 0.0000 0.0000 0.0000 0.0000 19.4838
#
#
#
# Elastic Compliance Matrix: (Units=1/GPa)
#
#
# Indices 1 2 3 4 5 6 
#
# 1 0.017953 -0.011972 -0.004388 0.000000 0.000000 0.000000
# 2 -0.011972 0.024512 -0.005493 0.000000 0.000000 0.000000
# 3 -0.004388 -0.005493 0.013915 0.000000 0.000000 0.000000
# 4 0.000000 0.000000 0.000000 0.032420 0.000000 0.000000
# 5 0.000000 0.000000 0.000000 0.000000 0.023691 0.000000
# 6 0.000000 0.000000 0.000000 0.000000 0.000000 0.051325
#
#
# Mechanical properties :
#
#
# Convention : Reuss Voigt Hill
#
# Bulk Modulus (GPa) = 78.89540 81.78611 80.34076
# Shear Modulus (GPa) = 23.61318 26.99237 25.30278
#
# Velocity S-wave (km/s) = 3.63659 3.88810 3.76444
# Velocity P-wave (km/s) = 7.86251 8.12167 7.99314
#
# Compressibility (1/GPa) = 0.01267501
#
# Stress axis : x y z
#
# Youngs Moduli (GPa) = 55.69959 40.79706 71.86394
#
# Poissons Ratio (x) = 0.48842 0.31533
# Poissons Ratio (y) = 0.66684 0.39473
# Poissons Ratio (z) = 0.24440 0.22409
#
# Static dielectric constant tensor:
#      x y z
#    x 3.980380 0.000000 0.000000 
#    y 0.000000 3.064140 0.000000 
#    z 0.000000 0.000000 3.469510 
# 
# 
# High freq. dielectric constant tensor:
#      x y z
#    x 1.707590 0.000000 0.000000 
#    y 0.000000 1.661740 0.000000 
#    z 0.000000 0.000000 1.709890 
# 
# From -- ./inp_files/2891.got.cif
#   From: 2010.03.12/outbox.cif.g09.slc.cpg/sg57_2_cif.got.tgz:2891.got - 2010.04.16 15:48:40.
