data_PCOD8231495
_publ_section_title
;
Structure prediction by ZEFSAII (Michael W. Deem and Ramdas Pophale) SiO2 
 PCOD8231495
Probable space group: P B C M
;
_chemical_formula_sum "Si O2"
_cell_formula_units_Z 48
_cell_length_a 31.102689
_cell_length_b 9.118827
_cell_length_c 8.684887
_cell_angle_alpha 90.000000
_cell_angle_beta 90.000000
_cell_angle_gamma 90.000000
_cell_volume 2463.208000
_symmetry_space_group_name_H-M "P B C M"
_symmetry_group_IT_number 57
_symmetry_cell_setting 'orthorhombic'
loop_
_space_group_symop_operation_xyz
x,y,z
-x,-y,1/2+z
x,1/2-y,-z
-x,1/2+y,1/2-z
-x,-y,-z
x,y,1/2-z
-x,1/2+y,z
x,1/2-y,1/2+z
loop_
_atom_site_type_symbol
_atom_site_label
_atom_site_fract_x
_atom_site_fract_y
_atom_site_fract_z
Si Si1 0.460548 0.588691 0.932349
Si Si2 0.377080 0.409960 0.568437
Si Si3 0.039220 0.410308 0.567812
Si Si4 0.884769 0.411282 0.929642
Si Si5 0.295152 0.912390 0.431865
Si Si6 0.210242 0.908202 0.927747
O O1 0.464901 0.596987 0.750000
O O2 0.417081 0.508238 0.985057
O O3 0.460170 0.750000 0.000000
O O4 0.500000 0.500000 0.000000
O O5 0.382043 0.250000 0.500000
O O6 0.375673 0.394830 0.750000
O O7 0.333796 0.486871 0.505781
O O8 0.036682 0.250000 0.500000
O O9 0.035435 0.404461 0.750000
O O10 0.084121 0.481464 0.520230
O O11 0.000000 0.500000 0.500000
O O12 0.897287 0.402765 0.750000
O O13 0.836757 0.481081 0.950091
O O14 0.888693 0.250000 0.000000
O O15 0.299819 0.750000 0.500000
O O16 0.296342 0.900884 0.250000
O O17 0.250054 0.988406 0.486359
O O18 0.222589 0.894840 0.750000
O O19 0.205894 0.750000 0.000000
#
# Coordination Sequence:
#
# PCOD8231495 Si02
#       6
#     8   8   8   8   8   8
#     4  11  23  40  61  87 116 148 187 230 280 335
#     4  10  23  39  56  80 111 147 187 231 279 332
#     4  12  25  42  62  85 114 148 187 231 280 333
#     4  10  20  36  58  86 117 150 189 231 279 333
#     4  10  19  33  54  81 110 143 185 230 276 327
#     4   9  17  30  52  81 112 146 184 227 274 326
#
# _framework density 19.486782999999999
#
# number of rings (size 3 to 8) (size 9 to 14) (size 15 to 20)
#    0.000    1.667    0.000    6.000    0.000    6.000 
#    0.000    0.833    0.000    2.000    0.000    0.000 
#    0.000    0.000    0.000    0.000    0.000    0.000 
#
# Total GULP energy -595131.195385 kJ/mol
# GULP energy per Si atom -12398.566571 kJ/mol
# Density = 1.944243 g / cm^3
# Si number density = 19.486783 Si / 1000 Ang^3
#
#
#
# Elastic Constant Matrix: (Units=GPa)
#
#
# Indices 1 2 3 4 5 6 
#
# 1 181.3353 82.9175 66.2502 0.0000 0.0000 0.0000
# 2 82.9175 134.7956 51.4644 0.0000 0.0000 0.0000
# 3 66.2502 51.4644 119.0218 0.0000 0.0000 0.0000
# 4 0.0000 0.0000 0.0000 33.5390 0.0000 0.0000
# 5 0.0000 0.0000 0.0000 0.0000 36.1829 0.0000
# 6 0.0000 0.0000 0.0000 0.0000 0.0000 43.7615
#
#
#
# Elastic Compliance Matrix: (Units=1/GPa)
#
#
# Indices 1 2 3 4 5 6 
#
# 1 0.008454 -0.004077 -0.002943 0.000000 0.000000 0.000000
# 2 -0.004077 0.010851 -0.002423 0.000000 0.000000 0.000000
# 3 -0.002943 -0.002423 0.011088 0.000000 0.000000 0.000000
# 4 0.000000 0.000000 0.000000 0.029816 0.000000 0.000000
# 5 0.000000 0.000000 0.000000 0.000000 0.027637 0.000000
# 6 0.000000 0.000000 0.000000 0.000000 0.000000 0.022851
#
#
# Mechanical properties :
#
#
# Convention : Reuss Voigt Hill
#
# Bulk Modulus (GPa) = 86.89704 92.93520 89.91612
# Shear Modulus (GPa) = 37.47605 38.33138 37.90372
#
# Velocity S-wave (km/s) = 4.39013 4.43995 4.41511
# Velocity P-wave (km/s) = 8.38971 8.60692 8.49901
#
# Compressibility (1/GPa) = 0.01150787
#
# Stress axis : x y z
#
# Youngs Moduli (GPa) = 118.28775 92.15364 90.19121
#
# Poissons Ratio (x) = 0.37569 0.26542
# Poissons Ratio (y) = 0.48223 0.21852
# Poissons Ratio (z) = 0.34811 0.22328
#
# Static dielectric constant tensor:
#      x y z
#    x 4.562490 0.000000 0.000000 
#    y 0.000000 3.341580 0.000000 
#    z 0.000000 0.000000 3.700300 
# 
# 
# High freq. dielectric constant tensor:
#      x y z
#    x 1.787390 0.000000 0.000000 
#    y 0.000000 1.736840 0.000000 
#    z 0.000000 0.000000 1.773100 
# 
# From -- ./inp_files/10054.got.cif
#   From: 2010.03.12/outbox.cif.g09.slc.cpg/sg57_6_cif.got.tgz:10054.got - 2010.04.16 15:48:40.
