data_PCOD8231210
_publ_section_title
;
Structure prediction by ZEFSAII (Michael W. Deem and Ramdas Pophale) SiO2 
 PCOD8231210
Probable space group: P B C M
;
_chemical_formula_sum "Si O2"
_cell_formula_units_Z 56
_cell_length_a 16.232455
_cell_length_b 9.063521
_cell_length_c 20.730330
_cell_angle_alpha 90.000000
_cell_angle_beta 90.000000
_cell_angle_gamma 90.000000
_cell_volume 3049.912420
_symmetry_space_group_name_H-M "P B C M"
_symmetry_group_IT_number 57
_symmetry_cell_setting 'orthorhombic'
loop_
_space_group_symop_operation_xyz
x,y,z
-x,-y,1/2+z
x,1/2-y,-z
-x,1/2+y,1/2-z
-x,-y,-z
x,y,1/2-z
-x,1/2+y,z
x,1/2-y,1/2+z
loop_
_atom_site_type_symbol
_atom_site_label
_atom_site_fract_x
_atom_site_fract_y
_atom_site_fract_z
Si Si1 0.275425 0.905725 0.175072
Si Si2 0.752072 0.742278 0.325161
Si Si3 0.898796 0.187992 0.674488
Si Si4 0.111606 0.283764 0.068033
Si Si5 0.410182 0.406440 0.173455
Si Si6 0.567787 0.235609 0.327163
Si Si7 0.984653 0.049176 0.389068
O O1 0.274972 0.866365 0.250000
O O2 0.191348 0.842735 0.143264
O O3 0.355675 0.829066 0.144113
O O4 0.282481 0.079435 0.163691
O O5 0.777400 0.766469 0.250000
O O6 0.831172 0.770722 0.369331
O O7 0.679771 0.851284 0.348115
O O8 0.891365 0.173189 0.750000
O O9 0.927242 0.352120 0.657056
O O10 0.961084 0.061007 0.653203
O O11 0.073559 0.448613 0.065667
O O12 0.039752 0.160732 0.069469
O O13 0.158298 0.250000 0.000000
O O14 0.414820 0.404320 0.250000
O O15 0.423764 0.570132 0.146303
O O16 0.482574 0.302657 0.145626
O O17 0.567432 0.239332 0.250000
#
# Coordination Sequence:
#
# PCOD8231210 Si02
#       7
#     8   8   8   8   8   8   8
#     4   9  17  29  46  71 109 143 173 216 268 317
#     4  10  20  34  53  79 110 140 177 223 272 324
#     4  10  19  32  51  80 113 144 174 222 279 327
#     4  11  23  40  58  78 107 145 186 228 275 324
#     4   9  17  28  46  74 107 141 176 215 263 319
#     4   9  16  27  45  72 108 145 175 211 263 320
#     4  10  22  36  54  75 103 142 190 226 268 327
#
# _framework density 18.361183
#
# number of rings (size 3 to 8) (size 9 to 14) (size 15 to 20)
#    0.000    2.286    1.429    1.714    2.000    6.286 
#    0.000    0.000    0.000    0.000    0.000    4.000 
#    0.000    0.000    0.000    0.000    0.000    0.000 
#
# Total GULP energy -694189.990817 kJ/mol
# GULP energy per Si atom -12396.249836 kJ/mol
# Density = 1.831939 g / cm^3
# Si number density = 18.361183 Si / 1000 Ang^3
#
#
#
# Elastic Constant Matrix: (Units=GPa)
#
#
# Indices 1 2 3 4 5 6 
#
# 1 81.2431 32.7074 13.3773 0.0000 0.0000 0.0000
# 2 32.7074 110.1925 11.2025 0.0000 0.0000 0.0000
# 3 13.3773 11.2025 38.5284 0.0000 0.0000 0.0000
# 4 0.0000 0.0000 0.0000 7.9187 0.0000 0.0000
# 5 0.0000 0.0000 0.0000 0.0000 5.9259 0.0000
# 6 0.0000 0.0000 0.0000 0.0000 0.0000 26.5355
#
#
#
# Elastic Compliance Matrix: (Units=1/GPa)
#
#
# Indices 1 2 3 4 5 6 
#
# 1 0.014528 -0.003915 -0.003906 0.000000 0.000000 0.000000
# 2 -0.003915 0.010407 -0.001666 0.000000 0.000000 0.000000
# 3 -0.003906 -0.001666 0.027796 0.000000 0.000000 0.000000
# 4 0.000000 0.000000 0.000000 0.126284 0.000000 0.000000
# 5 0.000000 0.000000 0.000000 0.000000 0.168750 0.000000
# 6 0.000000 0.000000 0.000000 0.000000 0.000000 0.037685
#
#
# Mechanical properties :
#
#
# Convention : Reuss Voigt Hill
#
# Bulk Modulus (GPa) = 29.62499 38.28202 33.95351
# Shear Modulus (GPa) = 12.02858 19.58780 15.80819
#
# Velocity S-wave (km/s) = 2.56229 3.26974 2.93739
# Velocity P-wave (km/s) = 4.99233 5.92871 5.48056
#
# Compressibility (1/GPa) = 0.03375529
#
# Stress axis : x y z
#
# Youngs Moduli (GPa) = 68.83230 96.09340 35.97694
#
# Poissons Ratio (x) = 0.37622 0.14052
# Poissons Ratio (y) = 0.26949 0.05995
# Poissons Ratio (z) = 0.26885 0.16013
#
# Static dielectric constant tensor:
#      x y z
#    x 3.643580 0.000000 0.000000 
#    y 0.000000 3.658060 0.000000 
#    z 0.000000 0.000000 2.808020 
# 
# 
# High freq. dielectric constant tensor:
#      x y z
#    x 1.720810 0.000000 0.000000 
#    y 0.000000 1.731460 0.000000 
#    z 0.000000 0.000000 1.643240 
# 
# From -- ./inp_files/25365.got.cif
#   From: 2010.03.12/outbox.cif.g09.slc.cpg/sg57_13_cif.got.tgz:25365.got - 2010.04.16 15:48:40.
