data_PCOD8231444
_publ_section_title
;
Structure prediction by ZEFSAII (Michael W. Deem and Ramdas Pophale) SiO2 
 PCOD8231444
Probable space group: P B C M
;
_chemical_formula_sum "Si O2"
_cell_formula_units_Z 56
_cell_length_a 18.733050
_cell_length_b 19.028641
_cell_length_c 8.727055
_cell_angle_alpha 90.000000
_cell_angle_beta 90.000000
_cell_angle_gamma 90.000000
_cell_volume 3110.885151
_symmetry_space_group_name_H-M "P B C M"
_symmetry_group_IT_number 57
_symmetry_cell_setting 'orthorhombic'
loop_
_space_group_symop_operation_xyz
x,y,z
-x,-y,1/2+z
x,1/2-y,-z
-x,1/2+y,1/2-z
-x,-y,-z
x,y,1/2-z
-x,1/2+y,z
x,1/2-y,1/2+z
loop_
_atom_site_type_symbol
_atom_site_label
_atom_site_fract_x
_atom_site_fract_y
_atom_site_fract_z
Si Si1 0.951743 0.059708 0.571089
Si Si2 0.154538 0.054699 0.071239
Si Si3 0.543394 0.318796 0.421081
Si Si4 0.624991 0.818456 0.079387
Si Si5 0.313558 0.450696 0.929933
Si Si6 0.958077 0.828428 0.567770
Si Si7 0.567827 0.038405 0.428460
O O1 0.967565 0.069523 0.750000
O O2 0.967323 0.134690 0.488176
O O3 0.873501 0.025499 0.542109
O O4 0.000000 0.000000 0.500000
O O5 0.158499 0.069936 0.250000
O O6 0.233841 0.056808 0.999792
O O7 0.104967 0.118899 0.006247
O O8 0.576630 0.250000 0.500000
O O9 0.575313 0.329923 0.250000
O O10 0.459102 0.311372 0.407293
O O11 0.564486 0.380098 0.535682
O O12 0.657651 0.828918 0.250000
O O13 0.658894 0.750000 0.000000
O O14 0.642740 0.881140 0.966191
O O15 0.311146 0.464447 0.750000
O O16 0.355985 0.513958 0.007705
O O17 0.949211 0.750000 0.500000
O O18 0.959302 0.822301 0.750000
O O19 0.564676 0.022663 0.250000
O O20 0.500000 0.000000 0.500000
#
# Coordination Sequence:
#
# PCOD8231444 Si02
#       7
#     8   8   8   8   8   8   8
#     4   9  16  31  53  77 104 136 175 215 254 301
#     4   8  18  34  52  75 106 142 178 215 261 316
#     4  10  20  35  55  77 102 131 167 215 270 321
#     4  10  20  33  49  71 101 134 172 212 260 318
#     4  11  21  35  54  76 105 141 177 220 270 316
#     4  10  19  33  53  81 112 143 179 216 258 307
#     4  12  23  36  54  78 105 137 179 228 272 319
#
# _framework density 18.001307000000001
#
# number of rings (size 3 to 8) (size 9 to 14) (size 15 to 20)
#    0.000    2.000    1.429    4.286    0.000    1.714 
#    0.000   10.000    0.000    0.857    0.000    4.000 
#    0.000    0.000    0.000    0.000    0.000    0.000 
#
# Total GULP energy -693965.847276 kJ/mol
# GULP energy per Si atom -12392.247273 kJ/mol
# Density = 1.796034 g / cm^3
# Si number density = 18.001307 Si / 1000 Ang^3
#
#
#
# Elastic Constant Matrix: (Units=GPa)
#
#
# Indices 1 2 3 4 5 6 
#
# 1 41.1855 38.1728 27.5105 0.0000 0.0000 0.0000
# 2 38.1728 124.1531 36.7710 0.0000 0.0000 0.0000
# 3 27.5105 36.7710 98.2861 0.0000 0.0000 0.0000
# 4 0.0000 0.0000 0.0000 33.4206 0.0000 0.0000
# 5 0.0000 0.0000 0.0000 0.0000 8.2895 0.0000
# 6 0.0000 0.0000 0.0000 0.0000 0.0000 16.2610
#
#
#
# Elastic Compliance Matrix: (Units=1/GPa)
#
#
# Indices 1 2 3 4 5 6 
#
# 1 0.037816 -0.009550 -0.007012 0.000000 0.000000 0.000000
# 2 -0.009550 0.011470 -0.001618 0.000000 0.000000 0.000000
# 3 -0.007012 -0.001618 0.012742 0.000000 0.000000 0.000000
# 4 0.000000 0.000000 0.000000 0.029922 0.000000 0.000000
# 5 0.000000 0.000000 0.000000 0.000000 0.120635 0.000000
# 6 0.000000 0.000000 0.000000 0.000000 0.000000 0.061497
#
#
# Mechanical properties :
#
#
# Convention : Reuss Voigt Hill
#
# Bulk Modulus (GPa) = 38.95903 52.05926 45.50914
# Shear Modulus (GPa) = 15.67407 22.33890 19.00649
#
# Velocity S-wave (km/s) = 2.95399 3.52655 3.25289
# Velocity P-wave (km/s) = 5.77270 6.75015 6.28047
#
# Compressibility (1/GPa) = 0.02566799
#
# Stress axis : x y z
#
# Youngs Moduli (GPa) = 26.44400 87.18232 78.47860
#
# Poissons Ratio (x) = 0.83262 0.55027
# Poissons Ratio (y) = 0.25255 0.12699
# Poissons Ratio (z) = 0.18542 0.14107
#
# Static dielectric constant tensor:
#      x y z
#    x 3.479040 0.000000 0.000000 
#    y 0.000000 3.519410 0.000000 
#    z 0.000000 0.000000 3.468740 
# 
# 
# High freq. dielectric constant tensor:
#      x y z
#    x 1.663590 0.000000 0.000000 
#    y 0.000000 1.699400 0.000000 
#    z 0.000000 0.000000 1.704230 
# 
# From -- ./inp_files/8346.got.cif
#   From: 2010.03.12/outbox.cif.g09.slc.cpg/sg57_5_cif.got.tgz:8346.got - 2010.04.16 15:48:40.
