data_PCOD8231487
_publ_section_title
;
Structure prediction by ZEFSAII (Michael W. Deem and Ramdas Pophale) SiO2 
 PCOD8231487
Probable space group: P B C M
;
_chemical_formula_sum "Si O2"
_cell_formula_units_Z 56
_cell_length_a 18.877347
_cell_length_b 18.346559
_cell_length_c 9.104708
_cell_angle_alpha 90.000000
_cell_angle_beta 90.000000
_cell_angle_gamma 90.000000
_cell_volume 3153.273223
_symmetry_space_group_name_H-M "P B C M"
_symmetry_group_IT_number 57
_symmetry_cell_setting 'orthorhombic'
loop_
_space_group_symop_operation_xyz
x,y,z
-x,-y,1/2+z
x,1/2-y,-z
-x,1/2+y,1/2-z
-x,-y,-z
x,y,1/2-z
-x,1/2+y,z
x,1/2-y,1/2+z
loop_
_atom_site_type_symbol
_atom_site_label
_atom_site_fract_x
_atom_site_fract_y
_atom_site_fract_z
Si Si1 0.616242 0.321077 0.579187
Si Si2 0.898104 0.403438 0.078696
Si Si3 0.566141 0.033913 0.919319
Si Si4 0.041413 0.172221 0.575973
Si Si5 0.283278 0.004524 0.414512
Si Si6 0.233020 0.629699 0.084247
Si Si7 0.141544 0.432257 0.917212
O O1 0.583923 0.250000 0.500000
O O2 0.593448 0.324298 0.750000
O O3 0.585498 0.390317 0.495105
O O4 0.701783 0.314730 0.564376
O O5 0.891648 0.393262 0.250000
O O6 0.886719 0.487786 0.033105
O O7 0.974003 0.375264 0.023372
O O8 0.836580 0.351742 0.011015
O O9 0.546758 0.048277 0.750000
O O10 0.633077 0.977282 0.932103
O O11 0.500000 0.000000 0.000000
O O12 0.038273 0.250000 0.500000
O O13 0.044363 0.182682 0.750000
O O14 0.110959 0.129115 0.523789
O O15 0.271378 0.970483 0.250000
O O16 0.227946 0.071685 0.430879
O O17 0.263574 0.948341 0.539996
O O18 0.206441 0.626234 0.250000
O O19 0.117711 0.416324 0.750000
#
# Coordination Sequence:
#
# PCOD8231487 Si02
#       7
#     8   8   8   8   8   8   8
#     4  10  20  33  49  73 104 139 175 209 249 301
#     4   9  19  34  51  71  98 131 167 205 251 304
#     4  10  19  33  54  80 109 139 169 206 250 299
#     4  11  23  36  49  69  97 131 168 210 259 306
#     4   8  16  31  51  74 100 128 158 195 242 291
#     4   9  17  28  46  72  99 126 161 202 242 289
#     4   9  17  33  55  75  95 124 164 209 251 296
#
# _framework density 17.759322999999998
#
# number of rings (size 3 to 8) (size 9 to 14) (size 15 to 20)
#    0.000    2.571    0.000    3.000    0.000    6.286 
#    0.000    2.857    0.000    0.857    0.000    4.000 
#    0.000    0.000    0.000    0.000    0.000    0.000 
#
# Total GULP energy -693929.756613 kJ/mol
# GULP energy per Si atom -12391.602797 kJ/mol
# Density = 1.771890 g / cm^3
# Si number density = 17.759323 Si / 1000 Ang^3
#
#
#
# Elastic Constant Matrix: (Units=GPa)
#
#
# Indices 1 2 3 4 5 6 
#
# 1 124.0221 47.6386 51.3090 0.0000 0.0000 0.0000
# 2 47.6386 67.5188 46.0972 0.0000 0.0000 0.0000
# 3 51.3090 46.0972 90.6400 0.0000 0.0000 0.0000
# 4 0.0000 0.0000 0.0000 24.3537 0.0000 0.0000
# 5 0.0000 0.0000 0.0000 0.0000 31.0315 0.0000
# 6 0.0000 0.0000 0.0000 0.0000 0.0000 15.6383
#
#
#
# Elastic Compliance Matrix: (Units=1/GPa)
#
#
# Indices 1 2 3 4 5 6 
#
# 1 0.011842 -0.005788 -0.003760 0.000000 0.000000 0.000000
# 2 -0.005788 0.025518 -0.009701 0.000000 0.000000 0.000000
# 3 -0.003760 -0.009701 0.018095 0.000000 0.000000 0.000000
# 4 0.000000 0.000000 0.000000 0.041061 0.000000 0.000000
# 5 0.000000 0.000000 0.000000 0.000000 0.032225 0.000000
# 6 0.000000 0.000000 0.000000 0.000000 0.000000 0.063946
#
#
# Mechanical properties :
#
#
# Convention : Reuss Voigt Hill
#
# Bulk Modulus (GPa) = 58.97513 63.58562 61.28037
# Shear Modulus (GPa) = 21.11154 23.34710 22.22932
#
# Velocity S-wave (km/s) = 3.45158 3.62973 3.54177
# Velocity P-wave (km/s) = 7.01175 7.31084 7.16285
#
# Compressibility (1/GPa) = 0.01695630
#
# Stress axis : x y z
#
# Youngs Moduli (GPa) = 84.44648 39.18793 55.26504
#
# Poissons Ratio (x) = 0.22683 0.20777
# Poissons Ratio (y) = 0.48881 0.53614
# Poissons Ratio (z) = 0.31748 0.38017
#
# Static dielectric constant tensor:
#      x y z
#    x 3.537880 0.000000 0.000000 
#    y 0.000000 3.038660 0.000000 
#    z 0.000000 0.000000 3.358020 
# 
# 
# High freq. dielectric constant tensor:
#      x y z
#    x 1.685400 0.000000 0.000000 
#    y 0.000000 1.646830 0.000000 
#    z 0.000000 0.000000 1.698880 
# 
# From -- ./inp_files/8194.got.cif
#   From: 2010.03.12/outbox.cif.g09.slc.cpg/sg57_5_cif.got.tgz:8194.got - 2010.04.16 15:48:40.
