data_PCOD8231295
_publ_section_title
;
Structure prediction by ZEFSAII (Michael W. Deem and Ramdas Pophale) SiO2 
 PCOD8231295
Probable space group: P B C M
;
_chemical_formula_sum "Si O2"
_cell_formula_units_Z 48
_cell_length_a 28.193466
_cell_length_b 9.571053
_cell_length_c 9.272947
_cell_angle_alpha 90.000000
_cell_angle_beta 90.000000
_cell_angle_gamma 90.000000
_cell_volume 2502.222750
_symmetry_space_group_name_H-M "P B C M"
_symmetry_group_IT_number 57
_symmetry_cell_setting 'orthorhombic'
loop_
_space_group_symop_operation_xyz
x,y,z
-x,-y,1/2+z
x,1/2-y,-z
-x,1/2+y,1/2-z
-x,-y,-z
x,y,1/2-z
-x,1/2+y,z
x,1/2-y,1/2+z
loop_
_atom_site_type_symbol
_atom_site_label
_atom_site_fract_x
_atom_site_fract_y
_atom_site_fract_z
Si Si1 0.617518 0.750000 0.000000
Si Si2 0.329280 0.987391 0.911431
Si Si3 0.965310 0.103258 0.918791
Si Si4 0.539317 0.184622 0.750000
Si Si5 0.227160 0.601214 0.078483
Si Si6 0.139950 0.895619 0.082410
Si Si7 0.554318 0.860114 0.750000
Si Si8 0.393717 0.750000 0.000000
O O1 0.585501 0.661432 0.108282
O O2 0.651480 0.855870 0.084274
O O3 0.333606 0.927426 0.750000
O O4 0.274139 0.987925 0.957440
O O5 0.360277 0.885890 0.011461
O O6 0.979188 0.121985 0.750000
O O7 0.912292 0.036301 0.930498
O O8 0.968482 0.250000 0.000000
O O9 0.000000 0.000000 0.000000
O O10 0.486627 0.245159 0.750000
O O11 0.569193 0.251183 0.625335
O O12 0.534048 0.016982 0.750000
O O13 0.218929 0.617861 0.250000
O O14 0.233236 0.750000 0.000000
O O15 0.181997 0.521384 0.002913
O O16 0.153857 0.875609 0.250000
O O17 0.137080 0.750000 0.000000
#
# Coordination Sequence:
#
# PCOD8231295 Si02
#       8
#     4   8   8   4   8   8   4   4
#     4  12  25  46  64  86 120 154 189 236 286 342
#     4  11  23  40  63  90 117 150 193 238 281 344
#     4  10  20  34  56  84 119 159 207 254 307 361
#     4  12  28  42  64  94 116 156 188 234 285 344
#     4  10  19  32  54  86 117 148 188 240 291 344
#     4   9  17  31  50  81 118 154 195 245 295 351
#     4  12  28  44  66  90 120 152 192 230 289 340
#     4  12  23  42  64  88 122 148 189 232 282 340
#
# _framework density 19.182945
#
# number of rings (size 3 to 8) (size 9 to 14) (size 15 to 20)
#    0.000    1.333    4.167    3.000    2.333    3.333 
#    4.500    0.000    1.833    0.000    0.000    0.000 
#    0.000    0.000    0.000    0.000    0.000    0.000 
#
# Total GULP energy -594815.922602 kJ/mol
# GULP energy per Si atom -12391.998388 kJ/mol
# Density = 1.913928 g / cm^3
# Si number density = 19.182945 Si / 1000 Ang^3
#
#
#
# Elastic Constant Matrix: (Units=GPa)
#
#
# Indices 1 2 3 4 5 6 
#
# 1 158.1005 48.5655 63.0689 0.0000 0.0000 0.0000
# 2 48.5655 70.3242 17.7889 0.0000 0.0000 0.0000
# 3 63.0689 17.7889 133.7991 0.0000 0.0000 0.0000
# 4 0.0000 0.0000 0.0000 24.6940 0.0000 0.0000
# 5 0.0000 0.0000 0.0000 0.0000 32.6697 0.0000
# 6 0.0000 0.0000 0.0000 0.0000 0.0000 27.4402
#
#
#
# Elastic Compliance Matrix: (Units=1/GPa)
#
#
# Indices 1 2 3 4 5 6 
#
# 1 0.009559 -0.005652 -0.003754 0.000000 0.000000 0.000000
# 2 -0.005652 0.018056 0.000263 0.000000 0.000000 0.000000
# 3 -0.003754 0.000263 0.009209 0.000000 0.000000 0.000000
# 4 0.000000 0.000000 0.000000 0.040496 0.000000 0.000000
# 5 0.000000 0.000000 0.000000 0.000000 0.030609 0.000000
# 6 0.000000 0.000000 0.000000 0.000000 0.000000 0.036443
#
#
# Mechanical properties :
#
#
# Convention : Reuss Voigt Hill
#
# Bulk Modulus (GPa) = 53.94193 69.00782 61.47488
# Shear Modulus (GPa) = 29.61452 32.48082 31.04767
#
# Velocity S-wave (km/s) = 3.93338 4.11933 4.02743
# Velocity P-wave (km/s) = 6.98637 7.66008 7.33097
#
# Compressibility (1/GPa) = 0.01853845
#
# Stress axis : x y z
#
# Youngs Moduli (GPa) = 104.61532 55.38266 108.59456
#
# Poissons Ratio (x) = 0.31300 0.40770
# Poissons Ratio (y) = 0.59124 -0.02860
# Poissons Ratio (z) = 0.39276 -0.01459
#
# Static dielectric constant tensor:
#      x y z
#    x 4.315610 0.000000 0.000000 
#    y 0.000000 3.020850 0.000000 
#    z 0.000000 0.000000 3.674560 
# 
# 
# High freq. dielectric constant tensor:
#      x y z
#    x 1.769500 0.000000 0.000000 
#    y 0.000000 1.703860 0.000000 
#    z 0.000000 0.000000 1.764190 
# 
# From -- ./inp_files/10216.got.cif
#   From: 2010.03.12/outbox.cif.g09.slc.cpg/sg57_6_cif.got.tgz:10216.got - 2010.04.16 15:48:40.
