data_PCOD8231875
_publ_section_title
;
Structure prediction by ZEFSAII (Michael W. Deem and Ramdas Pophale) SiO2 
 PCOD8231875
Probable space group: P B C M
;
_chemical_formula_sum "Si O2"
_cell_formula_units_Z 64
_cell_length_a 21.569412
_cell_length_b 17.792583
_cell_length_c 8.841228
_cell_angle_alpha 90.000000
_cell_angle_beta 90.000000
_cell_angle_gamma 90.000000
_cell_volume 3393.047167
_symmetry_space_group_name_H-M "P B C M"
_symmetry_group_IT_number 57
_symmetry_cell_setting 'orthorhombic'
loop_
_space_group_symop_operation_xyz
x,y,z
-x,-y,1/2+z
x,1/2-y,-z
-x,1/2+y,1/2-z
-x,-y,-z
x,y,1/2-z
-x,1/2+y,z
x,1/2-y,1/2+z
loop_
_atom_site_type_symbol
_atom_site_label
_atom_site_fract_x
_atom_site_fract_y
_atom_site_fract_z
Si Si1 0.316785 0.540325 0.925705
Si Si2 0.993913 0.671368 0.570874
Si Si3 0.122642 0.405839 0.570041
Si Si4 0.111318 0.924534 0.428542
Si Si5 0.565412 0.519408 0.570088
Si Si6 0.774202 0.329619 0.075679
Si Si7 0.249738 0.096378 0.572180
Si Si8 0.375164 0.173332 0.924766
O O1 0.323584 0.518861 0.750000
O O2 0.288913 0.623374 0.946590
O O3 0.383616 0.538562 0.006102
O O4 0.268977 0.483302 0.002763
O O5 0.014882 0.750000 0.500000
O O6 0.987530 0.679231 0.750000
O O7 0.929208 0.647086 0.500015
O O8 0.045834 0.610882 0.524231
O O9 0.119778 0.400665 0.750000
O O10 0.113649 0.490705 0.507873
O O11 0.188147 0.374445 0.510448
O O12 0.119784 0.928529 0.250000
O O13 0.167440 0.874682 0.496751
O O14 0.500000 0.500000 0.500000
O O15 0.563938 0.512265 0.750000
O O16 0.583878 0.603342 0.516600
O O17 0.788549 0.314990 0.250000
O O18 0.764565 0.250000 0.000000
O O19 0.238607 0.085997 0.750000
O O20 0.303114 0.157506 0.539371
O O21 0.387004 0.183647 0.750000
O O22 0.397806 0.250000 0.000000
#
# Coordination Sequence:
#
# PCOD8231875 Si02
#       8
#     8   8   8   8   8   8   8   8
#     4  10  19  35  58  82 114 150 186 229 280 333
#     4  11  23  39  56  77 108 145 187 236 289 346
#     4  11  21  37  59  82 110 145 186 235 290 345
#     4   9  19  37  58  80 109 142 186 236 283 342
#     4  10  21  38  60  88 118 151 195 236 277 331
#     4  10  20  35  55  83 114 146 185 232 285 340
#     4  10  20  35  55  83 114 145 187 233 278 336
#     4   9  20  36  56  84 117 147 184 232 275 326
#
# _framework density 18.862100000000002
#
# number of rings (size 3 to 8) (size 9 to 14) (size 15 to 20)
#    0.000    2.000    1.250    3.375    0.000    4.500 
#    0.000    4.375    0.000    0.000    0.000    0.000 
#    0.000    0.000    0.000    0.000    0.000    0.000 
#
# Total GULP energy -793731.817728 kJ/mol
# GULP energy per Si atom -12402.059652 kJ/mol
# Density = 1.881917 g / cm^3
# Si number density = 18.862100 Si / 1000 Ang^3
#
#
#
# Elastic Constant Matrix: (Units=GPa)
#
#
# Indices 1 2 3 4 5 6 
#
# 1 123.7169 24.5356 40.0685 0.0000 0.0000 0.0000
# 2 24.5356 77.2587 29.9357 0.0000 0.0000 0.0000
# 3 40.0685 29.9357 76.4211 0.0000 0.0000 0.0000
# 4 0.0000 0.0000 0.0000 32.0920 0.0000 0.0000
# 5 0.0000 0.0000 0.0000 0.0000 30.3695 0.0000
# 6 0.0000 0.0000 0.0000 0.0000 0.0000 29.5278
#
#
#
# Elastic Compliance Matrix: (Units=1/GPa)
#
#
# Indices 1 2 3 4 5 6 
#
# 1 0.009851 -0.001329 -0.004644 0.000000 0.000000 0.000000
# 2 -0.001329 0.015439 -0.005351 0.000000 0.000000 0.000000
# 3 -0.004644 -0.005351 0.017617 0.000000 0.000000 0.000000
# 4 0.000000 0.000000 0.000000 0.031160 0.000000 0.000000
# 5 0.000000 0.000000 0.000000 0.000000 0.032928 0.000000
# 6 0.000000 0.000000 0.000000 0.000000 0.000000 0.033866
#
#
# Mechanical properties :
#
#
# Convention : Reuss Voigt Hill
#
# Bulk Modulus (GPa) = 49.36352 51.83068 50.59710
# Shear Modulus (GPa) = 29.36658 30.58832 29.97745
#
# Velocity S-wave (km/s) = 3.95005 4.03138 3.99092
# Velocity P-wave (km/s) = 6.85795 7.01482 6.93683
#
# Compressibility (1/GPa) = 0.02025787
#
# Stress axis : x y z
#
# Youngs Moduli (GPa) = 101.51607 64.77144 56.76476
#
# Poissons Ratio (x) = 0.08607 0.26363
# Poissons Ratio (y) = 0.13489 0.30375
# Poissons Ratio (z) = 0.47147 0.34659
#
# Static dielectric constant tensor:
#      x y z
#    x 3.487770 0.000000 0.000000 
#    y 0.000000 3.477970 0.000000 
#    z 0.000000 0.000000 3.410750 
# 
# 
# High freq. dielectric constant tensor:
#      x y z
#    x 1.734410 0.000000 0.000000 
#    y 0.000000 1.729030 0.000000 
#    z 0.000000 0.000000 1.730250 
# 
# From -- ./inp_files/8431.got.cif
#   From: 2010.03.12/outbox.cif.g09.slc.cpg/sg57_5_cif.got.tgz:8431.got - 2010.04.16 15:48:40.
