data_PCOD8231505
_publ_section_title
;
Structure prediction by ZEFSAII (Michael W. Deem and Ramdas Pophale) SiO2 
 PCOD8231505
Probable space group: P B C M
;
_chemical_formula_sum "Si O2"
_cell_formula_units_Z 48
_cell_length_a 11.419896
_cell_length_b 23.541941
_cell_length_c 8.706922
_cell_angle_alpha 90.000000
_cell_angle_beta 90.000000
_cell_angle_gamma 90.000000
_cell_volume 2340.825661
_symmetry_space_group_name_H-M "P B C M"
_symmetry_group_IT_number 57
_symmetry_cell_setting 'orthorhombic'
loop_
_space_group_symop_operation_xyz
x,y,z
-x,-y,1/2+z
x,1/2-y,-z
-x,1/2+y,1/2-z
-x,-y,-z
x,y,1/2-z
-x,1/2+y,z
x,1/2-y,1/2+z
loop_
_atom_site_type_symbol
_atom_site_label
_atom_site_fract_x
_atom_site_fract_y
_atom_site_fract_z
Si Si1 0.713648 0.085080 0.430753
Si Si2 0.223538 0.473455 0.567612
Si Si3 0.872916 0.311933 0.570238
Si Si4 0.545238 0.915100 0.924232
Si Si5 0.098758 0.370724 0.430929
Si Si6 0.688779 0.692756 0.425357
O O1 0.716640 0.073095 0.250000
O O2 0.760639 0.148314 0.464914
O O3 0.582368 0.078657 0.502291
O O4 0.795600 0.038239 0.514358
O O5 0.218672 0.466940 0.750000
O O6 0.350971 0.452972 0.500889
O O7 0.121568 0.433577 0.499638
O O8 0.850836 0.250000 0.500000
O O9 0.895626 0.304647 0.750000
O O10 0.982058 0.343795 0.497158
O O11 0.532097 0.935032 0.750000
O O12 0.579588 0.849346 0.934616
O O13 0.087442 0.376022 0.250000
O O14 0.203139 0.328824 0.474788
O O15 0.641468 0.750000 0.500000
O O16 0.730779 0.700901 0.250000
#
# Coordination Sequence:
#
# PCOD8231505 Si02
#       6
#     8   8   8   8   8   8
#     4  10  21  38  59  83 114 152 190 227 273 331
#     4  10  20  36  60  89 118 145 181 231 283 333
#     4  11  24  41  60  82 112 150 190 232 276 328
#     4   8  17  34  55  81 114 150 186 228 276 328
#     4  11  22  38  60  83 110 145 187 234 284 337
#     4  10  19  33  54  82 114 146 186 235 285 335
#
# _framework density 20.505586000000001
#
# number of rings (size 3 to 8) (size 9 to 14) (size 15 to 20)
#    0.000    2.000    0.000    5.000    0.000    2.667 
#    0.000    4.167    0.000    0.000    0.000    0.000 
#    0.000    0.000    0.000    0.000    0.000    0.000 
#
# Total GULP energy -595111.820402 kJ/mol
# GULP energy per Si atom -12398.162925 kJ/mol
# Density = 2.045891 g / cm^3
# Si number density = 20.505586 Si / 1000 Ang^3
#
#
#
# Elastic Constant Matrix: (Units=GPa)
#
#
# Indices 1 2 3 4 5 6 
#
# 1 51.8851 34.0154 27.1960 0.0000 0.0000 0.0000
# 2 34.0154 130.0385 58.2492 0.0000 0.0000 0.0000
# 3 27.1960 58.2492 102.0148 0.0000 0.0000 0.0000
# 4 0.0000 0.0000 0.0000 37.7993 0.0000 0.0000
# 5 0.0000 0.0000 0.0000 0.0000 19.1757 0.0000
# 6 0.0000 0.0000 0.0000 0.0000 0.0000 18.7968
#
#
#
# Elastic Compliance Matrix: (Units=1/GPa)
#
#
# Indices 1 2 3 4 5 6 
#
# 1 0.024329 -0.004647 -0.003832 0.000000 0.000000 0.000000
# 2 -0.004647 0.011221 -0.005168 0.000000 0.000000 0.000000
# 3 -0.003832 -0.005168 0.013775 0.000000 0.000000 0.000000
# 4 0.000000 0.000000 0.000000 0.026455 0.000000 0.000000
# 5 0.000000 0.000000 0.000000 0.000000 0.052149 0.000000
# 6 0.000000 0.000000 0.000000 0.000000 0.000000 0.053201
#
#
# Mechanical properties :
#
#
# Convention : Reuss Voigt Hill
#
# Bulk Modulus (GPa) = 45.39381 58.09552 51.74466
# Shear Modulus (GPa) = 23.17307 26.11955 24.64631
#
# Velocity S-wave (km/s) = 3.36532 3.57287 3.47065
# Velocity P-wave (km/s) = 6.10622 6.73896 6.43038
#
# Compressibility (1/GPa) = 0.02202944
#
# Stress axis : x y z
#
# Youngs Moduli (GPa) = 41.10357 89.12204 72.59570
#
# Poissons Ratio (x) = 0.41418 0.27820
# Poissons Ratio (y) = 0.19102 0.37517
# Poissons Ratio (z) = 0.15752 0.46057
#
# Static dielectric constant tensor:
#      x y z
#    x 3.799500 0.000000 0.000000 
#    y 0.000000 3.848150 0.000000 
#    z 0.000000 0.000000 3.594650 
# 
# 
# High freq. dielectric constant tensor:
#      x y z
#    x 1.794020 0.000000 0.000000 
#    y 0.000000 1.813170 0.000000 
#    z 0.000000 0.000000 1.791810 
# 
# From -- ./inp_files/3190.got.cif
#   From: 2010.03.12/outbox.cif.g09.slc.cpg/sg57_2_cif.got.tgz:3190.got - 2010.04.16 15:48:40.
