data_PCOD8231642
_publ_section_title
;
Structure prediction by ZEFSAII (Michael W. Deem and Ramdas Pophale) SiO2 
 PCOD8231642
Probable space group: P B C M
;
_chemical_formula_sum "Si O2"
_cell_formula_units_Z 40
_cell_length_a 9.818745
_cell_length_b 25.840273
_cell_length_c 8.537691
_cell_angle_alpha 90.000000
_cell_angle_beta 90.000000
_cell_angle_gamma 90.000000
_cell_volume 2166.174861
_symmetry_space_group_name_H-M "P B C M"
_symmetry_group_IT_number 57
_symmetry_cell_setting 'orthorhombic'
loop_
_space_group_symop_operation_xyz
x,y,z
-x,-y,1/2+z
x,1/2-y,-z
-x,1/2+y,1/2-z
-x,-y,-z
x,y,1/2-z
-x,1/2+y,z
x,1/2-y,1/2+z
loop_
_atom_site_type_symbol
_atom_site_label
_atom_site_fract_x
_atom_site_fract_y
_atom_site_fract_z
Si Si1 0.158038 0.110125 0.434236
Si Si2 0.149674 0.005045 0.934171
Si Si3 0.647499 0.804874 0.066285
Si Si4 0.847435 0.392198 0.565856
Si Si5 0.645368 0.305769 0.935848
O O1 0.172311 0.119577 0.250000
O O2 0.220665 0.053446 0.477954
O O3 0.239543 0.153130 0.527760
O O4 0.002251 0.113363 0.496474
O O5 0.148178 0.016168 0.750000
O O6 0.217709 0.949003 0.972248
O O7 0.000000 0.000000 0.000000
O O8 0.625512 0.799723 0.250000
O O9 0.697880 0.750000 0.000000
O O10 0.505102 0.821532 0.989496
O O11 0.855674 0.384940 0.750000
O O12 0.750492 0.348031 0.493571
O O13 0.649496 0.304667 0.750000
O O14 0.689416 0.250000 0.000000
#
# Coordination Sequence:
#
# PCOD8231642 Si02
#       5
#     8   8   8   8   8
#     4  10  19  34  54  79 106 135 169 212 257 303
#     4   9  16  30  50  75 104 137 171 209 255 306
#     4  11  22  37  54  75 101 135 172 210 253 305
#     4   8  17  32  53  77 104 133 168 210 254 299
#     4  10  19  35  54  74 100 134 168 207 254 303
#
# _framework density 18.465730000000001
#
# number of rings (size 3 to 8) (size 9 to 14) (size 15 to 20)
#    0.000    2.400    0.000    6.000    0.000    0.800 
#    0.000   15.000    0.000    0.000    0.000    0.000 
#    0.000    0.000    0.000    0.000    0.000    0.000 
#
# Total GULP energy -495767.951291 kJ/mol
# GULP energy per Si atom -12394.198782 kJ/mol
# Density = 1.842370 g / cm^3
# Si number density = 18.465730 Si / 1000 Ang^3
#
#
#
# Elastic Constant Matrix: (Units=GPa)
#
#
# Indices 1 2 3 4 5 6 
#
# 1 71.9974 74.4799 14.0229 0.0000 0.0000 0.0000
# 2 74.4799 157.9365 26.6818 0.0000 0.0000 0.0000
# 3 14.0229 26.6818 64.5284 0.0000 0.0000 0.0000
# 4 0.0000 0.0000 0.0000 33.3009 0.0000 0.0000
# 5 0.0000 0.0000 0.0000 0.0000 21.7043 0.0000
# 6 0.0000 0.0000 0.0000 0.0000 0.0000 9.2662
#
#
#
# Elastic Compliance Matrix: (Units=1/GPa)
#
#
# Indices 1 2 3 4 5 6 
#
# 1 0.027145 -0.012691 -0.000651 0.000000 0.000000 0.000000
# 2 -0.012691 0.012741 -0.002510 0.000000 0.000000 0.000000
# 3 -0.000651 -0.002510 0.016677 0.000000 0.000000 0.000000
# 4 0.000000 0.000000 0.000000 0.030029 0.000000 0.000000
# 5 0.000000 0.000000 0.000000 0.000000 0.046074 0.000000
# 6 0.000000 0.000000 0.000000 0.000000 0.000000 0.107919
#
#
# Mechanical properties :
#
#
# Convention : Reuss Voigt Hill
#
# Bulk Modulus (GPa) = 40.23027 58.31463 49.27245
# Shear Modulus (GPa) = 17.82057 24.80614 21.31336
#
# Velocity S-wave (km/s) = 3.10991 3.66916 3.40105
# Velocity P-wave (km/s) = 5.89315 7.04264 6.49338
#
# Compressibility (1/GPa) = 0.02485690
#
# Stress axis : x y z
#
# Youngs Moduli (GPa) = 36.83948 78.48964 59.96455
#
# Poissons Ratio (x) = 0.99611 0.03906
# Poissons Ratio (y) = 0.46753 0.15052
# Poissons Ratio (z) = 0.02400 0.19702
#
# Static dielectric constant tensor:
#      x y z
#    x 3.298460 0.000000 0.000000 
#    y 0.000000 4.074880 0.000000 
#    z 0.000000 0.000000 3.402670 
# 
# 
# High freq. dielectric constant tensor:
#      x y z
#    x 1.684500 0.000000 0.000000 
#    y 0.000000 1.736200 0.000000 
#    z 0.000000 0.000000 1.715370 
# 
# From -- ./inp_files/1713.got.cif
#   From: 2010.03.12/outbox.cif.g09.slc.cpg/sg57_1_cif.got.tgz:1713.got - 2010.04.16 15:48:40.
