data_PCOD8231340
_publ_section_title
;
Structure prediction by ZEFSAII (Michael W. Deem and Ramdas Pophale) SiO2 
 PCOD8231340
Probable space group: P B C M
;
_chemical_formula_sum "Si O2"
_cell_formula_units_Z 40
_cell_length_a 10.804437
_cell_length_b 21.836421
_cell_length_c 8.768551
_cell_angle_alpha 90.000000
_cell_angle_beta 90.000000
_cell_angle_gamma 90.000000
_cell_volume 2068.766298
_symmetry_space_group_name_H-M "P B C M"
_symmetry_group_IT_number 57
_symmetry_cell_setting 'orthorhombic'
loop_
_space_group_symop_operation_xyz
x,y,z
-x,-y,1/2+z
x,1/2-y,-z
-x,1/2+y,1/2-z
-x,-y,-z
x,y,1/2-z
-x,1/2+y,z
x,1/2-y,1/2+z
loop_
_atom_site_type_symbol
_atom_site_label
_atom_site_fract_x
_atom_site_fract_y
_atom_site_fract_z
Si Si1 0.121670 0.688486 0.068929
Si Si2 0.576343 0.056959 0.931280
Si Si3 0.595008 0.184952 0.068287
Si Si4 0.193992 0.503526 0.416925
Si Si5 0.043493 0.416085 0.917198
O O1 0.116977 0.686883 0.250000
O O2 0.262423 0.678094 0.016498
O O3 0.027179 0.639193 0.998680
O O4 0.068447 0.750000 0.000000
O O5 0.561892 0.058546 0.750000
O O6 0.531037 0.123309 0.998496
O O7 0.500000 0.000000 0.000000
O O8 0.718938 0.045192 0.977464
O O9 0.576701 0.185803 0.250000
O O10 0.543453 0.250000 0.000000
O O11 0.256881 0.495925 0.250000
O O12 0.165922 0.437068 0.490699
O O13 0.059235 0.531835 0.397990
O O14 0.091975 0.396835 0.750000
#
# Coordination Sequence:
#
# PCOD8231340 Si02
#       5
#     8   8   8   8   8
#     4   9  17  29  47  73 107 140 174 216 262 315
#     4  12  24  38  57  81 110 147 187 234 284 335
#     4  10  19  35  55  81 112 144 181 227 276 330
#     4  10  19  33  51  75 105 137 175 218 264 320
#     4   9  17  31  49  73 106 140 171 212 261 316
#
# _framework density 19.335194999999999
#
# number of rings (size 3 to 8) (size 9 to 14) (size 15 to 20)
#    0.000    2.000    2.000    3.000    0.000    2.400 
#    0.000    0.000    0.000    1.200    0.000    5.600 
#    0.000    0.000    0.000    0.000    0.000    0.000 
#
# Total GULP energy -495527.344547 kJ/mol
# GULP energy per Si atom -12388.183614 kJ/mol
# Density = 1.929119 g / cm^3
# Si number density = 19.335195 Si / 1000 Ang^3
#
#
#
# Elastic Constant Matrix: (Units=GPa)
#
#
# Indices 1 2 3 4 5 6 
#
# 1 22.6493 23.0500 18.6605 0.0000 0.0000 0.0000
# 2 23.0500 147.3953 51.9096 0.0000 0.0000 0.0000
# 3 18.6605 51.9096 108.3153 0.0000 0.0000 0.0000
# 4 0.0000 0.0000 0.0000 34.2434 0.0000 0.0000
# 5 0.0000 0.0000 0.0000 0.0000 19.3507 0.0000
# 6 0.0000 0.0000 0.0000 0.0000 0.0000 33.4473
#
#
#
# Elastic Compliance Matrix: (Units=1/GPa)
#
#
# Indices 1 2 3 4 5 6 
#
# 1 0.056148 -0.006465 -0.006575 0.000000 0.000000 0.000000
# 2 -0.006465 0.008906 -0.003155 0.000000 0.000000 0.000000
# 3 -0.006575 -0.003155 0.011877 0.000000 0.000000 0.000000
# 4 0.000000 0.000000 0.000000 0.029203 0.000000 0.000000
# 5 0.000000 0.000000 0.000000 0.000000 0.051678 0.000000
# 6 0.000000 0.000000 0.000000 0.000000 0.000000 0.029898
#
#
# Mechanical properties :
#
#
# Convention : Reuss Voigt Hill
#
# Bulk Modulus (GPa) = 22.45058 51.73334 37.09196
# Shear Modulus (GPa) = 21.28153 29.72426 25.50289
#
# Velocity S-wave (km/s) = 3.32122 3.92511 3.63573
# Velocity P-wave (km/s) = 5.13262 6.88158 6.07042
#
# Compressibility (1/GPa) = 0.04454227
#
# Stress axis : x y z
#
# Youngs Moduli (GPa) = 17.81016 112.27783 84.19752
#
# Poissons Ratio (x) = 0.72588 0.55358
# Poissons Ratio (y) = 0.11514 0.26561
# Poissons Ratio (z) = 0.11710 0.35419
#
# Static dielectric constant tensor:
#      x y z
#    x 3.165270 0.000000 0.000000 
#    y 0.000000 3.851990 0.000000 
#    z 0.000000 0.000000 3.878520 
# 
# 
# High freq. dielectric constant tensor:
#      x y z
#    x 1.702720 0.000000 0.000000 
#    y 0.000000 1.758390 0.000000 
#    z 0.000000 0.000000 1.756740 
# 
# From -- ./inp_files/2869.got.cif
#   From: 2010.03.12/outbox.cif.g09.slc.cpg/sg57_2_cif.got.tgz:2869.got - 2010.04.16 15:48:40.
