data_PCOD8231703
_publ_section_title
;
Structure prediction by ZEFSAII (Michael W. Deem and Ramdas Pophale) SiO2 
 PCOD8231703
Probable space group: P B C M
;
_chemical_formula_sum "Si O2"
_cell_formula_units_Z 56
_cell_length_a 17.658105
_cell_length_b 19.272789
_cell_length_c 8.858700
_cell_angle_alpha 90.000000
_cell_angle_beta 90.000000
_cell_angle_gamma 90.000000
_cell_volume 3014.801039
_symmetry_space_group_name_H-M "P B C M"
_symmetry_group_IT_number 57
_symmetry_cell_setting 'orthorhombic'
loop_
_space_group_symop_operation_xyz
x,y,z
-x,-y,1/2+z
x,1/2-y,-z
-x,1/2+y,1/2-z
-x,-y,-z
x,y,1/2-z
-x,1/2+y,z
x,1/2-y,1/2+z
loop_
_atom_site_type_symbol
_atom_site_label
_atom_site_fract_x
_atom_site_fract_y
_atom_site_fract_z
Si Si1 0.356092 0.932437 0.572489
Si Si2 0.913875 0.820823 0.426984
Si Si3 0.380810 0.411334 0.071300
Si Si4 0.773793 0.607460 0.423780
Si Si5 0.516184 0.326112 0.570562
Si Si6 0.036831 0.565865 0.925506
Si Si7 0.797365 0.053215 0.578010
O O1 0.351682 0.935312 0.750000
O O2 0.412051 0.871931 0.517002
O O3 0.272334 0.914388 0.513687
O O4 0.384953 0.008174 0.515155
O O5 0.940864 0.750000 0.500000
O O6 0.896864 0.815053 0.250000
O O7 0.838391 0.843826 0.511355
O O8 0.984537 0.869561 0.462036
O O9 0.392097 0.404848 0.250000
O O10 0.300610 0.379235 0.023388
O O11 0.442878 0.366180 0.986746
O O12 0.757187 0.626657 0.250000
O O13 0.801177 0.529125 0.441207
O O14 0.522636 0.250000 0.500000
O O15 0.512348 0.319155 0.750000
O O16 0.043369 0.548868 0.750000
O O17 0.122191 0.581208 0.985986
O O18 0.000000 0.500000 0.000000
O O19 0.784376 0.075541 0.750000
#
# Coordination Sequence:
#
# PCOD8231703 Si02
#       7
#     8   8   8   8   8   8   8
#     4   9  20  37  58  84 113 144 184 231 278 331
#     4  11  23  37  54  78 113 152 189 230 279 335
#     4  10  20  36  59  86 114 144 183 229 279 333
#     4  10  19  34  56  82 112 144 180 224 276 332
#     4  11  23  39  57  81 112 148 189 230 279 334
#     4  10  20  35  57  84 111 144 186 232 278 328
#     4   9  18  33  56  85 112 140 179 227 277 329
#
# _framework density 18.575023999999999
#
# number of rings (size 3 to 8) (size 9 to 14) (size 15 to 20)
#    0.000    2.000    1.429    2.143    0.000    4.000 
#    0.000    3.571    0.000    3.429    0.000    0.000 
#    0.000    0.000    0.000    0.000    0.000    0.000 
#
# Total GULP energy -694424.771091 kJ/mol
# GULP energy per Si atom -12400.442341 kJ/mol
# Density = 1.853275 g / cm^3
# Si number density = 18.575024 Si / 1000 Ang^3
#
#
#
# Elastic Constant Matrix: (Units=GPa)
#
#
# Indices 1 2 3 4 5 6 
#
# 1 143.4680 77.6639 31.0985 0.0000 0.0000 0.0000
# 2 77.6639 106.1483 45.7041 0.0000 0.0000 0.0000
# 3 31.0985 45.7041 49.2972 0.0000 0.0000 0.0000
# 4 0.0000 0.0000 0.0000 26.4233 0.0000 0.0000
# 5 0.0000 0.0000 0.0000 0.0000 32.9942 0.0000
# 6 0.0000 0.0000 0.0000 0.0000 0.0000 31.4569
#
#
#
# Elastic Compliance Matrix: (Units=1/GPa)
#
#
# Indices 1 2 3 4 5 6 
#
# 1 0.011566 -0.008856 0.000914 0.000000 0.000000 0.000000
# 2 -0.008856 0.022461 -0.015237 0.000000 0.000000 0.000000
# 3 0.000914 -0.015237 0.033835 0.000000 0.000000 0.000000
# 4 0.000000 0.000000 0.000000 0.037845 0.000000 0.000000
# 5 0.000000 0.000000 0.000000 0.000000 0.030308 0.000000
# 6 0.000000 0.000000 0.000000 0.000000 0.000000 0.031789
#
#
# Mechanical properties :
#
#
# Convention : Reuss Voigt Hill
#
# Bulk Modulus (GPa) = 46.50270 67.53850 57.02060
# Shear Modulus (GPa) = 22.59058 27.80469 25.19764
#
# Velocity S-wave (km/s) = 3.49116 3.87316 3.68711
# Velocity P-wave (km/s) = 6.42965 7.51269 6.99217
#
# Compressibility (1/GPa) = 0.02150413
#
# Stress axis : x y z
#
# Youngs Moduli (GPa) = 86.45975 44.52171 29.55521
#
# Poissons Ratio (x) = 0.39428 -0.02702
# Poissons Ratio (y) = 0.76569 0.45034
# Poissons Ratio (z) = -0.07904 0.67838
#
# Static dielectric constant tensor:
#      x y z
#    x 3.687330 0.000000 0.000000 
#    y 0.000000 3.316080 0.000000 
#    z 0.000000 0.000000 3.441070 
# 
# 
# High freq. dielectric constant tensor:
#      x y z
#    x 1.735840 0.000000 0.000000 
#    y 0.000000 1.705130 0.000000 
#    z 0.000000 0.000000 1.724940 
# 
# From -- ./inp_files/5118.got.cif
#   From: 2010.03.12/outbox.cif.g09.slc.cpg/sg57_3_cif.got.tgz:5118.got - 2010.04.16 15:48:40.
