data_PCOD8231847
_publ_section_title
;
Structure prediction by ZEFSAII (Michael W. Deem and Ramdas Pophale) SiO2 
 PCOD8231847
Probable space group: P B C M
;
_chemical_formula_sum "Si O2"
_cell_formula_units_Z 64
_cell_length_a 11.099032
_cell_length_b 33.990737
_cell_length_c 8.708979
_cell_angle_alpha 90.000000
_cell_angle_beta 90.000000
_cell_angle_gamma 90.000000
_cell_volume 3285.586672
_symmetry_space_group_name_H-M "P B C M"
_symmetry_group_IT_number 57
_symmetry_cell_setting 'orthorhombic'
loop_
_space_group_symop_operation_xyz
x,y,z
-x,-y,1/2+z
x,1/2-y,-z
-x,1/2+y,1/2-z
-x,-y,-z
x,y,1/2-z
-x,1/2+y,z
x,1/2-y,1/2+z
loop_
_atom_site_type_symbol
_atom_site_label
_atom_site_fract_x
_atom_site_fract_y
_atom_site_fract_z
Si Si1 0.964485 0.056490 0.573749
Si Si2 0.651786 0.873452 0.431015
Si Si3 0.160626 0.635966 0.924988
Si Si4 0.275479 0.977925 0.568497
Si Si5 0.976445 0.290236 0.432704
Si Si6 0.393688 0.593672 0.567824
Si Si7 0.749579 0.709581 0.569151
Si Si8 0.217860 0.054970 0.069896
O O1 0.986189 0.043733 0.750000
O O2 0.941997 0.102999 0.562188
O O3 0.850567 0.033604 0.508321
O O4 0.079908 0.045897 0.472972
O O5 0.672800 0.877528 0.250000
O O6 0.517901 0.886074 0.480040
O O7 0.673078 0.828452 0.485125
O O8 0.746951 0.901634 0.513793
O O9 0.189820 0.646140 0.750000
O O10 0.106740 0.675107 0.003642
O O11 0.286120 0.621223 0.999672
O O12 0.266697 0.975454 0.750000
O O13 0.381989 0.949296 0.509403
O O14 0.302866 0.022624 0.514511
O O15 0.923195 0.250000 0.500000
O O16 0.971862 0.289975 0.250000
O O17 0.113573 0.296296 0.489425
O O18 0.380405 0.588093 0.750000
O O19 0.694735 0.750000 0.500000
O O20 0.744186 0.713828 0.750000
O O21 0.236665 0.051395 0.250000
#
# Coordination Sequence:
#
# PCOD8231847 Si02
#       8
#     8   8   8   8   8   8   8   8
#     4  10  19  35  57  80 107 139 178 222 270 324
#     4  10  21  38  58  79 105 141 186 230 272 320
#     4   8  15  30  53  75  98 132 170 211 260 314
#     4  11  22  37  56  79 109 143 178 219 271 325
#     4   9  16  28  47  73 104 134 166 205 257 317
#     4   9  19  37  58  77 100 137 184 228 270 318
#     4   9  18  33  54  79 107 140 175 216 269 325
#     4  12  24  36  53  80 111 142 179 223 272 324
#
# _framework density 19.479016000000001
#
# number of rings (size 3 to 8) (size 9 to 14) (size 15 to 20)
#    0.000    2.250    0.000    4.500    0.000    3.500 
#    0.000    6.250    0.000    0.000    0.000    0.000 
#    0.000    0.000    0.000    0.000    0.000    0.000 
#
# Total GULP energy -793558.011295 kJ/mol
# GULP energy per Si atom -12399.343926 kJ/mol
# Density = 1.943468 g / cm^3
# Si number density = 19.479016 Si / 1000 Ang^3
#
#
#
# Elastic Constant Matrix: (Units=GPa)
#
#
# Indices 1 2 3 4 5 6 
#
# 1 48.1238 25.4741 17.5379 0.0000 0.0000 0.0000
# 2 25.4741 133.2005 32.1897 0.0000 0.0000 0.0000
# 3 17.5379 32.1897 51.5815 0.0000 0.0000 0.0000
# 4 0.0000 0.0000 0.0000 31.8997 0.0000 0.0000
# 5 0.0000 0.0000 0.0000 0.0000 20.5680 0.0000
# 6 0.0000 0.0000 0.0000 0.0000 0.0000 24.5706
#
#
#
# Elastic Compliance Matrix: (Units=1/GPa)
#
#
# Indices 1 2 3 4 5 6 
#
# 1 0.024817 -0.003188 -0.006449 0.000000 0.000000 0.000000
# 2 -0.003188 0.009250 -0.004689 0.000000 0.000000 0.000000
# 3 -0.006449 -0.004689 0.024505 0.000000 0.000000 0.000000
# 4 0.000000 0.000000 0.000000 0.031348 0.000000 0.000000
# 5 0.000000 0.000000 0.000000 0.000000 0.048619 0.000000
# 6 0.000000 0.000000 0.000000 0.000000 0.000000 0.040699
#
#
# Mechanical properties :
#
#
# Convention : Reuss Voigt Hill
#
# Bulk Modulus (GPa) = 33.41963 42.58990 38.00477
# Shear Modulus (GPa) = 22.95008 25.92126 24.43567
#
# Velocity S-wave (km/s) = 3.43621 3.65187 3.54568
# Velocity P-wave (km/s) = 5.73911 6.30028 6.02623
#
# Compressibility (1/GPa) = 0.02992254
#
# Stress axis : x y z
#
# Youngs Moduli (GPa) = 40.29448 108.10516 40.80728
#
# Poissons Ratio (x) = 0.34462 0.26315
# Poissons Ratio (y) = 0.12845 0.19134
# Poissons Ratio (z) = 0.25984 0.50688
#
# Static dielectric constant tensor:
#      x y z
#    x 3.499340 0.000000 0.000000 
#    y 0.000000 3.905910 0.000000 
#    z 0.000000 0.000000 3.324370 
# 
# 
# High freq. dielectric constant tensor:
#      x y z
#    x 1.742230 0.000000 0.000000 
#    y 0.000000 1.770950 0.000000 
#    z 0.000000 0.000000 1.738590 
# 
# From -- ./inp_files/3853.got.cif
#   From: 2010.03.12/outbox.cif.g09.slc.cpg/sg57_2_cif.got.tgz:3853.got - 2010.04.16 15:48:40.
