data_PCOD8231707
_publ_section_title
;
Structure prediction by ZEFSAII (Michael W. Deem and Ramdas Pophale) SiO2 
 PCOD8231707
Probable space group: P B C M
;
_chemical_formula_sum "Si O2"
_cell_formula_units_Z 40
_cell_length_a 19.085943
_cell_length_b 10.953839
_cell_length_c 10.115764
_cell_angle_alpha 90.000000
_cell_angle_beta 90.000000
_cell_angle_gamma 90.000000
_cell_volume 2114.845593
_symmetry_space_group_name_H-M "P B C M"
_symmetry_group_IT_number 57
_symmetry_cell_setting 'orthorhombic'
loop_
_space_group_symop_operation_xyz
x,y,z
-x,-y,1/2+z
x,1/2-y,-z
-x,1/2+y,1/2-z
-x,-y,-z
x,y,1/2-z
-x,1/2+y,z
x,1/2-y,1/2+z
loop_
_atom_site_type_symbol
_atom_site_label
_atom_site_fract_x
_atom_site_fract_y
_atom_site_fract_z
Si Si1 0.612482 0.437489 0.999133
Si Si2 0.059319 0.896035 0.998553
Si Si3 0.473056 0.156777 0.897677
Si Si4 0.846928 0.123025 0.250000
Si Si5 0.301210 0.946298 0.250000
Si Si6 0.693904 0.158453 0.250000
Si Si7 0.148898 0.906545 0.250000
O O1 0.555859 0.353966 0.074228
O O2 0.661370 0.494235 0.115413
O O3 0.569179 0.533323 0.913111
O O4 0.655793 0.366377 0.888694
O O5 0.109506 0.921281 0.875363
O O6 0.034860 0.750000 0.000000
O O7 0.103544 0.936220 0.123322
O O8 0.000000 0.000000 0.000000
O O9 0.464054 0.208048 0.750000
O O10 0.438253 0.250000 0.000000
O O11 0.766020 0.077327 0.250000
O O12 0.833610 0.265492 0.250000
O O13 0.297250 0.801687 0.250000
O O14 0.219763 0.988738 0.250000
#
# Coordination Sequence:
#
# PCOD8231707 Si02
#       7
#     8   8   8   4   4   4   4
#     4  11  23  36  55  82 109 137 186 232 283 336
#     4  10  19  34  56  83 114 147 184 226 275 330
#     4  11  24  39  57  78 108 144 186 234 281 334
#     4   9  19  33  55  81 111 144 177 226 276 326
#     4  11  20  34  57  83 109 148 178 230 286 332
#     4  11  20  36  55  81 113 144 182 230 284 332
#     4   9  19  33  53  83 113 140 181 220 276 330
#
# _framework density 18.913909
#
# number of rings (size 3 to 8) (size 9 to 14) (size 15 to 20)
#    0.000    1.600    2.000    3.600    2.800    3.200 
#    0.000    0.000    0.000    7.200    0.000    0.000 
#    0.000    0.000    0.000    0.000    0.000    0.000 
#
# Total GULP energy -495549.156153 kJ/mol
# GULP energy per Si atom -12388.728904 kJ/mol
# Density = 1.887086 g / cm^3
# Si number density = 18.913909 Si / 1000 Ang^3
#
#
#
# Elastic Constant Matrix: (Units=GPa)
#
#
# Indices 1 2 3 4 5 6 
#
# 1 124.6549 28.6744 56.3057 0.0000 0.0000 0.0000
# 2 28.6744 42.3530 20.9149 0.0000 0.0000 0.0000
# 3 56.3057 20.9149 177.0818 0.0000 0.0000 0.0000
# 4 0.0000 0.0000 0.0000 27.2550 0.0000 0.0000
# 5 0.0000 0.0000 0.0000 0.0000 -305.9600 0.0000
# 6 0.0000 0.0000 0.0000 0.0000 0.0000 17.0297
#
#
#
# Elastic Compliance Matrix: (Units=1/GPa)
#
#
# Indices 1 2 3 4 5 6 
#
# 1 0.010572 -0.005838 -0.002672 0.000000 0.000000 0.000000
# 2 -0.005838 0.028297 -0.001486 0.000000 0.000000 0.000000
# 3 -0.002672 -0.001486 0.006672 0.000000 0.000000 0.000000
# 4 0.000000 0.000000 0.000000 0.036691 0.000000 0.000000
# 5 0.000000 0.000000 0.000000 0.000000 -0.003268 0.000000
# 6 0.000000 0.000000 0.000000 0.000000 0.000000 0.058721
#
#
# Mechanical properties :
#
#
# Convention : Reuss Voigt Hill
#
# Bulk Modulus (GPa) = 39.13939 61.76443 50.45191
# Shear Modulus (GPa) = 30.08546 -36.45542 -3.18498
#
# Velocity S-wave (km/s) = 3.99263 -4.39502 -1.29907
# Velocity P-wave (km/s) = 6.48021 2.64035 4.94796
#
# Compressibility (1/GPa) = 0.02554971
#
# Stress axis : x y z
#
# Youngs Moduli (GPa) = 94.58937 35.33889 149.87566
#
# Poissons Ratio (x) = 0.20631 0.40047
# Poissons Ratio (y) = 0.55222 0.22269
# Poissons Ratio (z) = 0.25274 0.05251
#
# Static dielectric constant tensor:
#      x y z
#    x 3.760610 0.000000 0.000000 
#    y 0.000000 3.215680 0.000000 
#    z 0.000000 0.000000 3.540850 
# 
# 
# High freq. dielectric constant tensor:
#      x y z
#    x 1.737640 0.000000 0.000000 
#    y 0.000000 1.691590 0.000000 
#    z 0.000000 0.000000 1.763240 
# 
# From -- ./inp_files/6303.got.cif
#   From: 2010.03.12/outbox.cif.g09.slc.cpg/sg57_4_cif.got.tgz:6303.got - 2010.04.16 15:48:40.
