data_PCOD8231672
_publ_section_title
;
Structure prediction by ZEFSAII (Michael W. Deem and Ramdas Pophale) SiO2 
 PCOD8231672
Probable space group: P B C M
;
_chemical_formula_sum "Si O2"
_cell_formula_units_Z 32
_cell_length_a 10.366456
_cell_length_b 18.390355
_cell_length_c 8.681048
_cell_angle_alpha 90.000000
_cell_angle_beta 90.000000
_cell_angle_gamma 90.000000
_cell_volume 1654.979349
_symmetry_space_group_name_H-M "P B C M"
_symmetry_group_IT_number 57
_symmetry_cell_setting 'orthorhombic'
loop_
_space_group_symop_operation_xyz
x,y,z
-x,-y,1/2+z
x,1/2-y,-z
-x,1/2+y,1/2-z
-x,-y,-z
x,y,1/2-z
-x,1/2+y,z
x,1/2-y,1/2+z
loop_
_atom_site_type_symbol
_atom_site_label
_atom_site_fract_x
_atom_site_fract_y
_atom_site_fract_z
Si Si1 0.719267 0.932746 0.930531
Si Si2 0.742365 0.097292 0.567696
Si Si3 0.000358 0.920613 0.569283
Si Si4 0.500784 0.172559 0.433011
O O1 0.700152 0.940456 0.750000
O O2 0.855342 0.891024 0.964918
O O3 0.602382 0.885733 0.000383
O O4 0.717185 0.015275 0.996317
O O5 0.730702 0.102918 0.750000
O O6 0.642193 0.151555 0.490054
O O7 0.885769 0.124009 0.515611
O O8 0.029368 0.922738 0.750000
O O9 0.000000 0.000000 0.500000
O O10 0.460882 0.250000 0.500000
O O11 0.497452 0.175825 0.250000
#
# Coordination Sequence:
#
# PCOD8231672 Si02
#       4
#     8   8   8   8
#     4   8  17  33  55  79 105 134 172 216 260 307
#     4  10  19  34  55  81 106 135 174 216 260 314
#     4   9  16  30  52  80 108 135 168 215 265 312
#     4  11  22  37  53  74 104 140 175 215 261 309
#
# _framework density 19.335588000000001
#
# number of rings (size 3 to 8) (size 9 to 14) (size 15 to 20)
#    0.000    2.500    0.000    4.500    0.000    0.000 
#    0.000   15.000    0.000    3.000    0.000    0.000 
#    0.000    0.000    0.000    0.000    0.000    0.000 
#
# Total GULP energy -396580.958882 kJ/mol
# GULP energy per Si atom -12393.154965 kJ/mol
# Density = 1.929158 g / cm^3
# Si number density = 19.335588 Si / 1000 Ang^3
#
#
#
# Elastic Constant Matrix: (Units=GPa)
#
#
# Indices 1 2 3 4 5 6 
#
# 1 102.5967 14.5680 25.0126 0.0000 0.0000 0.0000
# 2 14.5680 48.6192 16.1956 0.0000 0.0000 0.0000
# 3 25.0126 16.1956 67.9574 0.0000 0.0000 0.0000
# 4 0.0000 0.0000 0.0000 24.1392 0.0000 0.0000
# 5 0.0000 0.0000 0.0000 0.0000 28.5834 0.0000
# 6 0.0000 0.0000 0.0000 0.0000 0.0000 12.1195
#
#
#
# Elastic Compliance Matrix: (Units=1/GPa)
#
#
# Indices 1 2 3 4 5 6 
#
# 1 0.010901 -0.002096 -0.003513 0.000000 0.000000 0.000000
# 2 -0.002096 0.022745 -0.004649 0.000000 0.000000 0.000000
# 3 -0.003513 -0.004649 0.017116 0.000000 0.000000 0.000000
# 4 0.000000 0.000000 0.000000 0.041426 0.000000 0.000000
# 5 0.000000 0.000000 0.000000 0.000000 0.034985 0.000000
# 6 0.000000 0.000000 0.000000 0.000000 0.000000 0.082512
#
#
# Mechanical properties :
#
#
# Convention : Reuss Voigt Hill
#
# Bulk Modulus (GPa) = 33.06233 36.74729 34.90481
# Shear Modulus (GPa) = 20.80882 23.86156 22.33519
#
# Velocity S-wave (km/s) = 3.28410 3.51675 3.40241
# Velocity P-wave (km/s) = 5.61398 5.96123 5.79021
#
# Compressibility (1/GPa) = 0.03024591
#
# Stress axis : x y z
#
# Youngs Moduli (GPa) = 91.73544 43.96626 58.42512
#
# Poissons Ratio (x) = 0.09216 0.20523
# Poissons Ratio (y) = 0.19229 0.27162
# Poissons Ratio (z) = 0.32224 0.20440
#
# Static dielectric constant tensor:
#      x y z
#    x 4.289450 0.000000 0.000000 
#    y 0.000000 3.329750 0.000000 
#    z 0.000000 0.000000 3.457940 
# 
# 
# High freq. dielectric constant tensor:
#      x y z
#    x 1.776430 0.000000 0.000000 
#    y 0.000000 1.710040 0.000000 
#    z 0.000000 0.000000 1.742860 
# 
# From -- ./inp_files/1229.got.cif
#   From: 2010.03.12/outbox.cif.g09.slc.cpg/sg57_1_cif.got.tgz:1229.got - 2010.04.16 15:48:40.
