data_PCOD8231058
_publ_section_title
;
Structure prediction by ZEFSAII (Michael W. Deem and Ramdas Pophale) SiO2 
 PCOD8231058
Probable space group: P B C M
;
_chemical_formula_sum "Si O2"
_cell_formula_units_Z 48
_cell_length_a 11.781433
_cell_length_b 25.618973
_cell_length_c 9.141642
_cell_angle_alpha 90.000000
_cell_angle_beta 90.000000
_cell_angle_gamma 90.000000
_cell_volume 2759.205477
_symmetry_space_group_name_H-M "P B C M"
_symmetry_group_IT_number 57
_symmetry_cell_setting 'orthorhombic'
loop_
_space_group_symop_operation_xyz
x,y,z
-x,-y,1/2+z
x,1/2-y,-z
-x,1/2+y,1/2-z
-x,-y,-z
x,y,1/2-z
-x,1/2+y,z
x,1/2-y,1/2+z
loop_
_atom_site_type_symbol
_atom_site_label
_atom_site_fract_x
_atom_site_fract_y
_atom_site_fract_z
Si Si1 0.343045 0.195412 0.076780
Si Si2 0.974899 0.055182 0.576109
Si Si3 0.484023 0.608426 0.082215
Si Si4 0.369021 0.035158 0.912260
Si Si5 0.250945 0.568821 0.419953
Si Si6 0.183993 0.124467 0.912926
O O1 0.337414 0.202922 0.250000
O O2 0.449748 0.159497 0.025107
O O3 0.364166 0.250000 0.000000
O O4 0.224113 0.170415 0.021971
O O5 0.973550 0.046481 0.750000
O O6 0.857282 0.080301 0.520348
O O7 0.068694 0.097774 0.529842
O O8 0.000000 0.000000 0.500000
O O9 0.515143 0.600966 0.250000
O O10 0.347712 0.613690 0.058560
O O11 0.524272 0.554201 0.007739
O O12 0.413844 0.021958 0.750000
O O13 0.279435 0.081201 0.908645
O O14 0.305587 0.985042 0.977259
O O15 0.213618 0.564559 0.250000
O O16 0.166178 0.147973 0.750000
#
# Coordination Sequence:
#
# PCOD8231058 Si02
#       6
#     8   8   8   8   8   8
#     4  10  20  35  56  80 100 127 165 212 266 313
#     4  11  21  33  50  73 105 143 180 212 249 300
#     4   9  19  32  48  72 101 130 168 212 253 302
#     4   9  16  28  46  68 100 136 167 203 249 295
#     4  10  19  32  47  69 104 140 172 208 249 296
#     4   9  18  33  50  73 103 134 169 213 256 297
#
# _framework density 17.396312999999999
#
# number of rings (size 3 to 8) (size 9 to 14) (size 15 to 20)
#    0.000    2.333    1.667    1.500    0.000    3.333 
#    0.000    0.000    0.000    1.000    0.000    4.667 
#    0.000    0.000    0.000    0.000    0.000    0.000 
#
# Total GULP energy -595008.488428 kJ/mol
# GULP energy per Si atom -12396.010176 kJ/mol
# Density = 1.735672 g / cm^3
# Si number density = 17.396313 Si / 1000 Ang^3
#
#
#
# Elastic Constant Matrix: (Units=GPa)
#
#
# Indices 1 2 3 4 5 6 
#
# 1 96.0297 26.9268 35.9478 0.0000 0.0000 0.0000
# 2 26.9268 75.5361 30.2298 0.0000 0.0000 0.0000
# 3 35.9478 30.2298 62.4802 0.0000 0.0000 0.0000
# 4 0.0000 0.0000 0.0000 23.5186 0.0000 0.0000
# 5 0.0000 0.0000 0.0000 0.0000 30.3258 0.0000
# 6 0.0000 0.0000 0.0000 0.0000 0.0000 15.1287
#
#
#
# Elastic Compliance Matrix: (Units=1/GPa)
#
#
# Indices 1 2 3 4 5 6 
#
# 1 0.013540 -0.002119 -0.006765 0.000000 0.000000 0.000000
# 2 -0.002119 0.016749 -0.006884 0.000000 0.000000 0.000000
# 3 -0.006765 -0.006884 0.023228 0.000000 0.000000 0.000000
# 4 0.000000 0.000000 0.000000 0.042520 0.000000 0.000000
# 5 0.000000 0.000000 0.000000 0.000000 0.032975 0.000000
# 6 0.000000 0.000000 0.000000 0.000000 0.000000 0.066099
#
#
# Mechanical properties :
#
#
# Convention : Reuss Voigt Hill
#
# Bulk Modulus (GPa) = 45.49548 46.69496 46.09522
# Shear Modulus (GPa) = 21.36973 23.19074 22.28024
#
# Velocity S-wave (km/s) = 3.50866 3.65510 3.58263
# Velocity P-wave (km/s) = 6.52866 6.68679 6.60820
#
# Compressibility (1/GPa) = 0.02198020
#
# Stress axis : x y z
#
# Youngs Moduli (GPa) = 73.85488 59.70364 43.05136
#
# Poissons Ratio (x) = 0.12654 0.29123
# Poissons Ratio (y) = 0.15653 0.29639
# Poissons Ratio (z) = 0.49961 0.41103
#
# Static dielectric constant tensor:
#      x y z
#    x 3.410350 0.000000 0.000000 
#    y 0.000000 3.074400 0.000000 
#    z 0.000000 0.000000 3.479730 
# 
# 
# High freq. dielectric constant tensor:
#      x y z
#    x 1.673340 0.000000 0.000000 
#    y 0.000000 1.642120 0.000000 
#    z 0.000000 0.000000 1.673010 
# 
# From -- ./inp_files/3169.got.cif
#   From: 2010.03.12/outbox.cif.g09.slc.cpg/sg57_2_cif.got.tgz:3169.got - 2010.04.16 15:48:40.
