data_PCOD8231638
_publ_section_title
;
Structure prediction by ZEFSAII (Michael W. Deem and Ramdas Pophale) SiO2 
 PCOD8231638
Probable space group: P B C M
;
_chemical_formula_sum "Si O2"
_cell_formula_units_Z 56
_cell_length_a 19.504295
_cell_length_b 9.295856
_cell_length_c 15.404210
_cell_angle_alpha 90.000000
_cell_angle_beta 90.000000
_cell_angle_gamma 90.000000
_cell_volume 2792.923724
_symmetry_space_group_name_H-M "P B C M"
_symmetry_group_IT_number 57
_symmetry_cell_setting 'orthorhombic'
loop_
_space_group_symop_operation_xyz
x,y,z
-x,-y,1/2+z
x,1/2-y,-z
-x,1/2+y,1/2-z
-x,-y,-z
x,y,1/2-z
-x,1/2+y,z
x,1/2-y,1/2+z
loop_
_atom_site_type_symbol
_atom_site_label
_atom_site_fract_x
_atom_site_fract_y
_atom_site_fract_z
Si Si1 0.934523 0.634798 0.347660
Si Si2 0.941188 0.182495 0.853526
Si Si3 0.655281 0.672562 0.912288
Si Si4 0.667199 0.336300 0.585976
Si Si5 0.564204 0.658903 0.750000
Si Si6 0.810857 0.801807 0.095520
Si Si7 0.184654 0.623524 0.353171
Si Si8 0.422658 0.679148 0.250000
O O1 0.959831 0.610110 0.250000
O O2 0.935177 0.478178 0.393559
O O3 0.858811 0.704063 0.343994
O O4 0.989964 0.742413 0.391386
O O5 0.941523 0.175412 0.750000
O O6 0.875757 0.273091 0.884727
O O7 0.655175 0.503862 0.931568
O O8 0.604101 0.713975 0.835111
O O9 0.730935 0.725049 0.882961
O O10 0.630626 0.750000 0.000000
O O11 0.646435 0.250000 0.500000
O O12 0.745829 0.307111 0.610455
O O13 0.620421 0.280656 0.664687
O O14 0.557759 0.487796 0.750000
O O15 0.489518 0.724399 0.750000
O O16 0.830059 0.967894 0.106499
O O17 0.829200 0.750000 0.000000
O O18 0.190421 0.606524 0.250000
#
# Coordination Sequence:
#
# PCOD8231638 Si02
#       8
#     8   8   8   8   4   8   8   4
#     4  10  19  34  54  77 109 147 192 241 292 347
#     4   9  19  33  53  81 108 144 193 242 288 345
#     4   9  21  39  59  87 121 155 199 242 292 349
#     4  10  21  38  63  88 121 157 196 242 293 348
#     4  10  22  40  66  86 123 160 201 232 291 350
#     4  10  21  35  55  82 111 145 191 238 293 347
#     4  10  19  36  60  82 111 155 197 238 293 350
#     4  10  22  42  60  94 119 160 197 240 285 354
#
# _framework density 20.050673
#
# number of rings (size 3 to 8) (size 9 to 14) (size 15 to 20)
#    0.000    2.286    0.714    1.286    4.000    7.429 
#    0.000    6.429    0.000    0.000    0.000    0.000 
#    0.000    0.000    0.000    0.000    0.000    0.000 
#
# Total GULP energy -694416.827026 kJ/mol
# GULP energy per Si atom -12400.300483 kJ/mol
# Density = 2.000504 g / cm^3
# Si number density = 20.050673 Si / 1000 Ang^3
#
#
#
# Elastic Constant Matrix: (Units=GPa)
#
#
# Indices 1 2 3 4 5 6 
#
# 1 120.4838 75.9144 66.0096 0.0000 0.0000 0.0000
# 2 75.9144 113.0339 47.4300 0.0000 0.0000 0.0000
# 3 66.0096 47.4300 96.9829 0.0000 0.0000 0.0000
# 4 0.0000 0.0000 0.0000 31.0257 0.0000 0.0000
# 5 0.0000 0.0000 0.0000 0.0000 9.3115 0.0000
# 6 0.0000 0.0000 0.0000 0.0000 0.0000 36.0882
#
#
#
# Elastic Compliance Matrix: (Units=1/GPa)
#
#
# Indices 1 2 3 4 5 6 
#
# 1 0.018394 -0.008934 -0.008151 0.000000 0.000000 0.000000
# 2 -0.008934 0.015470 -0.001485 0.000000 0.000000 0.000000
# 3 -0.008151 -0.001485 0.016585 0.000000 0.000000 0.000000
# 4 0.000000 0.000000 0.000000 0.032231 0.000000 0.000000
# 5 0.000000 0.000000 0.000000 0.000000 0.107394 0.000000
# 6 0.000000 0.000000 0.000000 0.000000 0.000000 0.027710
#
#
# Mechanical properties :
#
#
# Convention : Reuss Voigt Hill
#
# Bulk Modulus (GPa) = 75.12961 78.80096 76.96528
# Shear Modulus (GPa) = 19.27816 24.69484 21.98650
#
# Velocity S-wave (km/s) = 3.10413 3.51325 3.31501
# Velocity P-wave (km/s) = 7.09920 7.47285 7.28842
#
# Compressibility (1/GPa) = 0.01331033
#
# Stress axis : x y z
#
# Youngs Moduli (GPa) = 54.36457 64.64117 60.29529
#
# Poissons Ratio (x) = 0.57748 0.49145
# Poissons Ratio (y) = 0.48568 0.08955
# Poissons Ratio (z) = 0.44311 0.09600
#
# Static dielectric constant tensor:
#      x y z
#    x 3.650080 0.000000 0.000000 
#    y 0.000000 3.682820 0.000000 
#    z 0.000000 0.000000 3.499750 
# 
# 
# High freq. dielectric constant tensor:
#      x y z
#    x 1.784310 0.000000 0.000000 
#    y 0.000000 1.782990 0.000000 
#    z 0.000000 0.000000 1.772920 
# 
# From -- ./inp_files/19390.got.cif
#   From: 2010.03.12/outbox.cif.g09.slc.cpg/sg57_10_cif.got.tgz:19390.got - 2010.04.16 15:48:40.
