data_PCOD8231445
_publ_section_title
;
Structure prediction by ZEFSAII (Michael W. Deem and Ramdas Pophale) SiO2 
 PCOD8231445
Probable space group: P B C M
;
_chemical_formula_sum "Si O2"
_cell_formula_units_Z 56
_cell_length_a 22.451458
_cell_length_b 14.369346
_cell_length_c 8.761484
_cell_angle_alpha 90.000000
_cell_angle_beta 90.000000
_cell_angle_gamma 90.000000
_cell_volume 2826.566607
_symmetry_space_group_name_H-M "P B C M"
_symmetry_group_IT_number 57
_symmetry_cell_setting 'orthorhombic'
loop_
_space_group_symop_operation_xyz
x,y,z
-x,-y,1/2+z
x,1/2-y,-z
-x,1/2+y,1/2-z
-x,-y,-z
x,y,1/2-z
-x,1/2+y,z
x,1/2-y,1/2+z
loop_
_atom_site_type_symbol
_atom_site_label
_atom_site_fract_x
_atom_site_fract_y
_atom_site_fract_z
Si Si1 0.360440 0.458113 0.071191
Si Si2 0.513705 0.901783 0.429203
Si Si3 0.245105 0.352163 0.431877
Si Si4 0.104020 0.847183 0.568707
Si Si5 0.599369 0.341338 0.930235
Si Si6 0.030722 0.344108 0.927493
Si Si7 0.139473 0.468144 0.570313
O O1 0.353045 0.471759 0.250000
O O2 0.415630 0.387192 0.037944
O O3 0.300943 0.411949 0.003486
O O4 0.371407 0.562824 0.004321
O O5 0.499750 0.899359 0.250000
O O6 0.469915 0.831447 0.516410
O O7 0.500000 0.000000 0.500000
O O8 0.248778 0.250000 0.500000
O O9 0.245463 0.345596 0.250000
O O10 0.185760 0.401679 0.487661
O O11 0.127344 0.750000 0.500000
O O12 0.110868 0.846567 0.750000
O O13 0.036019 0.864732 0.513329
O O14 0.144587 0.928486 0.498071
O O15 0.602843 0.337656 0.750000
O O16 0.632504 0.250000 0.000000
O O17 0.028967 0.325149 0.750000
O O18 0.073626 0.429549 0.969212
O O19 0.056684 0.250000 0.000000
O O20 0.152082 0.469413 0.750000
#
# Coordination Sequence:
#
# PCOD8231445 Si02
#       7
#     8   8   8   8   8   8   8
#     4   8  18  36  56  76 106 144 183 224 271 322
#     4   9  16  30  51  77 107 141 177 218 265 317
#     4  11  23  41  60  80 106 141 183 230 276 324
#     4  10  20  36  57  83 112 146 181 222 272 326
#     4  10  19  33  53  81 112 144 179 221 271 327
#     4   9  19  33  53  81 114 146 181 222 270 323
#     4  11  22  37  56  82 112 146 185 227 271 323
#
# _framework density 19.812023
#
# number of rings (size 3 to 8) (size 9 to 14) (size 15 to 20)
#    0.000    2.286    0.000    3.857    0.000    3.429 
#    0.000   10.714    0.000    1.714    0.000    0.000 
#    0.000    0.000    0.000    0.000    0.000    0.000 
#
# Total GULP energy -694092.152932 kJ/mol
# GULP energy per Si atom -12394.502731 kJ/mol
# Density = 1.976693 g / cm^3
# Si number density = 19.812023 Si / 1000 Ang^3
#
#
#
# Elastic Constant Matrix: (Units=GPa)
#
#
# Indices 1 2 3 4 5 6 
#
# 1 67.9435 48.0767 28.5406 0.0000 0.0000 0.0000
# 2 48.0767 152.1239 42.7498 0.0000 0.0000 0.0000
# 3 28.5406 42.7498 71.6099 0.0000 0.0000 0.0000
# 4 0.0000 0.0000 0.0000 36.5564 0.0000 0.0000
# 5 0.0000 0.0000 0.0000 0.0000 21.6083 0.0000
# 6 0.0000 0.0000 0.0000 0.0000 0.0000 27.4857
#
#
#
# Elastic Compliance Matrix: (Units=1/GPa)
#
#
# Indices 1 2 3 4 5 6 
#
# 1 0.020425 -0.005008 -0.005151 0.000000 0.000000 0.000000
# 2 -0.005008 0.009126 -0.003452 0.000000 0.000000 0.000000
# 3 -0.005151 -0.003452 0.018079 0.000000 0.000000 0.000000
# 4 0.000000 0.000000 0.000000 0.027355 0.000000 0.000000
# 5 0.000000 0.000000 0.000000 0.000000 0.046279 0.000000
# 6 0.000000 0.000000 0.000000 0.000000 0.000000 0.036383
#
#
# Mechanical properties :
#
#
# Convention : Reuss Voigt Hill
#
# Bulk Modulus (GPa) = 49.00081 58.93460 53.96771
# Shear Modulus (GPa) = 26.08629 28.61742 27.35186
#
# Velocity S-wave (km/s) = 3.63256 3.80471 3.71963
# Velocity P-wave (km/s) = 6.51003 7.00804 6.76362
#
# Compressibility (1/GPa) = 0.02040783
#
# Stress axis : x y z
#
# Youngs Moduli (GPa) = 48.95892 109.57258 55.31381
#
# Poissons Ratio (x) = 0.54869 0.28493
# Poissons Ratio (y) = 0.24516 0.19097
# Poissons Ratio (z) = 0.25220 0.37830
#
# Static dielectric constant tensor:
#      x y z
#    x 3.863710 0.000000 0.000000 
#    y 0.000000 3.921200 0.000000 
#    z 0.000000 0.000000 5.131830 
# 
# 
# High freq. dielectric constant tensor:
#      x y z
#    x 1.753530 0.000000 0.000000 
#    y 0.000000 1.781420 0.000000 
#    z 0.000000 0.000000 1.766740 
# 
# From -- ./inp_files/8199.got.cif
#   From: 2010.03.12/outbox.cif.g09.slc.cpg/sg57_5_cif.got.tgz:8199.got - 2010.04.16 15:48:40.
