data_PCOD8231489
_publ_section_title
;
Structure prediction by ZEFSAII (Michael W. Deem and Ramdas Pophale) SiO2 
 PCOD8231489
Probable space group: P B C M
;
_chemical_formula_sum "Si O2"
_cell_formula_units_Z 64
_cell_length_a 11.302522
_cell_length_b 33.442841
_cell_length_c 8.672012
_cell_angle_alpha 90.000000
_cell_angle_beta 90.000000
_cell_angle_gamma 90.000000
_cell_volume 3277.920341
_symmetry_space_group_name_H-M "P B C M"
_symmetry_group_IT_number 57
_symmetry_cell_setting 'orthorhombic'
loop_
_space_group_symop_operation_xyz
x,y,z
-x,-y,1/2+z
x,1/2-y,-z
-x,1/2+y,1/2-z
-x,-y,-z
x,y,1/2-z
-x,1/2+y,z
x,1/2-y,1/2+z
loop_
_atom_site_type_symbol
_atom_site_label
_atom_site_fract_x
_atom_site_fract_y
_atom_site_fract_z
Si Si1 0.553719 0.932834 0.931565
Si Si2 0.927023 0.583201 0.924843
Si Si3 0.141218 0.871439 0.570140
Si Si4 0.941707 0.292218 0.067377
Si Si5 0.305117 0.566421 0.571051
Si Si6 0.217420 0.018654 0.427905
Si Si7 0.307362 0.135021 0.573080
Si Si8 0.198178 0.208572 0.432128
O O1 0.534142 0.931641 0.750000
O O2 0.655804 0.963817 0.981420
O O3 0.433788 0.946671 0.013037
O O4 0.586456 0.888861 0.993347
O O5 0.974378 0.581507 0.750000
O O6 0.813751 0.610967 0.942023
O O7 0.890119 0.538504 0.977080
O O8 0.029046 0.601175 0.030250
O O9 0.142618 0.862470 0.750000
O O10 0.141855 0.828831 0.482943
O O11 0.259059 0.895224 0.522100
O O12 0.945283 0.289037 0.250000
O O13 0.894895 0.250000 0.000000
O O14 0.072211 0.302235 0.006421
O O15 0.310997 0.577409 0.750000
O O16 0.216955 0.528879 0.543227
O O17 0.197590 0.029577 0.250000
O O18 0.339433 0.143872 0.750000
O O19 0.294806 0.175969 0.479159
O O20 0.245814 0.250000 0.500000
O O21 0.182492 0.211236 0.250000
#
# Coordination Sequence:
#
# PCOD8231489 Si02
#       8
#     8   8   8   8   8   8   8   8
#     4  10  20  36  58  83 109 141 186 236 283 334
#     4  10  20  34  55  81 111 146 185 228 281 338
#     4  12  24  38  57  81 114 152 189 233 280 333
#     4  11  21  36  57  84 115 148 185 226 273 328
#     4  11  23  39  57  80 110 148 192 236 281 331
#     4   9  20  37  58  82 111 145 185 234 285 337
#     4  10  19  33  54  80 111 145 182 227 278 333
#     4  11  20  31  51  81 115 148 180 223 274 332
#
# _framework density 19.524574000000001
#
# number of rings (size 3 to 8) (size 9 to 14) (size 15 to 20)
#    0.000    1.500    1.250    6.000    0.000    3.000 
#    0.000    0.000    0.000    0.750    0.000    5.250 
#    0.000    0.000    0.000    0.000    0.000    0.000 
#
# Total GULP energy -793858.009986 kJ/mol
# GULP energy per Si atom -12404.031406 kJ/mol
# Density = 1.948013 g / cm^3
# Si number density = 19.524574 Si / 1000 Ang^3
#
#
#
# Elastic Constant Matrix: (Units=GPa)
#
#
# Indices 1 2 3 4 5 6 
#
# 1 30.2045 10.9488 13.7365 0.0000 0.0000 0.0000
# 2 10.9488 107.4533 37.2430 0.0000 0.0000 0.0000
# 3 13.7365 37.2430 115.9269 0.0000 0.0000 0.0000
# 4 0.0000 0.0000 0.0000 34.9417 0.0000 0.0000
# 5 0.0000 0.0000 0.0000 0.0000 29.2219 0.0000
# 6 0.0000 0.0000 0.0000 0.0000 0.0000 26.7497
#
#
#
# Elastic Compliance Matrix: (Units=1/GPa)
#
#
# Indices 1 2 3 4 5 6 
#
# 1 0.035550 -0.002433 -0.003431 0.000000 0.000000 0.000000
# 2 -0.002433 0.010639 -0.003130 0.000000 0.000000 0.000000
# 3 -0.003431 -0.003130 0.010038 0.000000 0.000000 0.000000
# 4 0.000000 0.000000 0.000000 0.028619 0.000000 0.000000
# 5 0.000000 0.000000 0.000000 0.000000 0.034221 0.000000
# 6 0.000000 0.000000 0.000000 0.000000 0.000000 0.037384
#
#
# Mechanical properties :
#
#
# Convention : Reuss Voigt Hill
#
# Bulk Modulus (GPa) = 26.15071 41.93792 34.04432
# Shear Modulus (GPa) = 26.71166 30.95975 28.83571
#
# Velocity S-wave (km/s) = 3.70280 3.98638 3.84721
# Velocity P-wave (km/s) = 5.63061 6.53563 6.09993
#
# Compressibility (1/GPa) = 0.03823988
#
# Stress axis : x y z
#
# Youngs Moduli (GPa) = 28.12953 93.99367 99.62089
#
# Poissons Ratio (x) = 0.22871 0.34177
# Poissons Ratio (y) = 0.06845 0.31177
# Poissons Ratio (z) = 0.09650 0.29416
#
# Static dielectric constant tensor:
#      x y z
#    x 3.290770 0.000000 0.000000 
#    y 0.000000 3.712500 0.000000 
#    z 0.000000 0.000000 3.639970 
# 
# 
# High freq. dielectric constant tensor:
#      x y z
#    x 1.726990 0.000000 0.000000 
#    y 0.000000 1.767670 0.000000 
#    z 0.000000 0.000000 1.774750 
# 
# From -- ./inp_files/3830.got.cif
#   From: 2010.03.12/outbox.cif.g09.slc.cpg/sg57_2_cif.got.tgz:3830.got - 2010.04.16 15:48:40.
