data_PCOD8231767
_publ_section_title
;
Structure prediction by ZEFSAII (Michael W. Deem and Ramdas Pophale) SiO2 
 PCOD8231767
Probable space group: P B C M
;
_chemical_formula_sum "Si O2"
_cell_formula_units_Z 56
_cell_length_a 8.516941
_cell_length_b 21.835006
_cell_length_c 14.723356
_cell_angle_alpha 90.000000
_cell_angle_beta 90.000000
_cell_angle_gamma 90.000000
_cell_volume 2738.065086
_symmetry_space_group_name_H-M "P B C M"
_symmetry_group_IT_number 57
_symmetry_cell_setting 'orthorhombic'
loop_
_space_group_symop_operation_xyz
x,y,z
-x,-y,1/2+z
x,1/2-y,-z
-x,1/2+y,1/2-z
-x,-y,-z
x,y,1/2-z
-x,1/2+y,z
x,1/2-y,1/2+z
loop_
_atom_site_type_symbol
_atom_site_label
_atom_site_fract_x
_atom_site_fract_y
_atom_site_fract_z
Si Si1 0.425047 0.841284 0.850293
Si Si2 0.041001 0.262567 0.645345
Si Si3 0.237657 0.380800 0.650097
Si Si4 0.425959 0.799580 0.354459
Si Si5 0.242071 0.143497 0.855889
Si Si6 0.819907 0.330692 0.509495
Si Si7 0.931770 0.933094 0.490322
O O1 0.355230 0.851869 0.750000
O O2 0.577400 0.882383 0.865799
O O3 0.475082 0.770832 0.863453
O O4 0.297860 0.864022 0.921639
O O5 0.975864 0.262151 0.750000
O O6 0.903583 0.276089 0.570849
O O7 0.176467 0.312246 0.634025
O O8 0.118577 0.197657 0.619109
O O9 0.193619 0.403633 0.750000
O O10 0.157440 0.428262 0.584602
O O11 0.378127 0.815626 0.250000
O O12 0.579942 0.838380 0.384226
O O13 0.277762 0.808880 0.421148
O O14 0.235118 0.129144 0.750000
O O15 0.191570 0.081431 0.908955
O O16 0.933885 0.383224 0.476550
O O17 0.000000 0.000000 0.500000
#
# Coordination Sequence:
#
# PCOD8231767 Si02
#       7
#     8   8   8   8   8   8   8
#     4  10  19  34  57  92 126 149 177 232 305 375
#     4   9  18  35  59  91 120 148 186 232 295 370
#     4   9  18  37  63  85 116 154 191 237 296 362
#     4  10  21  37  59  92 129 155 186 235 301 376
#     4  10  21  40  63  85 118 161 200 242 297 364
#     4  11  23  35  58  90 122 154 189 242 306 348
#     4  11  26  42  57  81 116 162 215 256 287 337
#
# _framework density 20.452399
#
# number of rings (size 3 to 8) (size 9 to 14) (size 15 to 20)
#    0.000    2.000    1.429    1.714    4.000    3.429 
#    0.000    2.857    0.000    3.429    0.000    0.000 
#    0.000    0.000    0.000    0.000    0.000    0.000 
#
# Total GULP energy -694010.373686 kJ/mol
# GULP energy per Si atom -12393.042387 kJ/mol
# Density = 2.040585 g / cm^3
# Si number density = 20.452399 Si / 1000 Ang^3
#
#
#
# Elastic Constant Matrix: (Units=GPa)
#
#
# Indices 1 2 3 4 5 6 
#
# 1 86.9723 16.1733 59.4482 0.0000 0.0000 0.0000
# 2 16.1733 34.8232 22.8876 0.0000 0.0000 0.0000
# 3 59.4482 22.8876 120.1733 0.0000 0.0000 0.0000
# 4 0.0000 0.0000 0.0000 20.9107 0.0000 0.0000
# 5 0.0000 0.0000 0.0000 0.0000 39.9975 0.0000
# 6 0.0000 0.0000 0.0000 0.0000 0.0000 14.3964
#
#
#
# Elastic Compliance Matrix: (Units=1/GPa)
#
#
# Indices 1 2 3 4 5 6 
#
# 1 0.017608 -0.002804 -0.008177 0.000000 0.000000 0.000000
# 2 -0.002804 0.033272 -0.004950 0.000000 0.000000 0.000000
# 3 -0.008177 -0.004950 0.013309 0.000000 0.000000 0.000000
# 4 0.000000 0.000000 0.000000 0.047823 0.000000 0.000000
# 5 0.000000 0.000000 0.000000 0.000000 0.025002 0.000000
# 6 0.000000 0.000000 0.000000 0.000000 0.000000 0.069462
#
#
# Mechanical properties :
#
#
# Convention : Reuss Voigt Hill
#
# Bulk Modulus (GPa) = 30.93237 48.77634 39.85435
# Shear Modulus (GPa) = 20.07132 24.62489 22.34811
#
# Velocity S-wave (km/s) = 3.13608 3.47365 3.30917
# Velocity P-wave (km/s) = 5.31697 6.32367 5.84205
#
# Compressibility (1/GPa) = 0.03232859
#
# Stress axis : x y z
#
# Youngs Moduli (GPa) = 56.79149 30.05537 75.13789
#
# Poissons Ratio (x) = 0.08427 0.61437
# Poissons Ratio (y) = 0.15924 0.37191
# Poissons Ratio (z) = 0.46436 0.14877
#
# Static dielectric constant tensor:
#      x y z
#    x 3.966010 0.000000 0.000000 
#    y 0.000000 3.196310 0.000000 
#    z 0.000000 0.000000 4.163140 
# 
# 
# High freq. dielectric constant tensor:
#      x y z
#    x 1.815070 0.000000 0.000000 
#    y 0.000000 1.738580 0.000000 
#    z 0.000000 0.000000 1.823720 
# 
# From -- ./inp_files/16746.got.cif
#   From: 2010.03.12/outbox.cif.g09.slc.cpg/sg57_9_cif.got.tgz:16746.got - 2010.04.16 15:48:40.
