data_PCOD8231737
_publ_section_title
;
Structure prediction by ZEFSAII (Michael W. Deem and Ramdas Pophale) SiO2 
 PCOD8231737
Probable space group: P B C M
;
_chemical_formula_sum "Si O2"
_cell_formula_units_Z 56
_cell_length_a 13.917388
_cell_length_b 23.846565
_cell_length_c 8.823385
_cell_angle_alpha 90.000000
_cell_angle_beta 90.000000
_cell_angle_gamma 90.000000
_cell_volume 2928.321757
_symmetry_space_group_name_H-M "P B C M"
_symmetry_group_IT_number 57
_symmetry_cell_setting 'orthorhombic'
loop_
_space_group_symop_operation_xyz
x,y,z
-x,-y,1/2+z
x,1/2-y,-z
-x,1/2+y,1/2-z
-x,-y,-z
x,y,1/2-z
-x,1/2+y,z
x,1/2-y,1/2+z
loop_
_atom_site_type_symbol
_atom_site_label
_atom_site_fract_x
_atom_site_fract_y
_atom_site_fract_z
Si Si1 0.713688 0.809753 0.070231
Si Si2 0.781834 0.019782 0.075421
Si Si3 0.848788 0.308184 0.073012
Si Si4 0.957948 0.404133 0.923495
Si Si5 0.678116 0.130358 0.425524
Si Si6 0.487069 0.191424 0.071982
Si Si7 0.178241 0.409212 0.924976
O O1 0.709638 0.804259 0.250000
O O2 0.743335 0.750000 0.000000
O O3 0.610345 0.829295 0.007015
O O4 0.791693 0.855575 0.022624
O O5 0.771413 0.002380 0.250000
O O6 0.888086 0.043792 0.040830
O O7 0.701605 0.066067 0.029353
O O8 0.763572 0.964548 0.975526
O O9 0.845105 0.300124 0.250000
O O10 0.879175 0.250000 0.000000
O O11 0.930651 0.352553 0.030258
O O12 0.743766 0.327102 0.018575
O O13 0.943662 0.384894 0.750000
O O14 0.066625 0.421754 0.956948
O O15 0.704034 0.139617 0.250000
O O16 0.567088 0.143986 0.459223
O O17 0.468819 0.200304 0.250000
O O18 0.521807 0.250000 0.000000
O O19 0.200109 0.396801 0.750000
#
# Coordination Sequence:
#
# PCOD8231737 Si02
#       7
#     8   8   8   8   8   8   8
#     4  11  23  40  60  82 109 140 177 224 271 319
#     4   9  18  35  56  81 112 143 176 218 267 317
#     4  11  21  32  50  76 109 144 180 221 268 322
#     4   9  20  37  55  76 107 143 181 225 270 317
#     4   9  19  35  55  80 112 145 178 219 267 317
#     4  10  19  34  57  83 110 142 179 220 266 319
#     4  11  22  37  58  82 107 141 182 223 268 319
#
# _framework density 19.123581999999999
#
# number of rings (size 3 to 8) (size 9 to 14) (size 15 to 20)
#    0.000    2.000    0.000    6.000    0.000    6.286 
#    0.000    0.714    0.000    0.000    0.000    0.000 
#    0.000    0.000    0.000    0.000    0.000    0.000 
#
# Total GULP energy -694537.487993 kJ/mol
# GULP energy per Si atom -12402.455143 kJ/mol
# Density = 1.908006 g / cm^3
# Si number density = 19.123582 Si / 1000 Ang^3
#
#
#
# Elastic Constant Matrix: (Units=GPa)
#
#
# Indices 1 2 3 4 5 6 
#
# 1 68.8319 36.4338 28.9248 0.0000 0.0000 0.0000
# 2 36.4338 102.1737 46.6395 0.0000 0.0000 0.0000
# 3 28.9248 46.6395 116.4661 0.0000 0.0000 0.0000
# 4 0.0000 0.0000 0.0000 34.7553 0.0000 0.0000
# 5 0.0000 0.0000 0.0000 0.0000 28.5234 0.0000
# 6 0.0000 0.0000 0.0000 0.0000 0.0000 24.0263
#
#
#
# Elastic Compliance Matrix: (Units=1/GPa)
#
#
# Indices 1 2 3 4 5 6 
#
# 1 0.018432 -0.005486 -0.002381 0.000000 0.000000 0.000000
# 2 -0.005486 0.013609 -0.004087 0.000000 0.000000 0.000000
# 3 -0.002381 -0.004087 0.010814 0.000000 0.000000 0.000000
# 4 0.000000 0.000000 0.000000 0.028773 0.000000 0.000000
# 5 0.000000 0.000000 0.000000 0.000000 0.035059 0.000000
# 6 0.000000 0.000000 0.000000 0.000000 0.000000 0.041621
#
#
# Mechanical properties :
#
#
# Convention : Reuss Voigt Hill
#
# Bulk Modulus (GPa) = 52.77747 56.82975 54.80361
# Shear Modulus (GPa) = 28.00602 29.15925 28.58264
#
# Velocity S-wave (km/s) = 3.83100 3.90908 3.87024
# Velocity P-wave (km/s) = 6.87217 7.08210 6.97793
#
# Compressibility (1/GPa) = 0.01894748
#
# Stress axis : x y z
#
# Youngs Moduli (GPa) = 54.25216 73.47928 92.46987
#
# Poissons Ratio (x) = 0.40310 0.22016
# Poissons Ratio (y) = 0.29762 0.37797
# Poissons Ratio (z) = 0.12917 0.30034
#
# Static dielectric constant tensor:
#      x y z
#    x 3.427820 0.000000 0.000000 
#    y 0.000000 3.417430 0.000000 
#    z 0.000000 0.000000 3.507100 
# 
# 
# High freq. dielectric constant tensor:
#      x y z
#    x 1.732480 0.000000 0.000000 
#    y 0.000000 1.741670 0.000000 
#    z 0.000000 0.000000 1.749880 
# 
# From -- ./inp_files/5173.got.cif
#   From: 2010.03.12/outbox.cif.g09.slc.cpg/sg57_3_cif.got.tgz:5173.got - 2010.04.16 15:48:40.
