data_PCOD8231420
_publ_section_title
;
Structure prediction by ZEFSAII (Michael W. Deem and Ramdas Pophale) SiO2 
 PCOD8231420
Probable space group: P B C M
;
_chemical_formula_sum "Si O2"
_cell_formula_units_Z 64
_cell_length_a 23.273168
_cell_length_b 15.157200
_cell_length_c 8.809620
_cell_angle_alpha 90.000000
_cell_angle_beta 90.000000
_cell_angle_gamma 90.000000
_cell_volume 3107.646859
_symmetry_space_group_name_H-M "P B C M"
_symmetry_group_IT_number 57
_symmetry_cell_setting 'orthorhombic'
loop_
_space_group_symop_operation_xyz
x,y,z
-x,-y,1/2+z
x,1/2-y,-z
-x,1/2+y,1/2-z
-x,-y,-z
x,y,1/2-z
-x,1/2+y,z
x,1/2-y,1/2+z
loop_
_atom_site_type_symbol
_atom_site_label
_atom_site_fract_x
_atom_site_fract_y
_atom_site_fract_z
Si Si1 0.469390 0.917909 0.424209
Si Si2 0.952914 0.340740 0.928991
Si Si3 0.260793 0.985390 0.574702
Si Si4 0.347729 0.652920 0.568103
Si Si5 0.694008 0.847418 0.569653
Si Si6 0.869346 0.491854 0.576354
Si Si7 0.585701 0.839340 0.074711
Si Si8 0.916404 0.659311 0.428093
O O1 0.460524 0.941977 0.250000
O O2 0.409458 0.884698 0.493866
O O3 0.517960 0.844658 0.452169
O O4 0.500000 0.000000 0.500000
O O5 0.947453 0.332238 0.750000
O O6 0.912668 0.418888 0.991217
O O7 0.018186 0.360058 0.980927
O O8 0.930368 0.250000 0.000000
O O9 0.281001 0.991905 0.750000
O O10 0.298473 0.912364 0.487516
O O11 0.261007 0.081475 0.494496
O O12 0.195021 0.953753 0.563352
O O13 0.337993 0.750000 0.500000
O O14 0.348181 0.659453 0.750000
O O15 0.707253 0.750000 0.500000
O O16 0.696745 0.841350 0.750000
O O17 0.632863 0.897237 0.516706
O O18 0.885052 0.513595 0.750000
O O19 0.875557 0.580814 0.480971
O O20 0.601495 0.845286 0.250000
O O21 0.606501 0.750000 0.000000
O O22 0.893655 0.750000 0.500000
O O23 0.912054 0.669634 0.250000
#
# Coordination Sequence:
#
# PCOD8231420 Si02
#       8
#     8   8   8   8   8   8   8   8
#     4  10  22  36  55  83 113 145 183 230 288 348
#     4   9  19  36  58  87 119 153 190 234 286 343
#     4  11  24  42  61  84 115 155 201 251 299 348
#     4  11  24  43  64  88 119 160 206 252 301 355
#     4  11  22  38  60  86 116 152 193 241 298 362
#     4  10  22  39  59  84 117 153 195 244 293 342
#     4  10  19  33  53  79 107 136 172 217 272 336
#     4  10  20  35  59  89 122 156 191 231 285 348
#
# _framework density 20.594362
#
# number of rings (size 3 to 8) (size 9 to 14) (size 15 to 20)
#    0.000    1.750    0.000    4.875    0.000    7.000 
#    0.000    1.250    0.000    0.000    0.000    0.000 
#    0.000    0.000    0.000    0.000    0.000    0.000 
#
# Total GULP energy -793066.771585 kJ/mol
# GULP energy per Si atom -12391.668306 kJ/mol
# Density = 2.054749 g / cm^3
# Si number density = 20.594362 Si / 1000 Ang^3
#
#
#
# Elastic Constant Matrix: (Units=GPa)
#
#
# Indices 1 2 3 4 5 6 
#
# 1 80.6748 39.3811 26.6353 0.0000 0.0000 0.0000
# 2 39.3811 123.4887 38.9545 0.0000 0.0000 0.0000
# 3 26.6353 38.9545 81.6908 0.0000 0.0000 0.0000
# 4 0.0000 0.0000 0.0000 37.2009 0.0000 0.0000
# 5 0.0000 0.0000 0.0000 0.0000 27.7612 0.0000
# 6 0.0000 0.0000 0.0000 0.0000 0.0000 23.8800
#
#
#
# Elastic Compliance Matrix: (Units=1/GPa)
#
#
# Indices 1 2 3 4 5 6 
#
# 1 0.015336 -0.003900 -0.003141 0.000000 0.000000 0.000000
# 2 -0.003900 0.010523 -0.003747 0.000000 0.000000 0.000000
# 3 -0.003141 -0.003747 0.015052 0.000000 0.000000 0.000000
# 4 0.000000 0.000000 0.000000 0.026881 0.000000 0.000000
# 5 0.000000 0.000000 0.000000 0.000000 0.036021 0.000000
# 6 0.000000 0.000000 0.000000 0.000000 0.000000 0.041876
#
#
# Mechanical properties :
#
#
# Convention : Reuss Voigt Hill
#
# Bulk Modulus (GPa) = 51.71419 55.08846 53.40133
# Shear Modulus (GPa) = 28.78357 29.82731 29.30544
#
# Velocity S-wave (km/s) = 3.74256 3.80981 3.77634
# Velocity P-wave (km/s) = 6.62126 6.79413 6.70825
#
# Compressibility (1/GPa) = 0.01933705
#
# Stress axis : x y z
#
# Youngs Moduli (GPa) = 65.20551 95.02544 66.43713
#
# Poissons Ratio (x) = 0.37060 0.20865
# Poissons Ratio (y) = 0.25431 0.24891
# Poissons Ratio (z) = 0.20478 0.35602
#
# Static dielectric constant tensor:
#      x y z
#    x 3.774960 0.000000 0.000000 
#    y 0.000000 3.557590 0.000000 
#    z 0.000000 0.000000 3.664550 
# 
# 
# High freq. dielectric constant tensor:
#      x y z
#    x 1.811420 0.000000 0.000000 
#    y 0.000000 1.804630 0.000000 
#    z 0.000000 0.000000 1.805360 
# 
# From -- ./inp_files/9508.got.cif
#   From: 2010.03.12/outbox.cif.g09.slc.cpg/sg57_5_cif.got.tgz:9508.got - 2010.04.16 15:48:40.
