data_PCOD8231911
_publ_section_title
;
Structure prediction by ZEFSAII (Michael W. Deem and Ramdas Pophale) SiO2 
 PCOD8231911
Probable space group: P B C M
;
_chemical_formula_sum "Si O2"
_cell_formula_units_Z 64
_cell_length_a 23.413926
_cell_length_b 15.460957
_cell_length_c 8.971371
_cell_angle_alpha 90.000000
_cell_angle_beta 90.000000
_cell_angle_gamma 90.000000
_cell_volume 3247.651581
_symmetry_space_group_name_H-M "P B C M"
_symmetry_group_IT_number 57
_symmetry_cell_setting 'orthorhombic'
loop_
_space_group_symop_operation_xyz
x,y,z
-x,-y,1/2+z
x,1/2-y,-z
-x,1/2+y,1/2-z
-x,-y,-z
x,y,1/2-z
-x,1/2+y,z
x,1/2-y,1/2+z
loop_
_atom_site_type_symbol
_atom_site_label
_atom_site_fract_x
_atom_site_fract_y
_atom_site_fract_z
Si Si1 0.061544 0.162416 0.924726
Si Si2 0.674275 0.836049 0.423662
Si Si3 0.069181 0.837981 0.425086
Si Si4 0.128899 0.994849 0.921409
Si Si5 0.736985 0.006530 0.077791
Si Si6 0.562013 0.399400 0.922180
Si Si7 0.551810 0.600426 0.579378
Si Si8 0.325832 0.661984 0.926990
O O1 0.067874 0.175489 0.750000
O O2 0.099370 0.082296 0.981273
O O3 0.996225 0.143896 0.971727
O O4 0.084409 0.250000 0.000000
O O5 0.698742 0.750000 0.500000
O O6 0.685819 0.827498 0.250000
O O7 0.607179 0.843721 0.460790
O O8 0.707675 0.919567 0.484800
O O9 0.091458 0.750000 0.500000
O O10 0.076193 0.827833 0.250000
O O11 0.108095 0.915765 0.479881
O O12 0.111711 0.977975 0.750000
O O13 0.195993 0.005011 0.940932
O O14 0.719227 0.022750 0.250000
O O15 0.715577 0.085787 0.979447
O O16 0.570729 0.374696 0.750000
O O17 0.568152 0.501157 0.950726
O O18 0.499509 0.367718 0.974192
O O19 0.609362 0.351984 0.019854
O O20 0.532644 0.612460 0.750000
O O21 0.324097 0.669224 0.750000
O O22 0.302187 0.750000 0.000000
#
# Coordination Sequence:
#
# PCOD8231911 Si02
#       8
#     8   8   8   8   8   8   8   8
#     4   9  19  35  56  87 121 157 192 233 285 338
#     4  10  21  38  59  83 114 150 189 233 285 338
#     4  10  20  35  57  85 121 155 192 236 284 339
#     4  10  21  37  60  85 114 152 195 238 289 341
#     4  10  22  43  62  81 114 153 192 242 291 337
#     4  10  19  35  59  86 117 150 186 232 287 344
#     4   9  18  34  56  83 117 153 187 229 283 342
#     4  12  25  41  63  87 113 148 192 239 291 351
#
# _framework density 19.706548999999999
#
# number of rings (size 3 to 8) (size 9 to 14) (size 15 to 20)
#    0.000    2.000    1.250    2.250    0.000    4.500 
#    0.000    1.250    0.000    0.000    0.000    0.000 
#    0.000    0.000    0.000    0.000    0.000    0.000 
#
# Total GULP energy -793890.739281 kJ/mol
# GULP energy per Si atom -12404.542801 kJ/mol
# Density = 1.966170 g / cm^3
# Si number density = 19.706549 Si / 1000 Ang^3
#
#
#
# Elastic Constant Matrix: (Units=GPa)
#
#
# Indices 1 2 3 4 5 6 
#
# 1 61.8511 41.7275 30.7617 0.0000 0.0000 0.0000
# 2 41.7275 132.5628 48.8468 0.0000 0.0000 0.0000
# 3 30.7617 48.8468 83.6384 0.0000 0.0000 0.0000
# 4 0.0000 0.0000 0.0000 36.7879 0.0000 0.0000
# 5 0.0000 0.0000 0.0000 0.0000 29.8996 0.0000
# 6 0.0000 0.0000 0.0000 0.0000 0.0000 4.9039
#
#
#
# Elastic Compliance Matrix: (Units=1/GPa)
#
#
# Indices 1 2 3 4 5 6 
#
# 1 0.022168 -0.005063 -0.005196 0.000000 0.000000 0.000000
# 2 -0.005063 0.010769 -0.004427 0.000000 0.000000 0.000000
# 3 -0.005196 -0.004427 0.016453 0.000000 0.000000 0.000000
# 4 0.000000 0.000000 0.000000 0.027183 0.000000 0.000000
# 5 0.000000 0.000000 0.000000 0.000000 0.033445 0.000000
# 6 0.000000 0.000000 0.000000 0.000000 0.000000 0.203919
#
#
# Mechanical properties :
#
#
# Convention : Reuss Voigt Hill
#
# Bulk Modulus (GPa) = 49.95821 57.85825 53.90823
# Shear Modulus (GPa) = 14.28645 24.76605 19.52625
#
# Velocity S-wave (km/s) = 2.69543 3.54890 3.15119
# Velocity P-wave (km/s) = 5.92395 6.79828 6.37612
#
# Compressibility (1/GPa) = 0.02001673
#
# Stress axis : x y z
#
# Youngs Moduli (GPa) = 45.10984 92.86265 60.78005
#
# Poissons Ratio (x) = 0.47019 0.31583
# Poissons Ratio (y) = 0.22840 0.26907
# Poissons Ratio (z) = 0.23440 0.41109
#
# Static dielectric constant tensor:
#      x y z
#    x 3.542620 0.000000 0.000000 
#    y 0.000000 3.697280 0.000000 
#    z 0.000000 0.000000 3.506610 
# 
# 
# High freq. dielectric constant tensor:
#      x y z
#    x 1.763770 0.000000 0.000000 
#    y 0.000000 1.775850 0.000000 
#    z 0.000000 0.000000 1.762220 
# 
# From -- ./inp_files/9405.got.cif
#   From: 2010.03.12/outbox.cif.g09.slc.cpg/sg57_5_cif.got.tgz:9405.got - 2010.04.16 15:48:40.
