data_PCOD8231968
_publ_section_title
;
Structure prediction by ZEFSAII (Michael W. Deem and Ramdas Pophale) SiO2 
 PCOD8231968
Probable space group: P B C M
;
_chemical_formula_sum "Si O2"
_cell_formula_units_Z 48
_cell_length_a 9.108757
_cell_length_b 20.982576
_cell_length_c 13.605440
_cell_angle_alpha 90.000000
_cell_angle_beta 90.000000
_cell_angle_gamma 90.000000
_cell_volume 2600.342251
_symmetry_space_group_name_H-M "P B C M"
_symmetry_group_IT_number 57
_symmetry_cell_setting 'orthorhombic'
loop_
_space_group_symop_operation_xyz
x,y,z
-x,-y,1/2+z
x,1/2-y,-z
-x,1/2+y,1/2-z
-x,-y,-z
x,y,1/2-z
-x,1/2+y,z
x,1/2-y,1/2+z
loop_
_atom_site_type_symbol
_atom_site_label
_atom_site_fract_x
_atom_site_fract_y
_atom_site_fract_z
Si Si1 0.146017 0.320104 0.980569
Si Si2 0.328630 0.905286 0.862704
Si Si3 0.669625 0.583005 0.134505
Si Si4 0.936768 0.148975 0.634659
Si Si5 0.863156 0.210841 0.136480
Si Si6 0.158675 0.972453 0.472697
O O1 0.271999 0.355927 0.923055
O O2 0.996944 0.322963 0.918070
O O3 0.208078 0.250000 0.000000
O O4 0.099682 0.351353 0.085288
O O5 0.293291 0.921510 0.750000
O O6 0.497636 0.916749 0.886730
O O7 0.282507 0.831373 0.885024
O O8 0.236717 0.955821 0.925297
O O9 0.705058 0.588030 0.250000
O O10 0.745357 0.521234 0.089762
O O11 0.959321 0.142803 0.750000
O O12 0.849766 0.214668 0.603989
O O13 0.844295 0.089860 0.595470
O O14 0.904748 0.209693 0.250000
O O15 0.000000 0.000000 0.500000
#
# Coordination Sequence:
#
# PCOD8231968 Si02
#       6
#     8   8   8   8   8   8
#     4  10  19  36  58  88 112 150 192 244 290 338
#     4  10  22  39  61  87 118 156 197 240 294 354
#     4  11  23  40  59  85 123 159 192 236 293 361
#     4  10  20  34  57  87 116 145 195 250 289 332
#     4   9  17  34  60  85 111 147 194 246 294 342
#     4  12  22  38  60  86 117 158 200 240 286 345
#
# _framework density 18.459109000000002
#
# number of rings (size 3 to 8) (size 9 to 14) (size 15 to 20)
#    0.000    1.667    3.333    1.500    0.000    3.333 
#    3.000    0.000    0.000    1.000    0.000    0.000 
#    0.000    0.000    0.000    0.000    0.000    0.000 
#
# Total GULP energy -595079.825437 kJ/mol
# GULP energy per Si atom -12397.496363 kJ/mol
# Density = 1.841709 g / cm^3
# Si number density = 18.459109 Si / 1000 Ang^3
#
#
#
# Elastic Constant Matrix: (Units=GPa)
#
#
# Indices 1 2 3 4 5 6 
#
# 1 113.6550 64.9308 67.5337 0.0000 0.0000 0.0000
# 2 64.9308 115.8523 63.6122 0.0000 0.0000 0.0000
# 3 67.5337 63.6122 94.5669 0.0000 0.0000 0.0000
# 4 0.0000 0.0000 0.0000 33.6907 0.0000 0.0000
# 5 0.0000 0.0000 0.0000 0.0000 32.4420 0.0000
# 6 0.0000 0.0000 0.0000 0.0000 0.0000 25.1830
#
#
#
# Elastic Compliance Matrix: (Units=1/GPa)
#
#
# Indices 1 2 3 4 5 6 
#
# 1 0.016606 -0.004433 -0.008877 0.000000 0.000000 0.000000
# 2 -0.004433 0.014870 -0.006837 0.000000 0.000000 0.000000
# 3 -0.008877 -0.006837 0.021513 0.000000 0.000000 0.000000
# 4 0.000000 0.000000 0.000000 0.029682 0.000000 0.000000
# 5 0.000000 0.000000 0.000000 0.000000 0.030824 0.000000
# 6 0.000000 0.000000 0.000000 0.000000 0.000000 0.039709
#
#
# Mechanical properties :
#
#
# Convention : Reuss Voigt Hill
#
# Bulk Modulus (GPa) = 78.76974 79.58086 79.17530
# Shear Modulus (GPa) = 25.28706 26.79630 26.04168
#
# Velocity S-wave (km/s) = 3.70523 3.81420 3.76011
# Velocity P-wave (km/s) = 7.81474 7.91221 7.86362
#
# Compressibility (1/GPa) = 0.01269523
#
# Stress axis : x y z
#
# Youngs Moduli (GPa) = 60.22060 67.24870 46.48338
#
# Poissons Ratio (x) = 0.29809 0.41263
# Poissons Ratio (y) = 0.26694 0.31782
# Poissons Ratio (z) = 0.53458 0.45979
#
# Static dielectric constant tensor:
#      x y z
#    x 3.257810 0.000000 0.000000 
#    y 0.000000 3.620000 0.000000 
#    z 0.000000 0.000000 3.680030 
# 
# 
# High freq. dielectric constant tensor:
#      x y z
#    x 1.689370 0.000000 0.000000 
#    y 0.000000 1.727770 0.000000 
#    z 0.000000 0.000000 1.737240 
# 
# From -- ./inp_files/16565.got.cif
#   From: 2010.03.12/outbox.cif.g09.slc.cpg/sg57_9_cif.got.tgz:16565.got - 2010.04.16 15:48:40.
