data_PCOD8231574
_publ_section_title
;
Structure prediction by ZEFSAII (Michael W. Deem and Ramdas Pophale) SiO2 
 PCOD8231574
Probable space group: P B C M
;
_chemical_formula_sum "Si O2"
_cell_formula_units_Z 56
_cell_length_a 19.904132
_cell_length_b 15.640892
_cell_length_c 8.646411
_cell_angle_alpha 90.000000
_cell_angle_beta 90.000000
_cell_angle_gamma 90.000000
_cell_volume 2691.786656
_symmetry_space_group_name_H-M "P B C M"
_symmetry_group_IT_number 57
_symmetry_cell_setting 'orthorhombic'
loop_
_space_group_symop_operation_xyz
x,y,z
-x,-y,1/2+z
x,1/2-y,-z
-x,1/2+y,1/2-z
-x,-y,-z
x,y,1/2-z
-x,1/2+y,z
x,1/2-y,1/2+z
loop_
_atom_site_type_symbol
_atom_site_label
_atom_site_fract_x
_atom_site_fract_y
_atom_site_fract_z
Si Si1 0.329533 0.343722 0.566121
Si Si2 0.251406 0.871942 0.574971
Si Si3 0.380259 0.664015 0.571791
Si Si4 0.877885 0.176289 0.918030
Si Si5 0.426269 0.490320 0.067827
Si Si6 0.206956 0.062502 0.571055
Si Si7 0.070697 0.490563 0.919473
O O1 0.347606 0.250000 0.500000
O O2 0.333455 0.341305 0.750000
O O3 0.384687 0.412180 0.506593
O O4 0.253434 0.368122 0.515820
O O5 0.276448 0.854427 0.750000
O O6 0.300104 0.829349 0.447017
O O7 0.180500 0.829297 0.545668
O O8 0.244666 0.973277 0.545293
O O9 0.414446 0.750000 0.500000
O O10 0.402544 0.652883 0.750000
O O11 0.394126 0.581660 0.467294
O O12 0.851868 0.205182 0.750000
O O13 0.914322 0.088761 0.899400
O O14 0.924404 0.250000 0.000000
O O15 0.428634 0.473672 0.250000
O O16 0.500000 0.500000 0.000000
O O17 0.202946 0.087891 0.750000
O O18 0.129974 0.060049 0.508837
O O19 0.063732 0.447465 0.750000
O O20 0.000000 0.500000 0.000000
#
# Coordination Sequence:
#
# PCOD8231574 Si02
#       7
#     8   8   8   8   8   8   8
#     4  12  25  44  71 102 135 176 226 282 338 398
#     4  10  19  33  56  85 120 157 195 242 299 363
#     4  12  24  39  61  91 127 166 206 254 311 376
#     4  10  20  33  51  78 112 148 191 240 295 361
#     4  12  26  47  70  97 131 171 218 270 332 398
#     4  10  20  37  63  92 125 165 212 265 322 384
#     4  10  21  37  58  85 119 161 209 261 322 390
#
# _framework density 20.804027000000001
#
# number of rings (size 3 to 8) (size 9 to 14) (size 15 to 20)
#    0.000    1.143    1.429    6.000    0.000    3.429 
#    0.000    3.571    0.000    1.714    0.000    0.000 
#    0.000    0.000    0.000    0.000    0.000    0.000 
#
# Total GULP energy -693825.216389 kJ/mol
# GULP energy per Si atom -12389.736007 kJ/mol
# Density = 2.075668 g / cm^3
# Si number density = 20.804027 Si / 1000 Ang^3
#
#
#
# Elastic Constant Matrix: (Units=GPa)
#
#
# Indices 1 2 3 4 5 6 
#
# 1 114.9201 36.9789 54.0013 0.0000 0.0000 0.0000
# 2 36.9789 115.2828 55.8817 0.0000 0.0000 0.0000
# 3 54.0013 55.8817 171.9476 0.0000 0.0000 0.0000
# 4 0.0000 0.0000 0.0000 34.7047 0.0000 0.0000
# 5 0.0000 0.0000 0.0000 0.0000 10.4661 0.0000
# 6 0.0000 0.0000 0.0000 0.0000 0.0000 0.2345
#
#
#
# Elastic Compliance Matrix: (Units=1/GPa)
#
#
# Indices 1 2 3 4 5 6 
#
# 1 0.010630 -0.002126 -0.002647 0.000000 0.000000 0.000000
# 2 -0.002126 0.010722 -0.002817 0.000000 0.000000 0.000000
# 3 -0.002647 -0.002817 0.007563 0.000000 0.000000 0.000000
# 4 0.000000 0.000000 0.000000 0.028815 0.000000 0.000000
# 5 0.000000 0.000000 0.000000 0.000000 0.095547 0.000000
# 6 0.000000 0.000000 0.000000 0.000000 0.000000 4.263746
#
#
# Mechanical properties :
#
#
# Convention : Reuss Voigt Hill
#
# Bulk Modulus (GPa) = 72.81560 77.31934 75.06747
# Shear Modulus (GPa) = 1.12694 26.10032 13.61363
#
# Velocity S-wave (km/s) = 0.73680 3.54585 2.56085
# Velocity P-wave (km/s) = 5.98335 7.34917 6.70115
#
# Compressibility (1/GPa) = 0.01373332
#
# Stress axis : x y z
#
# Youngs Moduli (GPa) = 94.07397 93.26825 132.23096
#
# Poissons Ratio (x) = 0.19833 0.35006
# Poissons Ratio (y) = 0.20005 0.37245
# Poissons Ratio (z) = 0.24904 0.26270
#
# Static dielectric constant tensor:
#      x y z
#    x 3.532480 0.000000 0.000000 
#    y 0.000000 3.936700 0.000000 
#    z 0.000000 0.000000 2.599240 
# 
# 
# High freq. dielectric constant tensor:
#      x y z
#    x 1.797240 0.000000 0.000000 
#    y 0.000000 1.821240 0.000000 
#    z 0.000000 0.000000 1.834500 
# 
# From -- ./inp_files/8108.got.cif
#   From: 2010.03.12/outbox.cif.g09.slc.cpg/sg57_5_cif.got.tgz:8108.got - 2010.04.16 15:48:40.
