data_PCOD8231170
_publ_section_title
;
Structure prediction by ZEFSAII (Michael W. Deem and Ramdas Pophale) SiO2 
 PCOD8231170
Probable space group: P B C M
;
_chemical_formula_sum "Si O2"
_cell_formula_units_Z 40
_cell_length_a 10.239127
_cell_length_b 27.011910
_cell_length_c 8.818295
_cell_angle_alpha 90.000000
_cell_angle_beta 90.000000
_cell_angle_gamma 90.000000
_cell_volume 2438.949719
_symmetry_space_group_name_H-M "P B C M"
_symmetry_group_IT_number 57
_symmetry_cell_setting 'orthorhombic'
loop_
_space_group_symop_operation_xyz
x,y,z
-x,-y,1/2+z
x,1/2-y,-z
-x,1/2+y,1/2-z
-x,-y,-z
x,y,1/2-z
-x,1/2+y,z
x,1/2-y,1/2+z
loop_
_atom_site_type_symbol
_atom_site_label
_atom_site_fract_x
_atom_site_fract_y
_atom_site_fract_z
Si Si1 0.891460 0.436730 0.425500
Si Si2 0.158721 0.050375 0.074830
Si Si3 0.653183 0.110332 0.421359
Si Si4 0.604883 0.894127 0.428868
Si Si5 0.518964 0.802191 0.578898
O O1 0.922271 0.427279 0.250000
O O2 0.839212 0.491863 0.454244
O O3 0.782778 0.398466 0.482052
O O4 0.022085 0.426608 0.520428
O O5 0.180036 0.063789 0.250000
O O6 0.273350 0.072937 0.975415
O O7 0.671566 0.090373 0.250000
O O8 0.527908 0.082725 0.497813
O O9 0.621564 0.169421 0.422000
O O10 0.590174 0.893727 0.250000
O O11 0.622673 0.837467 0.490033
O O12 0.502371 0.750000 0.500000
O O13 0.569561 0.794479 0.750000
#
# Coordination Sequence:
#
# PCOD8231170 Si02
#       5
#     8   8   8   8   8
#     4  10  20  33  51  73  99 135 172 204 246 297
#     4  10  20  34  50  71 102 136 169 205 247 297
#     4   9  19  33  50  74 101 130 165 206 250 293
#     4  10  19  32  51  75 100 130 168 208 247 292
#     4   9  18  32  52  76 100 128 162 202 252 299
#
# _framework density 16.400501999999999
#
# number of rings (size 3 to 8) (size 9 to 14) (size 15 to 20)
#    1.200    1.200    0.000    3.600    0.000    3.200 
#    0.000    0.000    0.000    1.200    0.000    5.600 
#    0.000    0.000    0.000    0.000    0.000    0.000 
#
# Total GULP energy -495756.298527 kJ/mol
# GULP energy per Si atom -12393.907463 kJ/mol
# Density = 1.636317 g / cm^3
# Si number density = 16.400502 Si / 1000 Ang^3
#
#
#
# Elastic Constant Matrix: (Units=GPa)
#
#
# Indices 1 2 3 4 5 6 
#
# 1 37.0539 -12.8152 13.5359 0.0000 0.0000 0.0000
# 2 -12.8152 4.4608 19.0611 0.0000 0.0000 0.0000
# 3 13.5359 19.0611 103.1156 0.0000 0.0000 0.0000
# 4 0.0000 0.0000 0.0000 25.1592 0.0000 0.0000
# 5 0.0000 0.0000 0.0000 0.0000 27.1315 0.0000
# 6 0.0000 0.0000 0.0000 0.0000 0.0000 1.7178
#
#
#
# Elastic Compliance Matrix: (Units=1/GPa)
#
#
# Indices 1 2 3 4 5 6 
#
# 1 -0.004650 -0.075996 0.014658 0.000000 0.000000 0.000000
# 2 -0.075996 -0.175025 0.042329 0.000000 0.000000 0.000000
# 3 0.014658 0.042329 -0.000051 0.000000 0.000000 0.000000
# 4 0.000000 0.000000 0.000000 0.039747 0.000000 0.000000
# 5 0.000000 0.000000 0.000000 0.000000 0.036857 0.000000
# 6 0.000000 0.000000 0.000000 0.000000 0.000000 0.582144
#
#
# Mechanical properties :
#
#
# Convention : Reuss Voigt Hill
#
# Bulk Modulus (GPa) = -4.59259 20.46599 7.93670
# Shear Modulus (GPa) = 11.24967 19.12495 15.18731
#
# Velocity S-wave (km/s) = 2.62188 3.41855 3.04637
# Velocity P-wave (km/s) = 2.52176 5.29981 4.15014
#
# Compressibility (1/GPa) = -0.21774207
#
# Stress axis : x y z
#
# Youngs Moduli (GPa) = -215.03646 -5.71347 -19603.70505
#
# Poissons Ratio (x) = -0.43420 287.35869
# Poissons Ratio (y) = -16.34187 829.81492
# Poissons Ratio (z) = 3.15209 0.24185
#
# Static dielectric constant tensor:
#      x y z
#    x 2.915480 0.000000 0.000000 
#    y 0.000000 2.832850 0.000000 
#    z 0.000000 0.000000 3.229490 
# 
# 
# High freq. dielectric constant tensor:
#      x y z
#    x 1.616120 0.000000 0.000000 
#    y 0.000000 1.602810 0.000000 
#    z 0.000000 0.000000 1.655640 
# 
# From -- ./inp_files/1824.got.cif
#   From: 2010.03.12/outbox.cif.g09.slc.cpg/sg57_1_cif.got.tgz:1824.got - 2010.04.16 15:48:40.
