data_PCOD8231866
_publ_section_title
;
Structure prediction by ZEFSAII (Michael W. Deem and Ramdas Pophale) SiO2 
 PCOD8231866
Probable space group: P B C M
;
_chemical_formula_sum "Si O2"
_cell_formula_units_Z 64
_cell_length_a 24.296063
_cell_length_b 14.314113
_cell_length_c 8.863221
_cell_angle_alpha 90.000000
_cell_angle_beta 90.000000
_cell_angle_gamma 90.000000
_cell_volume 3082.420787
_symmetry_space_group_name_H-M "P B C M"
_symmetry_group_IT_number 57
_symmetry_cell_setting 'orthorhombic'
loop_
_space_group_symop_operation_xyz
x,y,z
-x,-y,1/2+z
x,1/2-y,-z
-x,1/2+y,1/2-z
-x,-y,-z
x,y,1/2-z
-x,1/2+y,z
x,1/2-y,1/2+z
loop_
_atom_site_type_symbol
_atom_site_label
_atom_site_fract_x
_atom_site_fract_y
_atom_site_fract_z
Si Si1 0.974986 0.089531 0.076795
Si Si2 0.129974 0.546424 0.929360
Si Si3 0.343928 0.852912 0.068232
Si Si4 0.759283 0.037430 0.069904
Si Si5 0.380101 0.333939 0.916541
Si Si6 0.257366 0.155954 0.430288
Si Si7 0.555920 0.023602 0.582089
Si Si8 0.090332 0.158152 0.420888
O O1 0.959481 0.069124 0.250000
O O2 0.023727 0.165661 0.065634
O O3 0.919389 0.115259 0.984868
O O4 0.000000 0.000000 0.000000
O O5 0.136740 0.554057 0.750000
O O6 0.114888 0.440074 0.983197
O O7 0.184666 0.586491 0.012424
O O8 0.340303 0.851829 0.250000
O O9 0.402850 0.897476 0.014631
O O10 0.340115 0.750000 0.000000
O O11 0.293953 0.914491 0.004911
O O12 0.753234 0.041175 0.250000
O O13 0.769793 0.933263 0.007647
O O14 0.371788 0.296326 0.750000
O O15 0.320300 0.349639 0.987621
O O16 0.412180 0.428166 0.922805
O O17 0.412453 0.250000 0.000000
O O18 0.230523 0.250000 0.500000
O O19 0.249832 0.151050 0.250000
O O20 0.540016 0.054282 0.750000
O O21 0.500000 0.000000 0.500000
O O22 0.115698 0.250000 0.500000
O O23 0.110149 0.164446 0.250000
#
# Coordination Sequence:
#
# PCOD8231866 Si02
#       8
#     8   8   8   8   8   8   8   8
#     4   9  17  32  52  77 107 144 191 239 290 353
#     4  10  21  37  56  81 113 152 196 249 303 356
#     4  11  24  46  69  92 124 163 207 259 310 367
#     4  12  24  39  62  91 121 163 210 256 313 375
#     4   9  18  34  55  82 115 151 188 232 287 346
#     4  10  19  35  57  84 118 155 197 245 297 360
#     4  10  22  40  62  90 125 160 198 247 303 358
#     4   9  19  33  53  81 114 150 189 235 293 355
#
# _framework density 20.762903000000001
#
# number of rings (size 3 to 8) (size 9 to 14) (size 15 to 20)
#    0.000    2.000    1.250    3.375    0.000    6.000 
#    0.000    4.375    0.000    1.500    0.000    0.000 
#    0.000    0.000    0.000    0.000    0.000    0.000 
#
# Total GULP energy -792925.101017 kJ/mol
# GULP energy per Si atom -12389.454703 kJ/mol
# Density = 2.071565 g / cm^3
# Si number density = 20.762903 Si / 1000 Ang^3
#
#
#
# Elastic Constant Matrix: (Units=GPa)
#
#
# Indices 1 2 3 4 5 6 
#
# 1 136.3052 24.8442 46.6456 0.0000 0.0000 0.0000
# 2 24.8442 53.4315 32.2572 0.0000 0.0000 0.0000
# 3 46.6456 32.2572 104.7665 0.0000 0.0000 0.0000
# 4 0.0000 0.0000 0.0000 33.6168 0.0000 0.0000
# 5 0.0000 0.0000 0.0000 0.0000 24.2424 0.0000
# 6 0.0000 0.0000 0.0000 0.0000 0.0000 0.4199
#
#
#
# Elastic Compliance Matrix: (Units=1/GPa)
#
#
# Indices 1 2 3 4 5 6 
#
# 1 0.008849 -0.002132 -0.003283 0.000000 0.000000 0.000000
# 2 -0.002132 0.023503 -0.006287 0.000000 0.000000 0.000000
# 3 -0.003283 -0.006287 0.012943 0.000000 0.000000 0.000000
# 4 0.000000 0.000000 0.000000 0.029747 0.000000 0.000000
# 5 0.000000 0.000000 0.000000 0.000000 0.041250 0.000000
# 6 0.000000 0.000000 0.000000 0.000000 0.000000 2.381765
#
#
# Mechanical properties :
#
#
# Convention : Reuss Voigt Hill
#
# Bulk Modulus (GPa) = 45.68539 55.77747 50.73143
# Shear Modulus (GPa) = 1.97726 24.37289 13.17507
#
# Velocity S-wave (km/s) = 0.97692 3.42989 2.52176
# Velocity P-wave (km/s) = 4.82945 6.52747 5.74158
#
# Compressibility (1/GPa) = 0.02188884
#
# Stress axis : x y z
#
# Youngs Moduli (GPa) = 113.01112 42.54859 77.26444
#
# Poissons Ratio (x) = 0.09073 0.25368
# Poissons Ratio (y) = 0.24097 0.48576
# Poissons Ratio (z) = 0.37104 0.26750
#
# Static dielectric constant tensor:
#      x y z
#    x 3.785190 0.000000 0.000000 
#    y 0.000000 3.772890 0.000000 
#    z 0.000000 0.000000 3.605500 
# 
# 
# High freq. dielectric constant tensor:
#      x y z
#    x 1.822630 0.000000 0.000000 
#    y 0.000000 1.794200 0.000000 
#    z 0.000000 0.000000 1.812250 
# 
# From -- ./inp_files/9471.got.cif
#   From: 2010.03.12/outbox.cif.g09.slc.cpg/sg57_5_cif.got.tgz:9471.got - 2010.04.16 15:48:40.
