data_PCOD8231542
_publ_section_title
;
Structure prediction by ZEFSAII (Michael W. Deem and Ramdas Pophale) SiO2 
 PCOD8231542
Probable space group: P B C M
;
_chemical_formula_sum "Si O2"
_cell_formula_units_Z 56
_cell_length_a 16.522419
_cell_length_b 21.105369
_cell_length_c 8.694241
_cell_angle_alpha 90.000000
_cell_angle_beta 90.000000
_cell_angle_gamma 90.000000
_cell_volume 3031.783992
_symmetry_space_group_name_H-M "P B C M"
_symmetry_group_IT_number 57
_symmetry_cell_setting 'orthorhombic'
loop_
_space_group_symop_operation_xyz
x,y,z
-x,-y,1/2+z
x,1/2-y,-z
-x,1/2+y,1/2-z
-x,-y,-z
x,y,1/2-z
-x,1/2+y,z
x,1/2-y,1/2+z
loop_
_atom_site_type_symbol
_atom_site_label
_atom_site_fract_x
_atom_site_fract_y
_atom_site_fract_z
Si Si1 0.015730 0.412376 0.925968
Si Si2 0.127058 0.528637 0.928630
Si Si3 0.542724 0.438235 0.068919
Si Si4 0.300953 0.126352 0.927244
Si Si5 0.851173 0.818004 0.572603
Si Si6 0.545807 0.817488 0.931676
Si Si7 0.299675 0.979802 0.572991
O O1 0.990866 0.425165 0.750000
O O2 0.081769 0.464394 0.978914
O O3 0.057882 0.344380 0.947843
O O4 0.934755 0.414311 0.029115
O O5 0.149007 0.529569 0.750000
O O6 0.209038 0.536432 0.022794
O O7 0.528409 0.438528 0.250000
O O8 0.500000 0.500000 0.000000
O O9 0.507778 0.373405 0.001903
O O10 0.637917 0.439387 0.028853
O O11 0.308736 0.146371 0.750000
O O12 0.322333 0.053124 0.951720
O O13 0.210163 0.135962 0.985261
O O14 0.360667 0.170188 0.025898
O O15 0.847052 0.750000 0.500000
O O16 0.825914 0.815439 0.750000
O O17 0.534799 0.816219 0.750000
O O18 0.517648 0.750000 0.000000
O O19 0.309556 0.960388 0.750000
#
# Coordination Sequence:
#
# PCOD8231542 Si02
#       7
#     8   8   8   8   8   8   8
#     4   9  19  34  52  76 108 144 183 226 276 332
#     4  10  19  33  55  81 109 141 182 229 281 335
#     4  12  24  40  62  89 120 155 198 245 298 353
#     4  11  22  36  56  83 117 155 196 235 285 348
#     4  11  22  36  53  77 113 152 192 232 280 339
#     4  12  25  42  63  86 119 158 200 246 294 354
#     4  11  22  36  58  86 119 153 191 238 291 346
#
# _framework density 18.470972
#
# number of rings (size 3 to 8) (size 9 to 14) (size 15 to 20)
#    0.000    1.143    2.857    4.714    0.000    2.857 
#    0.000    0.000    0.000    0.857    0.000    4.000 
#    0.000    0.000    0.000    0.000    0.000    0.000 
#
# Total GULP energy -694613.495220 kJ/mol
# GULP energy per Si atom -12403.812415 kJ/mol
# Density = 1.842893 g / cm^3
# Si number density = 18.470972 Si / 1000 Ang^3
#
#
#
# Elastic Constant Matrix: (Units=GPa)
#
#
# Indices 1 2 3 4 5 6 
#
# 1 95.7403 39.1878 45.3597 0.0000 0.0000 0.0000
# 2 39.1878 84.7995 54.8240 0.0000 0.0000 0.0000
# 3 45.3597 54.8240 128.2521 0.0000 0.0000 0.0000
# 4 0.0000 0.0000 0.0000 27.2935 0.0000 0.0000
# 5 0.0000 0.0000 0.0000 0.0000 36.1456 0.0000
# 6 0.0000 0.0000 0.0000 0.0000 0.0000 24.1474
#
#
#
# Elastic Compliance Matrix: (Units=1/GPa)
#
#
# Indices 1 2 3 4 5 6 
#
# 1 0.013641 -0.004401 -0.002943 0.000000 0.000000 0.000000
# 2 -0.004401 0.017716 -0.006017 0.000000 0.000000 0.000000
# 3 -0.002943 -0.006017 0.011410 0.000000 0.000000 0.000000
# 4 0.000000 0.000000 0.000000 0.036639 0.000000 0.000000
# 5 0.000000 0.000000 0.000000 0.000000 0.027666 0.000000
# 6 0.000000 0.000000 0.000000 0.000000 0.000000 0.041412
#
#
# Mechanical properties :
#
#
# Convention : Reuss Voigt Hill
#
# Bulk Modulus (GPa) = 62.32291 65.28167 63.80229
# Shear Modulus (GPa) = 27.69261 28.81197 28.25229
#
# Velocity S-wave (km/s) = 3.87622 3.95378 3.91519
# Velocity P-wave (km/s) = 7.33810 7.50085 7.41992
#
# Compressibility (1/GPa) = 0.01604546
#
# Stress axis : x y z
#
# Youngs Moduli (GPa) = 73.31023 56.44578 87.64246
#
# Poissons Ratio (x) = 0.24841 0.25794
# Poissons Ratio (y) = 0.32263 0.52731
# Poissons Ratio (z) = 0.21576 0.33961
#
# Static dielectric constant tensor:
#      x y z
#    x 3.574440 0.000000 0.000000 
#    y 0.000000 3.271510 0.000000 
#    z 0.000000 0.000000 3.572080 
# 
# 
# High freq. dielectric constant tensor:
#      x y z
#    x 1.717040 0.000000 0.000000 
#    y 0.000000 1.694760 0.000000 
#    z 0.000000 0.000000 1.732530 
# 
# From -- ./inp_files/5197.got.cif
#   From: 2010.03.12/outbox.cif.g09.slc.cpg/sg57_3_cif.got.tgz:5197.got - 2010.04.16 15:48:40.
