data_PCOD8231433
_publ_section_title
;
Structure prediction by ZEFSAII (Michael W. Deem and Ramdas Pophale) SiO2 
 PCOD8231433
Probable space group: P B C M
;
_chemical_formula_sum "Si O2"
_cell_formula_units_Z 64
_cell_length_a 22.660804
_cell_length_b 17.504088
_cell_length_c 8.868220
_cell_angle_alpha 90.000000
_cell_angle_beta 90.000000
_cell_angle_gamma 90.000000
_cell_volume 3517.638945
_symmetry_space_group_name_H-M "P B C M"
_symmetry_group_IT_number 57
_symmetry_cell_setting 'orthorhombic'
loop_
_space_group_symop_operation_xyz
x,y,z
-x,-y,1/2+z
x,1/2-y,-z
-x,1/2+y,1/2-z
-x,-y,-z
x,y,1/2-z
-x,1/2+y,z
x,1/2-y,1/2+z
loop_
_atom_site_type_symbol
_atom_site_label
_atom_site_fract_x
_atom_site_fract_y
_atom_site_fract_z
Si Si1 0.801536 0.828018 0.428539
Si Si2 0.951459 0.327565 0.573633
Si Si3 0.080059 0.124417 0.075280
Si Si4 0.536476 0.935418 0.076551
Si Si5 0.882442 0.043226 0.579882
Si Si6 0.639991 0.033655 0.071846
Si Si7 0.563208 0.168446 0.571607
Si Si8 0.756118 0.977860 0.573715
O O1 0.776498 0.750000 0.500000
O O2 0.795759 0.825236 0.250000
O O3 0.869929 0.836803 0.474246
O O4 0.761731 0.896716 0.491150
O O5 0.928410 0.250000 0.500000
O O6 0.952523 0.317043 0.750000
O O7 0.905794 0.393858 0.534335
O O8 0.017241 0.346410 0.514779
O O9 0.092238 0.145656 0.250000
O O10 0.080246 0.033503 0.054542
O O11 0.526159 0.949620 0.250000
O O12 0.505977 0.854068 0.033927
O O13 0.605184 0.952693 0.037646
O O14 0.500000 0.000000 0.000000
O O15 0.890757 0.073214 0.750000
O O16 0.814130 0.028032 0.544444
O O17 0.647069 0.047257 0.250000
O O18 0.606881 0.106183 0.000511
O O19 0.703121 0.026671 0.994599
O O20 0.576795 0.250000 0.500000
O O21 0.574634 0.172274 0.750000
O O22 0.746585 0.962239 0.750000
#
# Coordination Sequence:
#
# PCOD8231433 Si02
#       8
#     8   8   8   8   8   8   8   8
#     4  11  21  34  54  79 106 137 172 215 264 315
#     4  11  22  34  51  75 104 135 170 211 262 318
#     4   9  19  35  54  78 104 132 166 209 261 321
#     4   8  16  30  50  75 104 135 168 206 251 302
#     4   9  19  36  55  74 101 133 170 215 262 311
#     4  10  19  34  56  81 107 140 181 221 261 313
#     4  10  19  33  53  80 112 144 177 218 264 308
#     4  10  21  38  57  78 105 140 180 221 263 312
#
# _framework density 18.194022
#
# number of rings (size 3 to 8) (size 9 to 14) (size 15 to 20)
#    0.000    2.250    0.000    4.125    0.000    5.500 
#    0.000    1.250    0.000    4.500    0.000    0.000 
#    0.000    0.000    0.000    0.000    0.000    0.000 
#
# Total GULP energy -793295.719883 kJ/mol
# GULP energy per Si atom -12395.245623 kJ/mol
# Density = 1.815261 g / cm^3
# Si number density = 18.194022 Si / 1000 Ang^3
#
#
#
# Elastic Constant Matrix: (Units=GPa)
#
#
# Indices 1 2 3 4 5 6 
#
# 1 76.9641 48.6415 44.0849 0.0000 0.0000 0.0000
# 2 48.6415 103.6301 49.1378 0.0000 0.0000 0.0000
# 3 44.0849 49.1378 97.2323 0.0000 0.0000 0.0000
# 4 0.0000 0.0000 0.0000 31.6250 0.0000 0.0000
# 5 0.0000 0.0000 0.0000 0.0000 27.1698 0.0000
# 6 0.0000 0.0000 0.0000 0.0000 0.0000 18.4195
#
#
#
# Elastic Compliance Matrix: (Units=1/GPa)
#
#
# Indices 1 2 3 4 5 6 
#
# 1 0.020766 -0.006947 -0.005904 0.000000 0.000000 0.000000
# 2 -0.006947 0.015015 -0.004438 0.000000 0.000000 0.000000
# 3 -0.005904 -0.004438 0.015204 0.000000 0.000000 0.000000
# 4 0.000000 0.000000 0.000000 0.031621 0.000000 0.000000
# 5 0.000000 0.000000 0.000000 0.000000 0.036806 0.000000
# 6 0.000000 0.000000 0.000000 0.000000 0.000000 0.054290
#
#
# Mechanical properties :
#
#
# Convention : Reuss Voigt Hill
#
# Bulk Modulus (GPa) = 60.95389 62.39499 61.67444
# Shear Modulus (GPa) = 23.39185 24.50701 23.94943
#
# Velocity S-wave (km/s) = 3.58954 3.67411 3.63207
# Velocity P-wave (km/s) = 7.12423 7.23653 7.18060
#
# Compressibility (1/GPa) = 0.01640584
#
# Stress axis : x y z
#
# Youngs Moduli (GPa) = 48.15632 66.59981 65.77013
#
# Poissons Ratio (x) = 0.46269 0.38832
# Poissons Ratio (y) = 0.33456 0.29190
# Poissons Ratio (z) = 0.28432 0.29558
#
# Static dielectric constant tensor:
#      x y z
#    x 3.490120 0.000000 0.000000 
#    y 0.000000 3.371220 0.000000 
#    z 0.000000 0.000000 3.381400 
# 
# 
# High freq. dielectric constant tensor:
#      x y z
#    x 1.693700 0.000000 0.000000 
#    y 0.000000 1.698680 0.000000 
#    z 0.000000 0.000000 1.715820 
# 
# From -- ./inp_files/8580.got.cif
#   From: 2010.03.12/outbox.cif.g09.slc.cpg/sg57_5_cif.got.tgz:8580.got - 2010.04.16 15:48:40.
