data_PCOD8231509
_publ_section_title
;
Structure prediction by ZEFSAII (Michael W. Deem and Ramdas Pophale) SiO2 
 PCOD8231509
Probable space group: P B C M
;
_chemical_formula_sum "Si O2"
_cell_formula_units_Z 56
_cell_length_a 14.856560
_cell_length_b 22.493632
_cell_length_c 8.632510
_cell_angle_alpha 90.000000
_cell_angle_beta 90.000000
_cell_angle_gamma 90.000000
_cell_volume 2884.794870
_symmetry_space_group_name_H-M "P B C M"
_symmetry_group_IT_number 57
_symmetry_cell_setting 'orthorhombic'
loop_
_space_group_symop_operation_xyz
x,y,z
-x,-y,1/2+z
x,1/2-y,-z
-x,1/2+y,1/2-z
-x,-y,-z
x,y,1/2-z
-x,1/2+y,z
x,1/2-y,1/2+z
loop_
_atom_site_type_symbol
_atom_site_label
_atom_site_fract_x
_atom_site_fract_y
_atom_site_fract_z
Si Si1 0.425731 0.189140 0.934589
Si Si2 0.916521 0.419194 0.930818
Si Si3 0.294733 0.087106 0.566884
Si Si4 0.407009 0.979028 0.567278
Si Si5 0.616078 0.153925 0.065916
Si Si6 0.196857 0.688710 0.932807
Si Si7 0.898461 0.944899 0.067528
O O1 0.431138 0.188730 0.750000
O O2 0.357584 0.139151 0.000913
O O3 0.384643 0.250000 0.000000
O O4 0.524791 0.182446 0.004148
O O5 0.902900 0.408325 0.750000
O O6 0.885345 0.485714 0.978777
O O7 0.858533 0.369346 0.016505
O O8 0.021192 0.413248 0.975755
O O9 0.301574 0.089473 0.750000
O O10 0.190554 0.091669 0.516741
O O11 0.330639 0.023759 0.506807
O O12 0.415841 0.979664 0.750000
O O13 0.380571 0.914065 0.508413
O O14 0.500000 0.000000 0.500000
O O15 0.620296 0.160201 0.250000
O O16 0.700860 0.186546 0.992147
O O17 0.195261 0.692306 0.750000
O O18 0.153856 0.750000 0.000000
O O19 0.918027 0.940382 0.250000
#
# Coordination Sequence:
#
# PCOD8231509 Si02
#       7
#     8   8   8   8   8   8   8
#     4  11  22  37  55  75 107 148 194 235 276 330
#     4  10  20  37  61  90 121 148 185 236 290 349
#     4   9  18  34  56  80 110 148 187 231 280 330
#     4  10  19  33  54  82 114 147 185 231 283 334
#     4  11  22  37  58  84 115 149 188 235 287 340
#     4  12  25  41  61  85 116 154 197 241 290 350
#     4   9  18  36  62  88 116 152 191 233 288 347
#
# _framework density 19.412125
#
# number of rings (size 3 to 8) (size 9 to 14) (size 15 to 20)
#    0.000    1.714    1.429    3.857    0.000    3.429 
#    0.000    2.857    0.000    1.714    0.000    0.000 
#    0.000    0.000    0.000    0.000    0.000    0.000 
#
# Total GULP energy -694365.505651 kJ/mol
# GULP energy per Si atom -12399.384029 kJ/mol
# Density = 1.936794 g / cm^3
# Si number density = 19.412125 Si / 1000 Ang^3
#
#
#
# Elastic Constant Matrix: (Units=GPa)
#
#
# Indices 1 2 3 4 5 6 
#
# 1 116.6466 43.8711 26.8632 0.0000 0.0000 0.0000
# 2 43.8711 109.0361 34.0351 0.0000 0.0000 0.0000
# 3 26.8632 34.0351 75.3501 0.0000 0.0000 0.0000
# 4 0.0000 0.0000 0.0000 28.0502 0.0000 0.0000
# 5 0.0000 0.0000 0.0000 0.0000 28.7375 0.0000
# 6 0.0000 0.0000 0.0000 0.0000 0.0000 21.8363
#
#
#
# Elastic Compliance Matrix: (Units=1/GPa)
#
#
# Indices 1 2 3 4 5 6 
#
# 1 0.010383 -0.003518 -0.002112 0.000000 0.000000 0.000000
# 2 -0.003518 0.011869 -0.004107 0.000000 0.000000 0.000000
# 3 -0.002112 -0.004107 0.015879 0.000000 0.000000 0.000000
# 4 0.000000 0.000000 0.000000 0.035650 0.000000 0.000000
# 5 0.000000 0.000000 0.000000 0.000000 0.034798 0.000000
# 6 0.000000 0.000000 0.000000 0.000000 0.000000 0.045795
#
#
# Mechanical properties :
#
#
# Convention : Reuss Voigt Hill
#
# Bulk Modulus (GPa) = 53.60148 56.73018 55.16583
# Shear Modulus (GPa) = 27.76738 28.80902 28.28820
#
# Velocity S-wave (km/s) = 3.78618 3.85655 3.82153
# Velocity P-wave (km/s) = 6.84002 7.00843 6.92474
#
# Compressibility (1/GPa) = 0.01865620
#
# Stress axis : x y z
#
# Youngs Moduli (GPa) = 96.31558 84.25530 62.97436
#
# Poissons Ratio (x) = 0.29642 0.13303
# Poissons Ratio (y) = 0.33884 0.25862
# Poissons Ratio (z) = 0.20346 0.34602
#
# Static dielectric constant tensor:
#      x y z
#    x 3.589790 0.000000 0.000000 
#    y 0.000000 3.766090 0.000000 
#    z 0.000000 0.000000 3.424400 
# 
# 
# High freq. dielectric constant tensor:
#      x y z
#    x 1.756410 0.000000 0.000000 
#    y 0.000000 1.761910 0.000000 
#    z 0.000000 0.000000 1.746010 
# 
# From -- ./inp_files/5243.got.cif
#   From: 2010.03.12/outbox.cif.g09.slc.cpg/sg57_3_cif.got.tgz:5243.got - 2010.04.16 15:48:40.
