data_PCOD8231556
_publ_section_title
;
Structure prediction by ZEFSAII (Michael W. Deem and Ramdas Pophale) SiO2 
 PCOD8231556
Probable space group: P B C M
;
_chemical_formula_sum "Si O2"
_cell_formula_units_Z 64
_cell_length_a 9.214039
_cell_length_b 19.367087
_cell_length_c 17.953351
_cell_angle_alpha 90.000000
_cell_angle_beta 90.000000
_cell_angle_gamma 90.000000
_cell_volume 3203.759237
_symmetry_space_group_name_H-M "P B C M"
_symmetry_group_IT_number 57
_symmetry_cell_setting 'orthorhombic'
loop_
_space_group_symop_operation_xyz
x,y,z
-x,-y,1/2+z
x,1/2-y,-z
-x,1/2+y,1/2-z
-x,-y,-z
x,y,1/2-z
-x,1/2+y,z
x,1/2-y,1/2+z
loop_
_atom_site_type_symbol
_atom_site_label
_atom_site_fract_x
_atom_site_fract_y
_atom_site_fract_z
Si Si1 0.487963 0.636476 0.882161
Si Si2 0.268017 0.532309 0.581992
Si Si3 0.198269 0.383409 0.168666
Si Si4 0.166405 0.880640 0.945433
Si Si5 0.373427 0.108652 0.460657
Si Si6 0.574227 0.283006 0.919139
Si Si7 0.103298 0.175146 0.978157
Si Si8 0.021411 0.517248 0.336638
O O1 0.349450 0.587953 0.864972
O O2 0.627136 0.618430 0.832842
O O3 0.440447 0.716072 0.865598
O O4 0.524543 0.618337 0.967804
O O5 0.237543 0.561793 0.498909
O O6 0.378339 0.467661 0.573704
O O7 0.121719 0.511496 0.623736
O O8 0.145917 0.359043 0.250000
O O9 0.121887 0.332136 0.110534
O O10 0.148839 0.461571 0.153730
O O11 0.280036 0.827775 0.908160
O O12 0.076896 0.914141 0.877842
O O13 0.061655 0.835509 0.998056
O O14 0.437052 0.165829 0.403240
O O15 0.205051 0.120000 0.480535
O O16 0.568731 0.250000 0.000000
O O17 0.161041 0.250000 0.000000
O O18 0.989501 0.534197 0.250000
#
# Coordination Sequence:
#
# PCOD8231556 Si02
#       8
#     8   8   8   8   8   8   8   8
#     4  10  21  36  60  94 125 154 208 256 316 370
#     4  12  21  36  62  93 118 160 210 264 308 371
#     4  10  22  41  63  89 127 165 202 260 325 377
#     4  12  21  37  62  89 124 158 215 260 314 367
#     4  10  19  33  55  90 121 153 194 258 306 355
#     4  10  20  36  57  92 127 152 194 262 313 365
#     4  11  21  35  63  91 120 162 213 257 304 369
#     4  11  25  42  59  89 130 167 207 263 323 382
#
# _framework density 19.976531999999999
#
# number of rings (size 3 to 8) (size 9 to 14) (size 15 to 20)
#    0.000    1.250    5.000    4.500    1.750    0.500 
#    0.000    1.250    0.000    0.000    0.000    0.000 
#    0.000    0.000    0.000    0.000    0.000    0.000 
#
# Total GULP energy -793412.995238 kJ/mol
# GULP energy per Si atom -12397.078051 kJ/mol
# Density = 1.993107 g / cm^3
# Si number density = 19.976532 Si / 1000 Ang^3
#
#
#
# Elastic Constant Matrix: (Units=GPa)
#
#
# Indices 1 2 3 4 5 6 
#
# 1 114.0169 55.1212 28.5169 0.0000 0.0000 0.0000
# 2 55.1212 131.3188 40.9604 0.0000 0.0000 0.0000
# 3 28.5169 40.9604 78.2203 0.0000 0.0000 0.0000
# 4 0.0000 0.0000 0.0000 17.2991 0.0000 0.0000
# 5 0.0000 0.0000 0.0000 0.0000 13.1419 0.0000
# 6 0.0000 0.0000 0.0000 0.0000 0.0000 41.9674
#
#
#
# Elastic Compliance Matrix: (Units=1/GPa)
#
#
# Indices 1 2 3 4 5 6 
#
# 1 0.011246 -0.004114 -0.001946 0.000000 0.000000 0.000000
# 2 -0.004114 0.010606 -0.004054 0.000000 0.000000 0.000000
# 3 -0.001946 -0.004054 0.015617 0.000000 0.000000 0.000000
# 4 0.000000 0.000000 0.000000 0.057807 0.000000 0.000000
# 5 0.000000 0.000000 0.000000 0.000000 0.076092 0.000000
# 6 0.000000 0.000000 0.000000 0.000000 0.000000 0.023828
#
#
# Mechanical properties :
#
#
# Convention : Reuss Voigt Hill
#
# Bulk Modulus (GPa) = 57.99921 63.63922 60.81921
# Shear Modulus (GPa) = 22.60693 27.74550 25.17622
#
# Velocity S-wave (km/s) = 3.36769 3.73084 3.55391
# Velocity P-wave (km/s) = 6.64970 7.10529 6.88126
#
# Compressibility (1/GPa) = 0.01724161
#
# Stress axis : x y z
#
# Youngs Moduli (GPa) = 88.92032 94.28306 64.03317
#
# Poissons Ratio (x) = 0.38784 0.12460
# Poissons Ratio (y) = 0.36578 0.25961
# Poissons Ratio (z) = 0.17303 0.38226
#
# Static dielectric constant tensor:
#      x y z
#    x 3.737170 0.000000 0.000000 
#    y 0.000000 3.966290 0.000000 
#    z 0.000000 0.000000 3.302710 
# 
# 
# High freq. dielectric constant tensor:
#      x y z
#    x 1.792200 0.000000 0.000000 
#    y 0.000000 1.789040 0.000000 
#    z 0.000000 0.000000 1.731190 
# 
# From -- ./inp_files/21449.got.cif
#   From: 2010.03.12/outbox.cif.g09.slc.cpg/sg57_11_cif.got.tgz:21449.got - 2010.04.16 15:48:40.
