data_PCOD8231928
_publ_section_title
;
Structure prediction by ZEFSAII (Michael W. Deem and Ramdas Pophale) SiO2 
 PCOD8231928
Probable space group: P B C M
;
_chemical_formula_sum "Si O2"
_cell_formula_units_Z 48
_cell_length_a 10.092778
_cell_length_b 13.815547
_cell_length_c 17.243492
_cell_angle_alpha 90.000000
_cell_angle_beta 90.000000
_cell_angle_gamma 90.000000
_cell_volume 2404.385085
_symmetry_space_group_name_H-M "P B C M"
_symmetry_group_IT_number 57
_symmetry_cell_setting 'orthorhombic'
loop_
_space_group_symop_operation_xyz
x,y,z
-x,-y,1/2+z
x,1/2-y,-z
-x,1/2+y,1/2-z
-x,-y,-z
x,y,1/2-z
-x,1/2+y,z
x,1/2-y,1/2+z
loop_
_atom_site_type_symbol
_atom_site_label
_atom_site_fract_x
_atom_site_fract_y
_atom_site_fract_z
Si Si1 0.078773 0.907012 0.094091
Si Si2 0.377796 0.078014 0.842084
Si Si3 0.138484 0.209191 0.838208
Si Si4 0.347146 0.664177 0.840285
Si Si5 0.729603 0.375765 0.660365
Si Si6 0.994663 0.875172 0.924659
O O1 0.230249 0.878869 0.107807
O O2 0.987371 0.863377 0.161952
O O3 0.024046 0.859007 0.015091
O O4 0.068712 0.021459 0.091900
O O5 0.378391 0.077369 0.750000
O O6 0.265333 0.151800 0.871621
O O7 0.519470 0.114624 0.872662
O O8 0.346991 0.969658 0.873943
O O9 0.161278 0.244550 0.750000
O O10 0.114421 0.300264 0.893829
O O11 0.322488 0.639212 0.750000
O O12 0.359517 0.780115 0.851917
O O13 0.761190 0.393634 0.750000
O O14 0.869098 0.359233 0.619968
#
# Coordination Sequence:
#
# PCOD8231928 Si02
#       6
#     8   8   8   8   8   8
#     4  11  23  38  59  85 121 157 196 248 292 350
#     4   9  20  37  58  88 124 152 193 254 302 348
#     4  11  21  36  62  89 114 152 198 244 296 352
#     4  10  21  37  60  88 116 157 203 245 297 358
#     4  10  19  35  60  85 115 155 197 243 299 352
#     4  11  23  37  59  86 122 159 200 242 296 350
#
# _framework density 19.963524
#
# number of rings (size 3 to 8) (size 9 to 14) (size 15 to 20)
#    0.000    1.667    3.333    1.500    0.000    3.333 
#    0.000    4.167    7.333    0.000    0.000    0.000 
#    0.000    0.000    0.000    0.000    0.000    0.000 
#
# Total GULP energy -595285.336274 kJ/mol
# GULP energy per Si atom -12401.777839 kJ/mol
# Density = 1.991809 g / cm^3
# Si number density = 19.963524 Si / 1000 Ang^3
#
#
#
# Elastic Constant Matrix: (Units=GPa)
#
#
# Indices 1 2 3 4 5 6 
#
# 1 90.0157 29.0668 -0.7598 0.0000 0.0000 0.0000
# 2 29.0668 84.3198 19.1480 0.0000 0.0000 0.0000
# 3 -0.7598 19.1480 37.4309 0.0000 0.0000 0.0000
# 4 0.0000 0.0000 0.0000 22.7277 0.0000 0.0000
# 5 0.0000 0.0000 0.0000 0.0000 16.3295 0.0000
# 6 0.0000 0.0000 0.0000 0.0000 0.0000 30.9243
#
#
#
# Elastic Compliance Matrix: (Units=1/GPa)
#
#
# Indices 1 2 3 4 5 6 
#
# 1 0.012762 -0.005044 0.002839 0.000000 0.000000 0.000000
# 2 -0.005044 0.015412 -0.007987 0.000000 0.000000 0.000000
# 3 0.002839 -0.007987 0.030859 0.000000 0.000000 0.000000
# 4 0.000000 0.000000 0.000000 0.043999 0.000000 0.000000
# 5 0.000000 0.000000 0.000000 0.000000 0.061239 0.000000
# 6 0.000000 0.000000 0.000000 0.000000 0.000000 0.032337
#
#
# Mechanical properties :
#
#
# Convention : Reuss Voigt Hill
#
# Bulk Modulus (GPa) = 25.87279 34.07515 29.97397
# Shear Modulus (GPa) = 21.75102 24.95039 23.35071
#
# Velocity S-wave (km/s) = 3.30440 3.53908 3.42375
# Velocity P-wave (km/s) = 5.24851 5.81429 5.53863
#
# Compressibility (1/GPa) = 0.03865064
#
# Stress axis : x y z
#
# Youngs Moduli (GPa) = 78.35818 64.88432 32.40532
#
# Poissons Ratio (x) = 0.32728 -0.09201
# Poissons Ratio (y) = 0.39524 0.25881
# Poissons Ratio (z) = -0.22249 0.51820
#
# Static dielectric constant tensor:
#      x y z
#    x 3.602630 0.000000 0.000000 
#    y 0.000000 3.939350 0.000000 
#    z 0.000000 0.000000 3.483720 
# 
# 
# High freq. dielectric constant tensor:
#      x y z
#    x 1.769660 0.000000 0.000000 
#    y 0.000000 1.796670 0.000000 
#    z 0.000000 0.000000 1.758650 
# 
# From -- ./inp_files/20980.got.cif
#   From: 2010.03.12/outbox.cif.g09.slc.cpg/sg57_11_cif.got.tgz:20980.got - 2010.04.16 15:48:40.
