data_PCOD8231079
_publ_section_title
;
Structure prediction by ZEFSAII (Michael W. Deem and Ramdas Pophale) SiO2 
 PCOD8231079
Probable space group: P B C M
;
_chemical_formula_sum "Si O2"
_cell_formula_units_Z 64
_cell_length_a 17.668756
_cell_length_b 20.200160
_cell_length_c 8.930172
_cell_angle_alpha 90.000000
_cell_angle_beta 90.000000
_cell_angle_gamma 90.000000
_cell_volume 3187.282854
_symmetry_space_group_name_H-M "P B C M"
_symmetry_group_IT_number 57
_symmetry_cell_setting 'orthorhombic'
loop_
_space_group_symop_operation_xyz
x,y,z
-x,-y,1/2+z
x,1/2-y,-z
-x,1/2+y,1/2-z
-x,-y,-z
x,y,1/2-z
-x,1/2+y,z
x,1/2-y,1/2+z
loop_
_atom_site_type_symbol
_atom_site_label
_atom_site_fract_x
_atom_site_fract_y
_atom_site_fract_z
Si Si1 0.851219 0.183446 0.072403
Si Si2 0.206979 0.960870 0.923372
Si Si3 0.241638 0.186242 0.076594
Si Si4 0.591129 0.811638 0.579293
Si Si5 0.493836 0.412809 0.087766
Si Si6 0.014748 0.318826 0.429899
Si Si7 0.875905 0.922876 0.574295
Si Si8 0.621243 0.033447 0.415461
O O1 0.863966 0.194086 0.250000
O O2 0.801476 0.117622 0.041157
O O3 0.812760 0.250000 0.000000
O O4 0.929906 0.172980 0.987489
O O5 0.190698 0.975129 0.750000
O O6 0.292833 0.983058 0.967511
O O7 0.144075 0.003646 0.013902
O O8 0.242306 0.202026 0.250000
O O9 0.325666 0.175718 0.009555
O O10 0.198574 0.119369 0.040372
O O11 0.202602 0.250000 0.000000
O O12 0.551573 0.750000 0.500000
O O13 0.599314 0.795580 0.750000
O O14 0.537634 0.872746 0.551790
O O15 0.493963 0.376775 0.250000
O O16 0.437177 0.473670 0.100465
O O17 0.581897 0.423701 0.045528
O O18 0.048500 0.250000 0.500000
O O19 0.018703 0.315072 0.250000
O O20 0.057079 0.385169 0.487234
O O21 0.896423 0.927069 0.750000
O O22 0.626937 0.067631 0.250000
#
# Coordination Sequence:
#
# PCOD8231079 Si02
#       8
#     8   8   8   8   8   8   8   8
#     4  10  21  40  64  86 109 140 182 228 279 336
#     4  10  22  39  59  84 112 144 183 229 281 333
#     4   9  19  32  48  73 106 147 188 224 267 322
#     4  10  19  32  49  71 102 138 177 220 267 318
#     4  10  19  32  53  79 105 138 180 221 267 322
#     4  11  22  38  60  85 115 151 190 227 268 321
#     4  11  22  35  54  83 117 150 185 228 276 325
#     4   9  19  36  56  78 107 142 178 220 270 324
#
# _framework density 20.079799000000001
#
# number of rings (size 3 to 8) (size 9 to 14) (size 15 to 20)
#    0.000    2.000    0.000    4.500    0.000    5.000 
#    0.000    0.625    0.000    1.500    0.000    0.000 
#    0.000    0.000    0.000    0.000    0.000    0.000 
#
# Total GULP energy -792899.959795 kJ/mol
# GULP energy per Si atom -12389.061872 kJ/mol
# Density = 2.003410 g / cm^3
# Si number density = 20.079799 Si / 1000 Ang^3
#
#
#
# Elastic Constant Matrix: (Units=GPa)
#
#
# Indices 1 2 3 4 5 6 
#
# 1 67.1901 22.0659 31.9999 0.0000 0.0000 0.0000
# 2 22.0659 81.0385 37.9415 0.0000 0.0000 0.0000
# 3 31.9999 37.9415 96.0188 0.0000 0.0000 0.0000
# 4 0.0000 0.0000 0.0000 34.9287 0.0000 0.0000
# 5 0.0000 0.0000 0.0000 0.0000 26.6092 0.0000
# 6 0.0000 0.0000 0.0000 0.0000 0.0000 24.1730
#
#
#
# Elastic Compliance Matrix: (Units=1/GPa)
#
#
# Indices 1 2 3 4 5 6 
#
# 1 0.018122 -0.002585 -0.005018 0.000000 0.000000 0.000000
# 2 -0.002585 0.015510 -0.005267 0.000000 0.000000 0.000000
# 3 -0.005018 -0.005267 0.014168 0.000000 0.000000 0.000000
# 4 0.000000 0.000000 0.000000 0.028630 0.000000 0.000000
# 5 0.000000 0.000000 0.000000 0.000000 0.037581 0.000000
# 6 0.000000 0.000000 0.000000 0.000000 0.000000 0.041368
#
#
# Mechanical properties :
#
#
# Convention : Reuss Voigt Hill
#
# Bulk Modulus (GPa) = 45.33163 47.58467 46.45815
# Shear Modulus (GPa) = 26.52907 27.29153 26.91030
#
# Velocity S-wave (km/s) = 3.63875 3.69067 3.66480
# Velocity P-wave (km/s) = 6.34655 6.47384 6.41051
#
# Compressibility (1/GPa) = 0.02205965
#
# Stress axis : x y z
#
# Youngs Moduli (GPa) = 55.18168 64.47576 70.58041
#
# Poissons Ratio (x) = 0.16667 0.35417
# Poissons Ratio (y) = 0.14265 0.37175
# Poissons Ratio (z) = 0.27690 0.33960
#
# Static dielectric constant tensor:
#      x y z
#    x 3.617750 0.000000 0.000000 
#    y 0.000000 3.469810 0.000000 
#    z 0.000000 0.000000 1.517440 
# 
# 
# High freq. dielectric constant tensor:
#      x y z
#    x 1.772020 0.000000 0.000000 
#    y 0.000000 1.771440 0.000000 
#    z 0.000000 0.000000 1.792230 
# 
# From -- ./inp_files/7132.got.cif
#   From: 2010.03.12/outbox.cif.g09.slc.cpg/sg57_4_cif.got.tgz:7132.got - 2010.04.16 15:48:40.
