data_PCOD8231777
_publ_section_title
;
Structure prediction by ZEFSAII (Michael W. Deem and Ramdas Pophale) SiO2 
 PCOD8231777
Probable space group: P B C M
;
_chemical_formula_sum "Si O2"
_cell_formula_units_Z 48
_cell_length_a 14.601310
_cell_length_b 18.447865
_cell_length_c 9.023317
_cell_angle_alpha 90.000000
_cell_angle_beta 90.000000
_cell_angle_gamma 90.000000
_cell_volume 2430.547698
_symmetry_space_group_name_H-M "P B C M"
_symmetry_group_IT_number 57
_symmetry_cell_setting 'orthorhombic'
loop_
_space_group_symop_operation_xyz
x,y,z
-x,-y,1/2+z
x,1/2-y,-z
-x,1/2+y,1/2-z
-x,-y,-z
x,y,1/2-z
-x,1/2+y,z
x,1/2-y,1/2+z
loop_
_atom_site_type_symbol
_atom_site_label
_atom_site_fract_x
_atom_site_fract_y
_atom_site_fract_z
Si Si1 0.047208 0.096246 0.419183
Si Si2 0.464928 0.825411 0.424575
Si Si3 0.224898 0.323018 0.920277
Si Si4 0.683498 0.083296 0.423189
Si Si5 0.637491 0.921872 0.420357
Si Si6 0.126371 0.940534 0.077428
O O1 0.012630 0.092188 0.250000
O O2 0.116905 0.162648 0.443978
O O3 0.960202 0.108068 0.525536
O O4 0.102491 0.023427 0.459615
O O5 0.493509 0.750000 0.500000
O O6 0.453713 0.813749 0.250000
O O7 0.369861 0.853261 0.492213
O O8 0.542011 0.884690 0.463380
O O9 0.250077 0.314048 0.750000
O O10 0.255448 0.250000 0.000000
O O11 0.281317 0.390492 0.981233
O O12 0.686216 0.101739 0.250000
O O13 0.786093 0.082554 0.483999
O O14 0.631893 0.007346 0.453791
O O15 0.662549 0.907107 0.250000
O O16 0.145632 0.927320 0.250000
#
# Coordination Sequence:
#
# PCOD8231777 Si02
#       6
#     8   8   8   8   8   8
#     4   9  19  35  54  81 115 152 192 238 291 346
#     4  11  24  42  61  85 118 156 198 243 296 354
#     4  11  22  36  56  84 121 159 197 242 296 354
#     4  11  22  38  62  91 120 153 196 246 294 350
#     4  10  22  39  61  89 118 153 197 244 295 350
#     4  10  19  34  58  86 114 148 192 241 291 343
#
# _framework density 19.748636000000001
#
# number of rings (size 3 to 8) (size 9 to 14) (size 15 to 20)
#    0.000    1.667    1.667    3.000    0.000    5.333 
#    0.000    0.833    0.000    2.000    0.000    0.000 
#    0.000    0.000    0.000    0.000    0.000    0.000 
#
# Total GULP energy -595423.716332 kJ/mol
# GULP energy per Si atom -12404.660757 kJ/mol
# Density = 1.970369 g / cm^3
# Si number density = 19.748636 Si / 1000 Ang^3
#
#
#
# Elastic Constant Matrix: (Units=GPa)
#
#
# Indices 1 2 3 4 5 6 
#
# 1 96.5377 17.4225 48.2926 0.0000 0.0000 0.0000
# 2 17.4225 48.3355 33.9383 0.0000 0.0000 0.0000
# 3 48.2926 33.9383 102.4025 0.0000 0.0000 0.0000
# 4 0.0000 0.0000 0.0000 29.2220 0.0000 0.0000
# 5 0.0000 0.0000 0.0000 0.0000 37.2784 0.0000
# 6 0.0000 0.0000 0.0000 0.0000 0.0000 18.0714
#
#
#
# Elastic Compliance Matrix: (Units=1/GPa)
#
#
# Indices 1 2 3 4 5 6 
#
# 1 0.013567 -0.000518 -0.006226 0.000000 0.000000 0.000000
# 2 -0.000518 0.026983 -0.008698 0.000000 0.000000 0.000000
# 3 -0.006226 -0.008698 0.015584 0.000000 0.000000 0.000000
# 4 0.000000 0.000000 0.000000 0.034221 0.000000 0.000000
# 5 0.000000 0.000000 0.000000 0.000000 0.026825 0.000000
# 6 0.000000 0.000000 0.000000 0.000000 0.000000 0.055336
#
#
# Mechanical properties :
#
#
# Convention : Reuss Voigt Hill
#
# Bulk Modulus (GPa) = 39.60647 49.62028 44.61337
# Shear Modulus (GPa) = 23.60513 26.75585 25.18049
#
# Velocity S-wave (km/s) = 3.46103 3.68478 3.57466
# Velocity P-wave (km/s) = 6.00587 6.57905 6.29899
#
# Compressibility (1/GPa) = 0.02524840
#
# Stress axis : x y z
#
# Youngs Moduli (GPa) = 73.70896 37.06044 64.16668
#
# Poissons Ratio (x) = 0.01922 0.39952
# Poissons Ratio (y) = 0.03822 0.55813
# Poissons Ratio (z) = 0.45893 0.32236
#
# Static dielectric constant tensor:
#      x y z
#    x 3.564870 0.000000 0.000000 
#    y 0.000000 3.440510 0.000000 
#    z 0.000000 0.000000 3.623840 
# 
# 
# High freq. dielectric constant tensor:
#      x y z
#    x 1.775090 0.000000 0.000000 
#    y 0.000000 1.752630 0.000000 
#    z 0.000000 0.000000 1.779210 
# 
# From -- ./inp_files/4579.got.cif
#   From: 2010.03.12/outbox.cif.g09.slc.cpg/sg57_3_cif.got.tgz:4579.got - 2010.04.16 15:48:40.
