data_PCOD8231134
_publ_section_title
;
Structure prediction by ZEFSAII (Michael W. Deem and Ramdas Pophale) SiO2 
 PCOD8231134
Probable space group: P B C M
;
_chemical_formula_sum "Si O2"
_cell_formula_units_Z 48
_cell_length_a 15.981805
_cell_length_b 18.483413
_cell_length_c 8.767446
_cell_angle_alpha 90.000000
_cell_angle_beta 90.000000
_cell_angle_gamma 90.000000
_cell_volume 2589.888664
_symmetry_space_group_name_H-M "P B C M"
_symmetry_group_IT_number 57
_symmetry_cell_setting 'orthorhombic'
loop_
_space_group_symop_operation_xyz
x,y,z
-x,-y,1/2+z
x,1/2-y,-z
-x,1/2+y,1/2-z
-x,-y,-z
x,y,1/2-z
-x,1/2+y,z
x,1/2-y,1/2+z
loop_
_atom_site_type_symbol
_atom_site_label
_atom_site_fract_x
_atom_site_fract_y
_atom_site_fract_z
Si Si1 0.008719 0.326310 0.570784
Si Si2 0.173241 0.087931 0.426742
Si Si3 0.661927 0.672093 0.071151
Si Si4 0.835008 0.172844 0.570161
Si Si5 0.749172 0.455725 0.926301
Si Si6 0.419889 0.037049 0.928540
O O1 0.034713 0.250000 0.500000
O O2 0.994814 0.316541 0.750000
O O3 0.082336 0.381819 0.532982
O O4 0.923555 0.355489 0.495475
O O5 0.181358 0.066339 0.250000
O O6 0.243706 0.147205 0.469228
O O7 0.183698 0.016567 0.527617
O O8 0.646975 0.677061 0.250000
O O9 0.644902 0.750000 0.000000
O O10 0.595556 0.615262 0.003181
O O11 0.811228 0.250000 0.500000
O O12 0.841208 0.180437 0.750000
O O13 0.763262 0.116404 0.524380
O O14 0.761027 0.436855 0.750000
O O15 0.657022 0.484014 0.964689
O O16 0.432762 0.048518 0.750000
O O17 0.500000 0.000000 0.000000
#
# Coordination Sequence:
#
# PCOD8231134 Si02
#       6
#     8   8   8   8   8   8
#     4  10  19  32  50  74 106 142 182 223 263 308
#     4   9  19  33  51  77 108 143 179 217 262 311
#     4  10  19  33  54  81 113 145 179 218 262 314
#     4  11  22  37  56  76 103 139 179 222 266 311
#     4  10  21  37  57  80 105 135 173 215 262 316
#     4  10  21  38  60  84 110 140 174 215 265 320
#
# _framework density 18.533614
#
# number of rings (size 3 to 8) (size 9 to 14) (size 15 to 20)
#    0.000    2.000    0.000    5.000    0.000    4.667 
#    0.000    0.833    0.000    4.000    0.000    0.000 
#    0.000    0.000    0.000    0.000    0.000    0.000 
#
# Total GULP energy -595387.160588 kJ/mol
# GULP energy per Si atom -12403.899179 kJ/mol
# Density = 1.849143 g / cm^3
# Si number density = 18.533614 Si / 1000 Ang^3
#
#
#
# Elastic Constant Matrix: (Units=GPa)
#
#
# Indices 1 2 3 4 5 6 
#
# 1 79.4722 69.4423 51.7177 0.0000 0.0000 0.0000
# 2 69.4423 135.2457 68.1267 0.0000 0.0000 0.0000
# 3 51.7177 68.1267 117.5145 0.0000 0.0000 0.0000
# 4 0.0000 0.0000 0.0000 38.7270 0.0000 0.0000
# 5 0.0000 0.0000 0.0000 0.0000 30.5551 0.0000
# 6 0.0000 0.0000 0.0000 0.0000 0.0000 26.5639
#
#
#
# Elastic Compliance Matrix: (Units=1/GPa)
#
#
# Indices 1 2 3 4 5 6 
#
# 1 0.024722 -0.010188 -0.004974 0.000000 0.000000 0.000000
# 2 -0.010188 0.014643 -0.004005 0.000000 0.000000 0.000000
# 3 -0.004974 -0.004005 0.013020 0.000000 0.000000 0.000000
# 4 0.000000 0.000000 0.000000 0.025822 0.000000 0.000000
# 5 0.000000 0.000000 0.000000 0.000000 0.032728 0.000000
# 6 0.000000 0.000000 0.000000 0.000000 0.000000 0.037645
#
#
# Mechanical properties :
#
#
# Convention : Reuss Voigt Hill
#
# Bulk Modulus (GPa) = 71.16819 78.97843 75.07331
# Shear Modulus (GPa) = 26.09643 28.69890 27.39766
#
# Velocity S-wave (km/s) = 3.75648 3.93934 3.84900
# Velocity P-wave (km/s) = 7.56953 7.96224 7.76837
#
# Compressibility (1/GPa) = 0.01405122
#
# Stress axis : x y z
#
# Youngs Moduli (GPa) = 40.44949 68.29426 76.80345
#
# Poissons Ratio (x) = 0.69580 0.38200
# Poissons Ratio (y) = 0.41211 0.30759
# Poissons Ratio (z) = 0.20118 0.27351
#
# Static dielectric constant tensor:
#      x y z
#    x 3.323450 0.000000 0.000000 
#    y 0.000000 3.361580 0.000000 
#    z 0.000000 0.000000 3.562210 
# 
# 
# High freq. dielectric constant tensor:
#      x y z
#    x 1.706810 0.000000 0.000000 
#    y 0.000000 1.720340 0.000000 
#    z 0.000000 0.000000 1.735290 
# 
# From -- ./inp_files/4652.got.cif
#   From: 2010.03.12/outbox.cif.g09.slc.cpg/sg57_3_cif.got.tgz:4652.got - 2010.04.16 15:48:40.
