data_PCOD8231882
_publ_section_title
;
Structure prediction by ZEFSAII (Michael W. Deem and Ramdas Pophale) SiO2 
 PCOD8231882
Probable space group: P B C M
;
_chemical_formula_sum "Si O2"
_cell_formula_units_Z 48
_cell_length_a 10.041955
_cell_length_b 28.054381
_cell_length_c 9.113466
_cell_angle_alpha 90.000000
_cell_angle_beta 90.000000
_cell_angle_gamma 90.000000
_cell_volume 2567.453220
_symmetry_space_group_name_H-M "P B C M"
_symmetry_group_IT_number 57
_symmetry_cell_setting 'orthorhombic'
loop_
_space_group_symop_operation_xyz
x,y,z
-x,-y,1/2+z
x,1/2-y,-z
-x,1/2+y,1/2-z
-x,-y,-z
x,y,1/2-z
-x,1/2+y,z
x,1/2-y,1/2+z
loop_
_atom_site_type_symbol
_atom_site_label
_atom_site_fract_x
_atom_site_fract_y
_atom_site_fract_z
Si Si1 0.909976 0.702044 0.077840
Si Si2 0.472468 0.605655 0.421054
Si Si3 0.961362 0.608297 0.921797
Si Si4 0.764754 0.442228 0.419894
Si Si5 0.400732 0.202973 0.079458
Si Si6 0.265152 0.449766 0.921756
O O1 0.941935 0.704510 0.250000
O O2 0.754182 0.694680 0.045786
O O3 0.961725 0.750000 0.000000
O O4 0.987352 0.657989 0.004937
O O5 0.443578 0.608852 0.250000
O O6 0.336212 0.592436 0.498803
O O7 0.520532 0.657058 0.480454
O O8 0.584224 0.566072 0.454428
O O9 0.941481 0.618286 0.750000
O O10 0.086138 0.574330 0.953096
O O11 0.831450 0.583068 0.984586
O O12 0.728811 0.439641 0.250000
O O13 0.750264 0.496186 0.476773
O O14 0.425218 0.210447 0.250000
O O15 0.455701 0.250000 0.000000
O O16 0.229343 0.443527 0.750000
#
# Coordination Sequence:
#
# PCOD8231882 Si02
#       6
#     8   8   8   8   8   8
#     4  10  19  35  58  84 113 143 181 231 280 327
#     4  10  20  36  57  82 111 144 185 228 279 336
#     4  11  22  36  55  84 115 147 190 230 273 333
#     4  10  23  38  54  80 115 150 186 230 279 332
#     4   9  18  33  54  82 109 137 176 224 272 324
#     4  10  20  38  59  80 110 147 189 237 280 325
#
# _framework density 18.695568999999999
#
# number of rings (size 3 to 8) (size 9 to 14) (size 15 to 20)
#    0.000    2.000    1.667    2.000    0.000    4.000 
#    0.000    0.833    0.000    2.000    0.000    0.000 
#    0.000    0.000    0.000    0.000    0.000    0.000 
#
# Total GULP energy -595395.315277 kJ/mol
# GULP energy per Si atom -12404.069068 kJ/mol
# Density = 1.865302 g / cm^3
# Si number density = 18.695569 Si / 1000 Ang^3
#
#
#
# Elastic Constant Matrix: (Units=GPa)
#
#
# Indices 1 2 3 4 5 6 
#
# 1 37.2132 7.6517 21.0564 0.0000 0.0000 0.0000
# 2 7.6517 121.9574 36.0644 0.0000 0.0000 0.0000
# 3 21.0564 36.0644 60.9109 0.0000 0.0000 0.0000
# 4 0.0000 0.0000 0.0000 36.2210 0.0000 0.0000
# 5 0.0000 0.0000 0.0000 0.0000 26.7069 0.0000
# 6 0.0000 0.0000 0.0000 0.0000 0.0000 14.8876
#
#
#
# Elastic Compliance Matrix: (Units=1/GPa)
#
#
# Indices 1 2 3 4 5 6 
#
# 1 0.033666 0.001611 -0.012592 0.000000 0.000000 0.000000
# 2 0.001611 0.010017 -0.006488 0.000000 0.000000 0.000000
# 3 -0.012592 -0.006488 0.024612 0.000000 0.000000 0.000000
# 4 0.000000 0.000000 0.000000 0.027608 0.000000 0.000000
# 5 0.000000 0.000000 0.000000 0.000000 0.037443 0.000000
# 6 0.000000 0.000000 0.000000 0.000000 0.000000 0.067170
#
#
# Mechanical properties :
#
#
# Convention : Reuss Voigt Hill
#
# Bulk Modulus (GPa) = 29.97836 38.84738 34.41287
# Shear Modulus (GPa) = 20.27796 25.91705 23.09751
#
# Velocity S-wave (km/s) = 3.29696 3.72730 3.51872
# Velocity P-wave (km/s) = 5.52839 6.27278 5.91231
#
# Compressibility (1/GPa) = 0.03335740
#
# Stress axis : x y z
#
# Youngs Moduli (GPa) = 29.70373 99.82964 40.63086
#
# Poissons Ratio (x) = -0.16087 0.51163
# Poissons Ratio (y) = -0.04787 0.26361
# Poissons Ratio (z) = 0.37403 0.64770
#
# Static dielectric constant tensor:
#      x y z
#    x 3.178540 0.000000 0.000000 
#    y 0.000000 3.757150 0.000000 
#    z 0.000000 0.000000 3.381780 
# 
# 
# High freq. dielectric constant tensor:
#      x y z
#    x 1.705790 0.000000 0.000000 
#    y 0.000000 1.743940 0.000000 
#    z 0.000000 0.000000 1.724180 
# 
# From -- ./inp_files/2010.got.cif
#   From: 2010.03.12/outbox.cif.g09.slc.cpg/sg57_2_cif.got.tgz:2010.got - 2010.04.16 15:48:40.
