data_PCOD8231647
_publ_section_title
;
Structure prediction by ZEFSAII (Michael W. Deem and Ramdas Pophale) SiO2 
 PCOD8231647
Probable space group: P B C M
;
_chemical_formula_sum "Si O2"
_cell_formula_units_Z 64
_cell_length_a 17.308421
_cell_length_b 9.018613
_cell_length_c 19.822652
_cell_angle_alpha 90.000000
_cell_angle_beta 90.000000
_cell_angle_gamma 90.000000
_cell_volume 3094.275353
_symmetry_space_group_name_H-M "P B C M"
_symmetry_group_IT_number 57
_symmetry_cell_setting 'orthorhombic'
loop_
_space_group_symop_operation_xyz
x,y,z
-x,-y,1/2+z
x,1/2-y,-z
-x,1/2+y,1/2-z
-x,-y,-z
x,y,1/2-z
-x,1/2+y,z
x,1/2-y,1/2+z
loop_
_atom_site_type_symbol
_atom_site_label
_atom_site_fract_x
_atom_site_fract_y
_atom_site_fract_z
Si Si1 0.162072 0.837568 0.570918
Si Si2 0.410336 0.237715 0.669227
Si Si3 0.270282 0.421785 0.675451
Si Si4 0.917924 0.576689 0.496669
Si Si5 0.556800 0.413623 0.828108
Si Si6 0.958040 0.291658 0.324191
Si Si7 0.900753 0.602803 0.150063
Si Si8 0.713356 0.251917 0.670838
O O1 0.173905 0.750000 0.500000
O O2 0.094941 0.765883 0.615737
O O3 0.236523 0.850870 0.619164
O O4 0.137993 0.007011 0.553284
O O5 0.410192 0.226543 0.750000
O O6 0.328810 0.303915 0.640753
O O7 0.478848 0.343112 0.641196
O O8 0.422397 0.072569 0.638551
O O9 0.304332 0.444882 0.750000
O O10 0.182716 0.362308 0.681816
O O11 0.273749 0.585167 0.642849
O O12 0.930157 0.750000 0.500000
O O13 0.879751 0.547998 0.424599
O O14 0.000000 0.500000 0.500000
O O15 0.541619 0.441301 0.750000
O O16 0.625055 0.296292 0.839247
O O17 0.937452 0.224493 0.250000
O O18 0.948583 0.468784 0.315987
O O19 0.046592 0.250353 0.343629
O O20 0.738999 0.271690 0.750000
#
# Coordination Sequence:
#
# PCOD8231647 Si02
#       8
#     8   8   8   8   8   8   8   8
#     4  12  23  41  64  88 118 160 211 256 314 370
#     4   9  17  30  52  83 124 163 200 242 298 371
#     4  10  19  34  54  81 118 157 197 247 309 369
#     4  12  24  41  61  83 108 154 209 261 304 367
#     4   9  17  31  52  84 120 159 198 241 302 368
#     4  12  24  40  62  88 122 159 205 258 314 374
#     4  12  24  41  60  85 121 161 206 257 318 372
#     4  10  20  36  61  89 123 159 200 256 311 367
#
# _framework density 20.683354999999999
#
# number of rings (size 3 to 8) (size 9 to 14) (size 15 to 20)
#    0.000    1.250    3.750    3.375    0.000    4.000 
#    0.000    0.000    0.000    0.000    0.000    8.750 
#    0.000    0.000    0.000    0.000    0.000    0.000 
#
# Total GULP energy -793059.168462 kJ/mol
# GULP energy per Si atom -12391.549507 kJ/mol
# Density = 2.063628 g / cm^3
# Si number density = 20.683355 Si / 1000 Ang^3
#
#
#
# Elastic Constant Matrix: (Units=GPa)
#
#
# Indices 1 2 3 4 5 6 
#
# 1 148.7668 58.5838 18.4351 0.0000 0.0000 0.0000
# 2 58.5838 101.2397 8.8548 0.0000 0.0000 0.0000
# 3 18.4351 8.8548 83.0604 0.0000 0.0000 0.0000
# 4 0.0000 0.0000 0.0000 19.4765 0.0000 0.0000
# 5 0.0000 0.0000 0.0000 0.0000 -2.4275 0.0000
# 6 0.0000 0.0000 0.0000 0.0000 0.0000 31.5867
#
#
#
# Elastic Compliance Matrix: (Units=1/GPa)
#
#
# Indices 1 2 3 4 5 6 
#
# 1 0.008872 -0.005008 -0.001435 0.000000 0.000000 0.000000
# 2 -0.005008 0.012798 -0.000253 0.000000 0.000000 0.000000
# 3 -0.001435 -0.000253 0.012385 0.000000 0.000000 0.000000
# 4 0.000000 0.000000 0.000000 0.051344 0.000000 0.000000
# 5 0.000000 0.000000 0.000000 0.000000 -0.411952 0.000000
# 6 0.000000 0.000000 0.000000 0.000000 0.000000 0.031659
#
#
# Mechanical properties :
#
#
# Convention : Reuss Voigt Hill
#
# Bulk Modulus (GPa) = 48.39775 56.09049 52.24412
# Shear Modulus (GPa) = -18.20738 26.20668 3.99965
#
# Velocity S-wave (km/s) = -2.97019 3.56342 1.39210
# Velocity P-wave (km/s) = 3.41869 6.64139 5.28184
#
# Compressibility (1/GPa) = 0.02066212
#
# Stress axis : x y z
#
# Youngs Moduli (GPa) = 112.71314 78.13811 80.74335
#
# Poissons Ratio (x) = 0.39135 0.11588
# Poissons Ratio (y) = 0.56452 0.02041
# Poissons Ratio (z) = 0.16177 0.01975
#
# Static dielectric constant tensor:
#      x y z
#    x 3.713680 0.000000 0.000000 
#    y 0.000000 3.901010 0.000000 
#    z 0.000000 0.000000 3.801950 
# 
# 
# High freq. dielectric constant tensor:
#      x y z
#    x 1.804800 0.000000 0.000000 
#    y 0.000000 1.813020 0.000000 
#    z 0.000000 0.000000 1.773570 
# 
# From -- ./inp_files/25611.got.cif
#   From: 2010.03.12/outbox.cif.g09.slc.cpg/sg57_13_cif.got.tgz:25611.got - 2010.04.16 15:48:40.
