data_PCOD8231576
_publ_section_title
;
Structure prediction by ZEFSAII (Michael W. Deem and Ramdas Pophale) SiO2 
 PCOD8231576
Probable space group: P B C M
;
_chemical_formula_sum "Si O2"
_cell_formula_units_Z 64
_cell_length_a 13.990884
_cell_length_b 12.316698
_cell_length_c 18.211633
_cell_angle_alpha 90.000000
_cell_angle_beta 90.000000
_cell_angle_gamma 90.000000
_cell_volume 3138.255788
_symmetry_space_group_name_H-M "P B C M"
_symmetry_group_IT_number 57
_symmetry_cell_setting 'orthorhombic'
loop_
_space_group_symop_operation_xyz
x,y,z
-x,-y,1/2+z
x,1/2-y,-z
-x,1/2+y,1/2-z
-x,-y,-z
x,y,1/2-z
-x,1/2+y,z
x,1/2-y,1/2+z
loop_
_atom_site_type_symbol
_atom_site_label
_atom_site_fract_x
_atom_site_fract_y
_atom_site_fract_z
Si Si1 0.115242 0.462023 0.591284
Si Si2 0.322588 0.333582 0.332259
Si Si3 0.440033 0.129481 0.164716
Si Si4 0.115138 0.244103 0.330116
Si Si5 0.318174 0.553631 0.914182
Si Si6 0.921359 0.920993 0.438654
Si Si7 0.356059 0.779118 0.836088
Si Si8 0.267082 0.537577 0.417230
O O1 0.091269 0.382965 0.658576
O O2 0.210275 0.528440 0.613128
O O3 0.124696 0.387278 0.517677
O O4 0.029408 0.537381 0.564355
O O5 0.338070 0.378840 0.250000
O O6 0.404432 0.250166 0.354980
O O7 0.227546 0.262092 0.337702
O O8 0.326684 0.435796 0.385942
O O9 0.417977 0.099629 0.250000
O O10 0.552319 0.143197 0.149825
O O11 0.391908 0.039974 0.111883
O O12 0.077262 0.277544 0.250000
O O13 0.063068 0.315923 0.389585
O O14 0.356496 0.665918 0.880235
O O15 0.310639 0.561085 0.002321
O O16 0.845614 0.009867 0.409250
O O17 0.342575 0.753041 0.750000
O O18 0.271852 0.854218 0.867768
#
# Coordination Sequence:
#
# PCOD8231576 Si02
#       8
#     8   8   8   8   8   8   8   8
#     4  10  20  38  62  85 117 161 200 243 294 359
#     4   9  18  36  60  85 115 154 198 244 294 355
#     4  10  22  40  62  87 116 157 203 246 298 364
#     4  10  19  33  56  86 116 148 195 253 298 340
#     4  11  23  41  63  91 121 152 206 258 301 349
#     4   9  21  38  59  86 120 161 200 236 295 366
#     4  11  25  42  62  85 121 167 200 241 306 375
#     4  10  22  40  61  89 123 157 198 250 301 353
#
# _framework density 20.393495000000001
#
# number of rings (size 3 to 8) (size 9 to 14) (size 15 to 20)
#    0.000    2.000    1.250    1.500    1.750    3.500 
#    2.250    5.000    0.000    0.000    0.000    0.000 
#    0.000    0.000    0.000    0.000    0.000    0.000 
#
# Total GULP energy -793036.082477 kJ/mol
# GULP energy per Si atom -12391.188789 kJ/mol
# Density = 2.034708 g / cm^3
# Si number density = 20.393495 Si / 1000 Ang^3
#
#
#
# Elastic Constant Matrix: (Units=GPa)
#
#
# Indices 1 2 3 4 5 6 
#
# 1 67.7112 32.3451 23.4771 0.0000 0.0000 0.0000
# 2 32.3451 86.0133 42.9836 0.0000 0.0000 0.0000
# 3 23.4771 42.9836 76.9328 0.0000 0.0000 0.0000
# 4 0.0000 0.0000 0.0000 38.8760 0.0000 0.0000
# 5 0.0000 0.0000 0.0000 0.0000 21.9249 0.0000
# 6 0.0000 0.0000 0.0000 0.0000 0.0000 18.5043
#
#
#
# Elastic Compliance Matrix: (Units=1/GPa)
#
#
# Indices 1 2 3 4 5 6 
#
# 1 0.018321 -0.005682 -0.002416 0.000000 0.000000 0.000000
# 2 -0.005682 0.017892 -0.008263 0.000000 0.000000 0.000000
# 3 -0.002416 -0.008263 0.018352 0.000000 0.000000 0.000000
# 4 0.000000 0.000000 0.000000 0.025723 0.000000 0.000000
# 5 0.000000 0.000000 0.000000 0.000000 0.045610 0.000000
# 6 0.000000 0.000000 0.000000 0.000000 0.000000 0.054041
#
#
# Mechanical properties :
#
#
# Convention : Reuss Voigt Hill
#
# Bulk Modulus (GPa) = 45.78088 47.58542 46.68315
# Shear Modulus (GPa) = 22.73333 24.65116 23.69224
#
# Velocity S-wave (km/s) = 3.34239 3.48052 3.41215
# Velocity P-wave (km/s) = 6.11497 6.28779 6.20198
#
# Compressibility (1/GPa) = 0.02184318
#
# Stress axis : x y z
#
# Youngs Moduli (GPa) = 54.58344 55.89131 54.48969
#
# Poissons Ratio (x) = 0.31757 0.13166
# Poissons Ratio (y) = 0.31014 0.45022
# Poissons Ratio (z) = 0.13188 0.46180
#
# Static dielectric constant tensor:
#      x y z
#    x 3.608350 0.000000 0.000000 
#    y 0.000000 3.566070 0.000000 
#    z 0.000000 0.000000 3.910800 
# 
# 
# High freq. dielectric constant tensor:
#      x y z
#    x 1.788250 0.000000 0.000000 
#    y 0.000000 1.794690 0.000000 
#    z 0.000000 0.000000 1.802240 
# 
# From -- ./inp_files/22626.got.cif
#   From: 2010.03.12/outbox.cif.g09.slc.cpg/sg57_12_cif.got.tgz:22626.got - 2010.04.16 15:48:40.
