data_PCOD8231856
_publ_section_title
;
Structure prediction by ZEFSAII (Michael W. Deem and Ramdas Pophale) SiO2 
 PCOD8231856
Probable space group: P B C M
;
_chemical_formula_sum "Si O2"
_cell_formula_units_Z 40
_cell_length_a 7.079255
_cell_length_b 15.614633
_cell_length_c 17.151730
_cell_angle_alpha 90.000000
_cell_angle_beta 90.000000
_cell_angle_gamma 90.000000
_cell_volume 1895.951698
_symmetry_space_group_name_H-M "P B C M"
_symmetry_group_IT_number 57
_symmetry_cell_setting 'orthorhombic'
loop_
_space_group_symop_operation_xyz
x,y,z
-x,-y,1/2+z
x,1/2-y,-z
-x,1/2+y,1/2-z
-x,-y,-z
x,y,1/2-z
-x,1/2+y,z
x,1/2-y,1/2+z
loop_
_atom_site_type_symbol
_atom_site_label
_atom_site_fract_x
_atom_site_fract_y
_atom_site_fract_z
Si Si1 0.493939 0.672036 0.341238
Si Si2 0.976306 0.916600 0.051679
Si Si3 0.803823 0.467184 0.660013
Si Si4 0.089796 0.166866 0.101501
Si Si5 0.185969 0.808198 0.159102
O O1 0.531793 0.666496 0.250000
O O2 0.370558 0.590677 0.369057
O O3 0.687592 0.671078 0.386515
O O4 0.378196 0.758497 0.361493
O O5 0.162005 0.891836 0.103865
O O6 0.808894 0.942753 0.112546
O O7 0.932204 0.838605 0.992820
O O8 0.000000 0.000000 0.000000
O O9 0.783968 0.490310 0.750000
O O10 0.998824 0.415258 0.644853
O O11 0.997074 0.251079 0.138240
O O12 0.180266 0.834057 0.250000
#
# Coordination Sequence:
#
# PCOD8231856 Si02
#       5
#     8   8   8   8   8
#     4   9  18  34  59  85 107 141 188 232 274 322
#     4  10  21  36  54  80 115 148 178 220 279 334
#     4   9  18  34  56  80 111 150 187 226 273 331
#     4  10  19  35  57  82 112 143 184 234 280 324
#     4  10  20  37  60  82 107 142 186 231 273 327
#
# _framework density 21.097583
#
# number of rings (size 3 to 8) (size 9 to 14) (size 15 to 20)
#    0.000    2.400    0.000    4.200    0.000    0.800 
#    0.000   16.000    0.000   12.000    0.000    0.000 
#    0.000    0.000    0.000    0.000    0.000    0.000 
#
# Total GULP energy -495680.699308 kJ/mol
# GULP energy per Si atom -12392.017483 kJ/mol
# Density = 2.104956 g / cm^3
# Si number density = 21.097583 Si / 1000 Ang^3
#
#
#
# Elastic Constant Matrix: (Units=GPa)
#
#
# Indices 1 2 3 4 5 6 
#
# 1 121.0456 9.6018 38.5931 0.0000 0.0000 0.0000
# 2 9.6018 45.0379 21.1073 0.0000 0.0000 0.0000
# 3 38.5931 21.1073 90.4174 0.0000 0.0000 0.0000
# 4 0.0000 0.0000 0.0000 45.3100 0.0000 0.0000
# 5 0.0000 0.0000 0.0000 0.0000 24.2692 0.0000
# 6 0.0000 0.0000 0.0000 0.0000 0.0000 11.0805
#
#
#
# Elastic Compliance Matrix: (Units=1/GPa)
#
#
# Indices 1 2 3 4 5 6 
#
# 1 0.009564 -0.000141 -0.004049 0.000000 0.000000 0.000000
# 2 -0.000141 0.024933 -0.005760 0.000000 0.000000 0.000000
# 3 -0.004049 -0.005760 0.014133 0.000000 0.000000 0.000000
# 4 0.000000 0.000000 0.000000 0.022070 0.000000 0.000000
# 5 0.000000 0.000000 0.000000 0.000000 0.041204 0.000000
# 6 0.000000 0.000000 0.000000 0.000000 0.000000 0.090248
#
#
# Mechanical properties :
#
#
# Convention : Reuss Voigt Hill
#
# Bulk Modulus (GPa) = 34.80869 43.90061 39.35465
# Shear Modulus (GPa) = 21.58619 28.61188 25.09903
#
# Velocity S-wave (km/s) = 3.20216 3.68661 3.45289
# Velocity P-wave (km/s) = 5.49604 6.24300 5.88139
#
# Compressibility (1/GPa) = 0.02872846
#
# Stress axis : x y z
#
# Youngs Moduli (GPa) = 104.56405 40.10721 70.75759
#
# Poissons Ratio (x) = 0.00567 0.28650
# Poissons Ratio (y) = 0.01477 0.40758
# Poissons Ratio (z) = 0.42338 0.23102
#
# Static dielectric constant tensor:
#      x y z
#    x 3.568990 0.000000 0.000000 
#    y 0.000000 4.149080 0.000000 
#    z 0.000000 0.000000 4.340350 
# 
# 
# High freq. dielectric constant tensor:
#      x y z
#    x 1.796520 0.000000 0.000000 
#    y 0.000000 1.821670 0.000000 
#    z 0.000000 0.000000 1.844170 
# 
# From -- ./inp_files/19960.got.cif
#   From: 2010.03.12/outbox.cif.g09.slc.cpg/sg57_10_cif.got.tgz:19960.got - 2010.04.16 15:48:40.
