data_PCOD8231648
_publ_section_title
;
Structure prediction by ZEFSAII (Michael W. Deem and Ramdas Pophale) SiO2 
 PCOD8231648
Probable space group: P B C M
;
_chemical_formula_sum "Si O2"
_cell_formula_units_Z 40
_cell_length_a 8.996412
_cell_length_b 8.766816
_cell_length_c 23.495505
_cell_angle_alpha 90.000000
_cell_angle_beta 90.000000
_cell_angle_gamma 90.000000
_cell_volume 1853.087863
_symmetry_space_group_name_H-M "P B C M"
_symmetry_group_IT_number 57
_symmetry_cell_setting 'orthorhombic'
loop_
_space_group_symop_operation_xyz
x,y,z
-x,-y,1/2+z
x,1/2-y,-z
-x,1/2+y,1/2-z
-x,-y,-z
x,y,1/2-z
-x,1/2+y,z
x,1/2-y,1/2+z
loop_
_atom_site_type_symbol
_atom_site_label
_atom_site_fract_x
_atom_site_fract_y
_atom_site_fract_z
Si Si1 0.695823 0.060821 0.417451
Si Si2 0.818048 0.590258 0.025520
Si Si3 0.169211 0.289712 0.685211
Si Si4 0.986407 0.515850 0.627684
Si Si5 0.417911 0.239005 0.103940
O O1 0.832183 0.079113 0.373539
O O2 0.592363 0.205973 0.404909
O O3 0.767023 0.036598 0.479846
O O4 0.590287 0.918071 0.405109
O O5 0.670949 0.640549 0.058297
O O6 0.934706 0.499647 0.065763
O O7 0.886364 0.750000 0.000000
O O8 0.161434 0.233417 0.750000
O O9 0.342033 0.295668 0.665708
O O10 0.094339 0.456243 0.677811
O O11 0.068271 0.187608 0.642003
#
# Coordination Sequence:
#
# PCOD8231648 Si02
#       5
#     8   8   8   8   8
#     4  10  19  34  54  82 117 146 181 229 278 343
#     4   9  18  35  56  84 118 151 183 228 286 344
#     4  10  21  40  59  79 110 148 193 249 292 330
#     4  10  21  36  59  86 111 145 193 237 289 349
#     4   9  20  35  53  79 112 150 188 225 277 342
#
# _framework density 21.585592999999999
#
# number of rings (size 3 to 8) (size 9 to 14) (size 15 to 20)
#    0.000    2.400    0.000    3.000    0.000    3.200 
#    0.000   10.000    0.000    0.000    0.000    0.000 
#    0.000    0.000    0.000    0.000    0.000    0.000 
#
# Total GULP energy -495524.001167 kJ/mol
# GULP energy per Si atom -12388.100029 kJ/mol
# Density = 2.153646 g / cm^3
# Si number density = 21.585593 Si / 1000 Ang^3
#
#
#
# Elastic Constant Matrix: (Units=GPa)
#
#
# Indices 1 2 3 4 5 6 
#
# 1 91.2896 21.4692 33.3747 0.0000 0.0000 0.0000
# 2 21.4692 22.7661 27.5489 0.0000 0.0000 0.0000
# 3 33.3747 27.5489 112.3642 0.0000 0.0000 0.0000
# 4 0.0000 0.0000 0.0000 23.7448 0.0000 0.0000
# 5 0.0000 0.0000 0.0000 0.0000 13.5889 0.0000
# 6 0.0000 0.0000 0.0000 0.0000 0.0000 41.0779
#
#
#
# Elastic Compliance Matrix: (Units=1/GPa)
#
#
# Indices 1 2 3 4 5 6 
#
# 1 0.014214 -0.011795 -0.001330 0.000000 0.000000 0.000000
# 2 -0.011795 0.072241 -0.014208 0.000000 0.000000 0.000000
# 3 -0.001330 -0.014208 0.012778 0.000000 0.000000 0.000000
# 4 0.000000 0.000000 0.000000 0.042114 0.000000 0.000000
# 5 0.000000 0.000000 0.000000 0.000000 0.073590 0.000000
# 6 0.000000 0.000000 0.000000 0.000000 0.000000 0.024344
#
#
# Mechanical properties :
#
#
# Convention : Reuss Voigt Hill
#
# Bulk Modulus (GPa) = 22.43820 43.46727 32.95274
# Shear Modulus (GPa) = 16.19146 25.28412 20.73779
#
# Velocity S-wave (km/s) = 2.74178 3.42620 3.10292
# Velocity P-wave (km/s) = 4.52114 5.98604 5.30440
#
# Compressibility (1/GPa) = 0.04456686
#
# Stress axis : x y z
#
# Youngs Moduli (GPa) = 70.35132 13.84249 78.25805
#
# Poissons Ratio (x) = 0.16327 0.10409
# Poissons Ratio (y) = 0.82980 1.11192
# Poissons Ratio (z) = 0.09358 0.19668
#
# Static dielectric constant tensor:
#      x y z
#    x 3.906190 0.000000 0.000000 
#    y 0.000000 3.778320 0.000000 
#    z 0.000000 0.000000 3.706840 
# 
# 
# High freq. dielectric constant tensor:
#      x y z
#    x 1.852770 0.000000 0.000000 
#    y 0.000000 1.834060 0.000000 
#    z 0.000000 0.000000 1.822900 
# 
# From -- ./inp_files/26491.got.cif
#   From: 2010.03.12/outbox.cif.g09.slc.cpg/sg57_14_cif.got.tgz:26491.got - 2010.04.16 15:48:40.
