data_PCOD8231459
_publ_section_title
;
Structure prediction by ZEFSAII (Michael W. Deem and Ramdas Pophale) SiO2 
 PCOD8231459
Probable space group: P B C M
;
_chemical_formula_sum "Si O2"
_cell_formula_units_Z 64
_cell_length_a 22.891287
_cell_length_b 17.090785
_cell_length_c 8.964291
_cell_angle_alpha 90.000000
_cell_angle_beta 90.000000
_cell_angle_gamma 90.000000
_cell_volume 3507.100146
_symmetry_space_group_name_H-M "P B C M"
_symmetry_group_IT_number 57
_symmetry_cell_setting 'orthorhombic'
loop_
_space_group_symop_operation_xyz
x,y,z
-x,-y,1/2+z
x,1/2-y,-z
-x,1/2+y,1/2-z
-x,-y,-z
x,y,1/2-z
-x,1/2+y,z
x,1/2-y,1/2+z
loop_
_atom_site_type_symbol
_atom_site_label
_atom_site_fract_x
_atom_site_fract_y
_atom_site_fract_z
Si Si1 0.243693 0.509927 0.923426
Si Si2 0.460850 0.935380 0.424066
Si Si3 0.036087 0.333244 0.424896
Si Si4 0.185316 0.827445 0.425531
Si Si5 0.074750 0.606702 0.421003
Si Si6 0.137203 0.054489 0.582056
Si Si7 0.563428 0.831013 0.077703
Si Si8 0.364383 0.017515 0.926273
O O1 0.258004 0.499643 0.750000
O O2 0.227120 0.599288 0.963132
O O3 0.190280 0.452953 0.966277
O O4 0.298211 0.483094 0.020681
O O5 0.454553 0.953305 0.250000
O O6 0.494832 0.853101 0.450092
O O7 0.500000 0.000000 0.500000
O O8 0.397185 0.941899 0.500516
O O9 0.033266 0.250000 0.500000
O O10 0.023455 0.327072 0.250000
O O11 0.100272 0.368356 0.456331
O O12 0.987247 0.387697 0.498590
O O13 0.213681 0.750000 0.500000
O O14 0.178716 0.815935 0.250000
O O15 0.121578 0.838705 0.496219
O O16 0.070149 0.634709 0.250000
O O17 0.092812 0.517039 0.433234
O O18 0.162810 0.057860 0.750000
O O19 0.575841 0.817876 0.250000
O O20 0.605340 0.901323 0.020124
O O21 0.579516 0.750000 0.000000
O O22 0.368186 0.008366 0.750000
#
# Coordination Sequence:
#
# PCOD8231459 Si02
#       8
#     8   8   8   8   8   8   8   8
#     4  10  21  36  56  79 102 134 176 218 257 303
#     4   9  17  31  51  77 106 135 169 206 249 299
#     4  11  22  35  51  74 103 133 167 210 260 312
#     4  10  20  34  52  76 104 132 166 209 258 311
#     4  10  19  33  54  77 100 129 165 207 259 315
#     4   9  20  37  55  74  99 133 171 212 258 310
#     4   9  19  33  52  80 110 139 172 213 256 299
#     4  10  20  35  55  79 106 139 179 217 255 303
#
# _framework density 18.248695000000001
#
# number of rings (size 3 to 8) (size 9 to 14) (size 15 to 20)
#    0.000    2.250    0.000    3.750    0.000    6.000 
#    0.000    1.250    0.000    0.000    0.000    0.000 
#    0.000    0.000    0.000    0.000    0.000    0.000 
#
# Total GULP energy -793514.833084 kJ/mol
# GULP energy per Si atom -12398.669267 kJ/mol
# Density = 1.820716 g / cm^3
# Si number density = 18.248695 Si / 1000 Ang^3
#
#
#
# Elastic Constant Matrix: (Units=GPa)
#
#
# Indices 1 2 3 4 5 6 
#
# 1 100.6938 33.8476 49.4147 0.0000 0.0000 0.0000
# 2 33.8476 44.3084 33.0814 0.0000 0.0000 0.0000
# 3 49.4147 33.0814 100.1983 0.0000 0.0000 0.0000
# 4 0.0000 0.0000 0.0000 28.0789 0.0000 0.0000
# 5 0.0000 0.0000 0.0000 0.0000 35.3147 0.0000
# 6 0.0000 0.0000 0.0000 0.0000 0.0000 17.2504
#
#
#
# Elastic Compliance Matrix: (Units=1/GPa)
#
#
# Indices 1 2 3 4 5 6 
#
# 1 0.014899 -0.007824 -0.004765 0.000000 0.000000 0.000000
# 2 -0.007824 0.034061 -0.007387 0.000000 0.000000 0.000000
# 3 -0.004765 -0.007387 0.014769 0.000000 0.000000 0.000000
# 4 0.000000 0.000000 0.000000 0.035614 0.000000 0.000000
# 5 0.000000 0.000000 0.000000 0.000000 0.028317 0.000000
# 6 0.000000 0.000000 0.000000 0.000000 0.000000 0.057970
#
#
# Mechanical properties :
#
#
# Convention : Reuss Voigt Hill
#
# Bulk Modulus (GPa) = 42.05622 53.09866 47.57744
# Shear Modulus (GPa) = 21.41256 24.71927 23.06591
#
# Velocity S-wave (km/s) = 3.42917 3.68445 3.55910
# Velocity P-wave (km/s) = 6.22697 6.87464 6.55880
#
# Compressibility (1/GPa) = 0.02377770
#
# Stress axis : x y z
#
# Youngs Moduli (GPa) = 67.11660 29.35873 67.71006
#
# Poissons Ratio (x) = 0.22972 0.32261
# Poissons Ratio (y) = 0.52515 0.50017
# Poissons Ratio (z) = 0.31979 0.21687
#
# Static dielectric constant tensor:
#      x y z
#    x 3.369520 0.000000 0.000000 
#    y 0.000000 3.342280 0.000000 
#    z 0.000000 0.000000 3.520260 
# 
# 
# High freq. dielectric constant tensor:
#      x y z
#    x 1.697520 0.000000 0.000000 
#    y 0.000000 1.693970 0.000000 
#    z 0.000000 0.000000 1.720710 
# 
# From -- ./inp_files/8440.got.cif
#   From: 2010.03.12/outbox.cif.g09.slc.cpg/sg57_5_cif.got.tgz:8440.got - 2010.04.16 15:48:40.
