data_PCOD8231116
_publ_section_title
;
Structure prediction by ZEFSAII (Michael W. Deem and Ramdas Pophale) SiO2 
 PCOD8231116
Probable space group: P B C M
;
_chemical_formula_sum "Si O2"
_cell_formula_units_Z 64
_cell_length_a 17.023580
_cell_length_b 20.260865
_cell_length_c 9.346158
_cell_angle_alpha 90.000000
_cell_angle_beta 90.000000
_cell_angle_gamma 90.000000
_cell_volume 3223.606312
_symmetry_space_group_name_H-M "P B C M"
_symmetry_group_IT_number 57
_symmetry_cell_setting 'orthorhombic'
loop_
_space_group_symop_operation_xyz
x,y,z
-x,-y,1/2+z
x,1/2-y,-z
-x,1/2+y,1/2-z
-x,-y,-z
x,y,1/2-z
-x,1/2+y,z
x,1/2-y,1/2+z
loop_
_atom_site_type_symbol
_atom_site_label
_atom_site_fract_x
_atom_site_fract_y
_atom_site_fract_z
Si Si1 0.843591 0.185834 0.914538
Si Si2 0.224727 0.955452 0.080738
Si Si3 0.235067 0.195032 0.097898
Si Si4 0.581876 0.807722 0.592553
Si Si5 0.485282 0.413795 0.090939
Si Si6 0.026941 0.183183 0.581628
Si Si7 0.869517 0.918891 0.584196
Si Si8 0.617954 0.042490 0.411253
O O1 0.826689 0.201019 0.750000
O O2 0.798824 0.119053 0.962159
O O3 0.934821 0.173728 0.943682
O O4 0.812218 0.250000 0.000000
O O5 0.243952 0.961984 0.250000
O O6 0.152517 0.005561 0.042026
O O7 0.300425 0.976240 0.987493
O O8 0.195793 0.209682 0.250000
O O9 0.326871 0.205958 0.107743
O O10 0.211689 0.121017 0.053854
O O11 0.194739 0.250000 0.000000
O O12 0.540738 0.750000 0.500000
O O13 0.542784 0.811913 0.750000
O O14 0.575295 0.874551 0.506269
O O15 0.494537 0.383533 0.250000
O O16 0.445104 0.484334 0.102393
O O17 0.571051 0.407530 0.015433
O O18 0.054824 0.250000 0.500000
O O19 0.047409 0.187936 0.750000
O O20 0.065167 0.116504 0.514446
O O21 0.896849 0.916115 0.750000
O O22 0.634220 0.069843 0.250000
#
# Coordination Sequence:
#
# PCOD8231116 Si02
#       8
#     8   8   8   8   8   8   8   8
#     4   9  20  39  61  82 106 141 182 225 274 328
#     4  10  21  38  58  81 111 143 177 221 276 331
#     4   9  18  30  45  68 101 142 181 215 257 312
#     4  10  19  32  50  73 103 139 179 221 266 316
#     4  10  20  35  55  78 106 140 177 218 266 319
#     4  10  20  35  55  80 110 145 186 225 264 315
#     4  10  20  33  51  78 111 145 179 220 270 321
#     4  10  21  36  56  82 108 137 176 220 266 320
#
# _framework density 19.853542000000001
#
# number of rings (size 3 to 8) (size 9 to 14) (size 15 to 20)
#    0.000    2.250    0.000    2.625    0.000    6.500 
#    0.000    0.625    0.000    1.500    0.000    0.000 
#    0.000    0.000    0.000    0.000    0.000    0.000 
#
# Total GULP energy -792923.470374 kJ/mol
# GULP energy per Si atom -12389.429225 kJ/mol
# Density = 1.980835 g / cm^3
# Si number density = 19.853542 Si / 1000 Ang^3
#
#
#
# Elastic Constant Matrix: (Units=GPa)
#
#
# Indices 1 2 3 4 5 6 
#
# 1 54.4333 16.0849 36.5313 0.0000 0.0000 0.0000
# 2 16.0849 91.4698 44.3979 0.0000 0.0000 0.0000
# 3 36.5313 44.3979 132.5689 0.0000 0.0000 0.0000
# 4 0.0000 0.0000 0.0000 30.4825 0.0000 0.0000
# 5 0.0000 0.0000 0.0000 0.0000 236.3695 0.0000
# 6 0.0000 0.0000 0.0000 0.0000 0.0000 14.1456
#
#
#
# Elastic Compliance Matrix: (Units=1/GPa)
#
#
# Indices 1 2 3 4 5 6 
#
# 1 0.022638 -0.001138 -0.005857 0.000000 0.000000 0.000000
# 2 -0.001138 0.013112 -0.004078 0.000000 0.000000 0.000000
# 3 -0.005857 -0.004078 0.010523 0.000000 0.000000 0.000000
# 4 0.000000 0.000000 0.000000 0.032806 0.000000 0.000000
# 5 0.000000 0.000000 0.000000 0.000000 0.004231 0.000000
# 6 0.000000 0.000000 0.000000 0.000000 0.000000 0.070693
#
#
# Mechanical properties :
#
#
# Convention : Reuss Voigt Hill
#
# Bulk Modulus (GPa) = 41.44653 52.50002 46.97328
# Shear Modulus (GPa) = 27.14578 68.29672 47.72125
#
# Velocity S-wave (km/s) = 3.70172 5.87154 4.90804
# Velocity P-wave (km/s) = 6.26033 8.51279 7.47193
#
# Compressibility (1/GPa) = 0.02412747
#
# Stress axis : x y z
#
# Youngs Moduli (GPa) = 44.17306 76.26656 95.03077
#
# Poissons Ratio (x) = 0.08679 0.55661
# Poissons Ratio (y) = 0.05027 0.38750
# Poissons Ratio (z) = 0.25873 0.31099
#
# Static dielectric constant tensor:
#      x y z
#    x 3.322060 0.000000 0.000000 
#    y 0.000000 3.585460 0.000000 
#    z 0.000000 0.000000 4.006170 
# 
# 
# High freq. dielectric constant tensor:
#      x y z
#    x 1.754400 0.000000 0.000000 
#    y 0.000000 1.762500 0.000000 
#    z 0.000000 0.000000 1.785710 
# 
# From -- ./inp_files/7133.got.cif
#   From: 2010.03.12/outbox.cif.g09.slc.cpg/sg57_4_cif.got.tgz:7133.got - 2010.04.16 15:48:40.
