data_PCOD8231016
_publ_section_title
;
Structure prediction by ZEFSAII (Michael W. Deem and Ramdas Pophale) SiO2 
 PCOD8231016
Probable space group: P B C M
;
_chemical_formula_sum "Si O2"
_cell_formula_units_Z 48
_cell_length_a 14.777448
_cell_length_b 20.468253
_cell_length_c 9.225516
_cell_angle_alpha 90.000000
_cell_angle_beta 90.000000
_cell_angle_gamma 90.000000
_cell_volume 2790.428395
_symmetry_space_group_name_H-M "P B C M"
_symmetry_group_IT_number 57
_symmetry_cell_setting 'orthorhombic'
loop_
_space_group_symop_operation_xyz
x,y,z
-x,-y,1/2+z
x,1/2-y,-z
-x,1/2+y,1/2-z
-x,-y,-z
x,y,1/2-z
-x,1/2+y,z
x,1/2-y,1/2+z
loop_
_atom_site_type_symbol
_atom_site_label
_atom_site_fract_x
_atom_site_fract_y
_atom_site_fract_z
Si Si1 0.693893 0.145806 0.087338
Si Si2 0.108963 0.812001 0.914291
Si Si3 0.741193 0.476281 0.082444
Si Si4 0.921933 0.040329 0.077002
Si Si5 0.496701 0.188704 0.414678
Si Si6 0.563807 0.950240 0.917751
O O1 0.696860 0.114788 0.250000
O O2 0.782752 0.189767 0.065341
O O3 0.605347 0.189623 0.068475
O O4 0.690392 0.089231 0.967787
O O5 0.079568 0.801102 0.750000
O O6 0.071160 0.882750 0.966910
O O7 0.067260 0.750000 0.000000
O O8 0.770901 0.469371 0.250000
O O9 0.670056 0.534998 0.061402
O O10 0.828068 0.489302 0.982196
O O11 0.926015 0.031637 0.250000
O O12 0.000000 0.000000 0.000000
O O13 0.455827 0.250000 0.500000
O O14 0.466240 0.197146 0.250000
O O15 0.454621 0.122192 0.479159
O O16 0.535167 0.953918 0.750000
O O17 0.500000 0.000000 0.000000
#
# Coordination Sequence:
#
# PCOD8231016 Si02
#       6
#     8   8   8   8   8   8
#     4   9  17  30  46  68 102 137 168 207 253 303
#     4   9  18  30  47  73 103 134 164 200 250 307
#     4  10  19  31  51  78 102 132 173 214 259 310
#     4  10  21  37  56  79 106 135 170 215 263 312
#     4  10  20  32  46  68 101 138 176 220 263 305
#     4  10  20  33  51  74 102 136 177 217 254 302
#
# _framework density 17.201658999999999
#
# number of rings (size 3 to 8) (size 9 to 14) (size 15 to 20)
#    0.000    2.333    1.667    2.500    0.000    5.333 
#    0.000    0.000    0.000    1.000    0.000    2.333 
#    0.000    0.000    0.000    0.000    0.000    0.000 
#
# Total GULP energy -595030.322292 kJ/mol
# GULP energy per Si atom -12396.465048 kJ/mol
# Density = 1.716251 g / cm^3
# Si number density = 17.201659 Si / 1000 Ang^3
#
#
#
# Elastic Constant Matrix: (Units=GPa)
#
#
# Indices 1 2 3 4 5 6 
#
# 1 61.1844 52.5422 39.6466 0.0000 0.0000 0.0000
# 2 52.5422 137.0745 62.3635 0.0000 0.0000 0.0000
# 3 39.6466 62.3635 81.4925 0.0000 0.0000 0.0000
# 4 0.0000 0.0000 0.0000 32.6489 0.0000 0.0000
# 5 0.0000 0.0000 0.0000 0.0000 24.0462 0.0000
# 6 0.0000 0.0000 0.0000 0.0000 0.0000 18.3797
#
#
#
# Elastic Compliance Matrix: (Units=1/GPa)
#
#
# Indices 1 2 3 4 5 6 
#
# 1 0.027488 -0.006830 -0.008146 0.000000 0.000000 0.000000
# 2 -0.006830 0.012889 -0.006541 0.000000 0.000000 0.000000
# 3 -0.008146 -0.006541 0.021240 0.000000 0.000000 0.000000
# 4 0.000000 0.000000 0.000000 0.030629 0.000000 0.000000
# 5 0.000000 0.000000 0.000000 0.000000 0.041587 0.000000
# 6 0.000000 0.000000 0.000000 0.000000 0.000000 0.054408
#
#
# Mechanical properties :
#
#
# Convention : Reuss Voigt Hill
#
# Bulk Modulus (GPa) = 53.81361 65.42845 59.62103
# Shear Modulus (GPa) = 21.05539 23.36157 22.20848
#
# Velocity S-wave (km/s) = 3.50241 3.68924 3.59704
# Velocity P-wave (km/s) = 6.90708 7.50107 7.21019
#
# Compressibility (1/GPa) = 0.01858266
#
# Stress axis : x y z
#
# Youngs Moduli (GPa) = 36.37922 77.58427 47.08191
#
# Poissons Ratio (x) = 0.52993 0.38354
# Poissons Ratio (y) = 0.24848 0.30795
# Poissons Ratio (z) = 0.29635 0.50745
#
# Static dielectric constant tensor:
#      x y z
#    x 3.049960 0.000000 0.000000 
#    y 0.000000 3.160130 0.000000 
#    z 0.000000 0.000000 3.192010 
# 
# 
# High freq. dielectric constant tensor:
#      x y z
#    x 1.635450 0.000000 0.000000 
#    y 0.000000 1.656150 0.000000 
#    z 0.000000 0.000000 1.669690 
# 
# From -- ./inp_files/4849.got.cif
#   From: 2010.03.12/outbox.cif.g09.slc.cpg/sg57_3_cif.got.tgz:4849.got - 2010.04.16 15:48:40.
