data_PCOD8231424
_publ_section_title
;
Structure prediction by ZEFSAII (Michael W. Deem and Ramdas Pophale) SiO2 
 PCOD8231424
Probable space group: P B C M
;
_chemical_formula_sum "Si O2"
_cell_formula_units_Z 64
_cell_length_a 14.812391
_cell_length_b 24.039148
_cell_length_c 9.086623
_cell_angle_alpha 90.000000
_cell_angle_beta 90.000000
_cell_angle_gamma 90.000000
_cell_volume 3235.539816
_symmetry_space_group_name_H-M "P B C M"
_symmetry_group_IT_number 57
_symmetry_cell_setting 'orthorhombic'
loop_
_space_group_symop_operation_xyz
x,y,z
-x,-y,1/2+z
x,1/2-y,-z
-x,1/2+y,1/2-z
-x,-y,-z
x,y,1/2-z
-x,1/2+y,z
x,1/2-y,1/2+z
loop_
_atom_site_type_symbol
_atom_site_label
_atom_site_fract_x
_atom_site_fract_y
_atom_site_fract_z
Si Si1 0.878294 0.874605 0.921466
Si Si2 0.845774 0.515199 0.580776
Si Si3 0.554815 0.864971 0.421726
Si Si4 0.969342 0.307465 0.076380
Si Si5 0.371132 0.909617 0.420788
Si Si6 0.168815 0.904082 0.078341
Si Si7 0.633411 0.518987 0.582870
Si Si8 0.294624 0.195617 0.419551
O O1 0.904517 0.877274 0.750000
O O2 0.774950 0.855054 0.942991
O O3 0.894633 0.934876 0.993915
O O4 0.939407 0.829759 0.004156
O O5 0.877708 0.516472 0.750000
O O6 0.873334 0.456114 0.509944
O O7 0.740077 0.524157 0.563928
O O8 0.576748 0.855962 0.250000
O O9 0.446680 0.862217 0.454134
O O10 0.607131 0.818525 0.513852
O O11 0.589077 0.924889 0.476991
O O12 0.984428 0.298898 0.250000
O O13 0.888192 0.349659 0.042327
O O14 0.941861 0.250000 0.000000
O O15 0.368304 0.922497 0.250000
O O16 0.271626 0.891263 0.475538
O O17 0.403970 0.966954 0.492698
O O18 0.165896 0.919431 0.250000
O O19 0.605305 0.508718 0.750000
O O20 0.255613 0.250000 0.500000
O O21 0.307534 0.210138 0.250000
#
# Coordination Sequence:
#
# PCOD8231424 Si02
#       8
#     8   8   8   8   8   8   8   8
#     4  11  23  39  61  88 116 148 188 233 287 350
#     4  10  19  33  57  88 122 156 189 231 284 340
#     4  10  19  33  53  79 113 150 188 231 277 328
#     4  11  24  42  64  86 111 146 190 241 290 341
#     4   9  18  32  54  81 112 150 188 230 277 327
#     4   9  20  39  59  84 119 154 192 237 286 341
#     4   9  17  29  48  79 116 151 185 227 274 326
#     4  11  24  39  57  80 110 150 190 235 286 341
#
# _framework density 19.780315000000002
#
# number of rings (size 3 to 8) (size 9 to 14) (size 15 to 20)
#    0.000    2.000    1.250    2.250    0.000    5.500 
#    0.000    0.625    0.000    1.500    0.000    0.000 
#    0.000    0.000    0.000    0.000    0.000    0.000 
#
# Total GULP energy -793684.275082 kJ/mol
# GULP energy per Si atom -12401.316798 kJ/mol
# Density = 1.973529 g / cm^3
# Si number density = 19.780315 Si / 1000 Ang^3
#
#
#
# Elastic Constant Matrix: (Units=GPa)
#
#
# Indices 1 2 3 4 5 6 
#
# 1 61.8782 41.5819 38.6368 0.0000 0.0000 0.0000
# 2 41.5819 117.2961 66.7850 0.0000 0.0000 0.0000
# 3 38.6368 66.7850 106.0669 0.0000 0.0000 0.0000
# 4 0.0000 0.0000 0.0000 38.7843 0.0000 0.0000
# 5 0.0000 0.0000 0.0000 0.0000 23.2586 0.0000
# 6 0.0000 0.0000 0.0000 0.0000 0.0000 29.3850
#
#
#
# Elastic Compliance Matrix: (Units=1/GPa)
#
#
# Indices 1 2 3 4 5 6 
#
# 1 0.022806 -0.005230 -0.005015 0.000000 0.000000 0.000000
# 2 -0.005230 0.014489 -0.007218 0.000000 0.000000 0.000000
# 3 -0.005015 -0.007218 0.015800 0.000000 0.000000 0.000000
# 4 0.000000 0.000000 0.000000 0.025784 0.000000 0.000000
# 5 0.000000 0.000000 0.000000 0.000000 0.042995 0.000000
# 6 0.000000 0.000000 0.000000 0.000000 0.000000 0.034031
#
#
# Mechanical properties :
#
#
# Convention : Reuss Voigt Hill
#
# Bulk Modulus (GPa) = 55.03569 64.36095 59.69832
# Shear Modulus (GPa) = 25.39539 27.50141 26.44840
#
# Velocity S-wave (km/s) = 3.58700 3.73277 3.66061
# Velocity P-wave (km/s) = 6.71113 7.15449 6.93635
#
# Compressibility (1/GPa) = 0.01817003
#
# Stress axis : x y z
#
# Youngs Moduli (GPa) = 43.84754 69.01725 63.29281
#
# Poissons Ratio (x) = 0.36094 0.31740
# Poissons Ratio (y) = 0.22931 0.45685
# Poissons Ratio (z) = 0.21988 0.49817
#
# Static dielectric constant tensor:
#      x y z
#    x 3.707140 0.000000 0.000000 
#    y 0.000000 3.460460 0.000000 
#    z 0.000000 0.000000 3.621440 
# 
# 
# High freq. dielectric constant tensor:
#      x y z
#    x 1.772320 0.000000 0.000000 
#    y 0.000000 1.757680 0.000000 
#    z 0.000000 0.000000 1.772470 
# 
# From -- ./inp_files/5753.got.cif
#   From: 2010.03.12/outbox.cif.g09.slc.cpg/sg57_3_cif.got.tgz:5753.got - 2010.04.16 15:48:40.
