data_PCOD8231428
_publ_section_title
;
Structure prediction by ZEFSAII (Michael W. Deem and Ramdas Pophale) SiO2 
 PCOD8231428
Probable space group: P B C M
;
_chemical_formula_sum "Si O2"
_cell_formula_units_Z 48
_cell_length_a 19.928417
_cell_length_b 13.823981
_cell_length_c 8.755143
_cell_angle_alpha 90.000000
_cell_angle_beta 90.000000
_cell_angle_gamma 90.000000
_cell_volume 2411.954853
_symmetry_space_group_name_H-M "P B C M"
_symmetry_group_IT_number 57
_symmetry_cell_setting 'orthorhombic'
loop_
_space_group_symop_operation_xyz
x,y,z
-x,-y,1/2+z
x,1/2-y,-z
-x,1/2+y,1/2-z
-x,-y,-z
x,y,1/2-z
-x,1/2+y,z
x,1/2-y,1/2+z
loop_
_atom_site_type_symbol
_atom_site_label
_atom_site_fract_x
_atom_site_fract_y
_atom_site_fract_z
Si Si1 0.525151 0.850980 0.429530
Si Si2 0.881391 0.654946 0.925404
Si Si3 0.032831 0.849938 0.431868
Si Si4 0.846828 0.052525 0.427669
Si Si5 0.598719 0.454467 0.929510
Si Si6 0.720527 0.353590 0.069786
O O1 0.551136 0.750000 0.500000
O O2 0.515207 0.839037 0.250000
O O3 0.454069 0.878630 0.502330
O O4 0.578733 0.934991 0.468490
O O5 0.888975 0.679548 0.750000
O O6 0.833799 0.562223 0.952867
O O7 0.956459 0.635384 0.988936
O O8 0.848131 0.750000 0.000000
O O9 0.060998 0.750000 0.500000
O O10 0.041010 0.854039 0.250000
O O11 0.077995 0.931508 0.511465
O O12 0.840541 0.080529 0.250000
O O13 0.795387 0.115746 0.524897
O O14 0.602852 0.437159 0.750000
O O15 0.670533 0.434733 0.004543
O O16 0.713916 0.347232 0.250000
O O17 0.702063 0.250000 0.000000
#
# Coordination Sequence:
#
# PCOD8231428 Si02
#       6
#     8   8   8   8   8   8
#     4  10  20  35  59  89 120 152 187 229 273 319
#     4   9  20  36  56  79 106 139 178 225 275 327
#     4  10  19  33  53  80 109 140 177 221 274 328
#     4  11  22  37  55  79 109 142 181 226 273 324
#     4  10  21  38  59  85 117 152 189 229 273 322
#     4  12  25  41  60  82 110 146 184 225 273 327
#
# _framework density 19.900869
#
# number of rings (size 3 to 8) (size 9 to 14) (size 15 to 20)
#    0.000    1.667    0.000    5.000    0.000    4.000 
#    0.000    0.833    0.000    0.000    0.000    0.000 
#    0.000    0.000    0.000    0.000    0.000    0.000 
#
# Total GULP energy -595314.617616 kJ/mol
# GULP energy per Si atom -12402.387867 kJ/mol
# Density = 1.985557 g / cm^3
# Si number density = 19.900869 Si / 1000 Ang^3
#
#
#
# Elastic Constant Matrix: (Units=GPa)
#
#
# Indices 1 2 3 4 5 6 
#
# 1 52.1434 25.0934 26.7039 0.0000 0.0000 0.0000
# 2 25.0934 116.1685 52.9659 0.0000 0.0000 0.0000
# 3 26.7039 52.9659 103.0048 0.0000 0.0000 0.0000
# 4 0.0000 0.0000 0.0000 36.2625 0.0000 0.0000
# 5 0.0000 0.0000 0.0000 0.0000 30.8077 0.0000
# 6 0.0000 0.0000 0.0000 0.0000 0.0000 27.2535
#
#
#
# Elastic Compliance Matrix: (Units=1/GPa)
#
#
# Indices 1 2 3 4 5 6 
#
# 1 0.022847 -0.002919 -0.004422 0.000000 0.000000 0.000000
# 2 -0.002919 0.011617 -0.005217 0.000000 0.000000 0.000000
# 3 -0.004422 -0.005217 0.013537 0.000000 0.000000 0.000000
# 4 0.000000 0.000000 0.000000 0.027577 0.000000 0.000000
# 5 0.000000 0.000000 0.000000 0.000000 0.032459 0.000000
# 6 0.000000 0.000000 0.000000 0.000000 0.000000 0.036693
#
#
# Mechanical properties :
#
#
# Convention : Reuss Voigt Hill
#
# Bulk Modulus (GPa) = 43.69539 53.42702 48.56120
# Shear Modulus (GPa) = 28.17289 29.96830 29.07060
#
# Velocity S-wave (km/s) = 3.76661 3.88478 3.82615
# Velocity P-wave (km/s) = 6.39693 6.85761 6.63127
#
# Compressibility (1/GPa) = 0.02288571
#
# Stress axis : x y z
#
# Youngs Moduli (GPa) = 43.76884 86.07816 73.86958
#
# Poissons Ratio (x) = 0.25126 0.32667
# Poissons Ratio (y) = 0.12776 0.38538
# Poissons Ratio (z) = 0.19355 0.44907
#
# Static dielectric constant tensor:
#      x y z
#    x 3.383250 0.000000 0.000000 
#    y 0.000000 3.752720 0.000000 
#    z 0.000000 0.000000 3.638700 
# 
# 
# High freq. dielectric constant tensor:
#      x y z
#    x 1.751230 0.000000 0.000000 
#    y 0.000000 1.787420 0.000000 
#    z 0.000000 0.000000 1.787170 
# 
# From -- ./inp_files/7872.got.cif
#   From: 2010.03.12/outbox.cif.g09.slc.cpg/sg57_4_cif.got.tgz:7872.got - 2010.04.16 15:48:40.
