data_PCOD8231400
_publ_section_title
;
Structure prediction by ZEFSAII (Michael W. Deem and Ramdas Pophale) SiO2 
 PCOD8231400
Probable space group: P B C M
;
_chemical_formula_sum "Si O2"
_cell_formula_units_Z 64
_cell_length_a 24.232417
_cell_length_b 15.305282
_cell_length_c 8.952904
_cell_angle_alpha 90.000000
_cell_angle_beta 90.000000
_cell_angle_gamma 90.000000
_cell_volume 3320.488630
_symmetry_space_group_name_H-M "P B C M"
_symmetry_group_IT_number 57
_symmetry_cell_setting 'orthorhombic'
loop_
_space_group_symop_operation_xyz
x,y,z
-x,-y,1/2+z
x,1/2-y,-z
-x,1/2+y,1/2-z
-x,-y,-z
x,y,1/2-z
-x,1/2+y,z
x,1/2-y,1/2+z
loop_
_atom_site_type_symbol
_atom_site_label
_atom_site_fract_x
_atom_site_fract_y
_atom_site_fract_z
Si Si1 0.002758 0.656930 0.075825
Si Si2 0.616604 0.161006 0.074227
Si Si3 0.809830 0.496865 0.073208
Si Si4 0.119509 0.156638 0.424150
Si Si5 0.684414 0.007799 0.573574
Si Si6 0.109885 0.654907 0.927646
Si Si7 0.382442 0.337561 0.925043
Si Si8 0.498507 0.093030 0.425147
O O1 0.017448 0.664602 0.250000
O O2 0.942107 0.615999 0.050408
O O3 0.999905 0.750000 0.000000
O O4 0.053369 0.609260 0.990360
O O5 0.624850 0.167137 0.250000
O O6 0.552729 0.146951 0.029932
O O7 0.637586 0.250000 0.000000
O O8 0.653113 0.083251 0.012361
O O9 0.812419 0.503808 0.250000
O O10 0.838865 0.584323 0.008166
O O11 0.747223 0.493046 0.016463
O O12 0.840553 0.408580 0.021555
O O13 0.129377 0.250000 0.500000
O O14 0.129683 0.172656 0.250000
O O15 0.679682 0.024719 0.750000
O O16 0.657229 0.916335 0.527197
O O17 0.106136 0.664146 0.750000
O O18 0.120153 0.750000 0.000000
O O19 0.381441 0.323201 0.750000
O O20 0.444651 0.355570 0.982771
O O21 0.359453 0.250000 0.000000
O O22 0.494687 0.076522 0.250000
O O23 0.500000 0.000000 0.500000
#
# Coordination Sequence:
#
# PCOD8231400 Si02
#       8
#     8   8   8   8   8   8   8   8
#     4   9  16  28  49  76 106 137 170 213 265 321
#     4  11  23  38  59  86 115 147 184 227 276 329
#     4   9  20  37  56  77 104 143 182 221 271 322
#     4   9  18  34  54  78 108 140 176 216 265 323
#     4  10  21  40  60  78 108 147 189 232 275 323
#     4  10  19  33  53  76 104 137 175 218 268 322
#     4  10  21  36  57  84 112 145 182 221 270 324
#     4  10  20  35  57  86 116 147 180 221 273 325
#
# _framework density 19.274272
#
# number of rings (size 3 to 8) (size 9 to 14) (size 15 to 20)
#    0.000    2.250    1.250    2.250    0.000    3.500 
#    0.000    4.375    0.000    0.000    0.000    0.000 
#    0.000    0.000    0.000    0.000    0.000    0.000 
#
# Total GULP energy -793403.121212 kJ/mol
# GULP energy per Si atom -12396.923769 kJ/mol
# Density = 1.923040 g / cm^3
# Si number density = 19.274272 Si / 1000 Ang^3
#
#
#
# Elastic Constant Matrix: (Units=GPa)
#
#
# Indices 1 2 3 4 5 6 
#
# 1 142.7358 57.3169 52.9175 0.0000 0.0000 0.0000
# 2 57.3169 125.2746 56.0506 0.0000 0.0000 0.0000
# 3 52.9175 56.0506 59.2271 0.0000 0.0000 0.0000
# 4 0.0000 0.0000 0.0000 28.0274 0.0000 0.0000
# 5 0.0000 0.0000 0.0000 0.0000 22.5049 0.0000
# 6 0.0000 0.0000 0.0000 0.0000 0.0000 57.5029
#
#
#
# Elastic Compliance Matrix: (Units=1/GPa)
#
#
# Indices 1 2 3 4 5 6 
#
# 1 0.010556 -0.001058 -0.008431 0.000000 0.000000 0.000000
# 2 -0.001058 0.013951 -0.012257 0.000000 0.000000 0.000000
# 3 -0.008431 -0.012257 0.036017 0.000000 0.000000 0.000000
# 4 0.000000 0.000000 0.000000 0.035679 0.000000 0.000000
# 5 0.000000 0.000000 0.000000 0.000000 0.044435 0.000000
# 6 0.000000 0.000000 0.000000 0.000000 0.000000 0.017390
#
#
# Mechanical properties :
#
#
# Convention : Reuss Voigt Hill
#
# Bulk Modulus (GPa) = 58.71300 73.31196 66.01248
# Shear Modulus (GPa) = 24.13165 32.33722 28.23444
#
# Velocity S-wave (km/s) = 3.54222 4.10047 3.83152
# Velocity P-wave (km/s) = 6.87443 7.78056 7.34149
#
# Compressibility (1/GPa) = 0.01703200
#
# Stress axis : x y z
#
# Youngs Moduli (GPa) = 94.73065 71.68139 27.76498
#
# Poissons Ratio (x) = 0.07582 0.23408
# Poissons Ratio (y) = 0.10020 0.34033
# Poissons Ratio (z) = 0.79864 0.87862
#
# Static dielectric constant tensor:
#      x y z
#    x 4.130910 0.000000 0.000000 
#    y 0.000000 3.431750 0.000000 
#    z 0.000000 0.000000 3.360480 
# 
# 
# High freq. dielectric constant tensor:
#      x y z
#    x 1.756940 0.000000 0.000000 
#    y 0.000000 1.748680 0.000000 
#    z 0.000000 0.000000 1.736260 
# 
# From -- ./inp_files/9328.got.cif
#   From: 2010.03.12/outbox.cif.g09.slc.cpg/sg57_5_cif.got.tgz:9328.got - 2010.04.16 15:48:40.
