data_PCOD8231457
_publ_section_title
;
Structure prediction by ZEFSAII (Michael W. Deem and Ramdas Pophale) SiO2 
 PCOD8231457
Probable space group: P B C M
;
_chemical_formula_sum "Si O2"
_cell_formula_units_Z 40
_cell_length_a 10.155910
_cell_length_b 13.003761
_cell_length_c 16.332207
_cell_angle_alpha 90.000000
_cell_angle_beta 90.000000
_cell_angle_gamma 90.000000
_cell_volume 2156.913348
_symmetry_space_group_name_H-M "P B C M"
_symmetry_group_IT_number 57
_symmetry_cell_setting 'orthorhombic'
loop_
_space_group_symop_operation_xyz
x,y,z
-x,-y,1/2+z
x,1/2-y,-z
-x,1/2+y,1/2-z
-x,-y,-z
x,y,1/2-z
-x,1/2+y,z
x,1/2-y,1/2+z
loop_
_atom_site_type_symbol
_atom_site_label
_atom_site_fract_x
_atom_site_fract_y
_atom_site_fract_z
Si Si1 0.843019 0.594202 0.841263
Si Si2 0.619082 0.641800 0.959309
Si Si3 0.660354 0.420609 0.487554
Si Si4 0.904711 0.308221 0.418926
Si Si5 0.759646 0.370045 0.659027
O O1 0.849844 0.637789 0.750000
O O2 0.704590 0.634582 0.877134
O O3 0.850652 0.470975 0.844198
O O4 0.968195 0.631959 0.890316
O O5 0.654435 0.544466 0.017547
O O6 0.654352 0.750000 0.000000
O O7 0.462968 0.631915 0.940888
O O8 0.790808 0.389348 0.439832
O O9 0.657825 0.378288 0.582373
O O10 0.948830 0.250000 0.500000
O O11 0.853214 0.228820 0.350666
O O12 0.691083 0.363804 0.750000
#
# Coordination Sequence:
#
# PCOD8231457 Si02
#       5
#     8   8   8   8   8
#     4  10  21  34  50  76 106 134 169 213 259 303
#     4  10  19  35  56  77 104 134 168 212 259 302
#     4   9  20  35  54  79 102 132 177 211 243 305
#     4  10  19  33  54  76 101 136 175 210 247 301
#     4   9  18  33  53  75 103 137 169 207 256 303
#
# _framework density 18.545020000000001
#
# number of rings (size 3 to 8) (size 9 to 14) (size 15 to 20)
#    0.000    2.400    0.000    3.000    0.000    8.800 
#    0.000    5.000    0.000    4.800    0.000    0.000 
#    0.000    0.000    0.000    0.000    0.000    0.000 
#
# Total GULP energy -495784.002298 kJ/mol
# GULP energy per Si atom -12394.600057 kJ/mol
# Density = 1.850281 g / cm^3
# Si number density = 18.545020 Si / 1000 Ang^3
#
#
#
# Elastic Constant Matrix: (Units=GPa)
#
#
# Indices 1 2 3 4 5 6 
#
# 1 137.6308 32.0131 66.9683 0.0000 0.0000 0.0000
# 2 32.0131 91.5465 35.3418 0.0000 0.0000 0.0000
# 3 66.9683 35.3418 89.9377 0.0000 0.0000 0.0000
# 4 0.0000 0.0000 0.0000 17.5035 0.0000 0.0000
# 5 0.0000 0.0000 0.0000 0.0000 14.1910 0.0000
# 6 0.0000 0.0000 0.0000 0.0000 0.0000 22.7057
#
#
#
# Elastic Compliance Matrix: (Units=1/GPa)
#
#
# Indices 1 2 3 4 5 6 
#
# 1 0.011448 -0.000840 -0.008195 0.000000 0.000000 0.000000
# 2 -0.000840 0.012938 -0.004459 0.000000 0.000000 0.000000
# 3 -0.008195 -0.004459 0.018973 0.000000 0.000000 0.000000
# 4 0.000000 0.000000 0.000000 0.057131 0.000000 0.000000
# 5 0.000000 0.000000 0.000000 0.000000 0.070467 0.000000
# 6 0.000000 0.000000 0.000000 0.000000 0.000000 0.044042
#
#
# Mechanical properties :
#
#
# Convention : Reuss Voigt Hill
#
# Bulk Modulus (GPa) = 61.07639 65.30681 63.19160
# Shear Modulus (GPa) = 20.20657 23.19951 21.70304
#
# Velocity S-wave (km/s) = 3.30448 3.54076 3.42466
# Velocity P-wave (km/s) = 6.89675 7.21164 7.05595
#
# Compressibility (1/GPa) = 0.01637294
#
# Stress axis : x y z
#
# Youngs Moduli (GPa) = 87.34782 77.28878 52.70735
#
# Poissons Ratio (x) = 0.06492 0.43191
# Poissons Ratio (y) = 0.07336 0.23502
# Poissons Ratio (z) = 0.71578 0.34462
#
# Static dielectric constant tensor:
#      x y z
#    x 3.299290 0.000000 0.000000 
#    y 0.000000 3.600540 0.000000 
#    z 0.000000 0.000000 3.470170 
# 
# 
# High freq. dielectric constant tensor:
#      x y z
#    x 1.708650 0.000000 0.000000 
#    y 0.000000 1.735110 0.000000 
#    z 0.000000 0.000000 1.703930 
# 
# From -- ./inp_files/20711.got.cif
#   From: 2010.03.12/outbox.cif.g09.slc.cpg/sg57_11_cif.got.tgz:20711.got - 2010.04.16 15:48:40.
