data_PCOD8231924
_publ_section_title
;
Structure prediction by ZEFSAII (Michael W. Deem and Ramdas Pophale) SiO2 
 PCOD8231924
Probable space group: P B C M
;
_chemical_formula_sum "Si O2"
_cell_formula_units_Z 64
_cell_length_a 21.574029
_cell_length_b 17.829378
_cell_length_c 8.976137
_cell_angle_alpha 90.000000
_cell_angle_beta 90.000000
_cell_angle_gamma 90.000000
_cell_volume 3452.684723
_symmetry_space_group_name_H-M "P B C M"
_symmetry_group_IT_number 57
_symmetry_cell_setting 'orthorhombic'
loop_
_space_group_symop_operation_xyz
x,y,z
-x,-y,1/2+z
x,1/2-y,-z
-x,1/2+y,1/2-z
-x,-y,-z
x,y,1/2-z
-x,1/2+y,z
x,1/2-y,1/2+z
loop_
_atom_site_type_symbol
_atom_site_label
_atom_site_fract_x
_atom_site_fract_y
_atom_site_fract_z
Si Si1 0.754138 0.096611 0.425640
Si Si2 0.504863 0.173070 0.577437
Si Si3 0.874430 0.174177 0.425821
Si Si4 0.383526 0.907641 0.575838
Si Si5 0.936746 0.478230 0.924159
Si Si6 0.273675 0.330976 0.573019
Si Si7 0.811653 0.943338 0.425597
Si Si8 0.616676 0.919235 0.077388
O O1 0.762234 0.091974 0.250000
O O2 0.804528 0.156412 0.485259
O O3 0.685048 0.120958 0.471232
O O4 0.768988 0.012529 0.481947
O O5 0.486149 0.250000 0.500000
O O6 0.513923 0.189230 0.750000
O O7 0.568925 0.141490 0.515926
O O8 0.450466 0.114760 0.545222
O O9 0.899267 0.250000 0.500000
O O10 0.875807 0.184781 0.250000
O O11 0.917817 0.105301 0.476059
O O12 0.396137 0.895498 0.750000
O O13 0.389120 0.994343 0.532120
O O14 0.947686 0.478749 0.750000
O O15 0.882981 0.537861 0.965779
O O16 0.000000 0.500000 0.000000
O O17 0.279353 0.250000 0.500000
O O18 0.272229 0.322868 0.750000
O O19 0.210459 0.370260 0.515957
O O20 0.332896 0.379548 0.525117
O O21 0.803583 0.928273 0.250000
O O22 0.636674 0.910173 0.250000
#
# Coordination Sequence:
#
# PCOD8231924 Si02
#       8
#     8   8   8   8   8   8   8   8
#     4   8  15  31  56  79 105 140 177 216 269 328
#     4  11  24  39  54  76 107 144 187 233 279 334
#     4   9  18  33  53  81 112 147 184 222 268 319
#     4  10  19  35  60  83 107 143 179 224 282 337
#     4   9  19  35  59  85 113 151 191 230 273 322
#     4  12  24  36  56  85 114 144 182 233 284 335
#     4   9  17  36  59  79 109 147 184 223 272 330
#     4  10  21  39  61  81 106 144 185 227 282 341
#
# _framework density 18.536300000000001
#
# number of rings (size 3 to 8) (size 9 to 14) (size 15 to 20)
#    0.000    2.250    1.250    3.750    0.000    4.000 
#    0.000    4.375    0.000    1.500    0.000    0.000 
#    0.000    0.000    0.000    0.000    0.000    0.000 
#
# Total GULP energy -793549.058263 kJ/mol
# GULP energy per Si atom -12399.204035 kJ/mol
# Density = 1.849411 g / cm^3
# Si number density = 18.536300 Si / 1000 Ang^3
#
#
#
# Elastic Constant Matrix: (Units=GPa)
#
#
# Indices 1 2 3 4 5 6 
#
# 1 108.1024 30.3704 38.3537 0.0000 0.0000 0.0000
# 2 30.3704 71.8137 26.3302 0.0000 0.0000 0.0000
# 3 38.3537 26.3302 65.5489 0.0000 0.0000 0.0000
# 4 0.0000 0.0000 0.0000 31.1521 0.0000 0.0000
# 5 0.0000 0.0000 0.0000 0.0000 31.2595 0.0000
# 6 0.0000 0.0000 0.0000 0.0000 0.0000 19.4660
#
#
#
# Elastic Compliance Matrix: (Units=1/GPa)
#
#
# Indices 1 2 3 4 5 6 
#
# 1 0.012194 -0.002980 -0.005938 0.000000 0.000000 0.000000
# 2 -0.002980 0.017058 -0.005108 0.000000 0.000000 0.000000
# 3 -0.005938 -0.005108 0.020782 0.000000 0.000000 0.000000
# 4 0.000000 0.000000 0.000000 0.032101 0.000000 0.000000
# 5 0.000000 0.000000 0.000000 0.000000 0.031990 0.000000
# 6 0.000000 0.000000 0.000000 0.000000 0.000000 0.051372
#
#
# Mechanical properties :
#
#
# Convention : Reuss Voigt Hill
#
# Bulk Modulus (GPa) = 45.49211 48.39708 46.94459
# Shear Modulus (GPa) = 24.89077 26.40291 25.64684
#
# Velocity S-wave (km/s) = 3.66842 3.77820 3.72371
# Velocity P-wave (km/s) = 6.52215 6.72303 6.62335
#
# Compressibility (1/GPa) = 0.02198183
#
# Stress axis : x y z
#
# Youngs Moduli (GPa) = 82.00434 58.62304 48.11778
#
# Poissons Ratio (x) = 0.17469 0.28573
# Poissons Ratio (y) = 0.24437 0.24581
# Poissons Ratio (z) = 0.48696 0.29947
#
# Static dielectric constant tensor:
#      x y z
#    x 4.374320 0.000000 0.000000 
#    y 0.000000 3.518010 0.000000 
#    z 0.000000 0.000000 3.199130 
# 
# 
# High freq. dielectric constant tensor:
#      x y z
#    x 1.722320 0.000000 0.000000 
#    y 0.000000 1.720670 0.000000 
#    z 0.000000 0.000000 1.701200 
# 
# From -- ./inp_files/8449.got.cif
#   From: 2010.03.12/outbox.cif.g09.slc.cpg/sg57_5_cif.got.tgz:8449.got - 2010.04.16 15:48:40.
