data_PCOD8231407
_publ_section_title
;
Structure prediction by ZEFSAII (Michael W. Deem and Ramdas Pophale) SiO2 
 PCOD8231407
Probable space group: P B C M
;
_chemical_formula_sum "Si O2"
_cell_formula_units_Z 64
_cell_length_a 10.149669
_cell_length_b 24.479877
_cell_length_c 14.377204
_cell_angle_alpha 90.000000
_cell_angle_beta 90.000000
_cell_angle_gamma 90.000000
_cell_volume 3572.198187
_symmetry_space_group_name_H-M "P B C M"
_symmetry_group_IT_number 57
_symmetry_cell_setting 'orthorhombic'
loop_
_space_group_symop_operation_xyz
x,y,z
-x,-y,1/2+z
x,1/2-y,-z
-x,1/2+y,1/2-z
-x,-y,-z
x,y,1/2-z
-x,1/2+y,z
x,1/2-y,1/2+z
loop_
_atom_site_type_symbol
_atom_site_label
_atom_site_fract_x
_atom_site_fract_y
_atom_site_fract_z
Si Si1 0.314193 0.602443 0.646910
Si Si2 0.070448 0.689123 0.477411
Si Si3 0.637884 0.315644 0.987984
Si Si4 0.887074 0.956515 0.005306
Si Si5 0.383334 0.010541 0.432428
Si Si6 0.871617 0.635540 0.357532
Si Si7 0.988960 0.383117 0.143704
Si Si8 0.424406 0.129302 0.355785
O O1 0.349946 0.622127 0.750000
O O2 0.376754 0.650687 0.584222
O O3 0.374523 0.542570 0.631981
O O4 0.157959 0.593181 0.636420
O O5 0.100940 0.750000 0.500000
O O6 0.216552 0.666722 0.450832
O O7 0.005542 0.667288 0.572756
O O8 0.971103 0.683023 0.390692
O O9 0.617961 0.250000 0.000000
O O10 0.528155 0.338871 0.918780
O O11 0.903741 0.926371 0.105024
O O12 0.744338 0.983322 0.998232
O O13 0.910592 0.916970 0.917676
O O14 0.000000 0.000000 0.000000
O O15 0.413703 0.064397 0.372601
O O16 0.500000 0.000000 0.500000
O O17 0.895492 0.621335 0.250000
O O18 0.720978 0.654393 0.374758
O O19 0.025325 0.366675 0.250000
O O20 0.468244 0.138833 0.250000
#
# Coordination Sequence:
#
# PCOD8231407 Si02
#       8
#     8   8   8   8   8   8   8   8
#     4  10  19  34  57  80 106 144 187 223 271 331
#     4   9  19  35  56  81 108 139 181 229 272 315
#     4  10  21  37  57  82 111 144 184 232 276 320
#     4  10  19  33  53  77 107 138 177 218 265 321
#     4  11  20  34  57  80 111 144 178 225 276 324
#     4   9  20  35  54  79 107 140 180 218 266 324
#     4   9  18  33  53  78 107 142 179 220 268 324
#     4  10  21  37  56  80 111 147 184 224 273 331
#
# _framework density 17.916139000000001
#
# number of rings (size 3 to 8) (size 9 to 14) (size 15 to 20)
#    0.000    2.250    2.500    0.375    0.000    3.000 
#    0.000    3.750    0.000    0.000    0.000    0.000 
#    0.000    0.000    0.000    0.000    0.000    0.000 
#
# Total GULP energy -793067.231706 kJ/mol
# GULP energy per Si atom -12391.675495 kJ/mol
# Density = 1.787536 g / cm^3
# Si number density = 17.916139 Si / 1000 Ang^3
#
#
#
# Elastic Constant Matrix: (Units=GPa)
#
#
# Indices 1 2 3 4 5 6 
#
# 1 105.5682 39.0404 66.8722 0.0000 0.0000 0.0000
# 2 39.0404 82.7710 39.9030 0.0000 0.0000 0.0000
# 3 66.8722 39.9030 135.6911 0.0000 0.0000 0.0000
# 4 0.0000 0.0000 0.0000 16.3628 0.0000 0.0000
# 5 0.0000 0.0000 0.0000 0.0000 31.1850 0.0000
# 6 0.0000 0.0000 0.0000 0.0000 0.0000 26.5062
#
#
#
# Elastic Compliance Matrix: (Units=1/GPa)
#
#
# Indices 1 2 3 4 5 6 
#
# 1 0.014853 -0.004051 -0.006129 0.000000 0.000000 0.000000
# 2 -0.004051 0.015182 -0.002468 0.000000 0.000000 0.000000
# 3 -0.006129 -0.002468 0.011116 0.000000 0.000000 0.000000
# 4 0.000000 0.000000 0.000000 0.061114 0.000000 0.000000
# 5 0.000000 0.000000 0.000000 0.000000 0.032067 0.000000
# 6 0.000000 0.000000 0.000000 0.000000 0.000000 0.037727
#
#
# Mechanical properties :
#
#
# Convention : Reuss Voigt Hill
#
# Bulk Modulus (GPa) = 63.07085 68.40684 65.73885
# Shear Modulus (GPa) = 24.67436 26.69177 25.68306
#
# Velocity S-wave (km/s) = 3.71511 3.86400 3.79029
# Velocity P-wave (km/s) = 7.32684 7.62705 7.47845
#
# Compressibility (1/GPa) = 0.01585518
#
# Stress axis : x y z
#
# Youngs Moduli (GPa) = 67.32720 65.86670 89.96188
#
# Poissons Ratio (x) = 0.26683 0.55134
# Poissons Ratio (y) = 0.27275 0.22204
# Poissons Ratio (z) = 0.41262 0.16257
#
# Static dielectric constant tensor:
#      x y z
#    x 3.408340 0.000000 0.000000 
#    y 0.000000 3.204900 0.000000 
#    z 0.000000 0.000000 3.194160 
# 
# 
# High freq. dielectric constant tensor:
#      x y z
#    x 1.693720 0.000000 0.000000 
#    y 0.000000 1.688860 0.000000 
#    z 0.000000 0.000000 1.690680 
# 
# From -- ./inp_files/16986.got.cif
#   From: 2010.03.12/outbox.cif.g09.slc.cpg/sg57_9_cif.got.tgz:16986.got - 2010.04.16 15:48:40.
