data_PCOD8231236
_publ_section_title
;
Structure prediction by ZEFSAII (Michael W. Deem and Ramdas Pophale) SiO2 
 PCOD8231236
Probable space group: P B C M
;
_chemical_formula_sum "Si O2"
_cell_formula_units_Z 56
_cell_length_a 12.443845
_cell_length_b 25.358512
_cell_length_c 9.395988
_cell_angle_alpha 90.000000
_cell_angle_beta 90.000000
_cell_angle_gamma 90.000000
_cell_volume 2964.973476
_symmetry_space_group_name_H-M "P B C M"
_symmetry_group_IT_number 57
_symmetry_cell_setting 'orthorhombic'
loop_
_space_group_symop_operation_xyz
x,y,z
-x,-y,1/2+z
x,1/2-y,-z
-x,1/2+y,1/2-z
-x,-y,-z
x,y,1/2-z
-x,1/2+y,z
x,1/2-y,1/2+z
loop_
_atom_site_type_symbol
_atom_site_label
_atom_site_fract_x
_atom_site_fract_y
_atom_site_fract_z
Si Si1 0.542199 0.341547 0.081594
Si Si2 0.771097 0.198310 0.580347
Si Si3 0.437325 0.957916 0.089535
Si Si4 0.687276 0.801325 0.082001
Si Si5 0.163921 0.101304 0.582598
Si Si6 0.198600 0.997103 0.410986
Si Si7 0.920724 0.103696 0.581962
O O1 0.546886 0.346320 0.250000
O O2 0.648532 0.311404 0.028888
O O3 0.540182 0.400804 0.020023
O O4 0.435106 0.311508 0.031414
O O5 0.813776 0.250000 0.500000
O O6 0.780136 0.205909 0.750000
O O7 0.844730 0.150231 0.523935
O O8 0.482028 0.960532 0.250000
O O9 0.311443 0.967761 0.086433
O O10 0.500000 0.000000 0.000000
O O11 0.695050 0.791337 0.250000
O O12 0.760481 0.850551 0.035536
O O13 0.730501 0.750000 0.000000
O O14 0.171691 0.091289 0.750000
O O15 0.203935 0.048539 0.507534
O O16 0.042710 0.114959 0.534911
O O17 0.168069 0.013931 0.250000
O O18 0.114263 0.954244 0.474750
O O19 0.906957 0.102329 0.750000
#
# Coordination Sequence:
#
# PCOD8231236 Si02
#       7
#     8   8   8   8   8   8   8
#     4   9  17  33  54  73 100 138 175 209 259 323
#     4  10  19  34  55  77 102 136 176 219 264 315
#     4  10  19  32  52  78 108 142 176 214 263 318
#     4  10  21  36  54  76 103 138 177 217 264 313
#     4  10  21  36  55  79 108 141 177 220 267 313
#     4  10  19  34  56  81 107 140 180 217 261 319
#     4   9  18  35  56  77 105 143 180 214 263 321
#
# _framework density 18.887184000000001
#
# number of rings (size 3 to 8) (size 9 to 14) (size 15 to 20)
#    0.000    2.286    1.429    1.714    0.000    2.857 
#    0.000    2.857    0.000    0.000    0.000    0.000 
#    0.000    0.000    0.000    0.000    0.000    0.000 
#
# Total GULP energy -694405.665067 kJ/mol
# GULP energy per Si atom -12400.101162 kJ/mol
# Density = 1.884420 g / cm^3
# Si number density = 18.887184 Si / 1000 Ang^3
#
#
#
# Elastic Constant Matrix: (Units=GPa)
#
#
# Indices 1 2 3 4 5 6 
#
# 1 80.0691 37.6197 17.9420 0.0000 0.0000 0.0000
# 2 37.6197 151.4149 40.2990 0.0000 0.0000 0.0000
# 3 17.9420 40.2990 35.5350 0.0000 0.0000 0.0000
# 4 0.0000 0.0000 0.0000 34.1655 0.0000 0.0000
# 5 0.0000 0.0000 0.0000 0.0000 15.3998 0.0000
# 6 0.0000 0.0000 0.0000 0.0000 0.0000 25.4465
#
#
#
# Elastic Compliance Matrix: (Units=1/GPa)
#
#
# Indices 1 2 3 4 5 6 
#
# 1 0.014665 -0.002396 -0.004687 0.000000 0.000000 0.000000
# 2 -0.002396 0.009851 -0.009962 0.000000 0.000000 0.000000
# 3 -0.004687 -0.009962 0.041805 0.000000 0.000000 0.000000
# 4 0.000000 0.000000 0.000000 0.029269 0.000000 0.000000
# 5 0.000000 0.000000 0.000000 0.000000 0.064936 0.000000
# 6 0.000000 0.000000 0.000000 0.000000 0.000000 0.039298
#
#
# Mechanical properties :
#
#
# Convention : Reuss Voigt Hill
#
# Bulk Modulus (GPa) = 31.02597 50.97116 40.99856
# Shear Modulus (GPa) = 20.43656 26.41290 23.42473
#
# Velocity S-wave (km/s) = 3.29300 3.74365 3.52553
# Velocity P-wave (km/s) = 5.56067 6.76257 6.19086
#
# Compressibility (1/GPa) = 0.03223106
#
# Stress axis : x y z
#
# Youngs Moduli (GPa) = 68.18794 101.51192 23.92038
#
# Poissons Ratio (x) = 0.24324 0.11212
# Poissons Ratio (y) = 0.16339 0.23829
# Poissons Ratio (z) = 0.31962 1.01125
#
# Static dielectric constant tensor:
#      x y z
#    x 3.748060 0.000000 0.000000 
#    y 0.000000 3.508500 0.000000 
#    z 0.000000 0.000000 3.155020 
# 
# 
# High freq. dielectric constant tensor:
#      x y z
#    x 1.743150 0.000000 0.000000 
#    y 0.000000 1.746260 0.000000 
#    z 0.000000 0.000000 1.693640 
# 
# From -- ./inp_files/13083.got.cif
#   From: 2010.03.12/outbox.cif.g09.slc.cpg/sg57_7_cif.got.tgz:13083.got - 2010.04.16 15:48:40.
