data_PCOD8231909
_publ_section_title
;
Structure prediction by ZEFSAII (Michael W. Deem and Ramdas Pophale) SiO2 
 PCOD8231909
Probable space group: P B C M
;
_chemical_formula_sum "Si O2"
_cell_formula_units_Z 64
_cell_length_a 12.491795
_cell_length_b 28.909197
_cell_length_c 9.099256
_cell_angle_alpha 90.000000
_cell_angle_beta 90.000000
_cell_angle_gamma 90.000000
_cell_volume 3285.993960
_symmetry_space_group_name_H-M "P B C M"
_symmetry_group_IT_number 57
_symmetry_cell_setting 'orthorhombic'
loop_
_space_group_symop_operation_xyz
x,y,z
-x,-y,1/2+z
x,1/2-y,-z
-x,1/2+y,1/2-z
-x,-y,-z
x,y,1/2-z
-x,1/2+y,z
x,1/2-y,1/2+z
loop_
_atom_site_type_symbol
_atom_site_label
_atom_site_fract_x
_atom_site_fract_y
_atom_site_fract_z
Si Si1 0.117323 0.295098 0.420868
Si Si2 0.949230 0.604861 0.921789
Si Si3 0.220398 0.041566 0.419540
Si Si4 0.376489 0.895784 0.576944
Si Si5 0.822805 0.436539 0.418030
Si Si6 0.643597 0.818077 0.082936
Si Si7 0.414380 0.077042 0.582032
Si Si8 0.563411 0.293928 0.921490
O O1 0.068420 0.250000 0.500000
O O2 0.107959 0.285729 0.250000
O O3 0.051147 0.340920 0.464956
O O4 0.240257 0.301744 0.468788
O O5 0.922087 0.598268 0.750000
O O6 0.064158 0.584843 0.963949
O O7 0.859244 0.578731 0.012624
O O8 0.239253 0.054102 0.250000
O O9 0.335230 0.041457 0.500807
O O10 0.168556 0.991318 0.439454
O O11 0.392409 0.902164 0.750000
O O12 0.263510 0.915387 0.527462
O O13 0.470294 0.923718 0.495609
O O14 0.379011 0.841563 0.532588
O O15 0.792979 0.423874 0.250000
O O16 0.617050 0.802915 0.250000
O O17 0.640909 0.873242 0.070609
O O18 0.559817 0.795210 0.972477
O O19 0.430257 0.061191 0.750000
O O20 0.568275 0.285417 0.750000
O O21 0.620559 0.250000 0.000000
#
# Coordination Sequence:
#
# PCOD8231909 Si02
#       8
#     8   8   8   8   8   8   8   8
#     4  10  20  34  53  81 113 147 186 227 279 338
#     4  10  21  41  62  82 114 153 194 236 283 341
#     4  11  22  36  59  92 119 144 188 240 293 344
#     4  10  22  39  58  84 117 150 191 242 287 336
#     4  10  23  41  61  83 111 153 198 239 287 345
#     4   9  17  31  51  78 111 147 183 222 273 335
#     4  10  19  35  59  85 117 155 187 224 281 344
#     4  10  20  33  52  80 110 145 187 233 282 335
#
# _framework density 19.476603999999998
#
# number of rings (size 3 to 8) (size 9 to 14) (size 15 to 20)
#    0.000    2.000    1.250    2.250    0.000    6.000 
#    0.000    0.625    0.000    3.000    0.000    0.000 
#    0.000    0.000    0.000    0.000    0.000    0.000 
#
# Total GULP energy -793802.453940 kJ/mol
# GULP energy per Si atom -12403.163343 kJ/mol
# Density = 1.943227 g / cm^3
# Si number density = 19.476604 Si / 1000 Ang^3
#
#
#
# Elastic Constant Matrix: (Units=GPa)
#
#
# Indices 1 2 3 4 5 6 
#
# 1 79.7616 31.4635 45.4469 0.0000 0.0000 0.0000
# 2 31.4635 77.6923 37.2234 0.0000 0.0000 0.0000
# 3 45.4469 37.2234 90.1391 0.0000 0.0000 0.0000
# 4 0.0000 0.0000 0.0000 32.3857 0.0000 0.0000
# 5 0.0000 0.0000 0.0000 0.0000 20.0547 0.0000
# 6 0.0000 0.0000 0.0000 0.0000 0.0000 14.8981
#
#
#
# Elastic Compliance Matrix: (Units=1/GPa)
#
#
# Indices 1 2 3 4 5 6 
#
# 1 0.018429 -0.003754 -0.007741 0.000000 0.000000 0.000000
# 2 -0.003754 0.016811 -0.005049 0.000000 0.000000 0.000000
# 3 -0.007741 -0.005049 0.017082 0.000000 0.000000 0.000000
# 4 0.000000 0.000000 0.000000 0.030878 0.000000 0.000000
# 5 0.000000 0.000000 0.000000 0.000000 0.049864 0.000000
# 6 0.000000 0.000000 0.000000 0.000000 0.000000 0.067123
#
#
# Mechanical properties :
#
#
# Convention : Reuss Voigt Hill
#
# Bulk Modulus (GPa) = 51.99587 52.87340 52.43463
# Shear Modulus (GPa) = 20.86051 22.36497 21.61274
#
# Velocity S-wave (km/s) = 3.27625 3.39233 3.33480
# Velocity P-wave (km/s) = 6.40830 6.52303 6.46592
#
# Compressibility (1/GPa) = 0.01923230
#
# Stress axis : x y z
#
# Youngs Moduli (GPa) = 54.26139 59.48527 58.54052
#
# Poissons Ratio (x) = 0.22333 0.45319
# Poissons Ratio (y) = 0.20372 0.29558
# Poissons Ratio (z) = 0.42006 0.30035
#
# Static dielectric constant tensor:
#      x y z
#    x 3.369970 0.000000 0.000000 
#    y 0.000000 3.718940 0.000000 
#    z 0.000000 0.000000 3.548630 
# 
# 
# High freq. dielectric constant tensor:
#      x y z
#    x 1.738610 0.000000 0.000000 
#    y 0.000000 1.767920 0.000000 
#    z 0.000000 0.000000 1.760750 
# 
# From -- ./inp_files/3722.got.cif
#   From: 2010.03.12/outbox.cif.g09.slc.cpg/sg57_2_cif.got.tgz:3722.got - 2010.04.16 15:48:40.
