data_PCOD8231113
_publ_section_title
;
Structure prediction by ZEFSAII (Michael W. Deem and Ramdas Pophale) SiO2 
 PCOD8231113
Probable space group: P B C M
;
_chemical_formula_sum "Si O2"
_cell_formula_units_Z 40
_cell_length_a 26.193433
_cell_length_b 9.121800
_cell_length_c 9.022280
_cell_angle_alpha 90.000000
_cell_angle_beta 90.000000
_cell_angle_gamma 90.000000
_cell_volume 2155.704703
_symmetry_space_group_name_H-M "P B C M"
_symmetry_group_IT_number 57
_symmetry_cell_setting 'orthorhombic'
loop_
_space_group_symop_operation_xyz
x,y,z
-x,-y,1/2+z
x,1/2-y,-z
-x,1/2+y,1/2-z
-x,-y,-z
x,y,1/2-z
-x,1/2+y,z
x,1/2-y,1/2+z
loop_
_atom_site_type_symbol
_atom_site_label
_atom_site_fract_x
_atom_site_fract_y
_atom_site_fract_z
Si Si1 0.956729 0.593128 0.924152
Si Si2 0.643090 0.402819 0.921825
Si Si3 0.736290 0.592475 0.924555
Si Si4 0.153258 0.401446 0.419915
Si Si5 0.543863 0.593169 0.923987
O O1 0.968242 0.608577 0.750000
O O2 0.900664 0.515136 0.952364
O O3 0.957271 0.750000 0.000000
O O4 0.000000 0.500000 0.000000
O O5 0.649285 0.367856 0.750000
O O6 0.694404 0.478749 0.986008
O O7 0.596971 0.512525 0.953103
O O8 0.632234 0.250000 0.000000
O O9 0.728140 0.616139 0.750000
O O10 0.792659 0.521112 0.961644
O O11 0.729347 0.750000 0.000000
O O12 0.150961 0.250000 0.500000
O O13 0.155157 0.359021 0.250000
O O14 0.532128 0.611300 0.750000
O O15 0.546793 0.750000 0.000000
O O16 0.500000 0.500000 0.000000
#
# Coordination Sequence:
#
# PCOD8231113 Si02
#       5
#     8   8   8   8   8
#     4  10  19  32  50  73 100 133 170 211 257 308
#     4  10  22  37  54  77 107 140 174 211 255 304
#     4   9  17  32  53  77 101 128 165 210 255 303
#     4   8  15  28  48  71  97 127 163 206 252 301
#     4  11  23  39  59  84 111 142 178 218 261 308
#
# _framework density 18.555416000000001
#
# number of rings (size 3 to 8) (size 9 to 14) (size 15 to 20)
#    0.000    2.400    0.000    2.400    0.000    4.800 
#    0.000    1.000    0.000    2.400    0.000    0.000 
#    0.000    0.000    0.000    0.000    0.000    0.000 
#
# Total GULP energy -495542.065143 kJ/mol
# GULP energy per Si atom -12388.551629 kJ/mol
# Density = 1.851318 g / cm^3
# Si number density = 18.555416 Si / 1000 Ang^3
#
#
#
# Elastic Constant Matrix: (Units=GPa)
#
#
# Indices 1 2 3 4 5 6 
#
# 1 172.3527 66.2327 68.5644 0.0000 0.0000 0.0000
# 2 66.2327 104.6652 52.0679 0.0000 0.0000 0.0000
# 3 68.5644 52.0679 78.7736 0.0000 0.0000 0.0000
# 4 0.0000 0.0000 0.0000 31.0850 0.0000 0.0000
# 5 0.0000 0.0000 0.0000 0.0000 42.2557 0.0000
# 6 0.0000 0.0000 0.0000 0.0000 0.0000 29.6146
#
#
#
# Elastic Compliance Matrix: (Units=1/GPa)
#
#
# Indices 1 2 3 4 5 6 
#
# 1 0.009394 -0.002797 -0.006328 0.000000 0.000000 0.000000
# 2 -0.002797 0.015068 -0.007525 0.000000 0.000000 0.000000
# 3 -0.006328 -0.007525 0.023177 0.000000 0.000000 0.000000
# 4 0.000000 0.000000 0.000000 0.032170 0.000000 0.000000
# 5 0.000000 0.000000 0.000000 0.000000 0.023665 0.000000
# 6 0.000000 0.000000 0.000000 0.000000 0.000000 0.033767
#
#
# Mechanical properties :
#
#
# Convention : Reuss Voigt Hill
#
# Bulk Modulus (GPa) = 69.74269 81.05794 75.40031
# Shear Modulus (GPa) = 28.51922 31.85283 30.18603
#
# Velocity S-wave (km/s) = 3.92468 4.14772 4.03774
# Velocity P-wave (km/s) = 7.62924 8.16806 7.90324
#
# Compressibility (1/GPa) = 0.01433842
#
# Stress axis : x y z
#
# Youngs Moduli (GPa) = 106.44867 66.36779 43.14679
#
# Poissons Ratio (x) = 0.18560 0.27304
# Poissons Ratio (y) = 0.29770 0.32469
# Poissons Ratio (z) = 0.67363 0.49943
#
# Static dielectric constant tensor:
#      x y z
#    x 4.404980 0.000000 0.000000 
#    y 0.000000 3.029460 0.000000 
#    z 0.000000 0.000000 3.512700 
# 
# 
# High freq. dielectric constant tensor:
#      x y z
#    x 1.754280 0.000000 0.000000 
#    y 0.000000 1.685230 0.000000 
#    z 0.000000 0.000000 1.725090 
# 
# From -- ./inp_files/8879.got.cif
#   From: 2010.03.12/outbox.cif.g09.slc.cpg/sg57_5_cif.got.tgz:8879.got - 2010.04.16 15:48:40.
