data_PCOD8231365
_publ_section_title
;
Structure prediction by ZEFSAII (Michael W. Deem and Ramdas Pophale) SiO2 
 PCOD8231365
Probable space group: P B C M
;
_chemical_formula_sum "Si O2"
_cell_formula_units_Z 48
_cell_length_a 31.160963
_cell_length_b 9.063249
_cell_length_c 8.745244
_cell_angle_alpha 90.000000
_cell_angle_beta 90.000000
_cell_angle_gamma 90.000000
_cell_volume 2469.828022
_symmetry_space_group_name_H-M "P B C M"
_symmetry_group_IT_number 57
_symmetry_cell_setting 'orthorhombic'
loop_
_space_group_symop_operation_xyz
x,y,z
-x,-y,1/2+z
x,1/2-y,-z
-x,1/2+y,1/2-z
-x,-y,-z
x,y,1/2-z
-x,1/2+y,z
x,1/2-y,1/2+z
loop_
_atom_site_type_symbol
_atom_site_label
_atom_site_fract_x
_atom_site_fract_y
_atom_site_fract_z
Si Si1 0.776404 0.087587 0.430577
Si Si2 0.130369 0.907032 0.927208
Si Si3 0.961684 0.410468 0.570626
Si Si4 0.701324 0.905578 0.926797
Si Si5 0.383442 0.910894 0.071605
Si Si6 0.460419 0.411972 0.068054
O O1 0.769043 0.250000 0.500000
O O2 0.769715 0.100658 0.250000
O O3 0.823913 0.020952 0.475394
O O4 0.743625 0.969830 0.496175
O O5 0.132269 0.877047 0.750000
O O6 0.085055 0.989186 0.966971
O O7 0.127550 0.750000 0.000000
O O8 0.962688 0.250000 0.500000
O O9 0.969184 0.398567 0.750000
O O10 0.000000 0.500000 0.500000
O O11 0.710782 0.879479 0.750000
O O12 0.663205 0.020613 0.952944
O O13 0.688453 0.750000 0.000000
O O14 0.396176 0.903754 0.250000
O O15 0.383621 0.750000 0.000000
O O16 0.416649 0.010631 0.980228
O O17 0.463910 0.405163 0.250000
O O18 0.461199 0.250000 0.000000
O O19 0.500000 0.500000 0.000000
#
# Coordination Sequence:
#
# PCOD8231365 Si02
#       6
#     8   8   8   8   8   8
#     4  10  19  34  57  83 110 141 181 227 275 329
#     4   8  16  30  50  75 103 136 175 221 270 324
#     4  10  19  33  52  76 105 138 178 222 272 327
#     4  11  24  40  59  84 116 152 189 232 283 337
#     4  11  24  42  64  91 121 155 196 240 287 338
#     4  12  25  43  66  93 126 162 201 244 292 343
#
# _framework density 19.434552
#
# number of rings (size 3 to 8) (size 9 to 14) (size 15 to 20)
#    0.000    1.667    0.000    5.000    0.000    6.667 
#    0.000    0.833    0.000    0.000    0.000    0.000 
#    0.000    0.000    0.000    0.000    0.000    0.000 
#
# Total GULP energy -594858.936313 kJ/mol
# GULP energy per Si atom -12392.894507 kJ/mol
# Density = 1.939032 g / cm^3
# Si number density = 19.434552 Si / 1000 Ang^3
#
#
#
# Elastic Constant Matrix: (Units=GPa)
#
#
# Indices 1 2 3 4 5 6 
#
# 1 143.9321 54.3110 69.7632 0.0000 0.0000 0.0000
# 2 54.3110 112.6824 55.9075 0.0000 0.0000 0.0000
# 3 69.7632 55.9075 127.5025 0.0000 0.0000 0.0000
# 4 0.0000 0.0000 0.0000 35.7831 0.0000 0.0000
# 5 0.0000 0.0000 0.0000 0.0000 48.6859 0.0000
# 6 0.0000 0.0000 0.0000 0.0000 0.0000 41.3548
#
#
#
# Elastic Compliance Matrix: (Units=1/GPa)
#
#
# Indices 1 2 3 4 5 6 
#
# 1 0.010062 -0.002707 -0.004319 0.000000 0.000000 0.000000
# 2 -0.002707 0.012070 -0.003811 0.000000 0.000000 0.000000
# 3 -0.004319 -0.003811 0.011877 0.000000 0.000000 0.000000
# 4 0.000000 0.000000 0.000000 0.027946 0.000000 0.000000
# 5 0.000000 0.000000 0.000000 0.000000 0.020540 0.000000
# 6 0.000000 0.000000 0.000000 0.000000 0.000000 0.024181
#
#
# Mechanical properties :
#
#
# Convention : Reuss Voigt Hill
#
# Bulk Modulus (GPa) = 81.06674 82.67560 81.87117
# Shear Modulus (GPa) = 37.74631 38.77378 38.26005
#
# Velocity S-wave (km/s) = 4.41185 4.47149 4.44177
# Velocity P-wave (km/s) = 8.23139 8.32418 8.27791
#
# Compressibility (1/GPa) = 0.01233551
#
# Stress axis : x y z
#
# Youngs Moduli (GPa) = 99.37902 82.84758 84.19535
#
# Poissons Ratio (x) = 0.22429 0.36361
# Poissons Ratio (y) = 0.26904 0.32090
# Poissons Ratio (z) = 0.42918 0.31576
#
# Static dielectric constant tensor:
#      x y z
#    x 4.376140 0.000000 0.000000 
#    y 0.000000 3.280010 0.000000 
#    z 0.000000 0.000000 3.862450 
# 
# 
# High freq. dielectric constant tensor:
#      x y z
#    x 1.787750 0.000000 0.000000 
#    y 0.000000 1.734060 0.000000 
#    z 0.000000 0.000000 1.774780 
# 
# From -- ./inp_files/9889.got.cif
#   From: 2010.03.12/outbox.cif.g09.slc.cpg/sg57_5_cif.got.tgz:9889.got - 2010.04.16 15:48:40.
