data_PCOD8231688
_publ_section_title
;
Structure prediction by ZEFSAII (Michael W. Deem and Ramdas Pophale) SiO2 
 PCOD8231688
Probable space group: P B C M
;
_chemical_formula_sum "Si O2"
_cell_formula_units_Z 56
_cell_length_a 30.979588
_cell_length_b 5.073037
_cell_length_c 17.687088
_cell_angle_alpha 90.000000
_cell_angle_beta 90.000000
_cell_angle_gamma 90.000000
_cell_volume 2779.713295
_symmetry_space_group_name_H-M "P B C M"
_symmetry_group_IT_number 57
_symmetry_cell_setting 'orthorhombic'
loop_
_space_group_symop_operation_xyz
x,y,z
-x,-y,1/2+z
x,1/2-y,-z
-x,1/2+y,1/2-z
-x,-y,-z
x,y,1/2-z
-x,1/2+y,z
x,1/2-y,1/2+z
loop_
_atom_site_type_symbol
_atom_site_label
_atom_site_fract_x
_atom_site_fract_y
_atom_site_fract_z
Si Si1 0.527870 0.480844 0.336919
Si Si2 0.603496 0.508860 0.450647
Si Si3 0.117570 0.349525 0.660227
Si Si4 0.168402 0.850602 0.839820
Si Si5 0.973226 0.749092 0.588047
Si Si6 0.695866 0.790008 0.913987
Si Si7 0.266037 0.793198 0.839733
O O1 0.542540 0.458273 0.250000
O O2 0.491514 0.265683 0.355828
O O3 0.569533 0.425705 0.387281
O O4 0.584165 0.750000 0.500000
O O5 0.646373 0.616957 0.410225
O O6 0.614509 0.250000 0.500000
O O7 0.117539 0.352442 0.750000
O O8 0.141416 0.605762 0.626944
O O9 0.068765 0.328926 0.633769
O O10 0.145005 0.107162 0.628034
O O11 0.167568 0.839386 0.750000
O O12 0.217739 0.859016 0.867224
O O13 0.961830 0.750000 0.500000
O O14 0.989722 0.459115 0.610255
O O15 0.700890 0.511473 0.871213
O O16 0.724648 0.006013 0.872728
O O17 0.711163 0.750000 0.000000
O O18 0.270479 0.781329 0.750000
#
# Coordination Sequence:
#
# PCOD8231688 Si02
#       7
#     8   8   8   8   8   8   8
#     4  10  22  39  59  87 121 152 189 245 301 345
#     4  11  23  40  61  85 116 158 200 239 290 354
#     4  10  19  34  56  79 105 138 177 225 276 325
#     4   9  19  35  55  81 111 140 177 231 283 327
#     4  10  21  36  52  73 105 141 174 216 269 323
#     4  11  23  41  59  86 125 157 192 248 304 342
#     4  11  22  39  64  89 115 156 204 240 288 362
#
# _framework density 20.145961
#
# number of rings (size 3 to 8) (size 9 to 14) (size 15 to 20)
#    0.000    1.714    0.000    5.143    0.000    5.714 
#    0.000    5.714    0.000    0.000    0.000    0.000 
#    0.000    0.000    0.000    0.000    0.000    0.000 
#
# Total GULP energy -694558.174979 kJ/mol
# GULP energy per Si atom -12402.824553 kJ/mol
# Density = 2.010011 g / cm^3
# Si number density = 20.145961 Si / 1000 Ang^3
#
#
#
# Elastic Constant Matrix: (Units=GPa)
#
#
# Indices 1 2 3 4 5 6 
#
# 1 94.7001 14.8341 40.7182 0.0000 0.0000 0.0000
# 2 14.8341 101.1271 27.6908 0.0000 0.0000 0.0000
# 3 40.7182 27.6908 65.0078 0.0000 0.0000 0.0000
# 4 0.0000 0.0000 0.0000 27.2317 0.0000 0.0000
# 5 0.0000 0.0000 0.0000 0.0000 -12.5434 0.0000
# 6 0.0000 0.0000 0.0000 0.0000 0.0000 27.4321
#
#
#
# Elastic Compliance Matrix: (Units=1/GPa)
#
#
# Indices 1 2 3 4 5 6 
#
# 1 0.014466 0.000407 -0.009234 0.000000 0.000000 0.000000
# 2 0.000407 0.011206 -0.005028 0.000000 0.000000 0.000000
# 3 -0.009234 -0.005028 0.023308 0.000000 0.000000 0.000000
# 4 0.000000 0.000000 0.000000 0.036722 0.000000 0.000000
# 5 0.000000 0.000000 0.000000 0.000000 -0.079723 0.000000
# 6 0.000000 0.000000 0.000000 0.000000 0.000000 0.036454
#
#
# Mechanical properties :
#
#
# Convention : Reuss Voigt Hill
#
# Bulk Modulus (GPa) = 47.01618 47.48013 47.24815
# Shear Modulus (GPa) = 64.73851 20.26354 42.50102
#
# Velocity S-wave (km/s) = 5.67490 3.17493 4.59808
# Velocity P-wave (km/s) = 8.14419 6.08765 7.18983
#
# Compressibility (1/GPa) = 0.02126927
#
# Stress axis : x y z
#
# Youngs Moduli (GPa) = 69.12526 89.24083 42.90286
#
# Poissons Ratio (x) = -0.03628 0.39618
# Poissons Ratio (y) = -0.02810 0.21571
# Poissons Ratio (z) = 0.63833 0.44868
#
# Static dielectric constant tensor:
#      x y z
#    x 3.584090 0.000000 0.000000 
#    y 0.000000 3.997400 0.000000 
#    z 0.000000 0.000000 3.482390 
# 
# 
# High freq. dielectric constant tensor:
#      x y z
#    x 1.790110 0.000000 0.000000 
#    y 0.000000 1.810050 0.000000 
#    z 0.000000 0.000000 1.768770 
# 
# From -- ./inp_files/19651.got.cif
#   From: 2010.03.12/outbox.cif.g09.slc.cpg/sg57_10_cif.got.tgz:19651.got - 2010.04.16 15:48:40.
