data_PCOD8231678
_publ_section_title
;
Structure prediction by ZEFSAII (Michael W. Deem and Ramdas Pophale) SiO2 
 PCOD8231678
Probable space group: P B C M
;
_chemical_formula_sum "Si O2"
_cell_formula_units_Z 56
_cell_length_a 21.296722
_cell_length_b 14.314935
_cell_length_c 9.064549
_cell_angle_alpha 90.000000
_cell_angle_beta 90.000000
_cell_angle_gamma 90.000000
_cell_volume 2763.429205
_symmetry_space_group_name_H-M "P B C M"
_symmetry_group_IT_number 57
_symmetry_cell_setting 'orthorhombic'
loop_
_space_group_symop_operation_xyz
x,y,z
-x,-y,1/2+z
x,1/2-y,-z
-x,1/2+y,1/2-z
-x,-y,-z
x,y,1/2-z
-x,1/2+y,z
x,1/2-y,1/2+z
loop_
_atom_site_type_symbol
_atom_site_label
_atom_site_fract_x
_atom_site_fract_y
_atom_site_fract_z
Si Si1 0.871900 0.166560 0.409972
Si Si2 0.581789 0.542125 0.082311
Si Si3 0.724984 0.338009 0.584862
Si Si4 0.723187 0.971089 0.580475
Si Si5 0.934305 0.984062 0.423131
Si Si6 0.172238 0.349065 0.074881
Si Si7 0.477164 0.651386 0.923436
O O1 0.903913 0.250000 0.500000
O O2 0.903576 0.171857 0.250000
O O3 0.798356 0.180723 0.398238
O O4 0.888560 0.066703 0.479480
O O5 0.557415 0.553933 0.250000
O O6 0.654127 0.573773 0.069978
O O7 0.572335 0.432127 0.037052
O O8 0.544595 0.613728 0.978461
O O9 0.693593 0.250000 0.500000
O O10 0.695848 0.349402 0.750000
O O11 0.714513 0.426377 0.483463
O O12 0.746458 0.975755 0.750000
O O13 0.771962 0.913889 0.483004
O O14 0.946105 0.985269 0.250000
O O15 0.896529 0.890285 0.467360
O O16 0.000000 0.000000 0.500000
O O17 0.180028 0.341076 0.250000
O O18 0.178746 0.250000 0.000000
O O19 0.480561 0.670663 0.750000
O O20 0.458670 0.750000 0.000000
#
# Coordination Sequence:
#
# PCOD8231678 Si02
#       7
#     8   8   8   8   8   8   8
#     4   9  18  34  54  79 109 141 178 225 277 336
#     4   9  21  39  58  86 120 154 200 248 292 350
#     4  10  19  34  55  82 116 151 189 235 288 349
#     4  11  22  38  61  89 121 158 199 246 300 356
#     4  10  22  40  60  84 116 150 192 242 294 349
#     4  11  24  44  64  87 120 158 201 249 298 355
#     4  10  20  37  61  86 117 157 198 244 296 348
#
# _framework density 20.264676999999999
#
# number of rings (size 3 to 8) (size 9 to 14) (size 15 to 20)
#    0.000    2.000    1.429    1.714    0.000    5.714 
#    0.000    4.286    0.000    0.000    0.000    0.000 
#    0.000    0.000    0.000    0.000    0.000    0.000 
#
# Total GULP energy -694117.144069 kJ/mol
# GULP energy per Si atom -12394.949001 kJ/mol
# Density = 2.021855 g / cm^3
# Si number density = 20.264677 Si / 1000 Ang^3
#
#
#
# Elastic Constant Matrix: (Units=GPa)
#
#
# Indices 1 2 3 4 5 6 
#
# 1 77.0277 18.4120 34.8426 0.0000 0.0000 0.0000
# 2 18.4120 90.4846 35.1299 0.0000 0.0000 0.0000
# 3 34.8426 35.1299 95.2635 0.0000 0.0000 0.0000
# 4 0.0000 0.0000 0.0000 41.5452 0.0000 0.0000
# 5 0.0000 0.0000 0.0000 0.0000 27.5170 0.0000
# 6 0.0000 0.0000 0.0000 0.0000 0.0000 11.8870
#
#
#
# Elastic Compliance Matrix: (Units=1/GPa)
#
#
# Indices 1 2 3 4 5 6 
#
# 1 0.015653 -0.001123 -0.005311 0.000000 0.000000 0.000000
# 2 -0.001123 0.012979 -0.004375 0.000000 0.000000 0.000000
# 3 -0.005311 -0.004375 0.014053 0.000000 0.000000 0.000000
# 4 0.000000 0.000000 0.000000 0.024070 0.000000 0.000000
# 5 0.000000 0.000000 0.000000 0.000000 0.036341 0.000000
# 6 0.000000 0.000000 0.000000 0.000000 0.000000 0.084125
#
#
# Mechanical properties :
#
#
# Convention : Reuss Voigt Hill
#
# Bulk Modulus (GPa) = 47.46944 48.83831 48.15388
# Shear Modulus (GPa) = 23.16284 27.81592 25.48938
#
# Velocity S-wave (km/s) = 3.38452 3.70892 3.55043
# Velocity P-wave (km/s) = 6.22486 6.51874 6.37350
#
# Compressibility (1/GPa) = 0.02106619
#
# Stress axis : x y z
#
# Youngs Moduli (GPa) = 63.88482 77.04842 71.15841
#
# Poissons Ratio (x) = 0.08654 0.37792
# Poissons Ratio (y) = 0.07176 0.31134
# Poissons Ratio (z) = 0.33929 0.33711
#
# Static dielectric constant tensor:
#      x y z
#    x 3.532140 0.000000 0.000000 
#    y 0.000000 3.842570 0.000000 
#    z 0.000000 0.000000 3.759950 
# 
# 
# High freq. dielectric constant tensor:
#      x y z
#    x 1.777840 0.000000 0.000000 
#    y 0.000000 1.794570 0.000000 
#    z 0.000000 0.000000 1.799020 
# 
# From -- ./inp_files/8107.got.cif
#   From: 2010.03.12/outbox.cif.g09.slc.cpg/sg57_5_cif.got.tgz:8107.got - 2010.04.16 15:48:40.
