data_PCOD8231948
_publ_section_title
;
Structure prediction by ZEFSAII (Michael W. Deem and Ramdas Pophale) SiO2 
 PCOD8231948
Probable space group: P B C M
;
_chemical_formula_sum "Si O2"
_cell_formula_units_Z 64
_cell_length_a 11.895370
_cell_length_b 15.342661
_cell_length_c 17.404834
_cell_angle_alpha 90.000000
_cell_angle_beta 90.000000
_cell_angle_gamma 90.000000
_cell_volume 3176.497588
_symmetry_space_group_name_H-M "P B C M"
_symmetry_group_IT_number 57
_symmetry_cell_setting 'orthorhombic'
loop_
_space_group_symop_operation_xyz
x,y,z
-x,-y,1/2+z
x,1/2-y,-z
-x,1/2+y,1/2-z
-x,-y,-z
x,y,1/2-z
-x,1/2+y,z
x,1/2-y,1/2+z
loop_
_atom_site_type_symbol
_atom_site_label
_atom_site_fract_x
_atom_site_fract_y
_atom_site_fract_z
Si Si1 0.893149 0.738330 0.658842
Si Si2 0.255993 0.398128 0.840585
Si Si3 0.851905 0.258602 0.159872
Si Si4 0.501916 0.362172 0.160702
Si Si5 0.724696 0.080305 0.906493
Si Si6 0.255959 0.079898 0.841171
Si Si7 0.493959 0.840535 0.661093
Si Si8 0.723452 0.400911 0.914183
O O1 0.886216 0.737016 0.750000
O O2 0.829909 0.824711 0.629069
O O3 0.831463 0.651841 0.627710
O O4 0.020562 0.738195 0.629067
O O5 0.243234 0.414370 0.750000
O O6 0.225654 0.485832 0.886013
O O7 0.380956 0.367347 0.861602
O O8 0.847530 0.239927 0.250000
O O9 0.792191 0.349653 0.143254
O O10 0.789055 0.181304 0.117800
O O11 0.515675 0.383645 0.250000
O O12 0.593148 0.418406 0.115090
O O13 0.379356 0.390077 0.131842
O O14 0.522581 0.261003 0.143770
O O15 0.738782 0.100226 0.995323
O O16 0.249497 0.069810 0.750000
O O17 0.223218 0.988748 0.879916
O O18 0.468683 0.861566 0.750000
O O19 0.407523 0.895243 0.609452
#
# Coordination Sequence:
#
# PCOD8231948 Si02
#       8
#     8   8   8   8   8   8   8   8
#     4   9  20  40  67  92 112 145 202 257 296 339
#     4  10  20  39  65  93 120 151 194 246 297 351
#     4  11  23  42  65  86 112 153 204 255 296 341
#     4  10  19  35  63  92 119 154 194 239 294 351
#     4  12  25  39  57  88 126 162 196 237 291 356
#     4  10  20  39  65  93 120 151 194 246 297 351
#     4  10  19  35  63  92 119 154 194 239 294 351
#     4  12  25  39  57  88 126 162 196 237 291 356
#
# _framework density 20.147977000000001
#
# number of rings (size 3 to 8) (size 9 to 14) (size 15 to 20)
#    0.000    1.500    2.500    3.375    0.000    5.000 
#    0.000    8.125    0.000    0.000    0.000    0.000 
#    0.000    0.000    0.000    0.000    0.000    0.000 
#
# Total GULP energy -793927.351281 kJ/mol
# GULP energy per Si atom -12405.114864 kJ/mol
# Density = 2.010212 g / cm^3
# Si number density = 20.147977 Si / 1000 Ang^3
#
#
#
# Elastic Constant Matrix: (Units=GPa)
#
#
# Indices 1 2 3 4 5 6 
#
# 1 115.7618 27.6223 15.7583 0.0000 0.0000 0.0000
# 2 27.6223 91.4281 8.5079 0.0000 0.0000 0.0000
# 3 15.7583 8.5079 40.4327 0.0000 0.0000 0.0000
# 4 0.0000 0.0000 0.0000 10.7649 0.0000 0.0000
# 5 0.0000 0.0000 0.0000 0.0000 0.3944 0.0000
# 6 0.0000 0.0000 0.0000 0.0000 0.0000 6.8673
#
#
#
# Elastic Compliance Matrix: (Units=1/GPa)
#
#
# Indices 1 2 3 4 5 6 
#
# 1 0.009706 -0.002632 -0.003229 0.000000 0.000000 0.000000
# 2 -0.002632 0.011870 -0.001472 0.000000 0.000000 0.000000
# 3 -0.003229 -0.001472 0.026301 0.000000 0.000000 0.000000
# 4 0.000000 0.000000 0.000000 0.092895 0.000000 0.000000
# 5 0.000000 0.000000 0.000000 0.000000 2.535759 0.000000
# 6 0.000000 0.000000 0.000000 0.000000 0.000000 0.145617
#
#
# Mechanical properties :
#
#
# Convention : Reuss Voigt Hill
#
# Bulk Modulus (GPa) = 30.11073 39.04439 34.57756
# Shear Modulus (GPa) = 1.75569 16.65426 9.20497
#
# Velocity S-wave (km/s) = 0.93450 2.87818 2.13977
# Velocity P-wave (km/s) = 4.01766 5.51961 4.82741
#
# Compressibility (1/GPa) = 0.03321076
#
# Stress axis : x y z
#
# Youngs Moduli (GPa) = 103.02917 84.24830 38.02185
#
# Poissons Ratio (x) = 0.22173 0.12277
# Poissons Ratio (y) = 0.27116 0.05596
# Poissons Ratio (z) = 0.33268 0.12400
#
# Static dielectric constant tensor:
#      x y z
#    x 3.807020 0.000000 0.000000 
#    y 0.000000 3.833060 0.000000 
#    z 0.000000 0.000000 3.358510 
# 
# 
# High freq. dielectric constant tensor:
#      x y z
#    x 1.786640 0.000000 0.000000 
#    y 0.000000 1.804820 0.000000 
#    z 0.000000 0.000000 1.758960 
# 
# From -- ./inp_files/22075.got.cif
#   From: 2010.03.12/outbox.cif.g09.slc.cpg/sg57_12_cif.got.tgz:22075.got - 2010.04.16 15:48:40.
