data_PCOD8231491
_publ_section_title
;
Structure prediction by ZEFSAII (Michael W. Deem and Ramdas Pophale) SiO2 
 PCOD8231491
Probable space group: P B C M
;
_chemical_formula_sum "Si O2"
_cell_formula_units_Z 48
_cell_length_a 31.226184
_cell_length_b 9.070774
_cell_length_c 8.705718
_cell_angle_alpha 90.000000
_cell_angle_beta 90.000000
_cell_angle_gamma 90.000000
_cell_volume 2465.856823
_symmetry_space_group_name_H-M "P B C M"
_symmetry_group_IT_number 57
_symmetry_cell_setting 'orthorhombic'
loop_
_space_group_symop_operation_xyz
x,y,z
-x,-y,1/2+z
x,1/2-y,-z
-x,1/2+y,1/2-z
-x,-y,-z
x,y,1/2-z
-x,1/2+y,z
x,1/2-y,1/2+z
loop_
_atom_site_type_symbol
_atom_site_label
_atom_site_fract_x
_atom_site_fract_y
_atom_site_fract_z
Si Si1 0.368848 0.589716 0.928957
Si Si2 0.202492 0.090869 0.570493
Si Si3 0.881890 0.087788 0.068403
Si Si4 0.537776 0.409059 0.428058
Si Si5 0.716013 0.086834 0.068189
Si Si6 0.039742 0.412471 0.567127
O O1 0.358140 0.601553 0.750000
O O2 0.415445 0.513371 0.956333
O O3 0.372319 0.750000 0.000000
O O4 0.328761 0.510229 0.012807
O O5 0.194683 0.250000 0.500000
O O6 0.206310 0.114113 0.750000
O O7 0.163629 0.983439 0.528125
O O8 0.245693 0.015662 0.505676
O O9 0.890927 0.092118 0.250000
O O10 0.883012 0.250000 0.000000
O O11 0.917019 0.990639 0.984009
O O12 0.537371 0.250000 0.500000
O O13 0.500000 0.500000 0.500000
O O14 0.528556 0.391900 0.250000
O O15 0.717054 0.098778 0.250000
O O16 0.721021 0.250000 0.000000
O O17 0.039001 0.250000 0.500000
O O18 0.036802 0.406735 0.750000
O O19 0.000000 0.500000 0.500000
#
# Coordination Sequence:
#
# PCOD8231491 Si02
#       6
#     8   8   8   8   8   8
#     4   9  17  30  50  76 103 136 175 219 268 322
#     4  10  23  39  57  82 114 149 187 228 278 333
#     4  11  23  41  63  90 120 154 195 240 287 338
#     4  10  20  34  53  77 106 139 179 223 273 328
#     4  10  19  33  54  81 107 138 179 224 270 323
#     4  12  25  43  65  92 124 160 199 242 290 342
#
# _framework density 19.46585
#
# number of rings (size 3 to 8) (size 9 to 14) (size 15 to 20)
#    0.000    1.667    0.000    6.000    0.000    6.000 
#    0.000    0.833    0.000    2.000    0.000    0.000 
#    0.000    0.000    0.000    0.000    0.000    0.000 
#
# Total GULP energy -595055.585416 kJ/mol
# GULP energy per Si atom -12396.991363 kJ/mol
# Density = 1.942155 g / cm^3
# Si number density = 19.465850 Si / 1000 Ang^3
#
#
#
# Elastic Constant Matrix: (Units=GPa)
#
#
# Indices 1 2 3 4 5 6 
#
# 1 167.2857 66.1092 74.4483 0.0000 0.0000 0.0000
# 2 66.1092 117.6612 53.0317 0.0000 0.0000 0.0000
# 3 74.4483 53.0317 126.3063 0.0000 0.0000 0.0000
# 4 0.0000 0.0000 0.0000 33.1261 0.0000 0.0000
# 5 0.0000 0.0000 0.0000 0.0000 35.8327 0.0000
# 6 0.0000 0.0000 0.0000 0.0000 0.0000 35.9812
#
#
#
# Elastic Compliance Matrix: (Units=1/GPa)
#
#
# Indices 1 2 3 4 5 6 
#
# 1 0.009036 -0.003301 -0.003940 0.000000 0.000000 0.000000
# 2 -0.003301 0.011689 -0.002962 0.000000 0.000000 0.000000
# 3 -0.003940 -0.002962 0.011483 0.000000 0.000000 0.000000
# 4 0.000000 0.000000 0.000000 0.030188 0.000000 0.000000
# 5 0.000000 0.000000 0.000000 0.000000 0.027907 0.000000
# 6 0.000000 0.000000 0.000000 0.000000 0.000000 0.027792
#
#
# Mechanical properties :
#
#
# Convention : Reuss Voigt Hill
#
# Bulk Modulus (GPa) = 84.73296 88.71463 86.72380
# Shear Modulus (GPa) = 35.10378 35.49893 35.30136
#
# Velocity S-wave (km/s) = 4.25120 4.27506 4.26314
# Velocity P-wave (km/s) = 8.22924 8.36908 8.29946
#
# Compressibility (1/GPa) = 0.01180178
#
# Stress axis : x y z
#
# Youngs Moduli (GPa) = 110.67167 85.55264 87.08398
#
# Poissons Ratio (x) = 0.28241 0.34310
# Poissons Ratio (y) = 0.36533 0.25794
# Poissons Ratio (z) = 0.43604 0.25340
#
# Static dielectric constant tensor:
#      x y z
#    x 4.547560 0.000000 0.000000 
#    y 0.000000 3.391640 0.000000 
#    z 0.000000 0.000000 3.734670 
# 
# 
# High freq. dielectric constant tensor:
#      x y z
#    x 1.788180 0.000000 0.000000 
#    y 0.000000 1.735630 0.000000 
#    z 0.000000 0.000000 1.772760 
# 
# From -- ./inp_files/9887.got.cif
#   From: 2010.03.12/outbox.cif.g09.slc.cpg/sg57_5_cif.got.tgz:9887.got - 2010.04.16 15:48:40.
