data_PCOD8231656
_publ_section_title
;
Structure prediction by ZEFSAII (Michael W. Deem and Ramdas Pophale) SiO2 
 PCOD8231656
Probable space group: P B C M
;
_chemical_formula_sum "Si O2"
_cell_formula_units_Z 56
_cell_length_a 19.016979
_cell_length_b 18.523766
_cell_length_c 8.697294
_cell_angle_alpha 90.000000
_cell_angle_beta 90.000000
_cell_angle_gamma 90.000000
_cell_volume 3063.761569
_symmetry_space_group_name_H-M "P B C M"
_symmetry_group_IT_number 57
_symmetry_cell_setting 'orthorhombic'
loop_
_space_group_symop_operation_xyz
x,y,z
-x,-y,1/2+z
x,1/2-y,-z
-x,1/2+y,1/2-z
-x,-y,-z
x,y,1/2-z
-x,1/2+y,z
x,1/2-y,1/2+z
loop_
_atom_site_type_symbol
_atom_site_label
_atom_site_fract_x
_atom_site_fract_y
_atom_site_fract_z
Si Si1 0.375898 0.679063 0.428769
Si Si2 0.964137 0.670950 0.566097
Si Si3 0.849735 0.927662 0.566498
Si Si4 0.757098 0.131549 0.927274
Si Si5 0.280125 0.483568 0.070116
Si Si6 0.902871 0.417392 0.069371
Si Si7 0.429028 0.527028 0.072312
O O1 0.412815 0.750000 0.500000
O O2 0.386891 0.681868 0.250000
O O3 0.292460 0.681633 0.468146
O O4 0.409435 0.605801 0.498116
O O5 0.978382 0.750000 0.500000
O O6 0.961250 0.673893 0.750000
O O7 0.891860 0.640858 0.496885
O O8 0.025688 0.617354 0.504253
O O9 0.843949 0.924333 0.750000
O O10 0.771307 0.920043 0.490004
O O11 0.887425 0.001717 0.505014
O O12 0.742280 0.150304 0.750000
O O13 0.839665 0.139013 0.970535
O O14 0.739643 0.048658 0.958771
O O15 0.266501 0.501480 0.250000
O O16 0.364219 0.470497 0.045619
O O17 0.908637 0.426148 0.250000
O O18 0.443890 0.537191 0.250000
O O19 0.500000 0.500000 0.000000
#
# Coordination Sequence:
#
# PCOD8231656 Si02
#       7
#     8   8   8   8   8   8   8
#     4  10  20  33  48  72 103 138 174 207 246 301
#     4  11  22  36  50  69  99 134 169 214 265 312
#     4  10  19  34  55  77  97 127 171 216 258 305
#     4   9  16  29  48  72 100 130 163 203 245 294
#     4   9  17  31  50  76 103 128 160 201 244 294
#     4   8  17  32  51  74 100 129 168 211 255 304
#     4   9  19  33  52  78 107 134 167 206 249 298
#
# _framework density 18.278184
#
# number of rings (size 3 to 8) (size 9 to 14) (size 15 to 20)
#    0.000    2.571    0.000    4.286    0.000    4.000 
#    0.000    9.286    0.000    0.857    0.000    2.000 
#    0.000    0.000    0.000    0.000    0.000    0.000 
#
# Total GULP energy -693830.814905 kJ/mol
# GULP energy per Si atom -12389.835980 kJ/mol
# Density = 1.823658 g / cm^3
# Si number density = 18.278184 Si / 1000 Ang^3
#
#
#
# Elastic Constant Matrix: (Units=GPa)
#
#
# Indices 1 2 3 4 5 6 
#
# 1 123.7466 35.7338 38.0835 0.0000 0.0000 0.0000
# 2 35.7338 58.0127 20.8033 0.0000 0.0000 0.0000
# 3 38.0835 20.8033 59.2667 0.0000 0.0000 0.0000
# 4 0.0000 0.0000 0.0000 26.5466 0.0000 0.0000
# 5 0.0000 0.0000 0.0000 0.0000 29.0647 0.0000
# 6 0.0000 0.0000 0.0000 0.0000 0.0000 15.8164
#
#
#
# Elastic Compliance Matrix: (Units=1/GPa)
#
#
# Indices 1 2 3 4 5 6 
#
# 1 0.011184 -0.004933 -0.005455 0.000000 0.000000 0.000000
# 2 -0.004933 0.021895 -0.004516 0.000000 0.000000 0.000000
# 3 -0.005455 -0.004516 0.021963 0.000000 0.000000 0.000000
# 4 0.000000 0.000000 0.000000 0.037670 0.000000 0.000000
# 5 0.000000 0.000000 0.000000 0.000000 0.034406 0.000000
# 6 0.000000 0.000000 0.000000 0.000000 0.000000 0.063225
#
#
# Mechanical properties :
#
#
# Convention : Reuss Voigt Hill
#
# Bulk Modulus (GPa) = 39.62714 47.80747 43.71730
# Shear Modulus (GPa) = 21.87571 24.04591 22.96081
#
# Velocity S-wave (km/s) = 3.46326 3.63099 3.54812
# Velocity P-wave (km/s) = 6.14161 6.61748 6.38398
#
# Compressibility (1/GPa) = 0.02523523
#
# Stress axis : x y z
#
# Youngs Moduli (GPa) = 89.41034 45.67160 45.53023
#
# Poissons Ratio (x) = 0.22529 0.24838
# Poissons Ratio (y) = 0.44105 0.20560
# Poissons Ratio (z) = 0.48776 0.20624
#
# Static dielectric constant tensor:
#      x y z
#    x 3.776020 0.000000 0.000000 
#    y 0.000000 3.437770 0.000000 
#    z 0.000000 0.000000 3.276130 
# 
# 
# High freq. dielectric constant tensor:
#      x y z
#    x 1.704300 0.000000 0.000000 
#    y 0.000000 1.677070 0.000000 
#    z 0.000000 0.000000 1.705980 
# 
# From -- ./inp_files/8339.got.cif
#   From: 2010.03.12/outbox.cif.g09.slc.cpg/sg57_5_cif.got.tgz:8339.got - 2010.04.16 15:48:40.
