data_PCOD8231298
_publ_section_title
;
Structure prediction by ZEFSAII (Michael W. Deem and Ramdas Pophale) SiO2 
 PCOD8231298
Probable space group: P B C M
;
_chemical_formula_sum "Si O2"
_cell_formula_units_Z 48
_cell_length_a 9.271916
_cell_length_b 16.607044
_cell_length_c 17.517361
_cell_angle_alpha 90.000000
_cell_angle_beta 90.000000
_cell_angle_gamma 90.000000
_cell_volume 2697.307779
_symmetry_space_group_name_H-M "P B C M"
_symmetry_group_IT_number 57
_symmetry_cell_setting 'orthorhombic'
loop_
_space_group_symop_operation_xyz
x,y,z
-x,-y,1/2+z
x,1/2-y,-z
-x,1/2+y,1/2-z
-x,-y,-z
x,y,1/2-z
-x,1/2+y,z
x,1/2-y,1/2+z
loop_
_atom_site_type_symbol
_atom_site_label
_atom_site_fract_x
_atom_site_fract_y
_atom_site_fract_z
Si Si1 0.563470 0.824574 0.337827
Si Si2 0.342264 0.732187 0.087805
Si Si3 0.154751 0.629636 0.661232
Si Si4 0.840814 0.912544 0.161901
Si Si5 0.336492 0.949872 0.917344
Si Si6 0.389850 0.963405 0.407684
O O1 0.519760 0.843072 0.250000
O O2 0.494182 0.739890 0.364603
O O3 0.735325 0.834672 0.348198
O O4 0.488035 0.884776 0.397145
O O5 0.219725 0.792848 0.118466
O O6 0.287977 0.641094 0.099700
O O7 0.372917 0.750000 0.000000
O O8 0.148151 0.650115 0.750000
O O9 0.250749 0.548631 0.646989
O O10 0.995390 0.612502 0.627746
O O11 0.857495 0.935942 0.250000
O O12 0.778603 0.991641 0.121729
O O13 0.502217 0.962834 0.886784
O O14 0.332731 0.970190 0.006636
#
# Coordination Sequence:
#
# PCOD8231298 Si02
#       6
#     8   8   8   8   8   8
#     4   9  17  33  54  74 102 140 174 207 259 319
#     4  11  19  33  53  81 106 134 174 225 262 310
#     4  10  20  37  56  74 106 148 177 206 261 324
#     4   9  20  36  54  76 105 144 180 209 254 320
#     4  10  19  32  55  79 107 129 174 225 264 297
#     4   9  17  32  53  78 101 135 169 213 260 310
#
# _framework density 17.795521000000001
#
# number of rings (size 3 to 8) (size 9 to 14) (size 15 to 20)
#    0.000    2.333    3.333    2.000    0.000    2.667 
#    0.000    2.500    0.000    4.000    0.000    0.000 
#    0.000    0.000    0.000    0.000    0.000    0.000 
#
# Total GULP energy -594640.338647 kJ/mol
# GULP energy per Si atom -12388.340388 kJ/mol
# Density = 1.775502 g / cm^3
# Si number density = 17.795521 Si / 1000 Ang^3
#
#
#
# Elastic Constant Matrix: (Units=GPa)
#
#
# Indices 1 2 3 4 5 6 
#
# 1 148.8545 53.8792 41.7174 0.0000 0.0000 0.0000
# 2 53.8792 92.9213 30.6125 0.0000 0.0000 0.0000
# 3 41.7174 30.6125 67.8065 0.0000 0.0000 0.0000
# 4 0.0000 0.0000 0.0000 27.2357 0.0000 0.0000
# 5 0.0000 0.0000 0.0000 0.0000 19.6822 0.0000
# 6 0.0000 0.0000 0.0000 0.0000 0.0000 22.1319
#
#
#
# Elastic Compliance Matrix: (Units=1/GPa)
#
#
# Indices 1 2 3 4 5 6 
#
# 1 0.009288 -0.004115 -0.003857 0.000000 0.000000 0.000000
# 2 -0.004115 0.014465 -0.003999 0.000000 0.000000 0.000000
# 3 -0.003857 -0.003999 0.018926 0.000000 0.000000 0.000000
# 4 0.000000 0.000000 0.000000 0.036717 0.000000 0.000000
# 5 0.000000 0.000000 0.000000 0.000000 0.050807 0.000000
# 6 0.000000 0.000000 0.000000 0.000000 0.000000 0.045184
#
#
# Mechanical properties :
#
#
# Convention : Reuss Voigt Hill
#
# Bulk Modulus (GPa) = 53.36668 62.44448 57.90558
# Shear Modulus (GPa) = 24.32208 26.03485 25.17847
#
# Velocity S-wave (km/s) = 3.70097 3.82907 3.76557
# Velocity P-wave (km/s) = 6.95103 7.39697 7.17747
#
# Compressibility (1/GPa) = 0.01873829
#
# Stress axis : x y z
#
# Youngs Moduli (GPa) = 107.66171 69.13094 52.83739
#
# Poissons Ratio (x) = 0.28448 0.20378
# Poissons Ratio (y) = 0.44304 0.21129
# Poissons Ratio (z) = 0.41522 0.27644
#
# Static dielectric constant tensor:
#      x y z
#    x 3.586180 0.000000 0.000000 
#    y 0.000000 3.353950 0.000000 
#    z 0.000000 0.000000 3.293010 
# 
# 
# High freq. dielectric constant tensor:
#      x y z
#    x 1.686300 0.000000 0.000000 
#    y 0.000000 1.663220 0.000000 
#    z 0.000000 0.000000 1.692220 
# 
# From -- ./inp_files/16396.got.cif
#   From: 2010.03.12/outbox.cif.g09.slc.cpg/sg57_9_cif.got.tgz:16396.got - 2010.04.16 15:48:40.
