data_PCOD8231072
_publ_section_title
;
Structure prediction by ZEFSAII (Michael W. Deem and Ramdas Pophale) SiO2 
 PCOD8231072
Probable space group: P B C M
;
_chemical_formula_sum "Si O2"
_cell_formula_units_Z 40
_cell_length_a 10.145931
_cell_length_b 27.880935
_cell_length_c 8.963051
_cell_angle_alpha 90.000000
_cell_angle_beta 90.000000
_cell_angle_gamma 90.000000
_cell_volume 2535.450324
_symmetry_space_group_name_H-M "P B C M"
_symmetry_group_IT_number 57
_symmetry_cell_setting 'orthorhombic'
loop_
_space_group_symop_operation_xyz
x,y,z
-x,-y,1/2+z
x,1/2-y,-z
-x,1/2+y,1/2-z
-x,-y,-z
x,y,1/2-z
-x,1/2+y,z
x,1/2-y,1/2+z
loop_
_atom_site_type_symbol
_atom_site_label
_atom_site_fract_x
_atom_site_fract_y
_atom_site_fract_z
Si Si1 0.877459 0.298653 0.424172
Si Si2 0.648923 0.368215 0.426558
Si Si3 0.393328 0.358235 0.580846
Si Si4 0.532207 0.451165 0.918643
Si Si5 0.177334 0.200309 0.573791
O O1 0.828028 0.250000 0.500000
O O2 0.867063 0.289579 0.250000
O O3 0.784211 0.342394 0.474120
O O4 0.026737 0.311138 0.471361
O O5 0.631432 0.370928 0.250000
O O6 0.525421 0.338548 0.497516
O O7 0.649386 0.422323 0.495113
O O8 0.388939 0.338382 0.750000
O O9 0.402450 0.416622 0.580365
O O10 0.264015 0.342709 0.491629
O O11 0.578013 0.462058 0.750000
O O12 0.500000 0.500000 0.000000
O O13 0.224060 0.250000 0.500000
O O14 0.196635 0.203775 0.750000
#
# Coordination Sequence:
#
# PCOD8231072 Si02
#       5
#     8   8   8   8   8
#     4   9  19  32  48  70  96 129 163 194 233 279
#     4   9  17  31  49  71  97 126 158 197 238 278
#     4   9  19  32  47  72  97 123 160 197 235 281
#     4   9  18  31  50  73  96 121 156 195 241 287
#     4  10  19  32  49  69  96 130 163 195 234 279
#
# _framework density 15.776291000000001
#
# number of rings (size 3 to 8) (size 9 to 14) (size 15 to 20)
#    1.200    1.600    0.000    1.800    0.000    3.200 
#    0.000    2.000    0.000    1.200    0.000    0.000 
#    0.000    0.000    0.000    0.000    0.000    0.000 
#
# Total GULP energy -495649.202710 kJ/mol
# GULP energy per Si atom -12391.230068 kJ/mol
# Density = 1.574038 g / cm^3
# Si number density = 15.776291 Si / 1000 Ang^3
#
#
#
# Elastic Constant Matrix: (Units=GPa)
#
#
# Indices 1 2 3 4 5 6 
#
# 1 77.5559 45.9383 40.9408 0.0000 0.0000 0.0000
# 2 45.9383 83.7567 42.8504 0.0000 0.0000 0.0000
# 3 40.9408 42.8504 98.2381 0.0000 0.0000 0.0000
# 4 0.0000 0.0000 0.0000 29.9815 0.0000 0.0000
# 5 0.0000 0.0000 0.0000 0.0000 21.3363 0.0000
# 6 0.0000 0.0000 0.0000 0.0000 0.0000 13.4136
#
#
#
# Elastic Compliance Matrix: (Units=1/GPa)
#
#
# Indices 1 2 3 4 5 6 
#
# 1 0.020672 -0.008921 -0.004724 0.000000 0.000000 0.000000
# 2 -0.008921 0.019219 -0.004665 0.000000 0.000000 0.000000
# 3 -0.004724 -0.004665 0.014183 0.000000 0.000000 0.000000
# 4 0.000000 0.000000 0.000000 0.033354 0.000000 0.000000
# 5 0.000000 0.000000 0.000000 0.000000 0.046868 0.000000
# 6 0.000000 0.000000 0.000000 0.000000 0.000000 0.074551
#
#
# Mechanical properties :
#
#
# Convention : Reuss Voigt Hill
#
# Bulk Modulus (GPa) = 57.29502 57.66774 57.48138
# Shear Modulus (GPa) = 19.89767 21.60101 20.74934
#
# Velocity S-wave (km/s) = 3.55524 3.70429 3.63053
# Velocity P-wave (km/s) = 7.29719 7.41138 7.35451
#
# Compressibility (1/GPa) = 0.01745352
#
# Stress axis : x y z
#
# Youngs Moduli (GPa) = 48.37518 52.03126 70.50767
#
# Poissons Ratio (x) = 0.46419 0.33305
# Poissons Ratio (y) = 0.43157 0.32894
# Poissons Ratio (z) = 0.22851 0.24274
#
# Static dielectric constant tensor:
#      x y z
#    x 2.919420 0.000000 0.000000 
#    y 0.000000 2.816990 0.000000 
#    z 0.000000 0.000000 3.109440 
# 
# 
# High freq. dielectric constant tensor:
#      x y z
#    x 1.585840 0.000000 0.000000 
#    y 0.000000 1.585540 0.000000 
#    z 0.000000 0.000000 1.625290 
# 
# From -- ./inp_files/1812.got.cif
#   From: 2010.03.12/outbox.cif.g09.slc.cpg/sg57_1_cif.got.tgz:1812.got - 2010.04.16 15:48:40.
