data_PCOD8231943
_publ_section_title
;
Structure prediction by ZEFSAII (Michael W. Deem and Ramdas Pophale) SiO2 
 PCOD8231943
Probable space group: P B C M
;
_chemical_formula_sum "Si O2"
_cell_formula_units_Z 64
_cell_length_a 11.886129
_cell_length_b 30.486657
_cell_length_c 8.703840
_cell_angle_alpha 90.000000
_cell_angle_beta 90.000000
_cell_angle_gamma 90.000000
_cell_volume 3153.996034
_symmetry_space_group_name_H-M "P B C M"
_symmetry_group_IT_number 57
_symmetry_cell_setting 'orthorhombic'
loop_
_space_group_symop_operation_xyz
x,y,z
-x,-y,1/2+z
x,1/2-y,-z
-x,1/2+y,1/2-z
-x,-y,-z
x,y,1/2-z
-x,1/2+y,z
x,1/2-y,1/2+z
loop_
_atom_site_type_symbol
_atom_site_label
_atom_site_fract_x
_atom_site_fract_y
_atom_site_fract_z
Si Si1 0.489130 0.071415 0.074164
Si Si2 0.265927 0.046012 0.571551
Si Si3 0.264754 0.552035 0.430222
Si Si4 0.497002 0.673097 0.425304
Si Si5 0.281687 0.205601 0.569255
Si Si6 0.885733 0.130992 0.430868
Si Si7 0.732981 0.202178 0.931157
Si Si8 0.853708 0.873164 0.571457
O O1 0.478840 0.054933 0.250000
O O2 0.610917 0.060553 0.001194
O O3 0.464675 0.122983 0.065439
O O4 0.397861 0.047135 0.969256
O O5 0.249743 0.057622 0.750000
O O6 0.195829 0.079372 0.468342
O O7 0.221817 0.997013 0.532930
O O8 0.275858 0.559657 0.250000
O O9 0.176329 0.587367 0.495864
O O10 0.482331 0.688638 0.250000
O O11 0.592339 0.702014 0.504519
O O12 0.379966 0.679136 0.511188
O O13 0.227359 0.250000 0.500000
O O14 0.287208 0.209440 0.750000
O O15 0.205880 0.164402 0.525428
O O16 0.865352 0.136826 0.250000
O O17 0.839253 0.173495 0.516983
O O18 0.015899 0.126301 0.471539
O O19 0.729760 0.205831 0.750000
O O20 0.747405 0.250000 0.000000
O O21 0.832256 0.863665 0.750000
#
# Coordination Sequence:
#
# PCOD8231943 Si02
#       8
#     8   8   8   8   8   8   8   8
#     4  10  19  35  62  88 122 162 201 244 301 367
#     4  11  22  36  60  91 127 161 201 251 304 364
#     4   9  19  38  62  90 121 161 201 248 306 361
#     4  11  21  38  65  93 126 163 202 246 301 365
#     4  12  25  42  65  92 125 159 200 251 305 367
#     4  10  22  44  67  86 117 162 211 258 306 359
#     4  12  25  41  64  94 127 161 202 249 304 366
#     4  11  24  42  64  88 119 162 209 256 307 362
#
# _framework density 20.291716999999998
#
# number of rings (size 3 to 8) (size 9 to 14) (size 15 to 20)
#    0.000    1.250    2.500    4.125    0.000    2.500 
#    0.000    1.875    0.000    0.000    0.000    0.000 
#    0.000    0.000    0.000    0.000    0.000    0.000 
#
# Total GULP energy -793917.884323 kJ/mol
# GULP energy per Si atom -12404.966943 kJ/mol
# Density = 2.024553 g / cm^3
# Si number density = 20.291717 Si / 1000 Ang^3
#
#
#
# Elastic Constant Matrix: (Units=GPa)
#
#
# Indices 1 2 3 4 5 6 
#
# 1 96.2716 15.2891 32.5952 0.0000 0.0000 0.0000
# 2 15.2891 70.2445 20.5602 0.0000 0.0000 0.0000
# 3 32.5952 20.5602 91.5914 0.0000 0.0000 0.0000
# 4 0.0000 0.0000 0.0000 27.9503 0.0000 0.0000
# 5 0.0000 0.0000 0.0000 0.0000 22.3175 0.0000
# 6 0.0000 0.0000 0.0000 0.0000 0.0000 13.3018
#
#
#
# Elastic Compliance Matrix: (Units=1/GPa)
#
#
# Indices 1 2 3 4 5 6 
#
# 1 0.011947 -0.001451 -0.003926 0.000000 0.000000 0.000000
# 2 -0.001451 0.015413 -0.002943 0.000000 0.000000 0.000000
# 3 -0.003926 -0.002943 0.012976 0.000000 0.000000 0.000000
# 4 0.000000 0.000000 0.000000 0.035778 0.000000 0.000000
# 5 0.000000 0.000000 0.000000 0.000000 0.044808 0.000000
# 6 0.000000 0.000000 0.000000 0.000000 0.000000 0.075178
#
#
# Mechanical properties :
#
#
# Convention : Reuss Voigt Hill
#
# Bulk Modulus (GPa) = 42.20284 43.88849 43.04566
# Shear Modulus (GPa) = 22.66141 25.35812 24.00977
#
# Velocity S-wave (km/s) = 3.34545 3.53891 3.44354
# Velocity P-wave (km/s) = 5.98046 6.19470 6.08852
#
# Compressibility (1/GPa) = 0.02369509
#
# Stress axis : x y z
#
# Youngs Moduli (GPa) = 83.70329 64.87855 77.06580
#
# Poissons Ratio (x) = 0.09415 0.30255
# Poissons Ratio (y) = 0.12147 0.22684
# Poissons Ratio (z) = 0.32861 0.19097
#
# Static dielectric constant tensor:
#      x y z
#    x 3.694350 0.000000 0.000000 
#    y 0.000000 3.825450 0.000000 
#    z 0.000000 0.000000 3.584210 
# 
# 
# High freq. dielectric constant tensor:
#      x y z
#    x 1.790250 0.000000 0.000000 
#    y 0.000000 1.808400 0.000000 
#    z 0.000000 0.000000 1.784710 
# 
# From -- ./inp_files/3740.got.cif
#   From: 2010.03.12/outbox.cif.g09.slc.cpg/sg57_2_cif.got.tgz:3740.got - 2010.04.16 15:48:40.
