data_PCOD8231411
_publ_section_title
;
Structure prediction by ZEFSAII (Michael W. Deem and Ramdas Pophale) SiO2 
 PCOD8231411
Probable space group: P B C M
;
_chemical_formula_sum "Si O2"
_cell_formula_units_Z 48
_cell_length_a 9.025601
_cell_length_b 16.431669
_cell_length_c 17.296736
_cell_angle_alpha 90.000000
_cell_angle_beta 90.000000
_cell_angle_gamma 90.000000
_cell_volume 2565.204335
_symmetry_space_group_name_H-M "P B C M"
_symmetry_group_IT_number 57
_symmetry_cell_setting 'orthorhombic'
loop_
_space_group_symop_operation_xyz
x,y,z
-x,-y,1/2+z
x,1/2-y,-z
-x,1/2+y,1/2-z
-x,-y,-z
x,y,1/2-z
-x,1/2+y,z
x,1/2-y,1/2+z
loop_
_atom_site_type_symbol
_atom_site_label
_atom_site_fract_x
_atom_site_fract_y
_atom_site_fract_z
Si Si1 0.218581 0.082804 0.096424
Si Si2 0.391336 0.937492 0.159870
Si Si3 0.945774 0.495258 0.836336
Si Si4 0.856258 0.758254 0.409686
Si Si5 0.300258 0.078538 0.917858
Si Si6 0.884076 0.162320 0.834717
O O1 0.223889 0.177247 0.123401
O O2 0.319589 0.027388 0.151837
O O3 0.272817 0.070580 0.008966
O O4 0.046004 0.058704 0.106375
O O5 0.434871 0.926241 0.250000
O O6 0.527999 0.929409 0.102231
O O7 0.275080 0.867400 0.132040
O O8 0.933216 0.456653 0.750000
O O9 0.784066 0.504464 0.874957
O O10 0.013110 0.584129 0.829696
O O11 0.867624 0.750000 0.500000
O O12 0.754940 0.834427 0.385611
O O13 0.027811 0.769262 0.382862
O O14 0.858051 0.199515 0.750000
#
# Coordination Sequence:
#
# PCOD8231411 Si02
#       6
#     8   8   8   8   8   8
#     4  10  19  33  53  78 105 135 174 222 262 301
#     4  10  20  35  53  76 104 138 176 215 259 314
#     4   9  17  31  51  75  99 131 173 214 251 299
#     4   9  19  34  52  76 102 132 172 214 259 308
#     4  10  19  34  54  76 105 141 176 210 259 320
#     4   8  16  31  51  71  96 131 169 203 249 308
#
# _framework density 18.711960000000001
#
# number of rings (size 3 to 8) (size 9 to 14) (size 15 to 20)
#    0.000    2.667    0.000    3.000    0.000    3.333 
#    0.000    4.167    0.000    2.000    0.000    0.000 
#    0.000    0.000    0.000    0.000    0.000    0.000 
#
# Total GULP energy -594800.672214 kJ/mol
# GULP energy per Si atom -12391.680671 kJ/mol
# Density = 1.866937 g / cm^3
# Si number density = 18.711960 Si / 1000 Ang^3
#
#
#
# Elastic Constant Matrix: (Units=GPa)
#
#
# Indices 1 2 3 4 5 6 
#
# 1 114.9908 35.1526 29.0675 0.0000 0.0000 0.0000
# 2 35.1526 75.7738 25.3560 0.0000 0.0000 0.0000
# 3 29.0675 25.3560 52.7021 0.0000 0.0000 0.0000
# 4 0.0000 0.0000 0.0000 12.8354 0.0000 0.0000
# 5 0.0000 0.0000 0.0000 0.0000 22.6348 0.0000
# 6 0.0000 0.0000 0.0000 0.0000 0.0000 21.9323
#
#
#
# Elastic Compliance Matrix: (Units=1/GPa)
#
#
# Indices 1 2 3 4 5 6 
#
# 1 0.010880 -0.003623 -0.004258 0.000000 0.000000 0.000000
# 2 -0.003623 0.016936 -0.006150 0.000000 0.000000 0.000000
# 3 -0.004258 -0.006150 0.024282 0.000000 0.000000 0.000000
# 4 0.000000 0.000000 0.000000 0.077909 0.000000 0.000000
# 5 0.000000 0.000000 0.000000 0.000000 0.044180 0.000000
# 6 0.000000 0.000000 0.000000 0.000000 0.000000 0.045595
#
#
# Mechanical properties :
#
#
# Convention : Reuss Voigt Hill
#
# Bulk Modulus (GPa) = 41.60337 46.95764 44.28050
# Shear Modulus (GPa) = 19.54230 21.73987 20.64109
#
# Velocity S-wave (km/s) = 3.23518 3.41224 3.32489
# Velocity P-wave (km/s) = 6.01972 6.37762 6.20125
#
# Compressibility (1/GPa) = 0.02403651
#
# Stress axis : x y z
#
# Youngs Moduli (GPa) = 91.91086 59.04674 41.18293
#
# Poissons Ratio (x) = 0.21390 0.17535
# Poissons Ratio (y) = 0.33296 0.25328
# Poissons Ratio (z) = 0.39135 0.36314
#
# Static dielectric constant tensor:
#      x y z
#    x 3.424850 0.000000 0.000000 
#    y 0.000000 3.685160 0.000000 
#    z 0.000000 0.000000 3.473010 
# 
# 
# High freq. dielectric constant tensor:
#      x y z
#    x 1.717360 0.000000 0.000000 
#    y 0.000000 1.706890 0.000000 
#    z 0.000000 0.000000 1.725060 
# 
# From -- ./inp_files/16317.got.cif
#   From: 2010.03.12/outbox.cif.g09.slc.cpg/sg57_9_cif.got.tgz:16317.got - 2010.04.16 15:48:40.
