data_PCOD8231138
_publ_section_title
;
Structure prediction by ZEFSAII (Michael W. Deem and Ramdas Pophale) SiO2 
 PCOD8231138
Probable space group: P B C M
;
_chemical_formula_sum "Si O2"
_cell_formula_units_Z 48
_cell_length_a 9.555891
_cell_length_b 30.644936
_cell_length_c 9.115738
_cell_angle_alpha 90.000000
_cell_angle_beta 90.000000
_cell_angle_gamma 90.000000
_cell_volume 2669.449691
_symmetry_space_group_name_H-M "P B C M"
_symmetry_group_IT_number 57
_symmetry_cell_setting 'orthorhombic'
loop_
_space_group_symop_operation_xyz
x,y,z
-x,-y,1/2+z
x,1/2-y,-z
-x,1/2+y,1/2-z
-x,-y,-z
x,y,1/2-z
-x,1/2+y,z
x,1/2-y,1/2+z
loop_
_atom_site_type_symbol
_atom_site_label
_atom_site_fract_x
_atom_site_fract_y
_atom_site_fract_z
Si Si1 0.802444 0.296097 0.422357
Si Si2 0.360979 0.485206 0.921042
Si Si3 0.441975 0.860018 0.417627
Si Si4 0.985032 0.132791 0.076716
Si Si5 0.296950 0.110988 0.077952
Si Si6 0.211379 0.571079 0.919462
O O1 0.806196 0.250000 0.500000
O O2 0.832578 0.291245 0.250000
O O3 0.650803 0.317346 0.451390
O O4 0.922549 0.325985 0.492093
O O5 0.395861 0.483182 0.750000
O O6 0.309745 0.438563 0.982263
O O7 0.236913 0.520056 0.950846
O O8 0.500000 0.500000 0.000000
O O9 0.488928 0.861336 0.250000
O O10 0.582846 0.858212 0.512078
O O11 0.353553 0.903034 0.458921
O O12 0.961187 0.137814 0.250000
O O13 0.147653 0.130642 0.034123
O O14 0.913142 0.087907 0.022824
O O15 0.316940 0.110882 0.250000
O O16 0.171594 0.580453 0.750000
#
# Coordination Sequence:
#
# PCOD8231138 Si02
#       6
#     8   8   8   8   8   8
#     4  10  21  39  62  86 107 133 172 216 264 324
#     4  10  19  32  50  75 107 143 187 233 271 311
#     4   9  18  33  54  79 106 136 173 215 263 317
#     4  10  21  36  53  78 111 146 181 219 268 322
#     4  10  21  34  51  78 111 144 181 224 268 315
#     4   9  18  33  51  74 105 143 186 229 267 310
#
# _framework density 17.981233
#
# number of rings (size 3 to 8) (size 9 to 14) (size 15 to 20)
#    0.000    2.333    1.667    2.000    0.000    6.000 
#    0.000    0.833    0.000    2.000    0.000    0.000 
#    0.000    0.000    0.000    0.000    0.000    0.000 
#
# Total GULP energy -595242.606260 kJ/mol
# GULP energy per Si atom -12400.887630 kJ/mol
# Density = 1.794031 g / cm^3
# Si number density = 17.981233 Si / 1000 Ang^3
#
#
#
# Elastic Constant Matrix: (Units=GPa)
#
#
# Indices 1 2 3 4 5 6 
#
# 1 136.3767 56.1843 66.3008 0.0000 0.0000 0.0000
# 2 56.1843 105.4832 49.5407 0.0000 0.0000 0.0000
# 3 66.3008 49.5407 72.9300 0.0000 0.0000 0.0000
# 4 0.0000 0.0000 0.0000 26.4356 0.0000 0.0000
# 5 0.0000 0.0000 0.0000 0.0000 33.1567 0.0000
# 6 0.0000 0.0000 0.0000 0.0000 0.0000 16.9654
#
#
#
# Elastic Compliance Matrix: (Units=1/GPa)
#
#
# Indices 1 2 3 4 5 6 
#
# 1 0.013446 -0.002087 -0.010806 0.000000 0.000000 0.000000
# 2 -0.002087 0.014245 -0.007780 0.000000 0.000000 0.000000
# 3 -0.010806 -0.007780 0.028821 0.000000 0.000000 0.000000
# 4 0.000000 0.000000 0.000000 0.037828 0.000000 0.000000
# 5 0.000000 0.000000 0.000000 0.000000 0.030160 0.000000
# 6 0.000000 0.000000 0.000000 0.000000 0.000000 0.058944
#
#
# Mechanical properties :
#
#
# Convention : Reuss Voigt Hill
#
# Bulk Modulus (GPa) = 65.93512 73.20462 69.56987
# Shear Modulus (GPa) = 21.75389 24.82912 23.29151
#
# Velocity S-wave (km/s) = 3.48201 3.71999 3.60296
# Velocity P-wave (km/s) = 7.27422 7.69748 7.48884
#
# Compressibility (1/GPa) = 0.01516642
#
# Stress axis : x y z
#
# Youngs Moduli (GPa) = 74.37276 70.19794 34.69740
#
# Poissons Ratio (x) = 0.14647 0.37495
# Poissons Ratio (y) = 0.15518 0.26994
# Poissons Ratio (z) = 0.80369 0.54614
#
# Static dielectric constant tensor:
#      x y z
#    x 3.240730 0.000000 0.000000 
#    y 0.000000 3.380500 0.000000 
#    z 0.000000 0.000000 3.316310 
# 
# 
# High freq. dielectric constant tensor:
#      x y z
#    x 1.688580 0.000000 0.000000 
#    y 0.000000 1.689770 0.000000 
#    z 0.000000 0.000000 1.698300 
# 
# From -- ./inp_files/2007.got.cif
#   From: 2010.03.12/outbox.cif.g09.slc.cpg/sg57_2_cif.got.tgz:2007.got - 2010.04.16 15:48:40.
