data_PCOD8231395
_publ_section_title
;
Structure prediction by ZEFSAII (Michael W. Deem and Ramdas Pophale) SiO2 
 PCOD8231395
Probable space group: P B C M
;
_chemical_formula_sum "Si O2"
_cell_formula_units_Z 56
_cell_length_a 19.309533
_cell_length_b 18.087488
_cell_length_c 8.912364
_cell_angle_alpha 90.000000
_cell_angle_beta 90.000000
_cell_angle_gamma 90.000000
_cell_volume 3112.740686
_symmetry_space_group_name_H-M "P B C M"
_symmetry_group_IT_number 57
_symmetry_cell_setting 'orthorhombic'
loop_
_space_group_symop_operation_xyz
x,y,z
-x,-y,1/2+z
x,1/2-y,-z
-x,1/2+y,1/2-z
-x,-y,-z
x,y,1/2-z
-x,1/2+y,z
x,1/2-y,1/2+z
loop_
_atom_site_type_symbol
_atom_site_label
_atom_site_fract_x
_atom_site_fract_y
_atom_site_fract_z
Si Si1 0.589596 0.829326 0.426093
Si Si2 0.928226 0.522140 0.072702
Si Si3 0.441146 0.827976 0.075970
Si Si4 0.858876 0.825287 0.926115
Si Si5 0.799065 0.047661 0.074354
Si Si6 0.291246 0.669545 0.927692
Si Si7 0.731021 0.895302 0.424529
O O1 0.598377 0.750000 0.500000
O O2 0.594643 0.816607 0.250000
O O3 0.514507 0.867726 0.468163
O O4 0.652173 0.882021 0.479283
O O5 0.931227 0.511101 0.250000
O O6 0.909602 0.606926 0.030323
O O7 0.871897 0.466763 0.004869
O O8 0.000000 0.500000 0.000000
O O9 0.440693 0.811389 0.250000
O O10 0.367717 0.866806 0.034558
O O11 0.442862 0.750000 0.000000
O O12 0.855579 0.813618 0.750000
O O13 0.887818 0.750000 0.000000
O O14 0.781623 0.841581 0.984160
O O15 0.811662 0.059560 0.250000
O O16 0.747066 0.980389 0.040786
O O17 0.767381 0.120673 0.003036
O O18 0.278454 0.674423 0.750000
O O19 0.285924 0.750000 0.000000
O O20 0.741833 0.876974 0.250000
#
# Coordination Sequence:
#
# PCOD8231395 Si02
#       7
#     8   8   8   8   8   8   8
#     4   9  16  27  43  66  95 129 169 211 253 297
#     4  10  21  38  59  82 107 137 170 206 250 302
#     4   8  15  27  44  65  92 126 165 209 256 301
#     4  10  20  33  52  78 107 137 171 207 245 292
#     4  10  20  35  54  76 102 133 167 204 249 304
#     4  10  19  33  53  75  98 128 168 215 261 305
#     4   9  18  31  48  70 100 136 171 208 251 297
#
# _framework density 17.990576000000001
#
# number of rings (size 3 to 8) (size 9 to 14) (size 15 to 20)
#    0.000    2.571    0.000    2.143    0.000    4.571 
#    0.000    1.429    0.000    1.714    0.000    0.000 
#    0.000    0.000    0.000    0.000    0.000    0.000 
#
# Total GULP energy -693924.409912 kJ/mol
# GULP energy per Si atom -12391.507320 kJ/mol
# Density = 1.794963 g / cm^3
# Si number density = 17.990576 Si / 1000 Ang^3
#
#
#
# Elastic Constant Matrix: (Units=GPa)
#
#
# Indices 1 2 3 4 5 6 
#
# 1 169.4738 73.4696 59.7740 0.0000 0.0000 0.0000
# 2 73.4696 84.9315 41.5426 0.0000 0.0000 0.0000
# 3 59.7740 41.5426 70.2074 0.0000 0.0000 0.0000
# 4 0.0000 0.0000 0.0000 27.0955 0.0000 0.0000
# 5 0.0000 0.0000 0.0000 0.0000 25.9542 0.0000
# 6 0.0000 0.0000 0.0000 0.0000 0.0000 18.4448
#
#
#
# Elastic Compliance Matrix: (Units=1/GPa)
#
#
# Indices 1 2 3 4 5 6 
#
# 1 0.010579 -0.006679 -0.005055 0.000000 0.000000 0.000000
# 2 -0.006679 0.020786 -0.006613 0.000000 0.000000 0.000000
# 3 -0.005055 -0.006613 0.022460 0.000000 0.000000 0.000000
# 4 0.000000 0.000000 0.000000 0.036907 0.000000 0.000000
# 5 0.000000 0.000000 0.000000 0.000000 0.038529 0.000000
# 6 0.000000 0.000000 0.000000 0.000000 0.000000 0.054216
#
#
# Mechanical properties :
#
#
# Convention : Reuss Voigt Hill
#
# Bulk Modulus (GPa) = 58.37120 74.90947 66.64033
# Shear Modulus (GPa) = 22.13548 24.28732 23.21140
#
# Velocity S-wave (km/s) = 3.51150 3.67822 3.59583
# Velocity P-wave (km/s) = 6.99691 7.73096 7.37307
#
# Compressibility (1/GPa) = 0.01713174
#
# Stress axis : x y z
#
# Youngs Moduli (GPa) = 94.52879 48.10848 44.52281
#
# Poissons Ratio (x) = 0.32130 0.22506
# Poissons Ratio (y) = 0.63132 0.29445
# Poissons Ratio (z) = 0.47783 0.31816
#
# Static dielectric constant tensor:
#      x y z
#    x 3.649710 0.000000 0.000000 
#    y 0.000000 3.107150 0.000000 
#    z 0.000000 0.000000 3.328320 
# 
# 
# High freq. dielectric constant tensor:
#      x y z
#    x 1.705450 0.000000 0.000000 
#    y 0.000000 1.668330 0.000000 
#    z 0.000000 0.000000 1.705620 
# 
# From -- ./inp_files/8047.got.cif
#   From: 2010.03.12/outbox.cif.g09.slc.cpg/sg57_5_cif.got.tgz:8047.got - 2010.04.16 15:48:40.
