data_PCOD8231257
_publ_section_title
;
Structure prediction by ZEFSAII (Michael W. Deem and Ramdas Pophale) SiO2 
 PCOD8231257
Probable space group: P B C M
;
_chemical_formula_sum "Si O2"
_cell_formula_units_Z 48
_cell_length_a 9.313572
_cell_length_b 18.656691
_cell_length_c 15.109608
_cell_angle_alpha 90.000000
_cell_angle_beta 90.000000
_cell_angle_gamma 90.000000
_cell_volume 2625.452057
_symmetry_space_group_name_H-M "P B C M"
_symmetry_group_IT_number 57
_symmetry_cell_setting 'orthorhombic'
loop_
_space_group_symop_operation_xyz
x,y,z
-x,-y,1/2+z
x,1/2-y,-z
-x,1/2+y,1/2-z
-x,-y,-z
x,y,1/2-z
-x,1/2+y,z
x,1/2-y,1/2+z
loop_
_atom_site_type_symbol
_atom_site_label
_atom_site_fract_x
_atom_site_fract_y
_atom_site_fract_z
Si Si1 0.331283 0.318966 0.646692
Si Si2 0.839945 0.919029 0.516858
Si Si3 0.827444 0.420216 0.988540
Si Si4 0.341286 0.833716 0.649571
Si Si5 0.863143 0.286970 0.091961
Si Si6 0.165911 0.177140 0.650802
O O1 0.309260 0.336283 0.750000
O O2 0.245520 0.377758 0.591858
O O3 0.496655 0.321197 0.617653
O O4 0.274509 0.240034 0.623589
O O5 0.814843 0.886728 0.419061
O O6 0.007159 0.916640 0.542429
O O7 0.782650 0.000290 0.517220
O O8 0.801837 0.366531 0.071344
O O9 0.729348 0.396794 0.906781
O O10 0.336745 0.859921 0.750000
O O11 0.258568 0.758269 0.640886
O O12 0.004635 0.291395 0.151613
O O13 0.909143 0.250000 0.000000
O O14 0.199456 0.148645 0.750000
#
# Coordination Sequence:
#
# PCOD8231257 Si02
#       6
#     8   8   8   8   8   8
#     4  10  21  35  52  77 105 137 176 214 257 306
#     4  10  20  36  54  76 107 139 171 213 259 308
#     4   9  20  35  52  76 104 135 174 210 257 311
#     4  10  20  34  53  77 104 134 172 215 257 306
#     4   9  17  32  53  75  99 132 171 212 259 308
#     4  10  19  32  53  78 102 132 173 217 260 307
#
# _framework density 18.282565000000002
#
# number of rings (size 3 to 8) (size 9 to 14) (size 15 to 20)
#    0.000    2.333    0.000    4.000    0.000    7.333 
#    0.000    7.500    0.000    4.000    0.000    0.000 
#    0.000    0.000    0.000    0.000    0.000    0.000 
#
# Total GULP energy -595272.746744 kJ/mol
# GULP energy per Si atom -12401.515557 kJ/mol
# Density = 1.824095 g / cm^3
# Si number density = 18.282565 Si / 1000 Ang^3
#
#
#
# Elastic Constant Matrix: (Units=GPa)
#
#
# Indices 1 2 3 4 5 6 
#
# 1 82.0762 31.3506 30.7886 0.0000 0.0000 0.0000
# 2 31.3506 108.7223 35.6032 0.0000 0.0000 0.0000
# 3 30.7886 35.6032 65.9778 0.0000 0.0000 0.0000
# 4 0.0000 0.0000 0.0000 18.0600 0.0000 0.0000
# 5 0.0000 0.0000 0.0000 0.0000 29.6638 0.0000
# 6 0.0000 0.0000 0.0000 0.0000 0.0000 9.5619
#
#
#
# Elastic Compliance Matrix: (Units=1/GPa)
#
#
# Indices 1 2 3 4 5 6 
#
# 1 0.015318 -0.002522 -0.005787 0.000000 0.000000 0.000000
# 2 -0.002522 0.011587 -0.005076 0.000000 0.000000 0.000000
# 3 -0.005787 -0.005076 0.020596 0.000000 0.000000 0.000000
# 4 0.000000 0.000000 0.000000 0.055371 0.000000 0.000000
# 5 0.000000 0.000000 0.000000 0.000000 0.033711 0.000000
# 6 0.000000 0.000000 0.000000 0.000000 0.000000 0.104581
#
#
# Mechanical properties :
#
#
# Convention : Reuss Voigt Hill
#
# Bulk Modulus (GPa) = 48.23598 50.25120 49.24359
# Shear Modulus (GPa) = 18.19203 22.05940 20.12571
#
# Velocity S-wave (km/s) = 3.15786 3.47736 3.32145
# Velocity P-wave (km/s) = 6.30373 6.60819 6.45775
#
# Compressibility (1/GPa) = 0.02073141
#
# Stress axis : x y z
#
# Youngs Moduli (GPa) = 65.28261 86.30269 48.55233
#
# Poissons Ratio (x) = 0.21764 0.28099
# Poissons Ratio (y) = 0.16463 0.24644
# Poissons Ratio (z) = 0.37781 0.43806
#
# Static dielectric constant tensor:
#      x y z
#    x 3.384720 0.000000 0.000000 
#    y 0.000000 3.460910 0.000000 
#    z 0.000000 0.000000 3.270300 
# 
# 
# High freq. dielectric constant tensor:
#      x y z
#    x 1.706650 0.000000 0.000000 
#    y 0.000000 1.704610 0.000000 
#    z 0.000000 0.000000 1.706150 
# 
# From -- ./inp_files/16375.got.cif
#   From: 2010.03.12/outbox.cif.g09.slc.cpg/sg57_9_cif.got.tgz:16375.got - 2010.04.16 15:48:40.
