data_PCOD8231516
_publ_section_title
;
Structure prediction by ZEFSAII (Michael W. Deem and Ramdas Pophale) SiO2 
 PCOD8231516
Probable space group: P B C M
;
_chemical_formula_sum "Si O2"
_cell_formula_units_Z 56
_cell_length_a 21.012370
_cell_length_b 15.461856
_cell_length_c 8.853749
_cell_angle_alpha 90.000000
_cell_angle_beta 90.000000
_cell_angle_gamma 90.000000
_cell_volume 2876.496630
_symmetry_space_group_name_H-M "P B C M"
_symmetry_group_IT_number 57
_symmetry_cell_setting 'orthorhombic'
loop_
_space_group_symop_operation_xyz
x,y,z
-x,-y,1/2+z
x,1/2-y,-z
-x,1/2+y,1/2-z
-x,-y,-z
x,y,1/2-z
-x,1/2+y,z
x,1/2-y,1/2+z
loop_
_atom_site_type_symbol
_atom_site_label
_atom_site_fract_x
_atom_site_fract_y
_atom_site_fract_z
Si Si1 0.991610 0.592315 0.072871
Si Si2 0.144434 0.158998 0.070536
Si Si3 0.593989 0.837993 0.427595
Si Si4 0.469339 0.580054 0.577471
Si Si5 0.874990 0.162436 0.073251
Si Si6 0.656620 0.006170 0.571590
Si Si7 0.789583 0.002967 0.071009
O O1 0.989387 0.577021 0.250000
O O2 0.927246 0.637677 0.015229
O O3 0.051222 0.651796 0.026319
O O4 0.000000 0.500000 0.000000
O O5 0.149535 0.164065 0.250000
O O6 0.165554 0.250000 0.000000
O O7 0.191874 0.086073 0.009889
O O8 0.620163 0.750000 0.500000
O O9 0.610515 0.842006 0.250000
O O10 0.516464 0.839246 0.454861
O O11 0.629126 0.915284 0.513251
O O12 0.500000 0.500000 0.500000
O O13 0.471293 0.554880 0.750000
O O14 0.394276 0.584184 0.532585
O O15 0.865798 0.171654 0.250000
O O16 0.836425 0.078989 0.014925
O O17 0.847977 0.250000 0.000000
O O18 0.671106 0.999720 0.750000
O O19 0.719464 0.030497 0.480148
O O20 0.792989 0.989783 0.250000
#
# Coordination Sequence:
#
# PCOD8231516 Si02
#       7
#     8   8   8   8   8   8   8
#     4  10  20  36  59  87 115 147 186 234 291 346
#     4  11  23  38  59  86 116 152 192 237 291 348
#     4  10  19  33  54  83 114 144 180 223 275 328
#     4   8  16  31  52  76 103 134 170 214 259 311
#     4  10  22  39  60  85 113 147 189 237 289 342
#     4  10  20  36  57  80 108 145 187 227 275 332
#     4  11  23  40  59  82 116 154 195 241 287 341
#
# _framework density 19.468126000000002
#
# number of rings (size 3 to 8) (size 9 to 14) (size 15 to 20)
#    0.000    2.000    1.429    2.143    0.000    4.000 
#    0.000    3.571    0.000    3.429    0.000    0.000 
#    0.000    0.000    0.000    0.000    0.000    0.000 
#
# Total GULP energy -694055.274856 kJ/mol
# GULP energy per Si atom -12393.844194 kJ/mol
# Density = 1.942382 g / cm^3
# Si number density = 19.468126 Si / 1000 Ang^3
#
#
#
# Elastic Constant Matrix: (Units=GPa)
#
#
# Indices 1 2 3 4 5 6 
#
# 1 89.4228 5.5905 22.4029 0.0000 0.0000 0.0000
# 2 5.5905 77.7410 23.5022 0.0000 0.0000 0.0000
# 3 22.4029 23.5022 49.8059 0.0000 0.0000 0.0000
# 4 0.0000 0.0000 0.0000 30.8943 0.0000 0.0000
# 5 0.0000 0.0000 0.0000 0.0000 29.6351 0.0000
# 6 0.0000 0.0000 0.0000 0.0000 0.0000 19.2519
#
#
#
# Elastic Compliance Matrix: (Units=1/GPa)
#
#
# Indices 1 2 3 4 5 6 
#
# 1 0.012662 0.000946 -0.006142 0.000000 0.000000 0.000000
# 2 0.000946 0.015074 -0.007539 0.000000 0.000000 0.000000
# 3 -0.006142 -0.007539 0.026398 0.000000 0.000000 0.000000
# 4 0.000000 0.000000 0.000000 0.032368 0.000000 0.000000
# 5 0.000000 0.000000 0.000000 0.000000 0.033744 0.000000
# 6 0.000000 0.000000 0.000000 0.000000 0.000000 0.051943
#
#
# Mechanical properties :
#
#
# Convention : Reuss Voigt Hill
#
# Bulk Modulus (GPa) = 34.88524 35.55123 35.21824
# Shear Modulus (GPa) = 24.12958 26.98786 25.55872
#
# Velocity S-wave (km/s) = 3.52439 3.72729 3.62726
# Velocity P-wave (km/s) = 5.87536 6.06832 5.97262
#
# Compressibility (1/GPa) = 0.02866542
#
# Stress axis : x y z
#
# Youngs Moduli (GPa) = 78.97375 66.33816 37.88156
#
# Poissons Ratio (x) = -0.06277 0.23267
# Poissons Ratio (y) = -0.07473 0.28558
# Poissons Ratio (z) = 0.48507 0.50011
#
# Static dielectric constant tensor:
#      x y z
#    x 4.010200 0.000000 0.000000 
#    y 0.000000 3.558850 0.000000 
#    z 0.000000 0.000000 3.672960 
# 
# 
# High freq. dielectric constant tensor:
#      x y z
#    x 1.763910 0.000000 0.000000 
#    y 0.000000 1.743750 0.000000 
#    z 0.000000 0.000000 1.762960 
# 
# From -- ./inp_files/8142.got.cif
#   From: 2010.03.12/outbox.cif.g09.slc.cpg/sg57_5_cif.got.tgz:8142.got - 2010.04.16 15:48:40.
