data_PCOD8231031
_publ_section_title
;
Structure prediction by ZEFSAII (Michael W. Deem and Ramdas Pophale) SiO2 
 PCOD8231031
Probable space group: P B C M
;
_chemical_formula_sum "Si O2"
_cell_formula_units_Z 40
_cell_length_a 12.418225
_cell_length_b 20.640799
_cell_length_c 8.779774
_cell_angle_alpha 90.000000
_cell_angle_beta 90.000000
_cell_angle_gamma 90.000000
_cell_volume 2250.449988
_symmetry_space_group_name_H-M "P B C M"
_symmetry_group_IT_number 57
_symmetry_cell_setting 'orthorhombic'
loop_
_space_group_symop_operation_xyz
x,y,z
-x,-y,1/2+z
x,1/2-y,-z
-x,1/2+y,1/2-z
-x,-y,-z
x,y,1/2-z
-x,1/2+y,z
x,1/2-y,1/2+z
loop_
_atom_site_type_symbol
_atom_site_label
_atom_site_fract_x
_atom_site_fract_y
_atom_site_fract_z
Si Si1 0.080153 0.910087 0.574351
Si Si2 0.650077 0.543080 0.426637
Si Si3 0.134473 0.059489 0.925787
Si Si4 0.743702 0.180227 0.929447
Si Si5 0.581607 0.089627 0.426056
O O1 0.082534 0.889124 0.750000
O O2 0.158226 0.865100 0.478116
O O3 0.959735 0.901309 0.510262
O O4 0.118635 0.983227 0.551413
O O5 0.669270 0.527310 0.250000
O O6 0.752709 0.579862 0.496988
O O7 0.633921 0.476009 0.513406
O O8 0.546952 0.589417 0.450199
O O9 0.135057 0.079666 0.750000
O O10 0.740563 0.186374 0.750000
O O11 0.761801 0.250000 0.000000
O O12 0.630205 0.150899 0.986080
O O13 0.613786 0.095189 0.250000
#
# Coordination Sequence:
#
# PCOD8231031 Si02
#       5
#     8   8   8   8   8
#     4  10  20  34  52  77 109 141 179 221 266 319
#     4  10  19  31  52  79 110 143 174 218 271 321
#     4  10  19  31  52  79 111 143 174 219 270 321
#     4  12  24  38  57  78 107 144 183 223 266 316
#     4  10  20  34  51  77 109 141 180 220 265 318
#
# _framework density 17.774222000000002
#
# number of rings (size 3 to 8) (size 9 to 14) (size 15 to 20)
#    0.000    1.600    2.000    4.200    0.000    4.000 
#    0.000    0.000    0.000    1.200    0.000    2.800 
#    0.000    0.000    0.000    0.000    0.000    0.000 
#
# Total GULP energy -496156.463328 kJ/mol
# GULP energy per Si atom -12403.911583 kJ/mol
# Density = 1.773377 g / cm^3
# Si number density = 17.774222 Si / 1000 Ang^3
#
#
#
# Elastic Constant Matrix: (Units=GPa)
#
#
# Indices 1 2 3 4 5 6 
#
# 1 123.0897 12.6189 55.4146 0.0000 0.0000 0.0000
# 2 12.6189 38.9352 30.9524 0.0000 0.0000 0.0000
# 3 55.4146 30.9524 144.4946 0.0000 0.0000 0.0000
# 4 0.0000 0.0000 0.0000 26.4559 0.0000 0.0000
# 5 0.0000 0.0000 0.0000 0.0000 35.3198 0.0000
# 6 0.0000 0.0000 0.0000 0.0000 0.0000 10.4862
#
#
#
# Elastic Compliance Matrix: (Units=1/GPa)
#
#
# Indices 1 2 3 4 5 6 
#
# 1 0.009821 -0.000228 -0.003718 0.000000 0.000000 0.000000
# 2 -0.000228 0.030960 -0.006545 0.000000 0.000000 0.000000
# 3 -0.003718 -0.006545 0.009748 0.000000 0.000000 0.000000
# 4 0.000000 0.000000 0.000000 0.037799 0.000000 0.000000
# 5 0.000000 0.000000 0.000000 0.000000 0.028313 0.000000
# 6 0.000000 0.000000 0.000000 0.000000 0.000000 0.095363
#
#
# Mechanical properties :
#
#
# Convention : Reuss Voigt Hill
#
# Bulk Modulus (GPa) = 33.84114 56.05460 44.94787
# Shear Modulus (GPa) = 20.59014 28.28797 24.43906
#
# Velocity S-wave (km/s) = 3.40726 3.99371 3.71208
# Velocity P-wave (km/s) = 5.87878 7.27130 6.61180
#
# Compressibility (1/GPa) = 0.02954983
#
# Stress axis : x y z
#
# Youngs Moduli (GPa) = 101.82052 32.29929 102.58065
#
# Poissons Ratio (x) = 0.00735 0.38137
# Poissons Ratio (y) = 0.02317 0.67137
# Poissons Ratio (z) = 0.37854 0.21139
#
# Static dielectric constant tensor:
#      x y z
#    x 3.595690 0.000000 0.000000 
#    y 0.000000 2.826570 0.000000 
#    z 0.000000 0.000000 3.501890 
# 
# 
# High freq. dielectric constant tensor:
#      x y z
#    x 1.705150 0.000000 0.000000 
#    y 0.000000 1.636360 0.000000 
#    z 0.000000 0.000000 1.710650 
# 
# From -- ./inp_files/2657.got.cif
#   From: 2010.03.12/outbox.cif.g09.slc.cpg/sg57_2_cif.got.tgz:2657.got - 2010.04.16 15:48:40.
