data_PCOD8231796
_publ_section_title
;
Structure prediction by ZEFSAII (Michael W. Deem and Ramdas Pophale) SiO2 
 PCOD8231796
Probable space group: P B C M
;
_chemical_formula_sum "Si O2"
_cell_formula_units_Z 56
_cell_length_a 10.114562
_cell_length_b 18.907272
_cell_length_c 14.715668
_cell_angle_alpha 90.000000
_cell_angle_beta 90.000000
_cell_angle_gamma 90.000000
_cell_volume 2814.206320
_symmetry_space_group_name_H-M "P B C M"
_symmetry_group_IT_number 57
_symmetry_cell_setting 'orthorhombic'
loop_
_space_group_symop_operation_xyz
x,y,z
-x,-y,1/2+z
x,1/2-y,-z
-x,1/2+y,1/2-z
-x,-y,-z
x,y,1/2-z
-x,1/2+y,z
x,1/2-y,1/2+z
loop_
_atom_site_type_symbol
_atom_site_label
_atom_site_fract_x
_atom_site_fract_y
_atom_site_fract_z
Si Si1 0.820946 0.889982 0.959262
Si Si2 0.067306 0.134384 0.850103
Si Si3 0.593323 0.366307 0.352000
Si Si4 0.678283 0.209552 0.351362
Si Si5 0.965483 0.220017 0.402697
Si Si6 0.549995 0.829975 0.520059
Si Si7 0.828850 0.469669 0.147320
O O1 0.673102 0.867095 0.930017
O O2 0.926818 0.841681 0.907880
O O3 0.845291 0.969588 0.927283
O O4 0.829590 0.881266 0.068946
O O5 0.126085 0.114638 0.750000
O O6 0.025713 0.216514 0.843440
O O7 0.938762 0.088570 0.872372
O O8 0.533533 0.366141 0.250000
O O9 0.671988 0.293395 0.370883
O O10 0.476466 0.371338 0.425553
O O11 0.688025 0.432767 0.365804
O O12 0.630671 0.191429 0.250000
O O13 0.831233 0.186820 0.361709
O O14 0.581467 0.166360 0.417935
O O15 0.927162 0.250000 0.500000
O O16 0.593310 0.750000 0.500000
O O17 0.841284 0.499972 0.250000
#
# Coordination Sequence:
#
# PCOD8231796 Si02
#       7
#     8   8   8   8   8   8   8
#     4  11  24  37  57  90 127 154 179 233 309 353
#     4  10  20  37  61  85 114 153 201 241 276 338
#     4   9  18  35  62  84 105 150 206 242 272 332
#     4  10  19  34  59  86 111 146 197 246 281 328
#     4  10  19  34  60  88 113 148 195 242 284 336
#     4  10  21  37  56  85 119 149 186 237 292 344
#     4  10  21  38  59  83 112 154 200 240 287 342
#
# _framework density 19.899038999999998
#
# number of rings (size 3 to 8) (size 9 to 14) (size 15 to 20)
#    0.000    2.000    1.429    3.429    2.000    2.857 
#    0.000    2.857    0.000    0.000    0.000    0.000 
#    0.000    0.000    0.000    0.000    0.000    0.000 
#
# Total GULP energy -694373.165086 kJ/mol
# GULP energy per Si atom -12399.520805 kJ/mol
# Density = 1.985375 g / cm^3
# Si number density = 19.899039 Si / 1000 Ang^3
#
#
#
# Elastic Constant Matrix: (Units=GPa)
#
#
# Indices 1 2 3 4 5 6 
#
# 1 93.3626 33.6635 35.6964 0.0000 0.0000 0.0000
# 2 33.6635 84.1752 40.9555 0.0000 0.0000 0.0000
# 3 35.6964 40.9555 95.1929 0.0000 0.0000 0.0000
# 4 0.0000 0.0000 0.0000 23.4472 0.0000 0.0000
# 5 0.0000 0.0000 0.0000 0.0000 19.3363 0.0000
# 6 0.0000 0.0000 0.0000 0.0000 0.0000 20.8888
#
#
#
# Elastic Compliance Matrix: (Units=1/GPa)
#
#
# Indices 1 2 3 4 5 6 
#
# 1 0.013344 -0.003670 -0.003425 0.000000 0.000000 0.000000
# 2 -0.003670 0.016035 -0.005522 0.000000 0.000000 0.000000
# 3 -0.003425 -0.005522 0.014165 0.000000 0.000000 0.000000
# 4 0.000000 0.000000 0.000000 0.042649 0.000000 0.000000
# 5 0.000000 0.000000 0.000000 0.000000 0.051716 0.000000
# 6 0.000000 0.000000 0.000000 0.000000 0.000000 0.047873
#
#
# Mechanical properties :
#
#
# Convention : Reuss Voigt Hill
#
# Bulk Modulus (GPa) = 54.61811 54.81795 54.71803
# Shear Modulus (GPa) = 23.02885 23.56214 23.29550
#
# Velocity S-wave (km/s) = 3.40558 3.44479 3.42524
# Velocity P-wave (km/s) = 6.55524 6.59014 6.57271
#
# Compressibility (1/GPa) = 0.01830895
#
# Stress axis : x y z
#
# Youngs Moduli (GPa) = 74.94199 62.36478 70.59558
#
# Poissons Ratio (x) = 0.22889 0.24177
# Poissons Ratio (y) = 0.27505 0.38986
# Poissons Ratio (z) = 0.25666 0.34441
#
# Static dielectric constant tensor:
#      x y z
#    x 3.436850 0.000000 0.000000 
#    y 0.000000 3.353330 0.000000 
#    z 0.000000 0.000000 3.760680 
# 
# 
# High freq. dielectric constant tensor:
#      x y z
#    x 1.766130 0.000000 0.000000 
#    y 0.000000 1.748930 0.000000 
#    z 0.000000 0.000000 1.784820 
# 
# From -- ./inp_files/16713.got.cif
#   From: 2010.03.12/outbox.cif.g09.slc.cpg/sg57_9_cif.got.tgz:16713.got - 2010.04.16 15:48:40.
