data_PCOD8231623
_publ_section_title
;
Structure prediction by ZEFSAII (Michael W. Deem and Ramdas Pophale) SiO2 
 PCOD8231623
Probable space group: P B C M
;
_chemical_formula_sum "Si O2"
_cell_formula_units_Z 64
_cell_length_a 21.731562
_cell_length_b 19.405949
_cell_length_c 9.057811
_cell_angle_alpha 90.000000
_cell_angle_beta 90.000000
_cell_angle_gamma 90.000000
_cell_volume 3819.874401
_symmetry_space_group_name_H-M "P B C M"
_symmetry_group_IT_number 57
_symmetry_cell_setting 'orthorhombic'
loop_
_space_group_symop_operation_xyz
x,y,z
-x,-y,1/2+z
x,1/2-y,-z
-x,1/2+y,1/2-z
-x,-y,-z
x,y,1/2-z
-x,1/2+y,z
x,1/2-y,1/2+z
loop_
_atom_site_type_symbol
_atom_site_label
_atom_site_fract_x
_atom_site_fract_y
_atom_site_fract_z
Si Si1 0.699196 0.538572 0.576253
Si Si2 0.974308 0.319684 0.575665
Si Si3 0.634044 0.820296 0.080967
Si Si4 0.946092 0.456794 0.076096
Si Si5 0.117019 0.317139 0.578664
Si Si6 0.175025 0.457231 0.578335
Si Si7 0.406109 0.525304 0.918252
Si Si8 0.524786 0.590617 0.581081
O O1 0.702108 0.534818 0.750000
O O2 0.673948 0.613755 0.523467
O O3 0.765685 0.520698 0.512643
O O4 0.654319 0.477019 0.520285
O O5 0.949635 0.250000 0.500000
O O6 0.960881 0.318413 0.750000
O O7 0.939406 0.382326 0.498045
O O8 0.046016 0.329613 0.539593
O O9 0.650074 0.807064 0.250000
O O10 0.560858 0.836925 0.058153
O O11 0.652498 0.750000 0.000000
O O12 0.960611 0.451663 0.250000
O O13 0.880633 0.491396 0.046274
O O14 0.000000 0.500000 0.000000
O O15 0.143956 0.250000 0.500000
O O16 0.125585 0.305419 0.750000
O O17 0.155332 0.381916 0.521616
O O18 0.191824 0.456024 0.750000
O O19 0.383954 0.518889 0.750000
O O20 0.450032 0.593633 0.939787
O O21 0.449252 0.461123 0.959151
O O22 0.539342 0.565015 0.750000
#
# Coordination Sequence:
#
# PCOD8231623 Si02
#       8
#     8   8   8   8   8   8   8   8
#     4  10  21  34  46  65  94 127 165 205 244 289
#     4  10  19  34  53  77 103 130 163 202 253 311
#     4   9  18  31  45  65  96 130 164 199 231 274
#     4  11  21  35  54  77 104 133 166 214 268 319
#     4   9  18  32  47  67  95 127 163 204 244 295
#     4  10  21  36  50  69  98 131 172 213 255 308
#     4   9  15  26  46  67  88 117 150 189 238 281
#     4   8  15  27  43  66  93 118 150 192 233 273
#
# _framework density 16.754477000000001
#
# number of rings (size 3 to 8) (size 9 to 14) (size 15 to 20)
#    0.000    2.500    1.250    2.250    0.000    5.500 
#    0.000    2.500    0.000    0.000    0.000    0.875 
#    0.000    2.000    0.000    0.000    0.000    0.000 
#
# Total GULP energy -793148.536277 kJ/mol
# GULP energy per Si atom -12392.945879 kJ/mol
# Density = 1.671634 g / cm^3
# Si number density = 16.754477 Si / 1000 Ang^3
#
#
#
# Elastic Constant Matrix: (Units=GPa)
#
#
# Indices 1 2 3 4 5 6 
#
# 1 96.9401 41.0704 48.8687 0.0000 0.0000 0.0000
# 2 41.0704 65.2908 35.7278 0.0000 0.0000 0.0000
# 3 48.8687 35.7278 70.6018 0.0000 0.0000 0.0000
# 4 0.0000 0.0000 0.0000 26.7209 0.0000 0.0000
# 5 0.0000 0.0000 0.0000 0.0000 25.6999 0.0000
# 6 0.0000 0.0000 0.0000 0.0000 0.0000 17.8408
#
#
#
# Elastic Compliance Matrix: (Units=1/GPa)
#
#
# Indices 1 2 3 4 5 6 
#
# 1 0.017404 -0.006024 -0.008998 0.000000 0.000000 0.000000
# 2 -0.006024 0.023267 -0.007604 0.000000 0.000000 0.000000
# 3 -0.008998 -0.007604 0.024240 0.000000 0.000000 0.000000
# 4 0.000000 0.000000 0.000000 0.037424 0.000000 0.000000
# 5 0.000000 0.000000 0.000000 0.000000 0.038911 0.000000
# 6 0.000000 0.000000 0.000000 0.000000 0.000000 0.056051
#
#
# Mechanical properties :
#
#
# Convention : Reuss Voigt Hill
#
# Bulk Modulus (GPa) = 50.86982 53.79627 52.33305
# Shear Modulus (GPa) = 20.07212 21.19673 20.63442
#
# Velocity S-wave (km/s) = 3.46499 3.56074 3.51319
# Velocity P-wave (km/s) = 6.81440 7.00596 6.91084
#
# Compressibility (1/GPa) = 0.01965802
#
# Stress axis : x y z
#
# Youngs Moduli (GPa) = 57.45872 42.98025 41.25336
#
# Poissons Ratio (x) = 0.25890 0.37120
# Poissons Ratio (y) = 0.34612 0.31371
# Poissons Ratio (z) = 0.51702 0.32684
#
# Static dielectric constant tensor:
#      x y z
#    x 3.165360 0.000000 0.000000 
#    y 0.000000 3.126160 0.000000 
#    z 0.000000 0.000000 3.187350 
# 
# 
# High freq. dielectric constant tensor:
#      x y z
#    x 1.632700 0.000000 0.000000 
#    y 0.000000 1.616330 0.000000 
#    z 0.000000 0.000000 1.655260 
# 
# From -- ./inp_files/8750.got.cif
#   From: 2010.03.12/outbox.cif.g09.slc.cpg/sg57_5_cif.got.tgz:8750.got - 2010.04.16 15:48:40.
