data_PCOD8231437
_publ_section_title
;
Structure prediction by ZEFSAII (Michael W. Deem and Ramdas Pophale) SiO2 
 PCOD8231437
Probable space group: P B C M
;
_chemical_formula_sum "Si O2"
_cell_formula_units_Z 48
_cell_length_a 28.921709
_cell_length_b 9.155149
_cell_length_c 9.285079
_cell_angle_alpha 90.000000
_cell_angle_beta 90.000000
_cell_angle_gamma 90.000000
_cell_volume 2458.526943
_symmetry_space_group_name_H-M "P B C M"
_symmetry_group_IT_number 57
_symmetry_cell_setting 'orthorhombic'
loop_
_space_group_symop_operation_xyz
x,y,z
-x,-y,1/2+z
x,1/2-y,-z
-x,1/2+y,1/2-z
-x,-y,-z
x,y,1/2-z
-x,1/2+y,z
x,1/2-y,1/2+z
loop_
_atom_site_type_symbol
_atom_site_label
_atom_site_fract_x
_atom_site_fract_y
_atom_site_fract_z
Si Si1 0.037125 0.596263 0.919701
Si Si2 0.762385 0.405723 0.420342
Si Si3 0.606132 0.086168 0.473727
Si Si4 0.558624 0.484685 0.250000
Si Si5 0.309254 0.395788 0.087117
Si Si6 0.863047 0.394275 0.411869
Si Si7 0.468149 0.657574 0.250000
O O1 0.024887 0.613535 0.750000
O O2 0.088373 0.520068 0.939722
O O3 0.037022 0.750000 0.000000
O O4 0.000000 0.500000 0.000000
O O5 0.758048 0.250000 0.500000
O O6 0.750368 0.387726 0.250000
O O7 0.728873 0.519621 0.495389
O O8 0.814226 0.476028 0.441607
O O9 0.625584 0.250000 0.500000
O O10 0.593536 0.000414 0.617894
O O11 0.558206 0.094916 0.387722
O O12 0.645290 0.994991 0.393996
O O13 0.521539 0.613677 0.250000
O O14 0.531443 0.332096 0.250000
O O15 0.291745 0.361143 0.250000
O O16 0.321459 0.250000 0.000000
O O17 0.863483 0.250000 0.500000
O O18 0.863045 0.337819 0.250000
#
# Coordination Sequence:
#
# PCOD8231437 Si02
#       7
#     8   8   8   4   8   8   4
#     4  10  19  33  53  80 114 151 194 240 289 341
#     4  10  20  37  63  90 116 149 190 235 288 344
#     4  10  22  40  62  86 116 152 193 233 279 336
#     4  10  22  34  64  86 120 148 190 226 281 330
#     4  12  26  42  60  85 118 151 192 241 295 349
#     4   8  16  31  53  81 111 145 188 237 283 338
#     4  10  20  40  56  90 116 154 186 234 273 334
#
# _framework density 19.523886000000001
#
# number of rings (size 3 to 8) (size 9 to 14) (size 15 to 20)
#    0.000    2.000    0.833    2.500    2.333    2.667 
#    0.000    0.833    0.000    0.000    0.000    0.000 
#    0.000    0.000    0.000    0.000    0.000    0.000 
#
# Total GULP energy -594713.948362 kJ/mol
# GULP energy per Si atom -12389.873924 kJ/mol
# Density = 1.947945 g / cm^3
# Si number density = 19.523886 Si / 1000 Ang^3
#
#
#
# Elastic Constant Matrix: (Units=GPa)
#
#
# Indices 1 2 3 4 5 6 
#
# 1 104.2304 36.7212 34.7956 0.0000 0.0000 0.0000
# 2 36.7212 63.6847 26.1817 0.0000 0.0000 0.0000
# 3 34.7956 26.1817 125.5297 0.0000 0.0000 0.0000
# 4 0.0000 0.0000 0.0000 32.2075 0.0000 0.0000
# 5 0.0000 0.0000 0.0000 0.0000 41.8336 0.0000
# 6 0.0000 0.0000 0.0000 0.0000 0.0000 27.8857
#
#
#
# Elastic Compliance Matrix: (Units=1/GPa)
#
#
# Indices 1 2 3 4 5 6 
#
# 1 0.012551 -0.006351 -0.002154 0.000000 0.000000 0.000000
# 2 -0.006351 0.020389 -0.002492 0.000000 0.000000 0.000000
# 3 -0.002154 -0.002492 0.009083 0.000000 0.000000 0.000000
# 4 0.000000 0.000000 0.000000 0.031049 0.000000 0.000000
# 5 0.000000 0.000000 0.000000 0.000000 0.023904 0.000000
# 6 0.000000 0.000000 0.000000 0.000000 0.000000 0.035861
#
#
# Mechanical properties :
#
#
# Convention : Reuss Voigt Hill
#
# Bulk Modulus (GPa) = 49.93036 54.31574 52.12305
# Shear Modulus (GPa) = 30.95820 33.43510 32.19665
#
# Velocity S-wave (km/s) = 3.98635 4.14275 4.06530
# Velocity P-wave (km/s) = 6.84233 7.12487 6.98503
#
# Compressibility (1/GPa) = 0.02002789
#
# Stress axis : x y z
#
# Youngs Moduli (GPa) = 79.67536 49.04582 110.09393
#
# Poissons Ratio (x) = 0.31151 0.23718
# Poissons Ratio (y) = 0.50604 0.27436
# Poissons Ratio (z) = 0.17164 0.12222
#
# Static dielectric constant tensor:
#      x y z
#    x 4.093310 0.000000 0.000000 
#    y 0.000000 3.183390 0.000000 
#    z 0.000000 0.000000 3.827510 
# 
# 
# High freq. dielectric constant tensor:
#      x y z
#    x 1.774610 0.000000 0.000000 
#    y 0.000000 1.721810 0.000000 
#    z 0.000000 0.000000 1.784280 
# 
# From -- ./inp_files/10133.got.cif
#   From: 2010.03.12/outbox.cif.g09.slc.cpg/sg57_6_cif.got.tgz:10133.got - 2010.04.16 15:48:40.
