data_PCOD8231377
_publ_section_title
;
Structure prediction by ZEFSAII (Michael W. Deem and Ramdas Pophale) SiO2 
 PCOD8231377
Probable space group: P B C M
;
_chemical_formula_sum "Si O2"
_cell_formula_units_Z 48
_cell_length_a 31.153491
_cell_length_b 9.046760
_cell_length_c 8.758937
_cell_angle_alpha 90.000000
_cell_angle_beta 90.000000
_cell_angle_gamma 90.000000
_cell_volume 2468.602655
_symmetry_space_group_name_H-M "P B C M"
_symmetry_group_IT_number 57
_symmetry_cell_setting 'orthorhombic'
loop_
_space_group_symop_operation_xyz
x,y,z
-x,-y,1/2+z
x,1/2-y,-z
-x,1/2+y,1/2-z
-x,-y,-z
x,y,1/2-z
-x,1/2+y,z
x,1/2-y,1/2+z
loop_
_atom_site_type_symbol
_atom_site_label
_atom_site_fract_x
_atom_site_fract_y
_atom_site_fract_z
Si Si1 0.723823 0.413860 0.068797
Si Si2 0.038079 0.090969 0.426649
Si Si3 0.876542 0.092424 0.571811
Si Si4 0.538310 0.089420 0.929011
Si Si5 0.369622 0.906807 0.426332
Si Si6 0.800390 0.910240 0.431276
O O1 0.732417 0.406732 0.250000
O O2 0.676059 0.480644 0.028716
O O3 0.730353 0.250000 0.000000
O O4 0.755061 0.530260 0.990337
O O5 0.041608 0.250000 0.500000
O O6 0.027680 0.109848 0.250000
O O7 0.082559 0.009274 0.456107
O O8 0.000000 0.000000 0.500000
O O9 0.887233 0.250000 0.500000
O O10 0.865364 0.108496 0.750000
O O11 0.836488 0.023825 0.484302
O O12 0.530544 0.101417 0.750000
O O13 0.585085 0.010634 0.966142
O O14 0.537584 0.250000 0.000000
O O15 0.500000 0.000000 0.000000
O O16 0.371703 0.750000 0.500000
O O17 0.368398 0.873549 0.250000
O O18 0.810124 0.750000 0.500000
O O19 0.800074 0.898627 0.250000
#
# Coordination Sequence:
#
# PCOD8231377 Si02
#       6
#     8   8   8   8   8   8
#     4  10  19  35  58  84 111 142 181 227 275 329
#     4  11  24  41  64  92 125 161 200 243 291 342
#     4  11  24  42  64  91 120 155 196 240 285 336
#     4  10  19  33  52  77 106 140 180 224 273 327
#     4   8  16  30  51  76 104 137 177 222 270 324
#     4  12  25  41  60  84 115 151 188 232 283 338
#
# _framework density 19.444199999999999
#
# number of rings (size 3 to 8) (size 9 to 14) (size 15 to 20)
#    0.000    1.667    0.000    5.000    0.000    6.667 
#    0.000    0.833    0.000    0.000    0.000    0.000 
#    0.000    0.000    0.000    0.000    0.000    0.000 
#
# Total GULP energy -594875.151418 kJ/mol
# GULP energy per Si atom -12393.232321 kJ/mol
# Density = 1.939994 g / cm^3
# Si number density = 19.444200 Si / 1000 Ang^3
#
#
#
# Elastic Constant Matrix: (Units=GPa)
#
#
# Indices 1 2 3 4 5 6 
#
# 1 142.0958 46.8170 77.4698 0.0000 0.0000 0.0000
# 2 46.8170 102.7053 56.7332 0.0000 0.0000 0.0000
# 3 77.4698 56.7332 128.5829 0.0000 0.0000 0.0000
# 4 0.0000 0.0000 0.0000 35.8465 0.0000 0.0000
# 5 0.0000 0.0000 0.0000 0.0000 38.9137 0.0000
# 6 0.0000 0.0000 0.0000 0.0000 0.0000 28.3814
#
#
#
# Elastic Compliance Matrix: (Units=1/GPa)
#
#
# Indices 1 2 3 4 5 6 
#
# 1 0.010711 -0.001742 -0.005684 0.000000 0.000000 0.000000
# 2 -0.001742 0.013158 -0.004756 0.000000 0.000000 0.000000
# 3 -0.005684 -0.004756 0.013300 0.000000 0.000000 0.000000
# 4 0.000000 0.000000 0.000000 0.027897 0.000000 0.000000
# 5 0.000000 0.000000 0.000000 0.000000 0.025698 0.000000
# 6 0.000000 0.000000 0.000000 0.000000 0.000000 0.035234
#
#
# Mechanical properties :
#
#
# Convention : Reuss Voigt Hill
#
# Bulk Modulus (GPa) = 78.10163 81.71378 79.90771
# Shear Modulus (GPa) = 32.33524 33.45261 32.89392
#
# Velocity S-wave (km/s) = 4.08238 4.15232 4.11750
# Velocity P-wave (km/s) = 7.90414 8.06877 7.98688
#
# Compressibility (1/GPa) = 0.01280383
#
# Stress axis : x y z
#
# Youngs Moduli (GPa) = 93.36551 76.00032 75.18754
#
# Poissons Ratio (x) = 0.13242 0.42738
# Poissons Ratio (y) = 0.16268 0.35757
# Poissons Ratio (z) = 0.53071 0.36144
#
# Static dielectric constant tensor:
#      x y z
#    x 4.416040 0.000000 0.000000 
#    y 0.000000 3.358220 0.000000 
#    z 0.000000 0.000000 3.795540 
# 
# 
# High freq. dielectric constant tensor:
#      x y z
#    x 1.788770 0.000000 0.000000 
#    y 0.000000 1.733890 0.000000 
#    z 0.000000 0.000000 1.775080 
# 
# From -- ./inp_files/9888.got.cif
#   From: 2010.03.12/outbox.cif.g09.slc.cpg/sg57_5_cif.got.tgz:9888.got - 2010.04.16 15:48:40.
