data_PCOD8231597
_publ_section_title
;
Structure prediction by ZEFSAII (Michael W. Deem and Ramdas Pophale) SiO2 
 PCOD8231597
Probable space group: P B C M
;
_chemical_formula_sum "Si O2"
_cell_formula_units_Z 56
_cell_length_a 22.427986
_cell_length_b 14.119631
_cell_length_c 8.724220
_cell_angle_alpha 90.000000
_cell_angle_beta 90.000000
_cell_angle_gamma 90.000000
_cell_volume 2762.741377
_symmetry_space_group_name_H-M "P B C M"
_symmetry_group_IT_number 57
_symmetry_cell_setting 'orthorhombic'
loop_
_space_group_symop_operation_xyz
x,y,z
-x,-y,1/2+z
x,1/2-y,-z
-x,1/2+y,1/2-z
-x,-y,-z
x,y,1/2-z
-x,1/2+y,z
x,1/2-y,1/2+z
loop_
_atom_site_type_symbol
_atom_site_label
_atom_site_fract_x
_atom_site_fract_y
_atom_site_fract_z
Si Si1 0.852061 0.847979 0.431370
Si Si2 0.530459 0.646106 0.069438
Si Si3 0.804411 0.026877 0.925907
Si Si4 0.298852 0.646921 0.430928
Si Si5 0.414911 0.531027 0.070112
Si Si6 0.977763 0.597018 0.070074
Si Si7 0.909094 0.336960 0.425230
O O1 0.827936 0.750000 0.500000
O O2 0.852923 0.843359 0.250000
O O3 0.918285 0.866195 0.491044
O O4 0.804973 0.927463 0.485675
O O5 0.535167 0.656447 0.250000
O O6 0.466678 0.603700 0.017000
O O7 0.540666 0.750000 0.000000
O O8 0.580259 0.571141 0.012281
O O9 0.785636 0.011920 0.750000
O O10 0.871667 0.066740 0.938368
O O11 0.760804 0.101309 0.003687
O O12 0.309965 0.750000 0.500000
O O13 0.293317 0.657462 0.250000
O O14 0.352978 0.578506 0.478646
O O15 0.419114 0.512436 0.250000
O O16 0.965779 0.587512 0.250000
O O17 0.000000 0.500000 0.000000
O O18 0.032050 0.666157 0.031474
O O19 0.870988 0.250000 0.500000
O O20 0.926243 0.318008 0.250000
#
# Coordination Sequence:
#
# PCOD8231597 Si02
#       7
#     8   8   8   8   8   8   8
#     4  12  25  43  66  89 118 154 195 242 297 359
#     4  10  19  33  57  88 124 164 204 250 302 356
#     4  11  24  42  63  87 118 152 197 246 294 350
#     4  11  23  40  63  90 122 159 201 247 298 354
#     4   9  20  37  57  86 123 163 206 251 299 355
#     4  12  23  38  60  87 118 151 191 237 292 354
#     4  11  23  38  58  84 116 150 188 234 289 349
#
# _framework density 20.269722999999999
#
# number of rings (size 3 to 8) (size 9 to 14) (size 15 to 20)
#    0.000    1.143    1.429    5.571    0.000    4.571 
#    0.000    0.714    0.000    3.429    0.000    0.000 
#    0.000    0.000    0.000    0.000    0.000    0.000 
#
# Total GULP energy -694461.635392 kJ/mol
# GULP energy per Si atom -12401.100632 kJ/mol
# Density = 2.022359 g / cm^3
# Si number density = 20.269723 Si / 1000 Ang^3
#
#
#
# Elastic Constant Matrix: (Units=GPa)
#
#
# Indices 1 2 3 4 5 6 
#
# 1 67.5798 31.6057 37.7123 0.0000 0.0000 0.0000
# 2 31.6057 159.1651 68.9432 0.0000 0.0000 0.0000
# 3 37.7123 68.9432 136.5277 0.0000 0.0000 0.0000
# 4 0.0000 0.0000 0.0000 41.5789 0.0000 0.0000
# 5 0.0000 0.0000 0.0000 0.0000 27.2921 0.0000
# 6 0.0000 0.0000 0.0000 0.0000 0.0000 29.6361
#
#
#
# Elastic Compliance Matrix: (Units=1/GPa)
#
#
# Indices 1 2 3 4 5 6 
#
# 1 0.017891 -0.001807 -0.004029 0.000000 0.000000 0.000000
# 2 -0.001807 0.008224 -0.003654 0.000000 0.000000 0.000000
# 3 -0.004029 -0.003654 0.010283 0.000000 0.000000 0.000000
# 4 0.000000 0.000000 0.000000 0.024051 0.000000 0.000000
# 5 0.000000 0.000000 0.000000 0.000000 0.036641 0.000000
# 6 0.000000 0.000000 0.000000 0.000000 0.000000 0.033743
#
#
# Mechanical properties :
#
#
# Convention : Reuss Voigt Hill
#
# Bulk Modulus (GPa) = 57.41497 71.08833 64.25165
# Shear Modulus (GPa) = 32.12982 34.70219 33.41601
#
# Velocity S-wave (km/s) = 3.98567 4.14215 4.06466
# Velocity P-wave (km/s) = 7.04043 7.61734 7.33456
#
# Compressibility (1/GPa) = 0.01741706
#
# Stress axis : x y z
#
# Youngs Moduli (GPa) = 55.89369 121.58989 97.25138
#
# Poissons Ratio (x) = 0.21976 0.39185
# Poissons Ratio (y) = 0.10102 0.35534
# Poissons Ratio (z) = 0.22521 0.44427
#
# Static dielectric constant tensor:
#      x y z
#    x 3.585370 0.000000 0.000000 
#    y 0.000000 4.040490 0.000000 
#    z 0.000000 0.000000 -0.088940 
# 
# 
# High freq. dielectric constant tensor:
#      x y z
#    x 1.768870 0.000000 0.000000 
#    y 0.000000 1.813760 0.000000 
#    z 0.000000 0.000000 1.804730 
# 
# From -- ./inp_files/8114.got.cif
#   From: 2010.03.12/outbox.cif.g09.slc.cpg/sg57_5_cif.got.tgz:8114.got - 2010.04.16 15:48:40.
