data_PCOD8231343
_publ_section_title
;
Structure prediction by ZEFSAII (Michael W. Deem and Ramdas Pophale) SiO2 
 PCOD8231343
Probable space group: P B C M
;
_chemical_formula_sum "Si O2"
_cell_formula_units_Z 64
_cell_length_a 22.561534
_cell_length_b 8.413205
_cell_length_c 15.617561
_cell_angle_alpha 90.000000
_cell_angle_beta 90.000000
_cell_angle_gamma 90.000000
_cell_volume 2964.444384
_symmetry_space_group_name_H-M "P B C M"
_symmetry_group_IT_number 57
_symmetry_cell_setting 'orthorhombic'
loop_
_space_group_symop_operation_xyz
x,y,z
-x,-y,1/2+z
x,1/2-y,-z
-x,1/2+y,1/2-z
-x,-y,-z
x,y,1/2-z
-x,1/2+y,z
x,1/2-y,1/2+z
loop_
_atom_site_type_symbol
_atom_site_label
_atom_site_fract_x
_atom_site_fract_y
_atom_site_fract_z
Si Si1 0.152387 0.654409 0.153524
Si Si2 0.367806 0.436860 0.491637
Si Si3 0.422109 0.540881 0.654054
Si Si4 0.928724 0.903304 0.656165
Si Si5 0.031168 0.722413 0.904985
Si Si6 0.753596 0.433706 0.517838
Si Si7 0.533065 0.348910 0.585057
Si Si8 0.196106 0.485394 0.655010
O O1 0.157811 0.582609 0.250000
O O2 0.083869 0.657256 0.123661
O O3 0.192541 0.551296 0.086705
O O4 0.173136 0.835014 0.153145
O O5 0.375531 0.250000 0.500000
O O6 0.368376 0.512416 0.587663
O O7 0.306228 0.486226 0.445265
O O8 0.421142 0.509710 0.435795
O O9 0.401837 0.496316 0.750000
O O10 0.475426 0.427462 0.624944
O O11 0.439864 0.726494 0.653537
O O12 0.933181 0.980109 0.750000
O O13 0.971149 0.750195 0.649902
O O14 0.951012 0.039501 0.593550
O O15 0.859277 0.864046 0.640381
O O16 0.010887 0.750000 0.000000
O O17 0.740961 0.250000 0.500000
O O18 0.763209 0.532367 0.428808
O O19 0.516175 0.250000 0.500000
O O20 0.225592 0.452807 0.750000
#
# Coordination Sequence:
#
# PCOD8231343 Si02
#       8
#     8   8   8   8   8   8   8   8
#     4   9  17  32  53  77 102 135 178 230 285 340
#     4  11  23  40  58  80 117 160 193 230 287 348
#     4  11  21  36  61  93 121 151 192 239 283 333
#     4  10  19  33  51  76 106 139 175 220 279 343
#     4  11  20  32  52  78 108 140 180 228 283 345
#     4  10  19  35  57  78 101 138 191 240 280 330
#     4  10  20  37  60  86 120 157 193 230 280 339
#     4   8  16  31  53  76 103 138 180 227 281 340
#
# _framework density 21.589205
#
# number of rings (size 3 to 8) (size 9 to 14) (size 15 to 20)
#    0.000    2.000    0.000    8.250    0.000    0.500 
#    0.000    6.875    0.000    1.500    0.000    0.000 
#    0.000    0.000    0.000    0.000    0.000    0.000 
#
# Total GULP energy -793068.749102 kJ/mol
# GULP energy per Si atom -12391.699205 kJ/mol
# Density = 2.154007 g / cm^3
# Si number density = 21.589205 Si / 1000 Ang^3
#
#
#
# Elastic Constant Matrix: (Units=GPa)
#
#
# Indices 1 2 3 4 5 6 
#
# 1 69.1908 12.6714 15.8097 0.0000 0.0000 0.0000
# 2 12.6714 63.5063 0.3611 0.0000 0.0000 0.0000
# 3 15.8097 0.3611 87.2044 0.0000 0.0000 0.0000
# 4 0.0000 0.0000 0.0000 15.8586 0.0000 0.0000
# 5 0.0000 0.0000 0.0000 0.0000 18.8842 0.0000
# 6 0.0000 0.0000 0.0000 0.0000 0.0000 25.9050
#
#
#
# Elastic Compliance Matrix: (Units=1/GPa)
#
#
# Indices 1 2 3 4 5 6 
#
# 1 0.015669 -0.003110 -0.002828 0.000000 0.000000 0.000000
# 2 -0.003110 0.016364 0.000496 0.000000 0.000000 0.000000
# 3 -0.002828 0.000496 0.011978 0.000000 0.000000 0.000000
# 4 0.000000 0.000000 0.000000 0.063057 0.000000 0.000000
# 5 0.000000 0.000000 0.000000 0.000000 0.052954 0.000000
# 6 0.000000 0.000000 0.000000 0.000000 0.000000 0.038603
#
#
# Mechanical properties :
#
#
# Convention : Reuss Voigt Hill
#
# Bulk Modulus (GPa) = 30.18696 30.84288 30.51492
# Shear Modulus (GPa) = 22.67051 24.86685 23.76868
#
# Velocity S-wave (km/s) = 3.24402 3.39753 3.32166
# Velocity P-wave (km/s) = 5.29569 5.45052 5.37366
#
# Compressibility (1/GPa) = 0.03312688
#
# Stress axis : x y z
#
# Youngs Moduli (GPa) = 63.82222 61.10890 83.48699
#
# Poissons Ratio (x) = 0.19006 0.23608
# Poissons Ratio (y) = 0.19850 -0.04142
# Poissons Ratio (z) = 0.18047 -0.03032
#
# Static dielectric constant tensor:
#      x y z
#    x 3.868750 0.000000 0.000000 
#    y 0.000000 3.634150 0.000000 
#    z 0.000000 0.000000 4.119760 
# 
# 
# High freq. dielectric constant tensor:
#      x y z
#    x 1.840450 0.000000 0.000000 
#    y 0.000000 1.819540 0.000000 
#    z 0.000000 0.000000 1.845840 
# 
# From -- ./inp_files/19529.got.cif
#   From: 2010.03.12/outbox.cif.g09.slc.cpg/sg57_10_cif.got.tgz:19529.got - 2010.04.16 15:48:40.
