data_PCOD8231514
_publ_section_title
;
Structure prediction by ZEFSAII (Michael W. Deem and Ramdas Pophale) SiO2 
 PCOD8231514
Probable space group: P B C M
;
_chemical_formula_sum "Si O2"
_cell_formula_units_Z 64
_cell_length_a 19.445203
_cell_length_b 20.576413
_cell_length_c 8.967437
_cell_angle_alpha 90.000000
_cell_angle_beta 90.000000
_cell_angle_gamma 90.000000
_cell_volume 3587.983886
_symmetry_space_group_name_H-M "P B C M"
_symmetry_group_IT_number 57
_symmetry_cell_setting 'orthorhombic'
loop_
_space_group_symop_operation_xyz
x,y,z
-x,-y,1/2+z
x,1/2-y,-z
-x,1/2+y,1/2-z
-x,-y,-z
x,y,1/2-z
-x,1/2+y,z
x,1/2-y,1/2+z
loop_
_atom_site_type_symbol
_atom_site_label
_atom_site_fract_x
_atom_site_fract_y
_atom_site_fract_z
Si Si1 0.681012 0.868074 0.076616
Si Si2 0.684709 0.483417 0.578939
Si Si3 0.961233 0.815704 0.574407
Si Si4 0.465055 0.938334 0.575545
Si Si5 0.182323 0.369008 0.924570
Si Si6 0.820707 0.480545 0.424795
Si Si7 0.535055 0.816956 0.072549
Si Si8 0.956483 0.057102 0.073495
O O1 0.693973 0.860721 0.250000
O O2 0.614343 0.827962 0.025814
O O3 0.667760 0.942743 0.030989
O O4 0.748706 0.839677 0.996885
O O5 0.708928 0.481090 0.750000
O O6 0.616944 0.440947 0.553063
O O7 0.746117 0.454796 0.477564
O O8 0.988941 0.750000 0.500000
O O9 0.961273 0.806570 0.750000
O O10 0.883964 0.830286 0.516061
O O11 0.010664 0.874336 0.526994
O O12 0.484637 0.937663 0.750000
O O13 0.488591 0.873365 0.494800
O O14 0.500000 0.000000 0.500000
O O15 0.190485 0.361746 0.750000
O O16 0.172302 0.444056 0.969153
O O17 0.829817 0.468632 0.250000
O O18 0.879089 0.441461 0.512590
O O19 0.525807 0.815910 0.250000
O O20 0.509692 0.750000 0.000000
O O21 0.957789 0.046782 0.250000
O O22 0.000000 0.000000 0.000000
#
# Coordination Sequence:
#
# PCOD8231514 Si02
#       8
#     8   8   8   8   8   8   8   8
#     4   9  18  33  51  75 108 145 185 223 263 322
#     4   9  18  34  54  81 112 143 180 223 275 329
#     4  10  22  38  53  76 109 143 182 223 268 320
#     4  11  21  36  59  85 113 147 187 233 281 332
#     4   9  18  33  50  74 109 143 180 222 262 317
#     4  10  19  33  54  83 112 140 179 225 274 326
#     4  11  23  39  55  79 113 150 192 234 280 336
#     4  11  21  36  57  81 110 143 182 229 274 323
#
# _framework density 17.837315
#
# number of rings (size 3 to 8) (size 9 to 14) (size 15 to 20)
#    0.000    2.000    2.500    1.500    0.000    4.500 
#    0.000    2.500    0.000    0.750    0.000    3.500 
#    0.000    0.000    0.000    0.000    0.000    0.000 
#
# Total GULP energy -793745.273056 kJ/mol
# GULP energy per Si atom -12402.269892 kJ/mol
# Density = 1.779672 g / cm^3
# Si number density = 17.837315 Si / 1000 Ang^3
#
#
#
# Elastic Constant Matrix: (Units=GPa)
#
#
# Indices 1 2 3 4 5 6 
#
# 1 103.2067 57.4364 49.7781 0.0000 0.0000 0.0000
# 2 57.4364 113.6441 50.5652 0.0000 0.0000 0.0000
# 3 49.7781 50.5652 73.6286 0.0000 0.0000 0.0000
# 4 0.0000 0.0000 0.0000 27.5394 0.0000 0.0000
# 5 0.0000 0.0000 0.0000 0.0000 34.1277 0.0000
# 6 0.0000 0.0000 0.0000 0.0000 0.0000 22.5392
#
#
#
# Elastic Compliance Matrix: (Units=1/GPa)
#
#
# Indices 1 2 3 4 5 6 
#
# 1 0.015948 -0.004699 -0.007555 0.000000 0.000000 0.000000
# 2 -0.004699 0.014056 -0.006476 0.000000 0.000000 0.000000
# 3 -0.007555 -0.006476 0.023137 0.000000 0.000000 0.000000
# 4 0.000000 0.000000 0.000000 0.036312 0.000000 0.000000
# 5 0.000000 0.000000 0.000000 0.000000 0.029302 0.000000
# 6 0.000000 0.000000 0.000000 0.000000 0.000000 0.044367
#
#
# Mechanical properties :
#
#
# Convention : Reuss Voigt Hill
#
# Bulk Modulus (GPa) = 63.77249 67.33765 65.55507
# Shear Modulus (GPa) = 24.29438 25.68789 24.99114
#
# Velocity S-wave (km/s) = 3.69453 3.79901 3.74713
# Velocity P-wave (km/s) = 7.35046 7.55488 7.45337
#
# Compressibility (1/GPa) = 0.01568074
#
# Stress axis : x y z
#
# Youngs Moduli (GPa) = 62.70305 71.14546 43.22042
#
# Poissons Ratio (x) = 0.33429 0.32654
# Poissons Ratio (y) = 0.29462 0.27991
# Poissons Ratio (z) = 0.47374 0.46076
#
# Static dielectric constant tensor:
#      x y z
#    x 3.481190 0.000000 0.000000 
#    y 0.000000 3.118240 0.000000 
#    z 0.000000 0.000000 3.314140 
# 
# 
# High freq. dielectric constant tensor:
#      x y z
#    x 1.694520 0.000000 0.000000 
#    y 0.000000 1.665980 0.000000 
#    z 0.000000 0.000000 1.695920 
# 
# From -- ./inp_files/7153.got.cif
#   From: 2010.03.12/outbox.cif.g09.slc.cpg/sg57_4_cif.got.tgz:7153.got - 2010.04.16 15:48:40.
