data_PCOD8231293
_publ_section_title
;
Structure prediction by ZEFSAII (Michael W. Deem and Ramdas Pophale) SiO2 
 PCOD8231293
Probable space group: P B C M
;
_chemical_formula_sum "Si O2"
_cell_formula_units_Z 64
_cell_length_a 12.409145
_cell_length_b 28.249278
_cell_length_c 9.239249
_cell_angle_alpha 90.000000
_cell_angle_beta 90.000000
_cell_angle_gamma 90.000000
_cell_volume 3238.813072
_symmetry_space_group_name_H-M "P B C M"
_symmetry_group_IT_number 57
_symmetry_cell_setting 'orthorhombic'
loop_
_space_group_symop_operation_xyz
x,y,z
-x,-y,1/2+z
x,1/2-y,-z
-x,1/2+y,1/2-z
-x,-y,-z
x,y,1/2-z
-x,1/2+y,z
x,1/2-y,1/2+z
loop_
_atom_site_type_symbol
_atom_site_label
_atom_site_fract_x
_atom_site_fract_y
_atom_site_fract_z
Si Si1 0.055647 0.297775 0.591202
Si Si2 0.819956 0.304413 0.538026
Si Si3 0.689165 0.042441 0.078187
Si Si4 0.899546 0.611810 0.917874
Si Si5 0.495162 0.392706 0.920116
Si Si6 0.279444 0.444411 0.577643
Si Si7 0.146756 0.898693 0.092098
Si Si8 0.583793 0.203017 0.407507
O O1 0.065796 0.250000 0.500000
O O2 0.110775 0.292502 0.750000
O O3 0.115124 0.338144 0.499086
O O4 0.930889 0.311521 0.625564
O O5 0.815075 0.250000 0.500000
O O6 0.827446 0.342184 0.406884
O O7 0.707581 0.314097 0.618784
O O8 0.691993 0.032479 0.250000
O O9 0.581228 0.068848 0.024364
O O10 0.792142 0.074227 0.035901
O O11 0.690098 0.994667 0.987607
O O12 0.865272 0.617626 0.750000
O O13 0.020395 0.592466 0.930698
O O14 0.827536 0.573314 0.999212
O O15 0.511755 0.388468 0.750000
O O16 0.375329 0.408196 0.962103
O O17 0.519795 0.340341 0.984912
O O18 0.261946 0.448269 0.750000
O O19 0.181929 0.918040 0.250000
O O20 0.571439 0.250000 0.500000
O O21 0.534491 0.214247 0.250000
#
# Coordination Sequence:
#
# PCOD8231293 Si02
#       8
#     8   8   8   8   8   8   8   8
#     4  10  19  32  54  85 117 154 195 236 285 341
#     4   9  18  30  51  81 119 154 186 226 279 336
#     4  11  22  39  62  88 117 148 185 237 298 350
#     4  10  22  40  59  83 117 154 194 241 290 342
#     4   9  20  39  61  85 117 152 189 237 287 336
#     4  11  23  41  63  84 109 149 199 246 291 344
#     4  10  21  37  58  86 119 152 191 237 284 344
#     4  10  19  34  54  83 119 153 185 223 276 336
#
# _framework density 19.760325000000002
#
# number of rings (size 3 to 8) (size 9 to 14) (size 15 to 20)
#    0.000    2.000    1.250    2.250    0.000    8.000 
#    0.000    3.750    0.000    1.500    0.000    0.000 
#    0.000    0.000    0.000    0.000    0.000    0.000 
#
# Total GULP energy -793043.290880 kJ/mol
# GULP energy per Si atom -12391.301420 kJ/mol
# Density = 1.971535 g / cm^3
# Si number density = 19.760325 Si / 1000 Ang^3
#
#
#
# Elastic Constant Matrix: (Units=GPa)
#
#
# Indices 1 2 3 4 5 6 
#
# 1 75.5765 43.4099 32.7812 0.0000 0.0000 0.0000
# 2 43.4099 116.9990 42.3348 0.0000 0.0000 0.0000
# 3 32.7812 42.3348 119.2275 0.0000 0.0000 0.0000
# 4 0.0000 0.0000 0.0000 32.2739 0.0000 0.0000
# 5 0.0000 0.0000 0.0000 0.0000 20.0996 0.0000
# 6 0.0000 0.0000 0.0000 0.0000 0.0000 -8.3550
#
#
#
# Elastic Compliance Matrix: (Units=1/GPa)
#
#
# Indices 1 2 3 4 5 6 
#
# 1 0.017648 -0.005499 -0.002900 0.000000 0.000000 0.000000
# 2 -0.005499 0.011520 -0.002579 0.000000 0.000000 0.000000
# 3 -0.002900 -0.002579 0.010100 0.000000 0.000000 0.000000
# 4 0.000000 0.000000 0.000000 0.030985 0.000000 0.000000
# 5 0.000000 0.000000 0.000000 0.000000 0.049752 0.000000
# 6 0.000000 0.000000 0.000000 0.000000 0.000000 -0.119689
#
#
# Mechanical properties :
#
#
# Convention : Reuss Voigt Hill
#
# Bulk Modulus (GPa) = 57.75647 60.98387 59.37017
# Shear Modulus (GPa) = 178.30486 21.68886 99.99686
#
# Velocity S-wave (km/s) = 9.50945 3.31659 7.12143
# Velocity P-wave (km/s) = 12.24193 6.75242 9.88585
#
# Compressibility (1/GPa) = 0.01731408
#
# Stress axis : x y z
#
# Youngs Moduli (GPa) = 56.66471 86.80338 99.00728
#
# Poissons Ratio (x) = 0.47729 0.28710
# Poissons Ratio (y) = 0.31157 0.25532
# Poissons Ratio (z) = 0.16431 0.22385
#
# Static dielectric constant tensor:
#      x y z
#    x 3.631890 0.000000 0.000000 
#    y 0.000000 3.693500 0.000000 
#    z 0.000000 0.000000 3.481900 
# 
# 
# High freq. dielectric constant tensor:
#      x y z
#    x 1.754520 0.000000 0.000000 
#    y 0.000000 1.777540 0.000000 
#    z 0.000000 0.000000 1.763630 
# 
# From -- ./inp_files/3900.got.cif
#   From: 2010.03.12/outbox.cif.g09.slc.cpg/sg57_2_cif.got.tgz:3900.got - 2010.04.16 15:48:40.
