data_PCOD8231481
_publ_section_title
;
Structure prediction by ZEFSAII (Michael W. Deem and Ramdas Pophale) SiO2 
 PCOD8231481
Probable space group: P B C M
;
_chemical_formula_sum "Si O2"
_cell_formula_units_Z 40
_cell_length_a 11.939048
_cell_length_b 9.847446
_cell_length_c 13.586827
_cell_angle_alpha 90.000000
_cell_angle_beta 90.000000
_cell_angle_gamma 90.000000
_cell_volume 1597.391436
_symmetry_space_group_name_H-M "P B C M"
_symmetry_group_IT_number 57
_symmetry_cell_setting 'orthorhombic'
loop_
_space_group_symop_operation_xyz
x,y,z
-x,-y,1/2+z
x,1/2-y,-z
-x,1/2+y,1/2-z
-x,-y,-z
x,y,1/2-z
-x,1/2+y,z
x,1/2-y,1/2+z
loop_
_atom_site_type_symbol
_atom_site_label
_atom_site_fract_x
_atom_site_fract_y
_atom_site_fract_z
Si Si1 0.089022 0.037961 0.639564
Si Si2 0.771245 0.802190 0.860322
Si Si3 0.141783 0.932141 0.056236
Si Si4 0.532682 0.605813 0.364972
Si Si5 0.631304 0.172714 0.868176
O O1 0.091016 0.976513 0.750000
O O2 0.184091 0.151424 0.628405
O O3 0.115879 0.917557 0.561150
O O4 0.968590 0.107314 0.618016
O O5 0.787268 0.858851 0.750000
O O6 0.835511 0.907538 0.929433
O O7 0.639991 0.799389 0.887038
O O8 0.244210 0.836928 0.087883
O O9 0.510295 0.592887 0.250000
O O10 0.424026 0.686494 0.408117
O O11 0.554195 0.453969 0.406862
O O12 0.638970 0.166865 0.750000
#
# Coordination Sequence:
#
# PCOD8231481 Si02
#       5
#     8   8   8   8   8
#     4  10  20  33  52  79 108 142 189 238 283 340
#     4   9  17  32  53  77 109 147 183 223 281 350
#     4  10  19  33  54  79 109 147 188 232 289 351
#     4   8  15  28  50  79 112 149 187 231 286 347
#     4   9  16  30  53  82 115 150 190 238 294 353
#
# _framework density 25.040825000000002
#
# number of rings (size 3 to 8) (size 9 to 14) (size 15 to 20)
#    0.000    2.800    0.000    3.600    0.000    0.000 
#    0.000    3.000    0.000    7.200    0.000    5.600 
#    0.000    0.000    0.000    0.000    0.000    0.000 
#
# Total GULP energy -495812.864519 kJ/mol
# GULP energy per Si atom -12395.321613 kJ/mol
# Density = 2.498383 g / cm^3
# Si number density = 25.040825 Si / 1000 Ang^3
#
#
#
# Elastic Constant Matrix: (Units=GPa)
#
#
# Indices 1 2 3 4 5 6 
#
# 1 116.3406 44.3484 16.5467 0.0000 0.0000 0.0000
# 2 44.3484 57.2716 23.0409 0.0000 0.0000 0.0000
# 3 16.5467 23.0409 108.8604 0.0000 0.0000 0.0000
# 4 0.0000 0.0000 0.0000 24.2316 0.0000 0.0000
# 5 0.0000 0.0000 0.0000 0.0000 20.0431 0.0000
# 6 0.0000 0.0000 0.0000 0.0000 0.0000 18.1917
#
#
#
# Elastic Compliance Matrix: (Units=1/GPa)
#
#
# Indices 1 2 3 4 5 6 
#
# 1 0.012198 -0.009509 0.000159 0.000000 0.000000 0.000000
# 2 -0.009509 0.026499 -0.004163 0.000000 0.000000 0.000000
# 3 0.000159 -0.004163 0.010043 0.000000 0.000000 0.000000
# 4 0.000000 0.000000 0.000000 0.041268 0.000000 0.000000
# 5 0.000000 0.000000 0.000000 0.000000 0.049893 0.000000
# 6 0.000000 0.000000 0.000000 0.000000 0.000000 0.054970
#
#
# Mechanical properties :
#
#
# Convention : Reuss Voigt Hill
#
# Bulk Modulus (GPa) = 46.05690 50.03830 48.04760
# Shear Modulus (GPa) = 21.82108 25.72904 23.77506
#
# Velocity S-wave (km/s) = 2.95519 3.20892 3.08466
# Velocity P-wave (km/s) = 5.48423 5.80996 5.64944
#
# Compressibility (1/GPa) = 0.02171227
#
# Stress axis : x y z
#
# Youngs Moduli (GPa) = 81.98236 37.73717 99.57041
#
# Poissons Ratio (x) = 0.35885 -0.01579
# Poissons Ratio (y) = 0.77959 0.41454
# Poissons Ratio (z) = -0.01300 0.15711
#
# Static dielectric constant tensor:
#      x y z
#    x 4.567790 0.000000 0.000000 
#    y 0.000000 4.204800 0.000000 
#    z 0.000000 0.000000 4.632490 
# 
# 
# High freq. dielectric constant tensor:
#      x y z
#    x 1.999890 0.000000 0.000000 
#    y 0.000000 1.971040 0.000000 
#    z 0.000000 0.000000 2.008560 
# 
# From -- ./inp_files/17419.got.cif
#   From: 2010.03.12/outbox.cif.g09.slc.cpg/sg57_9_cif.got.tgz:17419.got - 2010.04.16 15:48:40.
