data_PCOD8231906
_publ_section_title
;
Structure prediction by ZEFSAII (Michael W. Deem and Ramdas Pophale) SiO2 
 PCOD8231906
Probable space group: P B C M
;
_chemical_formula_sum "Si O2"
_cell_formula_units_Z 64
_cell_length_a 9.056177
_cell_length_b 20.217438
_cell_length_c 18.664013
_cell_angle_alpha 90.000000
_cell_angle_beta 90.000000
_cell_angle_gamma 90.000000
_cell_volume 3417.244477
_symmetry_space_group_name_H-M "P B C M"
_symmetry_group_IT_number 57
_symmetry_cell_setting 'orthorhombic'
loop_
_space_group_symop_operation_xyz
x,y,z
-x,-y,1/2+z
x,1/2-y,-z
-x,1/2+y,1/2-z
-x,-y,-z
x,y,1/2-z
-x,1/2+y,z
x,1/2-y,1/2+z
loop_
_atom_site_type_symbol
_atom_site_label
_atom_site_fract_x
_atom_site_fract_y
_atom_site_fract_z
Si Si1 0.639044 0.718758 0.921607
Si Si2 0.849275 0.556495 0.399134
Si Si3 0.155891 0.313457 0.831441
Si Si4 0.158716 0.587335 0.914365
Si Si5 0.348033 0.805784 0.332111
Si Si6 0.806697 0.057762 0.426855
Si Si7 0.813461 0.912939 0.443212
Si Si8 0.827628 0.172688 0.330079
O O1 0.733308 0.772108 0.878950
O O2 0.489227 0.700754 0.881794
O O3 0.725146 0.650097 0.917085
O O4 0.609518 0.750000 0.000000
O O5 0.805126 0.608279 0.337251
O O6 0.801549 0.482678 0.376150
O O7 0.778449 0.581623 0.472778
O O8 0.020257 0.552891 0.416859
O O9 0.171549 0.289385 0.750000
O O10 0.988036 0.305694 0.861512
O O11 0.231434 0.643866 0.866559
O O12 0.983513 0.599348 0.921039
O O13 0.231036 0.583627 0.993434
O O14 0.385614 0.827006 0.250000
O O15 0.278807 0.733922 0.331749
O O16 0.746031 0.113112 0.372396
O O17 0.749548 0.982782 0.410850
O O18 0.855395 0.146288 0.250000
#
# Coordination Sequence:
#
# PCOD8231906 Si02
#       8
#     8   8   8   8   8   8   8   8
#     4  12  24  37  55  79 112 152 194 227 275 329
#     4   8  15  32  55  89 115 136 171 229 280 328
#     4  10  19  35  59  85 110 142 183 231 279 327
#     4   9  18  34  62  85 111 142 179 228 283 327
#     4  11  25  41  52  76 117 152 187 231 274 327
#     4   8  16  31  59  88 115 134 175 229 280 325
#     4   9  17  36  58  88 111 138 180 233 275 328
#     4   9  19  36  58  83 112 145 183 226 276 329
#
# _framework density 18.728539999999999
#
# number of rings (size 3 to 8) (size 9 to 14) (size 15 to 20)
#    0.000    2.500    1.250    2.625    1.750    0.500 
#    0.000    7.500    0.000    1.500    0.000    0.000 
#    0.000    0.000    0.000    0.000    0.000    0.000 
#
# Total GULP energy -792938.629192 kJ/mol
# GULP energy per Si atom -12389.666081 kJ/mol
# Density = 1.868591 g / cm^3
# Si number density = 18.728540 Si / 1000 Ang^3
#
#
#
# Elastic Constant Matrix: (Units=GPa)
#
#
# Indices 1 2 3 4 5 6 
#
# 1 64.7641 38.2033 37.5543 0.0000 0.0000 0.0000
# 2 38.2033 118.5693 52.7888 0.0000 0.0000 0.0000
# 3 37.5543 52.7888 88.7457 0.0000 0.0000 0.0000
# 4 0.0000 0.0000 0.0000 29.1542 0.0000 0.0000
# 5 0.0000 0.0000 0.0000 0.0000 23.4780 0.0000
# 6 0.0000 0.0000 0.0000 0.0000 0.0000 -8.7102
#
#
#
# Elastic Compliance Matrix: (Units=1/GPa)
#
#
# Indices 1 2 3 4 5 6 
#
# 1 0.021746 -0.003958 -0.006848 0.000000 0.000000 0.000000
# 2 -0.003958 0.012192 -0.005578 0.000000 0.000000 0.000000
# 3 -0.006848 -0.005578 0.017484 0.000000 0.000000 0.000000
# 4 0.000000 0.000000 0.000000 0.034300 0.000000 0.000000
# 5 0.000000 0.000000 0.000000 0.000000 0.042593 0.000000
# 6 0.000000 0.000000 0.000000 0.000000 0.000000 -0.114808
#
#
# Mechanical properties :
#
#
# Convention : Reuss Voigt Hill
#
# Bulk Modulus (GPa) = 53.60375 58.79686 56.20031
# Shear Modulus (GPa) = 95.25137 18.35326 56.80232
#
# Velocity S-wave (km/s) = 7.13928 3.13383 5.51318
# Velocity P-wave (km/s) = 9.83070 6.67510 8.40237
#
# Compressibility (1/GPa) = 0.01865541
#
# Stress axis : x y z
#
# Youngs Moduli (GPa) = 45.98498 82.01883 57.19604
#
# Poissons Ratio (x) = 0.32462 0.39168
# Poissons Ratio (y) = 0.18200 0.31901
# Poissons Ratio (z) = 0.31491 0.45746
#
# Static dielectric constant tensor:
#      x y z
#    x 3.145300 0.000000 0.000000 
#    y 0.000000 3.913630 0.000000 
#    z 0.000000 0.000000 3.785580 
# 
# 
# High freq. dielectric constant tensor:
#      x y z
#    x 1.695040 0.000000 0.000000 
#    y 0.000000 1.745750 0.000000 
#    z 0.000000 0.000000 1.719350 
# 
# From -- ./inp_files/21446.got.cif
#   From: 2010.03.12/outbox.cif.g09.slc.cpg/sg57_11_cif.got.tgz:21446.got - 2010.04.16 15:48:40.
