data_PCOD8231728
_publ_section_title
;
Structure prediction by ZEFSAII (Michael W. Deem and Ramdas Pophale) SiO2 
 PCOD8231728
Probable space group: P B C M
;
_chemical_formula_sum "Si O2"
_cell_formula_units_Z 48
_cell_length_a 8.874143
_cell_length_b 16.095656
_cell_length_c 18.341328
_cell_angle_alpha 90.000000
_cell_angle_beta 90.000000
_cell_angle_gamma 90.000000
_cell_volume 2619.786392
_symmetry_space_group_name_H-M "P B C M"
_symmetry_group_IT_number 57
_symmetry_cell_setting 'orthorhombic'
loop_
_space_group_symop_operation_xyz
x,y,z
-x,-y,1/2+z
x,1/2-y,-z
-x,1/2+y,1/2-z
-x,-y,-z
x,y,1/2-z
-x,1/2+y,z
x,1/2-y,1/2+z
loop_
_atom_site_type_symbol
_atom_site_label
_atom_site_fract_x
_atom_site_fract_y
_atom_site_fract_z
Si Si1 0.195113 0.277189 0.576960
Si Si2 0.122261 0.957349 0.094048
Si Si3 0.655505 0.574200 0.335125
Si Si4 0.303264 0.946312 0.666409
Si Si5 0.151330 0.115549 0.666647
Si Si6 0.920114 0.386737 0.555733
O O1 0.269495 0.250000 0.500000
O O2 0.289252 0.348114 0.617569
O O3 0.204229 0.195889 0.624925
O O4 0.021703 0.304273 0.561848
O O5 0.022713 0.905592 0.151126
O O6 0.273619 0.988236 0.134355
O O7 0.156218 0.898664 0.024044
O O8 0.032303 0.037744 0.068865
O O9 0.699631 0.585884 0.250000
O O10 0.478289 0.567339 0.345677
O O11 0.255044 0.930389 0.750000
O O12 0.211039 0.881681 0.616351
O O13 0.259103 0.039551 0.642477
O O14 0.172212 0.136820 0.750000
#
# Coordination Sequence:
#
# PCOD8231728 Si02
#       6
#     8   8   8   8   8   8
#     4  11  21  36  55  82 114 146 185 234 279 331
#     4   9  17  32  55  80 104 135 180 226 266 321
#     4  10  21  37  57  83 113 147 186 228 276 334
#     4   9  20  37  56  80 111 147 187 228 275 335
#     4  10  19  34  57  80 106 144 186 231 280 327
#     4   9  18  33  54  77 107 140 178 223 271 321
#
# _framework density 18.322105000000001
#
# number of rings (size 3 to 8) (size 9 to 14) (size 15 to 20)
#    0.000    2.333    1.667    1.000    2.333    5.333 
#    0.000    2.500    0.000    2.000    0.000    0.000 
#    0.000    0.000    0.000    0.000    0.000    0.000 
#
# Total GULP energy -595054.011441 kJ/mol
# GULP energy per Si atom -12396.958572 kJ/mol
# Density = 1.828040 g / cm^3
# Si number density = 18.322105 Si / 1000 Ang^3
#
#
#
# Elastic Constant Matrix: (Units=GPa)
#
#
# Indices 1 2 3 4 5 6 
#
# 1 88.8805 29.7827 53.4620 0.0000 0.0000 0.0000
# 2 29.7827 69.6684 48.1139 0.0000 0.0000 0.0000
# 3 53.4620 48.1139 117.1091 0.0000 0.0000 0.0000
# 4 0.0000 0.0000 0.0000 32.9238 0.0000 0.0000
# 5 0.0000 0.0000 0.0000 0.0000 23.6187 0.0000
# 6 0.0000 0.0000 0.0000 0.0000 0.0000 15.1274
#
#
#
# Elastic Compliance Matrix: (Units=1/GPa)
#
#
# Indices 1 2 3 4 5 6 
#
# 1 0.015810 -0.002477 -0.006200 0.000000 0.000000 0.000000
# 2 -0.002477 0.020428 -0.007262 0.000000 0.000000 0.000000
# 3 -0.006200 -0.007262 0.014353 0.000000 0.000000 0.000000
# 4 0.000000 0.000000 0.000000 0.030373 0.000000 0.000000
# 5 0.000000 0.000000 0.000000 0.000000 0.042339 0.000000
# 6 0.000000 0.000000 0.000000 0.000000 0.000000 0.066105
#
#
# Mechanical properties :
#
#
# Convention : Reuss Voigt Hill
#
# Bulk Modulus (GPa) = 53.43790 59.81948 56.62869
# Shear Modulus (GPa) = 21.97567 23.95394 22.96481
#
# Velocity S-wave (km/s) = 3.46700 3.61969 3.54417
# Velocity P-wave (km/s) = 6.72725 7.08444 6.90815
#
# Compressibility (1/GPa) = 0.01871331
#
# Stress axis : x y z
#
# Youngs Moduli (GPa) = 63.24943 48.95295 69.67205
#
# Poissons Ratio (x) = 0.12126 0.43197
# Poissons Ratio (y) = 0.15667 0.50595
# Poissons Ratio (z) = 0.39215 0.35549
#
# Static dielectric constant tensor:
#      x y z
#    x 3.248950 0.000000 0.000000 
#    y 0.000000 3.370900 0.000000 
#    z 0.000000 0.000000 3.862220 
# 
# 
# High freq. dielectric constant tensor:
#      x y z
#    x 1.687350 0.000000 0.000000 
#    y 0.000000 1.699180 0.000000 
#    z 0.000000 0.000000 1.729400 
# 
# From -- ./inp_files/20896.got.cif
#   From: 2010.03.12/outbox.cif.g09.slc.cpg/sg57_11_cif.got.tgz:20896.got - 2010.04.16 15:48:40.
