data_PCOD8231730
_publ_section_title
;
Structure prediction by ZEFSAII (Michael W. Deem and Ramdas Pophale) SiO2 
 PCOD8231730
Probable space group: P B C M
;
_chemical_formula_sum "Si O2"
_cell_formula_units_Z 64
_cell_length_a 11.898006
_cell_length_b 18.135459
_cell_length_c 15.955435
_cell_angle_alpha 90.000000
_cell_angle_beta 90.000000
_cell_angle_gamma 90.000000
_cell_volume 3442.796751
_symmetry_space_group_name_H-M "P B C M"
_symmetry_group_IT_number 57
_symmetry_cell_setting 'orthorhombic'
loop_
_space_group_symop_operation_xyz
x,y,z
-x,-y,1/2+z
x,1/2-y,-z
-x,1/2+y,1/2-z
-x,-y,-z
x,y,1/2-z
-x,1/2+y,z
x,1/2-y,1/2+z
loop_
_atom_site_type_symbol
_atom_site_label
_atom_site_fract_x
_atom_site_fract_y
_atom_site_fract_z
Si Si1 0.787158 0.161769 0.845048
Si Si2 0.383002 0.974965 0.535744
Si Si3 0.015152 0.396262 0.959867
Si Si4 0.816221 0.692852 0.929637
Si Si5 0.989891 0.234340 0.155524
Si Si6 0.582399 0.173611 0.960266
Si Si7 0.166113 0.521224 0.565287
Si Si8 0.386550 0.103788 0.849910
O O1 0.749317 0.176635 0.750000
O O2 0.903360 0.201278 0.867877
O O3 0.693529 0.192693 0.907701
O O4 0.806953 0.074242 0.856674
O O5 0.386087 0.885044 0.534973
O O6 0.283219 0.004372 0.476173
O O7 0.500000 0.000000 0.500000
O O8 0.370285 0.016828 0.625503
O O9 0.094549 0.450636 0.904330
O O10 0.960930 0.334545 0.902101
O O11 0.094725 0.364223 0.032172
O O12 0.907246 0.437699 0.995120
O O13 0.718436 0.650512 0.882355
O O14 0.882920 0.739289 0.859729
O O15 0.769159 0.750000 0.000000
O O16 0.975832 0.208223 0.250000
O O17 0.494656 0.138273 0.895400
O O18 0.536960 0.250000 0.000000
O O19 0.399517 0.109658 0.750000
#
# Coordination Sequence:
#
# PCOD8231730 Si02
#       8
#     8   8   8   8   8   8   8   8
#     4  10  21  35  55  83 114 146 186 239 288 333
#     4   9  20  37  58  83 109 144 185 229 278 337
#     4  10  20  33  56  79 109 150 191 230 271 342
#     4  10  19  34  57  80 112 151 194 228 278 337
#     4  10  21  35  52  81 115 148 185 234 286 324
#     4  10  22  38  63  84 110 150 194 231 276 349
#     4  10  19  35  57  80 107 146 195 225 277 340
#     4  11  21  38  59  85 115 146 185 238 290 332
#
# _framework density 18.589538000000001
#
# number of rings (size 3 to 8) (size 9 to 14) (size 15 to 20)
#    0.000    2.000    2.500    1.125    3.500    0.500 
#    0.000    1.875    0.000    0.000    0.000    0.000 
#    0.000    0.000    0.000    0.000    0.000    0.000 
#
# Total GULP energy -793240.077091 kJ/mol
# GULP energy per Si atom -12394.376205 kJ/mol
# Density = 1.854723 g / cm^3
# Si number density = 18.589538 Si / 1000 Ang^3
#
#
#
# Elastic Constant Matrix: (Units=GPa)
#
#
# Indices 1 2 3 4 5 6 
#
# 1 83.8078 23.3417 37.2705 0.0000 0.0000 0.0000
# 2 23.3417 92.3734 47.4049 0.0000 0.0000 0.0000
# 3 37.2705 47.4049 91.4380 0.0000 0.0000 0.0000
# 4 0.0000 0.0000 0.0000 23.2885 0.0000 0.0000
# 5 0.0000 0.0000 0.0000 0.0000 23.8143 0.0000
# 6 0.0000 0.0000 0.0000 0.0000 0.0000 25.1150
#
#
#
# Elastic Compliance Matrix: (Units=1/GPa)
#
#
# Indices 1 2 3 4 5 6 
#
# 1 0.014625 -0.000867 -0.005512 0.000000 0.000000 0.000000
# 2 -0.000867 0.014801 -0.007320 0.000000 0.000000 0.000000
# 3 -0.005512 -0.007320 0.016978 0.000000 0.000000 0.000000
# 4 0.000000 0.000000 0.000000 0.042940 0.000000 0.000000
# 5 0.000000 0.000000 0.000000 0.000000 0.041992 0.000000
# 6 0.000000 0.000000 0.000000 0.000000 0.000000 0.039817
#
#
# Mechanical properties :
#
#
# Convention : Reuss Voigt Hill
#
# Bulk Modulus (GPa) = 52.61381 53.73928 53.17654
# Shear Modulus (GPa) = 24.40394 25.08370 24.74382
#
# Velocity S-wave (km/s) = 3.62716 3.67733 3.65233
# Velocity P-wave (km/s) = 6.77540 6.85576 6.81570
#
# Compressibility (1/GPa) = 0.01900642
#
# Stress axis : x y z
#
# Youngs Moduli (GPa) = 68.37793 67.56154 58.89987
#
# Poissons Ratio (x) = 0.05858 0.32463
# Poissons Ratio (y) = 0.05928 0.43116
# Poissons Ratio (z) = 0.37687 0.49456
#
# Static dielectric constant tensor:
#      x y z
#    x 3.542210 0.000000 0.000000 
#    y 0.000000 3.823020 0.000000 
#    z 0.000000 0.000000 3.275580 
# 
# 
# High freq. dielectric constant tensor:
#      x y z
#    x 1.735940 0.000000 0.000000 
#    y 0.000000 1.727280 0.000000 
#    z 0.000000 0.000000 1.694160 
# 
# From -- ./inp_files/17998.got.cif
#   From: 2010.03.12/outbox.cif.g09.slc.cpg/sg57_9_cif.got.tgz:17998.got - 2010.04.16 15:48:40.
