data_PCOD8231680
_publ_section_title
;
Structure prediction by ZEFSAII (Michael W. Deem and Ramdas Pophale) SiO2 
 PCOD8231680
Probable space group: P B C M
;
_chemical_formula_sum "Si O2"
_cell_formula_units_Z 56
_cell_length_a 14.073662
_cell_length_b 23.622460
_cell_length_c 8.527697
_cell_angle_alpha 90.000000
_cell_angle_beta 90.000000
_cell_angle_gamma 90.000000
_cell_volume 2835.071393
_symmetry_space_group_name_H-M "P B C M"
_symmetry_group_IT_number 57
_symmetry_cell_setting 'orthorhombic'
loop_
_space_group_symop_operation_xyz
x,y,z
-x,-y,1/2+z
x,1/2-y,-z
-x,1/2+y,1/2-z
-x,-y,-z
x,y,1/2-z
-x,1/2+y,z
x,1/2-y,1/2+z
loop_
_atom_site_type_symbol
_atom_site_label
_atom_site_fract_x
_atom_site_fract_y
_atom_site_fract_z
Si Si1 0.284197 0.192191 0.429953
Si Si2 0.759266 0.089201 0.063392
Si Si3 0.552328 0.624648 0.566683
Si Si4 0.626649 0.313522 0.933225
Si Si5 0.848749 0.607916 0.929254
Si Si6 0.318375 0.475036 0.070701
Si Si7 0.969716 0.060459 0.437040
O O1 0.246524 0.250000 0.500000
O O2 0.316996 0.195955 0.250000
O O3 0.371298 0.173667 0.539554
O O4 0.195781 0.150893 0.447488
O O5 0.758503 0.083612 0.250000
O O6 0.720481 0.151247 0.011796
O O7 0.866160 0.080164 0.001738
O O8 0.690081 0.038364 0.996824
O O9 0.530035 0.619406 0.750000
O O10 0.458513 0.644450 0.478291
O O11 0.599530 0.566003 0.495564
O O12 0.625430 0.304876 0.750000
O O13 0.622878 0.250000 0.000000
O O14 0.844369 0.629998 0.750000
O O15 0.788376 0.549968 0.943805
O O16 0.956773 0.603246 0.984022
O O17 0.349016 0.478972 0.250000
O O18 0.975871 0.061266 0.250000
O O19 0.000000 0.000000 0.500000
#
# Coordination Sequence:
#
# PCOD8231680 Si02
#       7
#     8   8   8   8   8   8   8
#     4  11  21  35  55  82 114 149 192 235 283 341
#     4   9  19  36  58  83 112 151 190 235 290 340
#     4  10  20  35  58  85 115 148 185 232 287 344
#     4  11  23  40  60  79 108 150 199 242 282 332
#     4  10  19  34  55  82 117 150 185 232 285 340
#     4   8  15  31  55  83 114 144 176 222 284 341
#     4  11  20  34  58  86 114 148 190 232 286 351
#
# _framework density 19.752589
#
# number of rings (size 3 to 8) (size 9 to 14) (size 15 to 20)
#    0.000    2.000    1.429    4.286    0.000    0.571 
#    0.000    3.571    0.000    1.714    0.000    0.000 
#    0.000    0.000    0.000    0.000    0.000    0.000 
#
# Total GULP energy -693857.039439 kJ/mol
# GULP energy per Si atom -12390.304276 kJ/mol
# Density = 1.970763 g / cm^3
# Si number density = 19.752589 Si / 1000 Ang^3
#
#
#
# Elastic Constant Matrix: (Units=GPa)
#
#
# Indices 1 2 3 4 5 6 
#
# 1 125.2528 55.8923 17.3420 0.0000 0.0000 0.0000
# 2 55.8923 96.3057 31.5325 0.0000 0.0000 0.0000
# 3 17.3420 31.5325 42.6654 0.0000 0.0000 0.0000
# 4 0.0000 0.0000 0.0000 23.1194 0.0000 0.0000
# 5 0.0000 0.0000 0.0000 0.0000 25.4488 0.0000
# 6 0.0000 0.0000 0.0000 0.0000 0.0000 -1.4869
#
#
#
# Elastic Compliance Matrix: (Units=1/GPa)
#
#
# Indices 1 2 3 4 5 6 
#
# 1 0.010777 -0.006359 0.000319 0.000000 0.000000 0.000000
# 2 -0.006359 0.017451 -0.010312 0.000000 0.000000 0.000000
# 3 0.000319 -0.010312 0.030930 0.000000 0.000000 0.000000
# 4 0.000000 0.000000 0.000000 0.043254 0.000000 0.000000
# 5 0.000000 0.000000 0.000000 0.000000 0.039295 0.000000
# 6 0.000000 0.000000 0.000000 0.000000 0.000000 -0.672552
#
#
# Mechanical properties :
#
#
# Convention : Reuss Voigt Hill
#
# Bulk Modulus (GPa) = 37.80248 52.63971 45.22109
# Shear Modulus (GPa) = -10.21820 20.04675 4.91428
#
# Velocity S-wave (km/s) = -2.27691 3.18919 1.57902
# Velocity P-wave (km/s) = 3.50244 6.34576 5.12522
#
# Compressibility (1/GPa) = 0.02645329
#
# Stress axis : x y z
#
# Youngs Moduli (GPa) = 92.78660 57.30374 32.33107
#
# Poissons Ratio (x) = 0.36442 -0.01033
# Poissons Ratio (y) = 0.59007 0.33341
# Poissons Ratio (z) = -0.02963 0.59094
#
# Static dielectric constant tensor:
#      x y z
#    x 3.786200 0.000000 0.000000 
#    y 0.000000 3.937320 0.000000 
#    z 0.000000 0.000000 3.436330 
# 
# 
# High freq. dielectric constant tensor:
#      x y z
#    x 1.766530 0.000000 0.000000 
#    y 0.000000 1.767730 0.000000 
#    z 0.000000 0.000000 1.750980 
# 
# From -- ./inp_files/5101.got.cif
#   From: 2010.03.12/outbox.cif.g09.slc.cpg/sg57_3_cif.got.tgz:5101.got - 2010.04.16 15:48:40.
