data_PCOD8231418
_publ_section_title
;
Structure prediction by ZEFSAII (Michael W. Deem and Ramdas Pophale) SiO2 
 PCOD8231418
Probable space group: P B C M
;
_chemical_formula_sum "Si O2"
_cell_formula_units_Z 48
_cell_length_a 9.531935
_cell_length_b 15.331443
_cell_length_c 17.315627
_cell_angle_alpha 90.000000
_cell_angle_beta 90.000000
_cell_angle_gamma 90.000000
_cell_volume 2530.476607
_symmetry_space_group_name_H-M "P B C M"
_symmetry_group_IT_number 57
_symmetry_cell_setting 'orthorhombic'
loop_
_space_group_symop_operation_xyz
x,y,z
-x,-y,1/2+z
x,1/2-y,-z
-x,1/2+y,1/2-z
-x,-y,-z
x,y,1/2-z
-x,1/2+y,z
x,1/2-y,1/2+z
loop_
_atom_site_type_symbol
_atom_site_label
_atom_site_fract_x
_atom_site_fract_y
_atom_site_fract_z
Si Si1 0.337180 0.391767 0.157807
Si Si2 0.148226 0.756316 0.842047
Si Si3 0.844429 0.050285 0.160064
Si Si4 0.655865 0.102958 0.658309
Si Si5 0.836982 0.558100 0.340440
Si Si6 0.848650 0.743311 0.409216
O O1 0.326944 0.386623 0.250000
O O2 0.256488 0.476764 0.123755
O O3 0.497022 0.397136 0.128644
O O4 0.272415 0.305356 0.122179
O O5 0.138860 0.756499 0.750000
O O6 0.187883 0.853017 0.873666
O O7 0.263810 0.688564 0.873429
O O8 0.995985 0.728062 0.872194
O O9 0.812747 0.053093 0.250000
O O10 0.005310 0.024787 0.143349
O O11 0.662704 0.103986 0.750000
O O12 0.732438 0.015932 0.628024
O O13 0.815763 0.577637 0.250000
O O14 0.804354 0.645696 0.386673
O O15 0.861293 0.750000 0.500000
#
# Coordination Sequence:
#
# PCOD8231418 Si02
#       6
#     8   8   8   8   8   8
#     4  10  19  33  53  79 106 134 166 210 261 311
#     4   9  17  34  56  78 102 132 170 216 260 305
#     4   8  15  28  51  76  98 125 162 204 251 300
#     4   9  18  31  54  82 104 129 168 212 261 312
#     4   9  17  33  54  76 100 131 169 213 256 301
#     4  11  22  35  51  75 103 139 180 215 252 301
#
# _framework density 18.968758999999999
#
# number of rings (size 3 to 8) (size 9 to 14) (size 15 to 20)
#    0.000    2.667    0.000    3.500    0.000    4.000 
#    0.000   14.167    0.000    0.000    0.000    0.000 
#    0.000    0.000    0.000    0.000    0.000    0.000 
#
# Total GULP energy -595138.030275 kJ/mol
# GULP energy per Si atom -12398.708964 kJ/mol
# Density = 1.892559 g / cm^3
# Si number density = 18.968759 Si / 1000 Ang^3
#
#
#
# Elastic Constant Matrix: (Units=GPa)
#
#
# Indices 1 2 3 4 5 6 
#
# 1 143.8220 92.3083 22.6642 0.0000 0.0000 0.0000
# 2 92.3083 131.8366 23.5427 0.0000 0.0000 0.0000
# 3 22.6642 23.5427 31.9693 0.0000 0.0000 0.0000
# 4 0.0000 0.0000 0.0000 6.2159 0.0000 0.0000
# 5 0.0000 0.0000 0.0000 0.0000 6.4112 0.0000
# 6 0.0000 0.0000 0.0000 0.0000 0.0000 24.1367
#
#
#
# Elastic Compliance Matrix: (Units=1/GPa)
#
#
# Indices 1 2 3 4 5 6 
#
# 1 0.012851 -0.008487 -0.002861 0.000000 0.000000 0.000000
# 2 -0.008487 0.014339 -0.004542 0.000000 0.000000 0.000000
# 3 -0.002861 -0.004542 0.036653 0.000000 0.000000 0.000000
# 4 0.000000 0.000000 0.000000 0.160878 0.000000 0.000000
# 5 0.000000 0.000000 0.000000 0.000000 0.155978 0.000000
# 6 0.000000 0.000000 0.000000 0.000000 0.000000 0.041431
#
#
# Mechanical properties :
#
#
# Convention : Reuss Voigt Hill
#
# Bulk Modulus (GPa) = 31.18895 64.96203 48.07549
# Shear Modulus (GPa) = 10.76201 18.62694 14.69447
#
# Velocity S-wave (km/s) = 2.38450 3.13706 2.78630
# Velocity P-wave (km/s) = 4.90501 6.88787 5.97921
#
# Compressibility (1/GPa) = 0.03206264
#
# Stress axis : x y z
#
# Youngs Moduli (GPa) = 77.81474 69.74106 27.28290
#
# Poissons Ratio (x) = 0.59190 0.07804
# Poissons Ratio (y) = 0.66042 0.12393
# Poissons Ratio (z) = 0.22259 0.31680
#
# Static dielectric constant tensor:
#      x y z
#    x 3.575850 0.000000 0.000000 
#    y 0.000000 3.835740 0.000000 
#    z 0.000000 0.000000 2.981080 
# 
# 
# High freq. dielectric constant tensor:
#      x y z
#    x 1.735580 0.000000 0.000000 
#    y 0.000000 1.754420 0.000000 
#    z 0.000000 0.000000 1.686390 
# 
# From -- ./inp_files/20892.got.cif
#   From: 2010.03.12/outbox.cif.g09.slc.cpg/sg57_11_cif.got.tgz:20892.got - 2010.04.16 15:48:40.
