data_PCOD8231465
_publ_section_title
;
Structure prediction by ZEFSAII (Michael W. Deem and Ramdas Pophale) SiO2 
 PCOD8231465
Probable space group: P B C M
;
_chemical_formula_sum "Si O2"
_cell_formula_units_Z 64
_cell_length_a 22.881567
_cell_length_b 15.809803
_cell_length_c 8.910140
_cell_angle_alpha 90.000000
_cell_angle_beta 90.000000
_cell_angle_gamma 90.000000
_cell_volume 3223.270469
_symmetry_space_group_name_H-M "P B C M"
_symmetry_group_IT_number 57
_symmetry_cell_setting 'orthorhombic'
loop_
_space_group_symop_operation_xyz
x,y,z
-x,-y,1/2+z
x,1/2-y,-z
-x,1/2+y,1/2-z
-x,-y,-z
x,y,1/2-z
-x,1/2+y,z
x,1/2-y,1/2+z
loop_
_atom_site_type_symbol
_atom_site_label
_atom_site_fract_x
_atom_site_fract_y
_atom_site_fract_z
Si Si1 0.358160 0.921751 0.417513
Si Si2 0.055817 0.836320 0.074574
Si Si3 0.312555 0.332382 0.425478
Si Si4 0.868717 0.003862 0.572366
Si Si5 0.578325 0.598583 0.418489
Si Si6 0.472262 0.663246 0.927565
Si Si7 0.252277 0.992607 0.924571
Si Si8 0.920835 0.837556 0.072891
O O1 0.334279 0.902381 0.250000
O O2 0.404382 0.851530 0.473407
O O3 0.303668 0.927251 0.530732
O O4 0.396286 0.005591 0.415127
O O5 0.064652 0.824599 0.250000
O O6 0.988499 0.850653 0.030801
O O7 0.090293 0.918967 0.016779
O O8 0.079917 0.750000 0.000000
O O9 0.282350 0.250000 0.500000
O O10 0.318486 0.318971 0.250000
O O11 0.376962 0.341000 0.493964
O O12 0.272101 0.412428 0.463575
O O13 0.873224 0.991189 0.750000
O O14 0.885841 0.916763 0.492236
O O15 0.803606 0.028952 0.524523
O O16 0.569948 0.633576 0.250000
O O17 0.516311 0.594025 0.503720
O O18 0.478867 0.662768 0.750000
O O19 0.493376 0.750000 0.000000
O O20 0.237677 0.981035 0.750000
O O21 0.910140 0.832999 0.250000
O O22 0.897872 0.750000 0.000000
#
# Coordination Sequence:
#
# PCOD8231465 Si02
#       8
#     8   8   8   8   8   8   8   8
#     4   9  20  38  57  75  99 134 173 215 263 314
#     4   9  20  37  59  87 117 151 190 235 284 333
#     4  10  20  34  52  75 104 137 174 216 264 318
#     4  11  22  37  58  85 117 152 191 235 282 331
#     4  10  19  33  54  78 103 132 167 208 259 316
#     4  11  22  35  52  77 106 133 166 210 261 316
#     4  10  22  38  56  78 104 139 184 228 269 319
#     4  10  20  36  58  87 122 156 191 229 276 333
#
# _framework density 19.855611
#
# number of rings (size 3 to 8) (size 9 to 14) (size 15 to 20)
#    0.000    2.000    0.000    3.375    0.000    5.000 
#    0.000    1.875    0.000    0.000    0.000    0.000 
#    0.000    0.000    0.000    0.000    0.000    0.000 
#
# Total GULP energy -793658.949703 kJ/mol
# GULP energy per Si atom -12400.921089 kJ/mol
# Density = 1.981042 g / cm^3
# Si number density = 19.855611 Si / 1000 Ang^3
#
#
#
# Elastic Constant Matrix: (Units=GPa)
#
#
# Indices 1 2 3 4 5 6 
#
# 1 89.2252 26.6581 38.6169 0.0000 0.0000 0.0000
# 2 26.6581 61.4092 24.1519 0.0000 0.0000 0.0000
# 3 38.6169 24.1519 82.9571 0.0000 0.0000 0.0000
# 4 0.0000 0.0000 0.0000 30.2967 0.0000 0.0000
# 5 0.0000 0.0000 0.0000 0.0000 33.6253 0.0000
# 6 0.0000 0.0000 0.0000 0.0000 0.0000 15.4741
#
#
#
# Elastic Compliance Matrix: (Units=1/GPa)
#
#
# Indices 1 2 3 4 5 6 
#
# 1 0.014952 -0.004239 -0.005726 0.000000 0.000000 0.000000
# 2 -0.004239 0.019592 -0.003731 0.000000 0.000000 0.000000
# 3 -0.005726 -0.003731 0.015806 0.000000 0.000000 0.000000
# 4 0.000000 0.000000 0.000000 0.033007 0.000000 0.000000
# 5 0.000000 0.000000 0.000000 0.000000 0.029739 0.000000
# 6 0.000000 0.000000 0.000000 0.000000 0.000000 0.064624
#
#
# Mechanical properties :
#
#
# Convention : Reuss Voigt Hill
#
# Bulk Modulus (GPa) = 43.55671 45.82725 44.69198
# Shear Modulus (GPa) = 23.50011 25.49021 24.49516
#
# Velocity S-wave (km/s) = 3.44401 3.58687 3.51617
# Velocity P-wave (km/s) = 6.14811 6.34701 6.24835
#
# Compressibility (1/GPa) = 0.02295858
#
# Stress axis : x y z
#
# Youngs Moduli (GPa) = 66.87880 51.04248 63.26632
#
# Poissons Ratio (x) = 0.21636 0.36229
# Poissons Ratio (y) = 0.28349 0.23602
# Poissons Ratio (z) = 0.38297 0.19042
#
# Static dielectric constant tensor:
#      x y z
#    x 3.603710 0.000000 0.000000 
#    y 0.000000 3.514790 0.000000 
#    z 0.000000 0.000000 3.644130 
# 
# 
# High freq. dielectric constant tensor:
#      x y z
#    x 1.767870 0.000000 0.000000 
#    y 0.000000 1.768420 0.000000 
#    z 0.000000 0.000000 1.781460 
# 
# From -- ./inp_files/9436.got.cif
#   From: 2010.03.12/outbox.cif.g09.slc.cpg/sg57_5_cif.got.tgz:9436.got - 2010.04.16 15:48:40.
