data_PCOD8231249
_publ_section_title
;
Structure prediction by ZEFSAII (Michael W. Deem and Ramdas Pophale) SiO2 
 PCOD8231249
Probable space group: P B C M
;
_chemical_formula_sum "Si O2"
_cell_formula_units_Z 64
_cell_length_a 24.442494
_cell_length_b 14.422522
_cell_length_c 9.085178
_cell_angle_alpha 90.000000
_cell_angle_beta 90.000000
_cell_angle_gamma 90.000000
_cell_volume 3202.728821
_symmetry_space_group_name_H-M "P B C M"
_symmetry_group_IT_number 57
_symmetry_cell_setting 'orthorhombic'
loop_
_space_group_symop_operation_xyz
x,y,z
-x,-y,1/2+z
x,1/2-y,-z
-x,1/2+y,1/2-z
-x,-y,-z
x,y,1/2-z
-x,1/2+y,z
x,1/2-y,1/2+z
loop_
_atom_site_type_symbol
_atom_site_label
_atom_site_fract_x
_atom_site_fract_y
_atom_site_fract_z
Si Si1 0.404074 0.338630 0.584229
Si Si2 0.326870 0.036233 0.580155
Si Si3 0.519532 0.410382 0.583599
Si Si4 0.870978 0.960276 0.582536
Si Si5 0.365359 0.840393 0.919969
Si Si6 0.221252 0.349677 0.424138
Si Si7 0.025237 0.340893 0.921314
Si Si8 0.911226 0.342834 0.423729
O O1 0.380146 0.250000 0.500000
O O2 0.382387 0.333922 0.750000
O O3 0.379820 0.430181 0.509189
O O4 0.469856 0.337299 0.577642
O O5 0.337710 0.058428 0.750000
O O6 0.272534 0.087759 0.524613
O O7 0.323184 0.925438 0.553820
O O8 0.500000 0.500000 0.500000
O O9 0.532939 0.440936 0.750000
O O10 0.574358 0.365584 0.514867
O O11 0.851560 0.941465 0.750000
O O12 0.832241 0.905659 0.471707
O O13 0.932759 0.924988 0.560363
O O14 0.870683 0.070391 0.547747
O O15 0.370682 0.815063 0.750000
O O16 0.341537 0.750000 0.000000
O O17 0.224502 0.250000 0.500000
O O18 0.219580 0.335055 0.250000
O O19 0.013451 0.319737 0.750000
O O20 0.050783 0.250000 0.000000
O O21 0.969271 0.366965 0.003070
O O22 0.886484 0.250000 0.500000
O O23 0.919092 0.326184 0.250000
#
# Coordination Sequence:
#
# PCOD8231249 Si02
#       8
#     8   8   8   8   8   8   8   8
#     4  11  22  34  54  84 112 146 186 223 275 334
#     4  10  22  41  61  82 111 146 186 234 283 331
#     4  10  20  34  54  81 113 150 185 225 274 329
#     4  10  22  38  57  83 115 151 192 238 286 337
#     4  10  21  38  59  83 114 149 186 231 279 330
#     4  11  24  41  63  87 112 145 185 232 286 341
#     4  10  19  32  52  81 116 153 191 232 282 339
#     4  10  20  35  55  82 116 154 194 235 280 332
#
# _framework density 19.982959000000001
#
# number of rings (size 3 to 8) (size 9 to 14) (size 15 to 20)
#    0.000    1.750    1.250    3.750    0.000    6.500 
#    0.000    0.625    0.000    3.000    0.000    0.000 
#    0.000    0.000    0.000    0.000    0.000    0.000 
#
# Total GULP energy -793603.389421 kJ/mol
# GULP energy per Si atom -12400.052960 kJ/mol
# Density = 1.993748 g / cm^3
# Si number density = 19.982959 Si / 1000 Ang^3
#
#
#
# Elastic Constant Matrix: (Units=GPa)
#
#
# Indices 1 2 3 4 5 6 
#
# 1 69.8533 44.9805 34.5843 0.0000 0.0000 0.0000
# 2 44.9805 146.5638 61.6337 0.0000 0.0000 0.0000
# 3 34.5843 61.6337 99.4806 0.0000 0.0000 0.0000
# 4 0.0000 0.0000 0.0000 34.5637 0.0000 0.0000
# 5 0.0000 0.0000 0.0000 0.0000 20.5435 0.0000
# 6 0.0000 0.0000 0.0000 0.0000 0.0000 30.8652
#
#
#
# Elastic Compliance Matrix: (Units=1/GPa)
#
#
# Indices 1 2 3 4 5 6 
#
# 1 0.018971 -0.004123 -0.004041 0.000000 0.000000 0.000000
# 2 -0.004123 0.010123 -0.004838 0.000000 0.000000 0.000000
# 3 -0.004041 -0.004838 0.014455 0.000000 0.000000 0.000000
# 4 0.000000 0.000000 0.000000 0.028932 0.000000 0.000000
# 5 0.000000 0.000000 0.000000 0.000000 0.048677 0.000000
# 6 0.000000 0.000000 0.000000 0.000000 0.000000 0.032399
#
#
# Mechanical properties :
#
#
# Convention : Reuss Voigt Hill
#
# Bulk Modulus (GPa) = 56.99845 66.47718 61.73782
# Shear Modulus (GPa) = 26.96730 28.84111 27.90421
#
# Velocity S-wave (km/s) = 3.67756 3.80318 3.74090
# Velocity P-wave (km/s) = 6.82774 7.25429 7.04425
#
# Compressibility (1/GPa) = 0.01754434
#
# Stress axis : x y z
#
# Youngs Moduli (GPa) = 52.71126 98.78529 69.18178
#
# Poissons Ratio (x) = 0.40729 0.27956
# Poissons Ratio (y) = 0.21733 0.33473
# Poissons Ratio (z) = 0.21300 0.47796
#
# Static dielectric constant tensor:
#      x y z
#    x 3.466940 0.000000 0.000000 
#    y 0.000000 3.706180 0.000000 
#    z 0.000000 0.000000 3.563340 
# 
# 
# High freq. dielectric constant tensor:
#      x y z
#    x 1.755840 0.000000 0.000000 
#    y 0.000000 1.789200 0.000000 
#    z 0.000000 0.000000 1.782750 
# 
# From -- ./inp_files/9459.got.cif
#   From: 2010.03.12/outbox.cif.g09.slc.cpg/sg57_5_cif.got.tgz:9459.got - 2010.04.16 15:48:40.
