data_PCOD8231864
_publ_section_title
;
Structure prediction by ZEFSAII (Michael W. Deem and Ramdas Pophale) SiO2 
 PCOD8231864
Probable space group: P B C M
;
_chemical_formula_sum "Si O2"
_cell_formula_units_Z 64
_cell_length_a 20.403832
_cell_length_b 19.301036
_cell_length_c 8.932468
_cell_angle_alpha 90.000000
_cell_angle_beta 90.000000
_cell_angle_gamma 90.000000
_cell_volume 3517.740743
_symmetry_space_group_name_H-M "P B C M"
_symmetry_group_IT_number 57
_symmetry_cell_setting 'orthorhombic'
loop_
_space_group_symop_operation_xyz
x,y,z
-x,-y,1/2+z
x,1/2-y,-z
-x,1/2+y,1/2-z
-x,-y,-z
x,y,1/2-z
-x,1/2+y,z
x,1/2-y,1/2+z
loop_
_atom_site_type_symbol
_atom_site_label
_atom_site_fract_x
_atom_site_fract_y
_atom_site_fract_z
Si Si1 0.186800 0.456563 0.927697
Si Si2 0.767792 0.678459 0.573162
Si Si3 0.064019 0.531625 0.072670
Si Si4 0.893659 0.318512 0.575322
Si Si5 0.438312 0.464958 0.074999
Si Si6 0.254461 0.817458 0.923509
Si Si7 0.303106 0.534954 0.075842
Si Si8 0.384050 0.320673 0.425164
O O1 0.178345 0.453186 0.750000
O O2 0.187941 0.379747 0.995884
O O3 0.126995 0.496999 0.000286
O O4 0.253843 0.494450 0.969655
O O5 0.790839 0.750000 0.500000
O O6 0.780389 0.679540 0.750000
O O7 0.691621 0.664502 0.535006
O O8 0.065193 0.518757 0.250000
O O9 0.064312 0.613572 0.034922
O O10 0.000000 0.500000 0.000000
O O11 0.924929 0.250000 0.500000
O O12 0.893707 0.305039 0.750000
O O13 0.819380 0.330379 0.516166
O O14 0.451104 0.462901 0.250000
O O15 0.375888 0.511716 0.035782
O O16 0.426210 0.386339 0.016232
O O17 0.500000 0.500000 0.000000
O O18 0.252501 0.801961 0.750000
O O19 0.298923 0.883662 0.960398
O O20 0.286323 0.750000 0.000000
O O21 0.285400 0.519147 0.250000
O O22 0.409808 0.250000 0.500000
O O23 0.392662 0.310974 0.250000
#
# Coordination Sequence:
#
# PCOD8231864 Si02
#       8
#     8   8   8   8   8   8   8   8
#     4  12  23  35  57  88 115 147 190 234 282 340
#     4  10  19  35  57  84 117 149 186 236 288 341
#     4  11  23  41  60  84 117 154 192 237 287 339
#     4   9  18  33  56  82 111 144 182 227 278 335
#     4  10  21  37  56  80 112 151 189 232 285 338
#     4   9  17  31  53  80 109 143 181 226 282 335
#     4  10  19  37  58  78 110 150 186 230 289 337
#     4   9  18  33  55  80 108 144 185 229 281 338
#
# _framework density 18.193496
#
# number of rings (size 3 to 8) (size 9 to 14) (size 15 to 20)
#    0.000    2.000    2.500    1.875    0.000    3.000 
#    0.000    1.250    0.000    4.500    0.000    0.000 
#    0.000    0.000    0.000    0.000    0.000    0.000 
#
# Total GULP energy -793625.680030 kJ/mol
# GULP energy per Si atom -12400.401250 kJ/mol
# Density = 1.815209 g / cm^3
# Si number density = 18.193496 Si / 1000 Ang^3
#
#
#
# Elastic Constant Matrix: (Units=GPa)
#
#
# Indices 1 2 3 4 5 6 
#
# 1 74.8442 61.1086 43.0585 0.0000 0.0000 0.0000
# 2 61.1086 175.4102 69.5350 0.0000 0.0000 0.0000
# 3 43.0585 69.5350 82.5294 0.0000 0.0000 0.0000
# 4 0.0000 0.0000 0.0000 36.7516 0.0000 0.0000
# 5 0.0000 0.0000 0.0000 0.0000 27.3096 0.0000
# 6 0.0000 0.0000 0.0000 0.0000 0.0000 27.5361
#
#
#
# Elastic Compliance Matrix: (Units=1/GPa)
#
#
# Indices 1 2 3 4 5 6 
#
# 1 0.021231 -0.004512 -0.007275 0.000000 0.000000 0.000000
# 2 -0.004512 0.009519 -0.005666 0.000000 0.000000 0.000000
# 3 -0.007275 -0.005666 0.020686 0.000000 0.000000 0.000000
# 4 0.000000 0.000000 0.000000 0.027210 0.000000 0.000000
# 5 0.000000 0.000000 0.000000 0.000000 0.036617 0.000000
# 6 0.000000 0.000000 0.000000 0.000000 0.000000 0.036316
#
#
# Mechanical properties :
#
#
# Convention : Reuss Voigt Hill
#
# Bulk Modulus (GPa) = 60.49783 75.57645 68.03714
# Shear Modulus (GPa) = 26.04236 28.92491 27.48364
#
# Velocity S-wave (km/s) = 3.78750 3.99162 3.89090
# Velocity P-wave (km/s) = 7.24234 7.92935 7.59362
#
# Compressibility (1/GPa) = 0.01652952
#
# Stress axis : x y z
#
# Youngs Moduli (GPa) = 47.10173 105.05335 48.34123
#
# Poissons Ratio (x) = 0.47404 0.35168
# Poissons Ratio (y) = 0.21254 0.27390
# Poissons Ratio (z) = 0.34266 0.59523
#
# Static dielectric constant tensor:
#      x y z
#    x 3.047200 0.000000 0.000000 
#    y 0.000000 3.687280 0.000000 
#    z 0.000000 0.000000 3.304090 
# 
# 
# High freq. dielectric constant tensor:
#      x y z
#    x 1.673790 0.000000 0.000000 
#    y 0.000000 1.725270 0.000000 
#    z 0.000000 0.000000 1.703790 
# 
# From -- ./inp_files/7187.got.cif
#   From: 2010.03.12/outbox.cif.g09.slc.cpg/sg57_4_cif.got.tgz:7187.got - 2010.04.16 15:48:40.
