data_PCOD8231917
_publ_section_title
;
Structure prediction by ZEFSAII (Michael W. Deem and Ramdas Pophale) SiO2 
 PCOD8231917
Probable space group: P B C M
;
_chemical_formula_sum "Si O2"
_cell_formula_units_Z 64
_cell_length_a 23.500093
_cell_length_b 15.359679
_cell_length_c 8.421440
_cell_angle_alpha 90.000000
_cell_angle_beta 90.000000
_cell_angle_gamma 90.000000
_cell_volume 3039.751485
_symmetry_space_group_name_H-M "P B C M"
_symmetry_group_IT_number 57
_symmetry_cell_setting 'orthorhombic'
loop_
_space_group_symop_operation_xyz
x,y,z
-x,-y,1/2+z
x,1/2-y,-z
-x,1/2+y,1/2-z
-x,-y,-z
x,y,1/2-z
-x,1/2+y,z
x,1/2-y,1/2+z
loop_
_atom_site_type_symbol
_atom_site_label
_atom_site_fract_x
_atom_site_fract_y
_atom_site_fract_z
Si Si1 0.369666 0.998439 0.566874
Si Si2 0.568254 0.841139 0.935379
Si Si3 0.940060 0.104479 0.932688
Si Si4 0.247709 0.506852 0.935594
Si Si5 0.555289 0.155412 0.936348
Si Si6 0.178786 0.341413 0.937819
Si Si7 0.942156 0.598294 0.435564
Si Si8 0.826347 0.341151 0.934134
O O1 0.378224 0.021741 0.750000
O O2 0.386550 0.082583 0.463438
O O3 0.304705 0.974273 0.532500
O O4 0.407619 0.915856 0.524964
O O5 0.554332 0.832093 0.750000
O O6 0.593673 0.750000 0.000000
O O7 0.510577 0.863930 0.028473
O O8 0.926090 0.123585 0.750000
O O9 0.935529 0.003108 0.974801
O O10 0.894299 0.154802 0.039792
O O11 0.003448 0.138281 0.973716
O O12 0.261921 0.501485 0.750000
O O13 0.220300 0.417120 0.999943
O O14 0.203066 0.583296 0.965061
O O15 0.566846 0.149491 0.750000
O O16 0.573303 0.250000 0.000000
O O17 0.177606 0.344201 0.750000
O O18 0.114529 0.355110 0.001957
O O19 0.203004 0.250000 0.000000
O O20 0.951132 0.613690 0.250000
O O21 0.811164 0.350795 0.750000
O O22 0.802613 0.250000 0.000000
#
# Coordination Sequence:
#
# PCOD8231917 Si02
#       8
#     8   8   8   8   8   8   8   8
#     4  12  25  42  64  94 127 167 214 260 308 371
#     4  11  22  40  65  97 133 172 211 259 312 367
#     4  10  19  35  59  88 121 157 196 247 304 365
#     4  11  24  46  66  88 122 161 206 262 312 361
#     4  11  22  40  65  97 133 171 209 257 311 368
#     4  10  22  40  63  88 120 157 199 249 304 364
#     4   9  18  35  57  86 121 159 196 243 303 365
#     4  12  25  42  65  91 119 158 203 253 310 375
#
# _framework density 21.054352999999999
#
# number of rings (size 3 to 8) (size 9 to 14) (size 15 to 20)
#    0.000    1.250    1.250    6.375    0.000    3.500 
#    0.000    5.000    0.000    0.000    0.000    0.000 
#    0.000    0.000    0.000    0.000    0.000    0.000 
#
# Total GULP energy -794006.275556 kJ/mol
# GULP energy per Si atom -12406.348056 kJ/mol
# Density = 2.100643 g / cm^3
# Si number density = 21.054353 Si / 1000 Ang^3
#
#
#
# Elastic Constant Matrix: (Units=GPa)
#
#
# Indices 1 2 3 4 5 6 
#
# 1 72.1129 30.9619 13.6714 0.0000 0.0000 0.0000
# 2 30.9619 111.0560 22.5770 0.0000 0.0000 0.0000
# 3 13.6714 22.5770 74.3468 0.0000 0.0000 0.0000
# 4 0.0000 0.0000 0.0000 33.8438 0.0000 0.0000
# 5 0.0000 0.0000 0.0000 0.0000 25.8553 0.0000
# 6 0.0000 0.0000 0.0000 0.0000 0.0000 4.5922
#
#
#
# Elastic Compliance Matrix: (Units=1/GPa)
#
#
# Indices 1 2 3 4 5 6 
#
# 1 0.015949 -0.004104 -0.001687 0.000000 0.000000 0.000000
# 2 -0.004104 0.010653 -0.002480 0.000000 0.000000 0.000000
# 3 -0.001687 -0.002480 0.014514 0.000000 0.000000 0.000000
# 4 0.000000 0.000000 0.000000 0.029547 0.000000 0.000000
# 5 0.000000 0.000000 0.000000 0.000000 0.038677 0.000000
# 6 0.000000 0.000000 0.000000 0.000000 0.000000 0.217763
#
#
# Mechanical properties :
#
#
# Convention : Reuss Voigt Hill
#
# Bulk Modulus (GPa) = 40.69296 43.54849 42.12072
# Shear Modulus (GPa) = 14.21121 25.54527 19.87824
#
# Velocity S-wave (km/s) = 2.60085 3.48703 3.07602
# Velocity P-wave (km/s) = 5.32811 6.07793 5.71533
#
# Compressibility (1/GPa) = 0.02457428
#
# Stress axis : x y z
#
# Youngs Moduli (GPa) = 62.70074 93.87239 68.89974
#
# Poissons Ratio (x) = 0.38521 0.11621
# Poissons Ratio (y) = 0.25730 0.17090
# Poissons Ratio (z) = 0.10575 0.23284
#
# Static dielectric constant tensor:
#      x y z
#    x 3.751100 0.000000 0.000000 
#    y 0.000000 4.110800 0.000000 
#    z 0.000000 0.000000 3.709950 
# 
# 
# High freq. dielectric constant tensor:
#      x y z
#    x 1.820190 0.000000 0.000000 
#    y 0.000000 1.831050 0.000000 
#    z 0.000000 0.000000 1.828130 
# 
# From -- ./inp_files/9377.got.cif
#   From: 2010.03.12/outbox.cif.g09.slc.cpg/sg57_5_cif.got.tgz:9377.got - 2010.04.16 15:48:40.
