data_PCOD8231347
_publ_section_title
;
Structure prediction by ZEFSAII (Michael W. Deem and Ramdas Pophale) SiO2 
 PCOD8231347
Probable space group: P B C M
;
_chemical_formula_sum "Si O2"
_cell_formula_units_Z 64
_cell_length_a 8.559441
_cell_length_b 29.142591
_cell_length_c 14.673733
_cell_angle_alpha 90.000000
_cell_angle_beta 90.000000
_cell_angle_gamma 90.000000
_cell_volume 3660.278884
_symmetry_space_group_name_H-M "P B C M"
_symmetry_group_IT_number 57
_symmetry_cell_setting 'orthorhombic'
loop_
_space_group_symop_operation_xyz
x,y,z
-x,-y,1/2+z
x,1/2-y,-z
-x,1/2+y,1/2-z
-x,-y,-z
x,y,1/2-z
-x,1/2+y,z
x,1/2-y,1/2+z
loop_
_atom_site_type_symbol
_atom_site_label
_atom_site_fract_x
_atom_site_fract_y
_atom_site_fract_z
Si Si1 0.099290 0.475706 0.424940
Si Si2 0.774524 0.066642 0.352209
Si Si3 0.383669 0.885026 0.494874
Si Si4 0.963163 0.665498 0.851573
Si Si5 0.174259 0.920511 0.346824
Si Si6 0.747479 0.615383 0.515630
Si Si7 0.970288 0.858284 0.642113
Si Si8 0.841988 0.300921 0.504277
O O1 0.204752 0.512909 0.373040
O O2 0.211198 0.437971 0.470865
O O3 0.000000 0.500000 0.500000
O O4 0.970796 0.454629 0.358097
O O5 0.717747 0.072332 0.250000
O O6 0.635943 0.090031 0.408653
O O7 0.934934 0.094310 0.370766
O O8 0.307155 0.921479 0.423869
O O9 0.564238 0.877020 0.478819
O O10 0.300157 0.835830 0.488395
O O11 0.922308 0.684960 0.750000
O O12 0.811017 0.643167 0.897223
O O13 0.103359 0.629851 0.844089
O O14 0.031483 0.702661 0.921863
O O15 0.254739 0.932253 0.250000
O O16 0.814265 0.634345 0.418795
O O17 0.934177 0.848667 0.750000
O O18 0.069822 0.816165 0.598256
O O19 0.769050 0.250000 0.500000
#
# Coordination Sequence:
#
# PCOD8231347 Si02
#       8
#     8   8   8   8   8   8   8   8
#     4  11  17  32  52  71  95 135 184 226 251 282
#     4  10  19  33  52  71  99 138 180 218 255 299
#     4  10  20  34  49  74 109 139 161 205 267 321
#     4   8  16  32  53  74  96 126 167 208 248 292
#     4   9  17  31  50  70  96 133 175 214 251 296
#     4  10  20  32  52  75 107 140 167 208 262 311
#     4   9  18  34  54  76  98 130 171 211 251 299
#     4   9  18  34  56  78  97 127 168 206 248 304
#
# _framework density 17.485005999999998
#
# number of rings (size 3 to 8) (size 9 to 14) (size 15 to 20)
#    0.000    2.500    2.500    1.875    0.000    2.500 
#    0.000    2.500    0.000    0.000    0.000    0.000 
#    0.000    0.000    0.000    0.000    0.000    0.000 
#
# Total GULP energy -792957.366952 kJ/mol
# GULP energy per Si atom -12389.958859 kJ/mol
# Density = 1.744521 g / cm^3
# Si number density = 17.485006 Si / 1000 Ang^3
#
#
#
# Elastic Constant Matrix: (Units=GPa)
#
#
# Indices 1 2 3 4 5 6 
#
# 1 101.4665 28.2980 44.3995 0.0000 0.0000 0.0000
# 2 28.2980 87.7774 29.1980 0.0000 0.0000 0.0000
# 3 44.3995 29.1980 134.9093 0.0000 0.0000 0.0000
# 4 0.0000 0.0000 0.0000 14.5817 0.0000 0.0000
# 5 0.0000 0.0000 0.0000 0.0000 9.9213 0.0000
# 6 0.0000 0.0000 0.0000 0.0000 0.0000 12.3698
#
#
#
# Elastic Compliance Matrix: (Units=1/GPa)
#
#
# Indices 1 2 3 4 5 6 
#
# 1 0.012111 -0.002779 -0.003385 0.000000 0.000000 0.000000
# 2 -0.002779 0.012914 -0.001880 0.000000 0.000000 0.000000
# 3 -0.003385 -0.001880 0.008933 0.000000 0.000000 0.000000
# 4 0.000000 0.000000 0.000000 0.068579 0.000000 0.000000
# 5 0.000000 0.000000 0.000000 0.000000 0.100793 0.000000
# 6 0.000000 0.000000 0.000000 0.000000 0.000000 0.080842
#
#
# Mechanical properties :
#
#
# Convention : Reuss Voigt Hill
#
# Bulk Modulus (GPa) = 55.95626 58.66047 57.30836
# Shear Modulus (GPa) = 16.32832 22.19176 19.26004
#
# Velocity S-wave (km/s) = 3.05921 3.56643 3.32251
# Velocity P-wave (km/s) = 6.67460 7.11204 6.89679
#
# Compressibility (1/GPa) = 0.01787110
#
# Stress axis : x y z
#
# Youngs Moduli (GPa) = 82.56669 77.43677 111.94152
#
# Poissons Ratio (x) = 0.21517 0.37887
# Poissons Ratio (y) = 0.22943 0.21050
# Poissons Ratio (z) = 0.27945 0.14561
#
# Static dielectric constant tensor:
#      x y z
#    x 2.832350 0.000000 0.000000 
#    y 0.000000 3.519340 0.000000 
#    z 0.000000 0.000000 3.193610 
# 
# 
# High freq. dielectric constant tensor:
#      x y z
#    x 1.643140 0.000000 0.000000 
#    y 0.000000 1.660240 0.000000 
#    z 0.000000 0.000000 1.690430 
# 
# From -- ./inp_files/17060.got.cif
#   From: 2010.03.12/outbox.cif.g09.slc.cpg/sg57_9_cif.got.tgz:17060.got - 2010.04.16 15:48:40.
