data_PCOD8231320
_publ_section_title
;
Structure prediction by ZEFSAII (Michael W. Deem and Ramdas Pophale) SiO2 
 PCOD8231320
Probable space group: P B C M
;
_chemical_formula_sum "Si O2"
_cell_formula_units_Z 64
_cell_length_a 21.641943
_cell_length_b 19.083736
_cell_length_c 9.533935
_cell_angle_alpha 90.000000
_cell_angle_beta 90.000000
_cell_angle_gamma 90.000000
_cell_volume 3937.602169
_symmetry_space_group_name_H-M "P B C M"
_symmetry_group_IT_number 57
_symmetry_cell_setting 'orthorhombic'
loop_
_space_group_symop_operation_xyz
x,y,z
-x,-y,1/2+z
x,1/2-y,-z
-x,1/2+y,1/2-z
-x,-y,-z
x,y,1/2-z
-x,1/2+y,z
x,1/2-y,1/2+z
loop_
_atom_site_type_symbol
_atom_site_label
_atom_site_fract_x
_atom_site_fract_y
_atom_site_fract_z
Si Si1 0.082501 0.041777 0.094606
Si Si2 0.988874 0.103482 0.904239
Si Si3 0.867400 0.180594 0.583767
Si Si4 0.804339 0.040478 0.915699
Si Si5 0.381240 0.687370 0.590803
Si Si6 0.557369 0.531866 0.915620
Si Si7 0.522189 0.813703 0.089856
Si Si8 0.334975 0.535728 0.587564
O O1 0.091674 0.073316 0.250000
O O2 0.041073 0.972801 0.102075
O O3 0.148545 0.019010 0.025867
O O4 0.048865 0.102134 0.004378
O O5 0.012249 0.124903 0.750000
O O6 0.937736 0.159214 0.956134
O O7 0.848560 0.250000 0.500000
O O8 0.860667 0.193764 0.750000
O O9 0.821695 0.118464 0.530504
O O10 0.814276 0.042945 0.750000
O O11 0.735059 0.017655 0.955553
O O12 0.352341 0.750000 0.500000
O O13 0.378607 0.712633 0.750000
O O14 0.451548 0.671342 0.544411
O O15 0.341336 0.618549 0.566278
O O16 0.551691 0.512683 0.750000
O O17 0.559835 0.615370 0.936560
O O18 0.500000 0.500000 0.000000
O O19 0.620812 0.504416 0.980897
O O20 0.526154 0.789912 0.250000
O O21 0.550791 0.750000 0.000000
O O22 0.349930 0.515757 0.750000
#
# Coordination Sequence:
#
# PCOD8231320 Si02
#       8
#     8   8   8   8   8   8   8   8
#     4   8  13  24  42  62  81 107 145 181 217 260
#     4   8  14  24  39  60  86 112 140 180 227 261
#     4   9  17  29  43  63  92 127 161 191 225 265
#     4   8  16  30  46  62  88 124 156 188 225 274
#     4   9  17  29  43  62  88 119 154 189 226 273
#     4  11  21  34  51  73  98 122 154 198 246 291
#     4   9  18  32  48  69  93 116 146 184 230 282
#     4  10  19  33  49  67  93 127 163 195 238 290
#
# _framework density 16.253547000000001
#
# number of rings (size 3 to 8) (size 9 to 14) (size 15 to 20)
#    0.000    3.000    1.250    1.875    0.000    2.500 
#    0.000    3.125    0.000    0.000    0.000    0.875 
#    0.000    0.000    0.000    0.000    0.000    0.000 
#
# Total GULP energy -793218.733008 kJ/mol
# GULP energy per Si atom -12394.042703 kJ/mol
# Density = 1.621655 g / cm^3
# Si number density = 16.253547 Si / 1000 Ang^3
#
#
#
# Elastic Constant Matrix: (Units=GPa)
#
#
# Indices 1 2 3 4 5 6 
#
# 1 96.2307 30.7292 44.8871 0.0000 0.0000 0.0000
# 2 30.7292 45.6555 35.5830 0.0000 0.0000 0.0000
# 3 44.8871 35.5830 71.2136 0.0000 0.0000 0.0000
# 4 0.0000 0.0000 0.0000 27.9624 0.0000 0.0000
# 5 0.0000 0.0000 0.0000 0.0000 20.4206 0.0000
# 6 0.0000 0.0000 0.0000 0.0000 0.0000 17.9927
#
#
#
# Elastic Compliance Matrix: (Units=1/GPa)
#
#
# Indices 1 2 3 4 5 6 
#
# 1 0.015275 -0.004549 -0.007355 0.000000 0.000000 0.000000
# 2 -0.004549 0.037228 -0.015734 0.000000 0.000000 0.000000
# 3 -0.007355 -0.015734 0.026540 0.000000 0.000000 0.000000
# 4 0.000000 0.000000 0.000000 0.035762 0.000000 0.000000
# 5 0.000000 0.000000 0.000000 0.000000 0.048970 0.000000
# 6 0.000000 0.000000 0.000000 0.000000 0.000000 0.055578
#
#
# Mechanical properties :
#
#
# Convention : Reuss Voigt Hill
#
# Bulk Modulus (GPa) = 42.07584 48.38870 45.23227
# Shear Modulus (GPa) = 17.69581 20.06851 18.88216
#
# Velocity S-wave (km/s) = 3.30318 3.51766 3.41211
# Velocity P-wave (km/s) = 6.36328 6.80694 6.58885
#
# Compressibility (1/GPa) = 0.02376661
#
# Stress axis : x y z
#
# Youngs Moduli (GPa) = 65.46598 26.86167 37.67831
#
# Poissons Ratio (x) = 0.12218 0.27714
# Poissons Ratio (y) = 0.29777 0.59285
# Poissons Ratio (z) = 0.48153 0.42265
#
# Static dielectric constant tensor:
#      x y z
#    x 3.113220 0.000000 0.000000 
#    y 0.000000 2.905550 0.000000 
#    z 0.000000 0.000000 3.119700 
# 
# 
# High freq. dielectric constant tensor:
#      x y z
#    x 1.608590 0.000000 0.000000 
#    y 0.000000 1.599430 0.000000 
#    z 0.000000 0.000000 1.616180 
# 
# From -- ./inp_files/9592.got.cif
#   From: 2010.03.12/outbox.cif.g09.slc.cpg/sg57_5_cif.got.tgz:9592.got - 2010.04.16 15:48:40.
