data_PCOD8231398
_publ_section_title
;
Structure prediction by ZEFSAII (Michael W. Deem and Ramdas Pophale) SiO2 
 PCOD8231398
Probable space group: P B C M
;
_chemical_formula_sum "Si O2"
_cell_formula_units_Z 32
_cell_length_a 9.579056
_cell_length_b 22.675952
_cell_length_c 8.720667
_cell_angle_alpha 90.000000
_cell_angle_beta 90.000000
_cell_angle_gamma 90.000000
_cell_volume 1894.252828
_symmetry_space_group_name_H-M "P B C M"
_symmetry_group_IT_number 57
_symmetry_cell_setting 'orthorhombic'
loop_
_space_group_symop_operation_xyz
x,y,z
-x,-y,1/2+z
x,1/2-y,-z
-x,1/2+y,1/2-z
-x,-y,-z
x,y,1/2-z
-x,1/2+y,z
x,1/2-y,1/2+z
loop_
_atom_site_type_symbol
_atom_site_label
_atom_site_fract_x
_atom_site_fract_y
_atom_site_fract_z
Si Si1 0.657294 0.098888 0.430318
Si Si2 0.385506 0.432420 0.425822
Si Si3 0.849323 0.489628 0.431511
Si Si4 0.513544 0.809410 0.422401
O O1 0.676758 0.098431 0.250000
O O2 0.531011 0.054180 0.482331
O O3 0.796643 0.074212 0.510238
O O4 0.624109 0.165164 0.489423
O O5 0.396487 0.455391 0.250000
O O6 0.252256 0.459046 0.508818
O O7 0.367813 0.360555 0.427430
O O8 0.855985 0.490926 0.250000
O O9 0.000000 0.500000 0.500000
O O10 0.570527 0.750000 0.500000
O O11 0.468914 0.794541 0.250000
#
# Coordination Sequence:
#
# PCOD8231398 Si02
#       4
#     8   8   8   8
#     4  10  19  33  53  76 104 135 170 210 255 301
#     4   9  19  34  52  76 104 134 170 210 254 300
#     4  12  23  35  51  74 105 138 171 209 258 308
#     4   9  18  31  52  78 104 131 169 213 254 296
#
# _framework density 16.893204000000001
#
# number of rings (size 3 to 8) (size 9 to 14) (size 15 to 20)
#    1.500    0.500    0.000    6.000    0.000    0.000 
#    0.000    0.000    0.000    1.500    0.000    7.000 
#    0.000    0.000    0.000    0.000    0.000    0.000 
#
# Total GULP energy -396502.975403 kJ/mol
# GULP energy per Si atom -12390.717981 kJ/mol
# Density = 1.685475 g / cm^3
# Si number density = 16.893204 Si / 1000 Ang^3
#
#
#
# Elastic Constant Matrix: (Units=GPa)
#
#
# Indices 1 2 3 4 5 6 
#
# 1 90.3767 11.0431 46.2706 0.0000 0.0000 0.0000
# 2 11.0431 40.5178 27.1196 0.0000 0.0000 0.0000
# 3 46.2706 27.1196 174.6818 0.0000 0.0000 0.0000
# 4 0.0000 0.0000 0.0000 30.4118 0.0000 0.0000
# 5 0.0000 0.0000 0.0000 0.0000 29.6585 0.0000
# 6 0.0000 0.0000 0.0000 0.0000 0.0000 7.7305
#
#
#
# Elastic Compliance Matrix: (Units=1/GPa)
#
#
# Indices 1 2 3 4 5 6 
#
# 1 0.012868 -0.001368 -0.003196 0.000000 0.000000 0.000000
# 2 -0.001368 0.027688 -0.003936 0.000000 0.000000 0.000000
# 3 -0.003196 -0.003936 0.007182 0.000000 0.000000 0.000000
# 4 0.000000 0.000000 0.000000 0.032882 0.000000 0.000000
# 5 0.000000 0.000000 0.000000 0.000000 0.033717 0.000000
# 6 0.000000 0.000000 0.000000 0.000000 0.000000 0.129358
#
#
# Mechanical properties :
#
#
# Convention : Reuss Voigt Hill
#
# Bulk Modulus (GPa) = 32.53315 52.71589 42.62452
# Shear Modulus (GPa) = 18.45407 28.30303 23.37855
#
# Velocity S-wave (km/s) = 3.30873 4.09762 3.72412
# Velocity P-wave (km/s) = 5.82210 7.32533 6.61654
#
# Compressibility (1/GPa) = 0.03073788
#
# Stress axis : x y z
#
# Youngs Moduli (GPa) = 77.71006 36.11679 139.22828
#
# Poissons Ratio (x) = 0.04940 0.44501
# Poissons Ratio (y) = 0.10630 0.54804
# Poissons Ratio (z) = 0.24838 0.14217
#
# Static dielectric constant tensor:
#      x y z
#    x 2.831700 0.000000 0.000000 
#    y 0.000000 3.177630 0.000000 
#    z 0.000000 0.000000 3.273730 
# 
# 
# High freq. dielectric constant tensor:
#      x y z
#    x 1.608670 0.000000 0.000000 
#    y 0.000000 1.646870 0.000000 
#    z 0.000000 0.000000 1.677300 
# 
# From -- ./inp_files/1423.got.cif
#   From: 2010.03.12/outbox.cif.g09.slc.cpg/sg57_1_cif.got.tgz:1423.got - 2010.04.16 15:48:40.
