data_PCOD8231143
_publ_section_title
;
Structure prediction by ZEFSAII (Michael W. Deem and Ramdas Pophale) SiO2 
 PCOD8231143
Probable space group: P B C M
;
_chemical_formula_sum "Si O2"
_cell_formula_units_Z 64
_cell_length_a 11.409536
_cell_length_b 16.575853
_cell_length_c 17.438093
_cell_angle_alpha 90.000000
_cell_angle_beta 90.000000
_cell_angle_gamma 90.000000
_cell_volume 3297.940827
_symmetry_space_group_name_H-M "P B C M"
_symmetry_group_IT_number 57
_symmetry_cell_setting 'orthorhombic'
loop_
_space_group_symop_operation_xyz
x,y,z
-x,-y,1/2+z
x,1/2-y,-z
-x,1/2+y,1/2-z
-x,-y,-z
x,y,1/2-z
-x,1/2+y,z
x,1/2-y,1/2+z
loop_
_atom_site_type_symbol
_atom_site_label
_atom_site_fract_x
_atom_site_fract_y
_atom_site_fract_z
Si Si1 0.194627 0.134587 0.660292
Si Si2 0.605876 0.286738 0.080468
Si Si3 0.683840 0.026002 0.158582
Si Si4 0.350341 0.242432 0.084720
Si Si5 0.715744 0.424498 0.163477
Si Si6 0.574117 0.919897 0.661831
Si Si7 0.783118 0.311005 0.838886
Si Si8 0.940593 0.168659 0.661346
O O1 0.183447 0.119725 0.750000
O O2 0.262513 0.217835 0.645248
O O3 0.064733 0.144715 0.623017
O O4 0.264541 0.057788 0.624339
O O5 0.467506 0.295008 0.083749
O O6 0.649576 0.376849 0.096241
O O7 0.655707 0.229143 0.147470
O O8 0.651241 0.250000 0.000000
O O9 0.682532 0.022854 0.250000
O O10 0.549447 0.042485 0.131637
O O11 0.772363 0.097394 0.129080
O O12 0.384493 0.152168 0.107602
O O13 0.293256 0.250000 0.000000
O O14 0.680101 0.395192 0.250000
O O15 0.680932 0.517160 0.154052
O O16 0.854418 0.408355 0.151744
O O17 0.560866 0.891052 0.750000
O O18 0.808523 0.315448 0.750000
O O19 0.882397 0.251021 0.875792
O O20 0.963292 0.187831 0.750000
#
# Coordination Sequence:
#
# PCOD8231143 Si02
#       8
#     8   8   8   8   8   8   8   8
#     4  10  20  36  55  77 105 142 183 222 269 325
#     4  10  19  32  50  80 110 140 177 212 269 331
#     4   9  17  30  52  81 107 131 171 220 265 314
#     4  11  23  37  50  76 113 145 178 220 279 328
#     4   9  18  34  57  82 108 139 177 229 275 315
#     4  10  19  34  57  84 107 137 181 223 272 332
#     4   9  16  31  54  78 106 137 172 222 267 310
#     4   8  16  32  54  79 105 136 178 222 268 314
#
# _framework density 19.40605
#
# number of rings (size 3 to 8) (size 9 to 14) (size 15 to 20)
#    0.000    2.500    1.250    2.250    0.000    2.500 
#    4.500    4.375    0.000    0.750    0.000    0.000 
#    0.000    0.000    0.000    0.000    0.000    0.000 
#
# Total GULP energy -792899.034780 kJ/mol
# GULP energy per Si atom -12389.047418 kJ/mol
# Density = 1.936188 g / cm^3
# Si number density = 19.406050 Si / 1000 Ang^3
#
#
#
# Elastic Constant Matrix: (Units=GPa)
#
#
# Indices 1 2 3 4 5 6 
#
# 1 117.3868 71.3797 21.8528 0.0000 0.0000 0.0000
# 2 71.3797 112.9306 26.8217 0.0000 0.0000 0.0000
# 3 21.8528 26.8217 34.6800 0.0000 0.0000 0.0000
# 4 0.0000 0.0000 0.0000 19.8618 0.0000 0.0000
# 5 0.0000 0.0000 0.0000 0.0000 14.1599 0.0000
# 6 0.0000 0.0000 0.0000 0.0000 0.0000 22.1028
#
#
#
# Elastic Compliance Matrix: (Units=1/GPa)
#
#
# Indices 1 2 3 4 5 6 
#
# 1 0.014001 -0.008274 -0.002423 0.000000 0.000000 0.000000
# 2 -0.008274 0.015737 -0.006957 0.000000 0.000000 0.000000
# 3 -0.002423 -0.006957 0.035743 0.000000 0.000000 0.000000
# 4 0.000000 0.000000 0.000000 0.050348 0.000000 0.000000
# 5 0.000000 0.000000 0.000000 0.000000 0.070622 0.000000
# 6 0.000000 0.000000 0.000000 0.000000 0.000000 0.045243
#
#
# Mechanical properties :
#
#
# Convention : Reuss Voigt Hill
#
# Bulk Modulus (GPa) = 33.14374 56.12287 44.63331
# Shear Modulus (GPa) = 18.04652 20.88778 19.46715
#
# Velocity S-wave (km/s) = 3.05281 3.28434 3.17069
# Velocity P-wave (km/s) = 5.43528 6.58526 6.03771
#
# Compressibility (1/GPa) = 0.03017161
#
# Stress axis : x y z
#
# Youngs Moduli (GPa) = 71.42202 63.54333 27.97750
#
# Poissons Ratio (x) = 0.52577 0.06780
# Poissons Ratio (y) = 0.59096 0.19465
# Poissons Ratio (z) = 0.17308 0.44210
#
# Static dielectric constant tensor:
#      x y z
#    x 3.697080 0.000000 0.000000 
#    y 0.000000 3.744860 0.000000 
#    z 0.000000 0.000000 3.225020 
# 
# 
# High freq. dielectric constant tensor:
#      x y z
#    x 1.745500 0.000000 0.000000 
#    y 0.000000 1.756370 0.000000 
#    z 0.000000 0.000000 1.713930 
# 
# From -- ./inp_files/22086.got.cif
#   From: 2010.03.12/outbox.cif.g09.slc.cpg/sg57_12_cif.got.tgz:22086.got - 2010.04.16 15:48:40.
