data_PCOD8231413
_publ_section_title
;
Structure prediction by ZEFSAII (Michael W. Deem and Ramdas Pophale) SiO2 
 PCOD8231413
Probable space group: P B C M
;
_chemical_formula_sum "Si O2"
_cell_formula_units_Z 48
_cell_length_a 9.212659
_cell_length_b 31.038600
_cell_length_c 8.946981
_cell_angle_alpha 90.000000
_cell_angle_beta 90.000000
_cell_angle_gamma 90.000000
_cell_volume 2558.371660
_symmetry_space_group_name_H-M "P B C M"
_symmetry_group_IT_number 57
_symmetry_cell_setting 'orthorhombic'
loop_
_space_group_symop_operation_xyz
x,y,z
-x,-y,1/2+z
x,1/2-y,-z
-x,1/2+y,1/2-z
-x,-y,-z
x,y,1/2-z
-x,1/2+y,z
x,1/2-y,1/2+z
loop_
_atom_site_type_symbol
_atom_site_label
_atom_site_fract_x
_atom_site_fract_y
_atom_site_fract_z
Si Si1 0.901293 0.620456 0.573873
Si Si2 0.913876 0.461992 0.423444
Si Si3 0.418865 0.290324 0.586670
Si Si4 0.405316 0.115192 0.429501
Si Si5 0.925172 0.708129 0.082491
Si Si6 0.418962 0.539888 0.572162
O O1 0.871576 0.625329 0.750000
O O2 0.754499 0.605642 0.492119
O O3 0.963925 0.665293 0.510367
O O4 0.020069 0.584385 0.536380
O O5 0.925486 0.471242 0.250000
O O6 0.747954 0.462821 0.476263
O O7 0.000000 0.500000 0.500000
O O8 0.488429 0.250000 0.500000
O O9 0.487446 0.287393 0.750000
O O10 0.456899 0.337055 0.517935
O O11 0.246449 0.286238 0.592693
O O12 0.400011 0.111184 0.250000
O O13 0.519244 0.083251 0.501810
O O14 0.990275 0.704592 0.250000
O O15 0.992685 0.750000 0.000000
O O16 0.500000 0.500000 0.500000
O O17 0.440483 0.539956 0.750000
#
# Coordination Sequence:
#
# PCOD8231413 Si02
#       6
#     8   8   8   8   8   8
#     4  10  19  33  53  78 107 141 177 218 265 312
#     4  10  23  39  56  78 105 135 172 215 262 315
#     4   8  15  26  43  69 102 134 168 208 251 295
#     4  10  20  34  52  79 110 140 176 219 262 312
#     4   9  16  27  45  73 106 140 176 218 261 306
#     4  11  23  39  57  79 105 136 173 216 263 316
#
# _framework density 18.761935000000001
#
# number of rings (size 3 to 8) (size 9 to 14) (size 15 to 20)
#    0.000    2.333    0.000    4.000    0.000   10.000 
#    0.000    0.000    0.000    1.000    0.000    2.333 
#    0.000    0.000    0.000    0.000    0.000    0.000 
#
# Total GULP energy -595088.576305 kJ/mol
# GULP energy per Si atom -12397.678673 kJ/mol
# Density = 1.871923 g / cm^3
# Si number density = 18.761935 Si / 1000 Ang^3
#
#
#
# Elastic Constant Matrix: (Units=GPa)
#
#
# Indices 1 2 3 4 5 6 
#
# 1 99.5530 79.0325 51.4831 0.0000 0.0000 0.0000
# 2 79.0325 174.2534 73.1959 0.0000 0.0000 0.0000
# 3 51.4831 73.1959 104.3222 0.0000 0.0000 0.0000
# 4 0.0000 0.0000 0.0000 40.5746 0.0000 0.0000
# 5 0.0000 0.0000 0.0000 0.0000 21.1629 0.0000
# 6 0.0000 0.0000 0.0000 0.0000 0.0000 23.3223
#
#
#
# Elastic Compliance Matrix: (Units=1/GPa)
#
#
# Indices 1 2 3 4 5 6 
#
# 1 0.016902 -0.005902 -0.004201 0.000000 0.000000 0.000000
# 2 -0.005902 0.010197 -0.004242 0.000000 0.000000 0.000000
# 3 -0.004201 -0.004242 0.014635 0.000000 0.000000 0.000000
# 4 0.000000 0.000000 0.000000 0.024646 0.000000 0.000000
# 5 0.000000 0.000000 0.000000 0.000000 0.047252 0.000000
# 6 0.000000 0.000000 0.000000 0.000000 0.000000 0.042877
#
#
# Mechanical properties :
#
#
# Convention : Reuss Voigt Hill
#
# Bulk Modulus (GPa) = 76.65237 87.28353 81.96795
# Shear Modulus (GPa) = 26.37845 28.63978 27.50912
#
# Velocity S-wave (km/s) = 3.75368 3.91126 3.83328
# Velocity P-wave (km/s) = 7.72857 8.18657 7.96086
#
# Compressibility (1/GPa) = 0.01304591
#
# Stress axis : x y z
#
# Youngs Moduli (GPa) = 59.16364 98.06344 68.32783
#
# Poissons Ratio (x) = 0.57873 0.28702
# Poissons Ratio (y) = 0.34916 0.28988
# Poissons Ratio (z) = 0.24852 0.41603
#
# Static dielectric constant tensor:
#      x y z
#    x 3.163380 0.000000 0.000000 
#    y 0.000000 3.695970 0.000000 
#    z 0.000000 0.000000 3.693560 
# 
# 
# High freq. dielectric constant tensor:
#      x y z
#    x 1.685210 0.000000 0.000000 
#    y 0.000000 1.750920 0.000000 
#    z 0.000000 0.000000 1.739610 
# 
# From -- ./inp_files/2034.got.cif
#   From: 2010.03.12/outbox.cif.g09.slc.cpg/sg57_2_cif.got.tgz:2034.got - 2010.04.16 15:48:40.
