data_PCOD8231832
_publ_section_title
;
Structure prediction by ZEFSAII (Michael W. Deem and Ramdas Pophale) SiO2 
 PCOD8231832
Probable space group: P B C M
;
_chemical_formula_sum "Si O2"
_cell_formula_units_Z 64
_cell_length_a 13.039931
_cell_length_b 12.055632
_cell_length_c 21.005306
_cell_angle_alpha 90.000000
_cell_angle_beta 90.000000
_cell_angle_gamma 90.000000
_cell_volume 3302.130926
_symmetry_space_group_name_H-M "P B C M"
_symmetry_group_IT_number 57
_symmetry_cell_setting 'orthorhombic'
loop_
_space_group_symop_operation_xyz
x,y,z
-x,-y,1/2+z
x,1/2-y,-z
-x,1/2+y,1/2-z
-x,-y,-z
x,y,1/2-z
-x,1/2+y,z
x,1/2-y,1/2+z
loop_
_atom_site_type_symbol
_atom_site_label
_atom_site_fract_x
_atom_site_fract_y
_atom_site_fract_z
Si Si1 0.706973 0.539974 0.323681
Si Si2 0.206257 0.592490 0.377467
Si Si3 0.952706 0.569266 0.673758
Si Si4 0.531132 0.510358 0.092048
Si Si5 0.363163 0.622341 0.483884
Si Si6 0.363583 0.430644 0.178859
Si Si7 0.803231 0.748499 0.677580
Si Si8 0.832329 0.331037 0.323292
O O1 0.696367 0.568417 0.250000
O O2 0.597717 0.568273 0.353769
O O3 0.789803 0.628493 0.352380
O O4 0.736734 0.412394 0.335031
O O5 0.095315 0.532890 0.367305
O O6 0.258376 0.581646 0.448047
O O7 0.287011 0.536119 0.329165
O O8 0.187704 0.722552 0.364819
O O9 0.937099 0.546930 0.750000
O O10 0.894804 0.678512 0.646611
O O11 0.070291 0.593534 0.656540
O O12 0.465088 0.606509 0.058801
O O13 0.453232 0.425286 0.126335
O O14 0.614201 0.450418 0.046446
O O15 0.350528 0.750000 0.500000
O O16 0.410008 0.439032 0.250000
O O17 0.303090 0.316866 0.169755
O O18 0.837302 0.761151 0.750000
O O19 0.843771 0.294551 0.250000
#
# Coordination Sequence:
#
# PCOD8231832 Si02
#       8
#     8   8   8   8   8   8   8   8
#     4  10  20  33  50  82 116 140 168 219 285 337
#     4  10  19  35  56  78 111 149 187 223 270 324
#     4   9  18  32  55  83 111 142 179 219 268 335
#     4  10  21  35  55  79 104 139 186 229 273 324
#     4  10  22  38  56  76 101 145 193 234 267 309
#     4   9  17  32  55  81 110 143 178 218 272 343
#     4   8  16  30  48  75 110 142 168 207 268 330
#     4  10  20  31  52  85 116 144 175 219 274 333
#
# _framework density 19.381425
#
# number of rings (size 3 to 8) (size 9 to 14) (size 15 to 20)
#    0.000    2.500    0.000    3.000    3.500    0.000 
#    0.000    0.000    0.000    3.000    0.000    0.000 
#    0.000    0.000    0.000    0.000    0.000    0.000 
#
# Total GULP energy -792863.782872 kJ/mol
# GULP energy per Si atom -12388.496607 kJ/mol
# Density = 1.933731 g / cm^3
# Si number density = 19.381425 Si / 1000 Ang^3
#
#
#
# Elastic Constant Matrix: (Units=GPa)
#
#
# Indices 1 2 3 4 5 6 
#
# 1 61.0105 10.3204 37.1171 0.0000 0.0000 0.0000
# 2 10.3204 88.3086 21.5285 0.0000 0.0000 0.0000
# 3 37.1171 21.5285 58.5770 0.0000 0.0000 0.0000
# 4 0.0000 0.0000 0.0000 18.0775 0.0000 0.0000
# 5 0.0000 0.0000 0.0000 0.0000 30.3208 0.0000
# 6 0.0000 0.0000 0.0000 0.0000 0.0000 15.5737
#
#
#
# Elastic Compliance Matrix: (Units=1/GPa)
#
#
# Indices 1 2 3 4 5 6 
#
# 1 0.026771 0.001106 -0.017370 0.000000 0.000000 0.000000
# 2 0.001106 0.012484 -0.005289 0.000000 0.000000 0.000000
# 3 -0.017370 -0.005289 0.030021 0.000000 0.000000 0.000000
# 4 0.000000 0.000000 0.000000 0.055317 0.000000 0.000000
# 5 0.000000 0.000000 0.000000 0.000000 0.032981 0.000000
# 6 0.000000 0.000000 0.000000 0.000000 0.000000 0.064211
#
#
# Mechanical properties :
#
#
# Convention : Reuss Voigt Hill
#
# Bulk Modulus (GPa) = 38.21024 38.42534 38.31779
# Shear Modulus (GPa) = 18.27392 22.05641 20.16517
#
# Velocity S-wave (km/s) = 3.07393 3.37711 3.22908
# Velocity P-wave (km/s) = 5.68827 5.92245 5.80654
#
# Compressibility (1/GPa) = 0.02617100
#
# Stress axis : x y z
#
# Youngs Moduli (GPa) = 37.35428 80.10218 33.30948
#
# Poissons Ratio (x) = -0.08858 0.57857
# Poissons Ratio (y) = -0.04131 0.17617
# Poissons Ratio (z) = 0.64883 0.42365
#
# Static dielectric constant tensor:
#      x y z
#    x 3.527510 0.000000 0.000000 
#    y 0.000000 3.539670 0.000000 
#    z 0.000000 0.000000 3.433820 
# 
# 
# High freq. dielectric constant tensor:
#      x y z
#    x 1.751730 0.000000 0.000000 
#    y 0.000000 1.755610 0.000000 
#    z 0.000000 0.000000 1.720270 
# 
# From -- ./inp_files/27289.got.cif
#   From: 2010.03.12/outbox.cif.g09.slc.cpg/sg57_14_cif.got.tgz:27289.got - 2010.04.16 15:48:40.
