data_PCOD8231694
_publ_section_title
;
Structure prediction by ZEFSAII (Michael W. Deem and Ramdas Pophale) SiO2 
 PCOD8231694
Probable space group: P B C M
;
_chemical_formula_sum "Si O2"
_cell_formula_units_Z 64
_cell_length_a 20.878303
_cell_length_b 18.606030
_cell_length_c 8.477647
_cell_angle_alpha 90.000000
_cell_angle_beta 90.000000
_cell_angle_gamma 90.000000
_cell_volume 3293.246523
_symmetry_space_group_name_H-M "P B C M"
_symmetry_group_IT_number 57
_symmetry_cell_setting 'orthorhombic'
loop_
_space_group_symop_operation_xyz
x,y,z
-x,-y,1/2+z
x,1/2-y,-z
-x,1/2+y,1/2-z
-x,-y,-z
x,y,1/2-z
-x,1/2+y,z
x,1/2-y,1/2+z
loop_
_atom_site_type_symbol
_atom_site_label
_atom_site_fract_x
_atom_site_fract_y
_atom_site_fract_z
Si Si1 0.008426 0.673333 0.933400
Si Si2 0.384453 0.097591 0.062619
Si Si3 0.511177 0.327867 0.562817
Si Si4 0.753321 0.455128 0.571386
Si Si5 0.752682 0.896936 0.571504
Si Si6 0.110005 0.407287 0.563045
Si Si7 0.613717 0.440155 0.931779
Si Si8 0.106814 0.565642 0.430604
O O1 0.993171 0.679087 0.750000
O O2 0.030621 0.750000 0.000000
O O3 0.064996 0.616565 0.959444
O O4 0.944521 0.649404 0.023505
O O5 0.381327 0.100688 0.250000
O O6 0.441731 0.147121 0.997509
O O7 0.315485 0.127024 0.991962
O O8 0.397416 0.015630 0.016618
O O9 0.527883 0.250000 0.500000
O O10 0.511810 0.327210 0.750000
O O11 0.565549 0.381443 0.495659
O O12 0.753835 0.488046 0.750000
O O13 0.753715 0.516789 0.440165
O O14 0.687155 0.410870 0.547333
O O15 0.818687 0.409667 0.548518
O O16 0.750570 0.870900 0.750000
O O17 0.821749 0.872731 0.500176
O O18 0.113775 0.421074 0.750000
O O19 0.095975 0.482722 0.477599
O O20 0.596969 0.452614 0.750000
O O21 0.084193 0.574817 0.250000
#
# Coordination Sequence:
#
# PCOD8231694 Si02
#       8
#     8   8   8   8   8   8   8   8
#     4  12  25  40  55  74 102 136 172 212 255 304
#     4   9  17  31  51  76 101 129 165 207 250 295
#     4  10  21  34  48  68 100 136 171 208 248 294
#     4   8  15  28  49  75 103 129 160 203 249 293
#     4   8  15  28  49  75 103 129 160 203 249 293
#     4  10  19  34  56  81 106 135 169 208 251 300
#     4   9  17  31  51  76 101 129 165 207 250 295
#     4  10  19  34  56  81 106 135 169 208 251 300
#
# _framework density 19.433710000000001
#
# number of rings (size 3 to 8) (size 9 to 14) (size 15 to 20)
#    0.000    2.500    0.000    2.625    0.000    2.000 
#    0.000    1.250    0.000    3.000    0.000    0.000 
#    0.000    0.000    0.000    0.000    0.000    0.000 
#
# Total GULP energy -792869.706614 kJ/mol
# GULP energy per Si atom -12388.589166 kJ/mol
# Density = 1.938948 g / cm^3
# Si number density = 19.433710 Si / 1000 Ang^3
#
#
#
# Elastic Constant Matrix: (Units=GPa)
#
#
# Indices 1 2 3 4 5 6 
#
# 1 112.9954 14.6085 16.1348 0.0000 0.0000 0.0000
# 2 14.6085 44.0987 6.4036 0.0000 0.0000 0.0000
# 3 16.1348 6.4036 34.1769 0.0000 0.0000 0.0000
# 4 0.0000 0.0000 0.0000 24.0882 0.0000 0.0000
# 5 0.0000 0.0000 0.0000 0.0000 15.4643 0.0000
# 6 0.0000 0.0000 0.0000 0.0000 0.0000 4.6798
#
#
#
# Elastic Compliance Matrix: (Units=1/GPa)
#
#
# Indices 1 2 3 4 5 6 
#
# 1 0.009780 -0.002641 -0.004122 0.000000 0.000000 0.000000
# 2 -0.002641 0.024024 -0.003254 0.000000 0.000000 0.000000
# 3 -0.004122 -0.003254 0.031815 0.000000 0.000000 0.000000
# 4 0.000000 0.000000 0.000000 0.041514 0.000000 0.000000
# 5 0.000000 0.000000 0.000000 0.000000 0.064665 0.000000
# 6 0.000000 0.000000 0.000000 0.000000 0.000000 0.213685
#
#
# Mechanical properties :
#
#
# Convention : Reuss Voigt Hill
#
# Bulk Modulus (GPa) = 21.93767 29.50720 25.72244
# Shear Modulus (GPa) = 11.88455 19.12137 15.50296
#
# Velocity S-wave (km/s) = 2.47562 3.14017 2.82749
# Velocity P-wave (km/s) = 4.41413 5.32579 4.89125
#
# Compressibility (1/GPa) = 0.04558369
#
# Stress axis : x y z
#
# Youngs Moduli (GPa) = 102.24943 41.62514 31.43129
#
# Poissons Ratio (x) = 0.10994 0.12957
# Poissons Ratio (y) = 0.27006 0.10229
# Poissons Ratio (z) = 0.42150 0.13546
#
# Static dielectric constant tensor:
#      x y z
#    x 4.263300 0.000000 0.000000 
#    y 0.000000 3.171660 0.000000 
#    z 0.000000 0.000000 3.426450 
# 
# 
# High freq. dielectric constant tensor:
#      x y z
#    x 1.788810 0.000000 0.000000 
#    y 0.000000 1.705700 0.000000 
#    z 0.000000 0.000000 1.746800 
# 
# From -- ./inp_files/8518.got.cif
#   From: 2010.03.12/outbox.cif.g09.slc.cpg/sg57_5_cif.got.tgz:8518.got - 2010.04.16 15:48:40.
