data_PCOD8231810
_publ_section_title
;
Structure prediction by ZEFSAII (Michael W. Deem and Ramdas Pophale) SiO2 
 PCOD8231810
Probable space group: P B C M
;
_chemical_formula_sum "Si O2"
_cell_formula_units_Z 48
_cell_length_a 8.833875
_cell_length_b 15.268063
_cell_length_c 18.206618
_cell_angle_alpha 90.000000
_cell_angle_beta 90.000000
_cell_angle_gamma 90.000000
_cell_volume 2455.638723
_symmetry_space_group_name_H-M "P B C M"
_symmetry_group_IT_number 57
_symmetry_cell_setting 'orthorhombic'
loop_
_space_group_symop_operation_xyz
x,y,z
-x,-y,1/2+z
x,1/2-y,-z
-x,1/2+y,1/2-z
-x,-y,-z
x,y,1/2-z
-x,1/2+y,z
x,1/2-y,1/2+z
loop_
_atom_site_type_symbol
_atom_site_label
_atom_site_fract_x
_atom_site_fract_y
_atom_site_fract_z
Si Si1 0.940105 0.035822 0.575038
Si Si2 0.591220 0.181501 0.664831
Si Si3 0.438731 0.874561 0.833717
Si Si4 0.105220 0.725132 0.582792
Si Si5 0.907934 0.109875 0.336437
Si Si6 0.417279 0.518093 0.924069
O O1 0.996617 0.136807 0.582428
O O2 0.759893 0.033002 0.568523
O O3 0.000000 0.000000 0.500000
O O4 0.005762 0.979306 0.642418
O O5 0.597665 0.152005 0.750000
O O6 0.504884 0.274156 0.656053
O O7 0.758299 0.201380 0.636633
O O8 0.513317 0.104541 0.616504
O O9 0.443898 0.903246 0.750000
O O10 0.267727 0.892976 0.862493
O O11 0.559534 0.932416 0.875784
O O12 0.157496 0.750000 0.500000
O O13 0.017440 0.807503 0.619856
O O14 0.923842 0.125135 0.250000
O O15 0.500000 0.500000 0.000000
#
# Coordination Sequence:
#
# PCOD8231810 Si02
#       6
#     8   8   8   8   8   8
#     4  11  22  38  58  84 119 151 196 243 293 340
#     4   9  20  36  58  84 113 152 195 235 279 352
#     4   9  19  38  60  81 113 150 188 235 288 341
#     4  10  19  34  61  84 114 154 196 240 281 347
#     4  10  21  38  61  87 116 152 194 237 292 354
#     4  11  23  35  58  87 114 150 194 242 287 343
#
# _framework density 19.546848000000001
#
# number of rings (size 3 to 8) (size 9 to 14) (size 15 to 20)
#    0.000    2.000    1.667    3.000    7.000    4.000 
#    0.000    5.000    0.000    0.000    0.000    0.000 
#    0.000    0.000    0.000    0.000    0.000    0.000 
#
# Total GULP energy -594888.998972 kJ/mol
# GULP energy per Si atom -12393.520812 kJ/mol
# Density = 1.950236 g / cm^3
# Si number density = 19.546848 Si / 1000 Ang^3
#
#
#
# Elastic Constant Matrix: (Units=GPa)
#
#
# Indices 1 2 3 4 5 6 
#
# 1 37.9891 26.6182 24.3164 0.0000 0.0000 0.0000
# 2 26.6182 155.6152 67.4238 0.0000 0.0000 0.0000
# 3 24.3164 67.4238 101.1240 0.0000 0.0000 0.0000
# 4 0.0000 0.0000 0.0000 42.9350 0.0000 0.0000
# 5 0.0000 0.0000 0.0000 0.0000 29.9985 0.0000
# 6 0.0000 0.0000 0.0000 0.0000 0.0000 28.0035
#
#
#
# Elastic Compliance Matrix: (Units=1/GPa)
#
#
# Indices 1 2 3 4 5 6 
#
# 1 0.032089 -0.003017 -0.005704 0.000000 0.000000 0.000000
# 2 -0.003017 0.009320 -0.005489 0.000000 0.000000 0.000000
# 3 -0.005704 -0.005489 0.014920 0.000000 0.000000 0.000000
# 4 0.000000 0.000000 0.000000 0.023291 0.000000 0.000000
# 5 0.000000 0.000000 0.000000 0.000000 0.033335 0.000000
# 6 0.000000 0.000000 0.000000 0.000000 0.000000 0.035710
#
#
# Mechanical properties :
#
#
# Convention : Reuss Voigt Hill
#
# Bulk Modulus (GPa) = 35.83142 59.04944 47.44043
# Shear Modulus (GPa) = 26.82566 31.94538 29.38552
#
# Velocity S-wave (km/s) = 3.70858 4.04703 3.88150
# Velocity P-wave (km/s) = 6.05879 7.21891 6.66414
#
# Compressibility (1/GPa) = 0.02790847
#
# Stress axis : x y z
#
# Youngs Moduli (GPa) = 31.16355 107.29232 67.02365
#
# Poissons Ratio (x) = 0.32373 0.38233
# Poissons Ratio (y) = 0.09403 0.36787
# Poissons Ratio (z) = 0.17777 0.58890
#
# Static dielectric constant tensor:
#      x y z
#    x 3.321450 0.000000 0.000000 
#    y 0.000000 6.226550 0.000000 
#    z 0.000000 0.000000 4.330980 
# 
# 
# High freq. dielectric constant tensor:
#      x y z
#    x 1.706430 0.000000 0.000000 
#    y 0.000000 1.788030 0.000000 
#    z 0.000000 0.000000 1.777930 
# 
# From -- ./inp_files/20899.got.cif
#   From: 2010.03.12/outbox.cif.g09.slc.cpg/sg57_11_cif.got.tgz:20899.got - 2010.04.16 15:48:40.
