data_PCOD8231065
_publ_section_title
;
Structure prediction by ZEFSAII (Michael W. Deem and Ramdas Pophale) SiO2 
 PCOD8231065
Probable space group: P B C M
;
_chemical_formula_sum "Si O2"
_cell_formula_units_Z 64
_cell_length_a 21.526175
_cell_length_b 19.588476
_cell_length_c 9.079215
_cell_angle_alpha 90.000000
_cell_angle_beta 90.000000
_cell_angle_gamma 90.000000
_cell_volume 3828.386851
_symmetry_space_group_name_H-M "P B C M"
_symmetry_group_IT_number 57
_symmetry_cell_setting 'orthorhombic'
loop_
_space_group_symop_operation_xyz
x,y,z
-x,-y,1/2+z
x,1/2-y,-z
-x,1/2+y,1/2-z
-x,-y,-z
x,y,1/2-z
-x,1/2+y,z
x,1/2-y,1/2+z
loop_
_atom_site_type_symbol
_atom_site_label
_atom_site_fract_x
_atom_site_fract_y
_atom_site_fract_z
Si Si1 0.022238 0.183221 0.079068
Si Si2 0.703810 0.046116 0.417054
Si Si3 0.419640 0.482195 0.082748
Si Si4 0.879312 0.317986 0.576704
Si Si5 0.625810 0.181462 0.077925
Si Si6 0.173299 0.553181 0.577113
Si Si7 0.943031 0.963543 0.922294
Si Si8 0.525877 0.394054 0.081997
O O1 0.027939 0.198205 0.250000
O O2 0.060339 0.116062 0.030834
O O3 0.950932 0.170182 0.033257
O O4 0.049884 0.250000 0.000000
O O5 0.729117 0.050617 0.250000
O O6 0.671227 0.118263 0.459875
O O7 0.759080 0.027520 0.528377
O O8 0.655122 0.983201 0.433200
O O9 0.435675 0.508415 0.250000
O O10 0.450923 0.406649 0.060423
O O11 0.445327 0.532776 0.958799
O O12 0.853923 0.250000 0.500000
O O13 0.869077 0.312511 0.750000
O O14 0.838790 0.378699 0.513389
O O15 0.621806 0.195245 0.250000
O O16 0.651140 0.250000 0.000000
O O17 0.555861 0.164694 0.019517
O O18 0.171549 0.568445 0.750000
O O19 0.122268 0.496759 0.532722
O O20 0.956554 0.969725 0.750000
O O21 0.000000 0.000000 0.000000
O O22 0.541957 0.375370 0.250000
#
# Coordination Sequence:
#
# PCOD8231065 Si02
#       8
#     8   8   8   8   8   8   8   8
#     4   9  18  32  50  72  95 120 151 190 239 294
#     4   9  19  34  48  64  93 130 166 200 235 282
#     4   8  15  28  45  66  91 119 151 189 231 274
#     4  10  19  32  49  67  92 125 160 198 241 292
#     4  10  20  33  48  68  96 131 167 201 235 277
#     4  11  22  33  48  71  98 128 166 207 250 300
#     4  10  20  34  51  73  99 126 158 202 253 302
#     4   9  15  25  45  70  93 118 150 191 235 274
#
# _framework density 16.717223000000001
#
# number of rings (size 3 to 8) (size 9 to 14) (size 15 to 20)
#    0.000    2.500    1.250    2.250    0.000    5.000 
#    0.000    1.250    0.000    0.000    0.000    0.875 
#    0.000    4.000    0.000    0.000    0.000    0.000 
#
# Total GULP energy -793216.225020 kJ/mol
# GULP energy per Si atom -12394.003516 kJ/mol
# Density = 1.667917 g / cm^3
# Si number density = 16.717223 Si / 1000 Ang^3
#
#
#
# Elastic Constant Matrix: (Units=GPa)
#
#
# Indices 1 2 3 4 5 6 
#
# 1 94.2589 46.2775 41.5013 0.0000 0.0000 0.0000
# 2 46.2775 65.5064 29.0441 0.0000 0.0000 0.0000
# 3 41.5013 29.0441 66.9769 0.0000 0.0000 0.0000
# 4 0.0000 0.0000 0.0000 25.4282 0.0000 0.0000
# 5 0.0000 0.0000 0.0000 0.0000 24.6047 0.0000
# 6 0.0000 0.0000 0.0000 0.0000 0.0000 19.0986
#
#
#
# Elastic Compliance Matrix: (Units=1/GPa)
#
#
# Indices 1 2 3 4 5 6 
#
# 1 0.018717 -0.010004 -0.007260 0.000000 0.000000 0.000000
# 2 -0.010004 0.024247 -0.004315 0.000000 0.000000 0.000000
# 3 -0.007260 -0.004315 0.021300 0.000000 0.000000 0.000000
# 4 0.000000 0.000000 0.000000 0.039326 0.000000 0.000000
# 5 0.000000 0.000000 0.000000 0.000000 0.040643 0.000000
# 6 0.000000 0.000000 0.000000 0.000000 0.000000 0.052360
#
#
# Mechanical properties :
#
#
# Convention : Reuss Voigt Hill
#
# Bulk Modulus (GPa) = 47.38088 51.15423 49.26756
# Shear Modulus (GPa) = 20.26048 21.15425 20.70737
#
# Velocity S-wave (km/s) = 3.48509 3.56113 3.52331
# Velocity P-wave (km/s) = 6.67821 6.89746 6.78872
#
# Compressibility (1/GPa) = 0.02110556
#
# Stress axis : x y z
#
# Youngs Moduli (GPa) = 53.42735 41.24306 46.94793
#
# Poissons Ratio (x) = 0.41260 0.34082
# Poissons Ratio (y) = 0.53449 0.20260
# Poissons Ratio (z) = 0.38786 0.17798
#
# Static dielectric constant tensor:
#      x y z
#    x 3.158450 0.000000 0.000000 
#    y 0.000000 3.264520 0.000000 
#    z 0.000000 0.000000 3.211590 
# 
# 
# High freq. dielectric constant tensor:
#      x y z
#    x 1.624700 0.000000 0.000000 
#    y 0.000000 1.619940 0.000000 
#    z 0.000000 0.000000 1.654330 
# 
# From -- ./inp_files/8783.got.cif
#   From: 2010.03.12/outbox.cif.g09.slc.cpg/sg57_5_cif.got.tgz:8783.got - 2010.04.16 15:48:40.
