data_PCOD8231797
_publ_section_title
;
Structure prediction by ZEFSAII (Michael W. Deem and Ramdas Pophale) SiO2 
 PCOD8231797
Probable space group: P B C M
;
_chemical_formula_sum "Si O2"
_cell_formula_units_Z 52
_cell_length_a 16.125979
_cell_length_b 9.740557
_cell_length_c 16.549705
_cell_angle_alpha 90.000000
_cell_angle_beta 90.000000
_cell_angle_gamma 90.000000
_cell_volume 2599.561754
_symmetry_space_group_name_H-M "P B C M"
_symmetry_group_IT_number 57
_symmetry_cell_setting 'orthorhombic'
loop_
_space_group_symop_operation_xyz
x,y,z
-x,-y,1/2+z
x,1/2-y,-z
-x,1/2+y,1/2-z
-x,-y,-z
x,y,1/2-z
-x,1/2+y,z
x,1/2-y,1/2+z
loop_
_atom_site_type_symbol
_atom_site_label
_atom_site_fract_x
_atom_site_fract_y
_atom_site_fract_z
Si Si1 0.055032 0.938542 0.931043
Si Si2 0.419585 0.282479 0.909507
Si Si3 0.190353 0.750000 0.500000
Si Si4 0.282008 0.657347 0.658287
Si Si5 0.750545 0.655994 0.339994
Si Si6 0.919017 0.766598 0.405167
Si Si7 0.462064 0.932394 0.341012
O O1 0.134727 0.881292 0.978379
O O2 0.003914 0.818581 0.883383
O O3 0.075216 0.072998 0.876589
O O4 0.000000 0.000000 0.000000
O O5 0.320279 0.281966 0.897762
O O6 0.458031 0.161065 0.855883
O O7 0.461058 0.429782 0.893525
O O8 0.442694 0.250000 0.000000
O O9 0.243319 0.738267 0.582635
O O10 0.261945 0.716396 0.750000
O O11 0.245220 0.506345 0.652104
O O12 0.380455 0.659239 0.643673
O O13 0.724422 0.699072 0.250000
O O14 0.841711 0.708590 0.357510
O O15 0.901330 0.750000 0.500000
O O16 0.462606 0.986964 0.250000
#
# Coordination Sequence:
#
# PCOD8231797 Si02
#       7
#     8   8   4   8   8   8   8
#     4  10  19  34  59  86 114 153 202 242 310 367
#     4  11  22  38  64  93 121 159 210 256 301 369
#     4  12  20  36  66  86 118 168 200 262 308 368
#     4   9  21  38  60  89 121 162 207 250 312 375
#     4  10  21  40  62  85 120 164 202 253 314 365
#     4  10  19  35  58  84 116 147 201 248 295 370
#     4  10  21  41  62  87 127 166 200 251 310 369
#
# _framework density 20.003371000000001
#
# number of rings (size 3 to 8) (size 9 to 14) (size 15 to 20)
#    0.000    1.846    2.308    5.077    1.077    1.231 
#    2.769    2.308    0.000    0.923    0.000    0.000 
#    0.000    0.000    0.000    0.000    0.000    0.000 
#
# Total GULP energy -644364.864016 kJ/mol
# GULP energy per Si atom -12391.632000 kJ/mol
# Density = 1.995784 g / cm^3
# Si number density = 20.003371 Si / 1000 Ang^3
#
#
#
# Elastic Constant Matrix: (Units=GPa)
#
#
# Indices 1 2 3 4 5 6 
#
# 1 67.8780 31.2537 41.5176 0.0000 0.0000 0.0000
# 2 31.2537 79.9094 43.0716 0.0000 0.0000 0.0000
# 3 41.5176 43.0716 98.8239 0.0000 0.0000 0.0000
# 4 0.0000 0.0000 0.0000 27.7726 0.0000 0.0000
# 5 0.0000 0.0000 0.0000 0.0000 33.0751 0.0000
# 6 0.0000 0.0000 0.0000 0.0000 0.0000 34.2760
#
#
#
# Elastic Compliance Matrix: (Units=1/GPa)
#
#
# Indices 1 2 3 4 5 6 
#
# 1 0.021007 -0.004521 -0.006855 0.000000 0.000000 0.000000
# 2 -0.004521 0.017330 -0.005654 0.000000 0.000000 0.000000
# 3 -0.006855 -0.005654 0.015463 0.000000 0.000000 0.000000
# 4 0.000000 0.000000 0.000000 0.036007 0.000000 0.000000
# 5 0.000000 0.000000 0.000000 0.000000 0.030234 0.000000
# 6 0.000000 0.000000 0.000000 0.000000 0.000000 0.029175
#
#
# Mechanical properties :
#
#
# Convention : Reuss Voigt Hill
#
# Bulk Modulus (GPa) = 50.65797 53.14413 51.90105
# Shear Modulus (GPa) = 26.33592 27.74263 27.03928
#
# Velocity S-wave (km/s) = 3.63240 3.72815 3.68058
# Velocity P-wave (km/s) = 6.55531 6.71992 6.63813
#
# Compressibility (1/GPa) = 0.01974023
#
# Stress axis : x y z
#
# Youngs Moduli (GPa) = 47.60359 57.70389 64.67099
#
# Poissons Ratio (x) = 0.26090 0.44330
# Poissons Ratio (y) = 0.21523 0.36562
# Poissons Ratio (z) = 0.32631 0.32623
#
# Static dielectric constant tensor:
#      x y z
#    x 3.743690 0.000000 0.000000 
#    y 0.000000 4.165010 0.000000 
#    z 0.000000 0.000000 3.500830 
# 
# 
# High freq. dielectric constant tensor:
#      x y z
#    x 1.784680 0.000000 0.000000 
#    y 0.000000 1.778840 0.000000 
#    z 0.000000 0.000000 1.765370 
# 
# From -- ./inp_files/22855.got.cif
#   From: 2010.03.12/outbox.cif.g09.slc.cpg/sg57_12_cif.got.tgz:22855.got - 2010.04.16 15:48:40.
