data_PCOD8231752
_publ_section_title
;
Structure prediction by ZEFSAII (Michael W. Deem and Ramdas Pophale) SiO2 
 PCOD8231752
Probable space group: P B C M
;
_chemical_formula_sum "Si O2"
_cell_formula_units_Z 48
_cell_length_a 31.138871
_cell_length_b 9.127318
_cell_length_c 8.716253
_cell_angle_alpha 90.000000
_cell_angle_beta 90.000000
_cell_angle_gamma 90.000000
_cell_volume 2477.284423
_symmetry_space_group_name_H-M "P B C M"
_symmetry_group_IT_number 57
_symmetry_cell_setting 'orthorhombic'
loop_
_space_group_symop_operation_xyz
x,y,z
-x,-y,1/2+z
x,1/2-y,-z
-x,1/2+y,1/2-z
-x,-y,-z
x,y,1/2-z
-x,1/2+y,z
x,1/2-y,1/2+z
loop_
_atom_site_type_symbol
_atom_site_label
_atom_site_fract_x
_atom_site_fract_y
_atom_site_fract_z
Si Si1 0.802040 0.588378 0.431657
Si Si2 0.291206 0.095876 0.073777
Si Si3 0.038729 0.409837 0.430352
Si Si4 0.877818 0.407392 0.930161
Si Si5 0.539145 0.410308 0.932059
Si Si6 0.384327 0.412256 0.930835
O O1 0.809686 0.750000 0.500000
O O2 0.808937 0.596795 0.250000
O O3 0.754297 0.525803 0.479834
O O4 0.834462 0.472424 0.501310
O O5 0.285567 0.128771 0.250000
O O6 0.336586 0.013972 0.041775
O O7 0.297727 0.250000 0.000000
O O8 0.039452 0.250000 0.500000
O O9 0.032103 0.398932 0.250000
O O10 0.083106 0.487253 0.474876
O O11 0.000000 0.500000 0.500000
O O12 0.872353 0.391046 0.750000
O O13 0.887713 0.250000 0.000000
O O14 0.535597 0.404662 0.750000
O O15 0.536695 0.250000 0.000000
O O16 0.500000 0.500000 0.000000
O O17 0.583718 0.482349 0.980864
O O18 0.395187 0.405311 0.750000
O O19 0.388294 0.250000 0.000000
#
# Coordination Sequence:
#
# PCOD8231752 Si02
#       6
#     8   8   8   8   8   8
#     4  10  19  34  57  85 115 150 191 236 281 332
#     4   8  16  30  52  81 113 147 186 229 276 328
#     4  11  24  41  63  89 118 150 188 231 281 336
#     4  11  24  40  58  83 114 151 191 236 285 337
#     4  12  25  42  61  84 112 146 186 230 279 333
#     4  10  19  35  58  86 117 150 187 230 278 332
#
# _framework density 19.376055999999998
#
# number of rings (size 3 to 8) (size 9 to 14) (size 15 to 20)
#    0.000    1.667    0.000    5.000    0.000    6.667 
#    0.000    0.833    0.000    0.000    0.000    0.000 
#    0.000    0.000    0.000    0.000    0.000    0.000 
#
# Total GULP energy -594906.142079 kJ/mol
# GULP energy per Si atom -12393.877960 kJ/mol
# Density = 1.933195 g / cm^3
# Si number density = 19.376056 Si / 1000 Ang^3
#
#
#
# Elastic Constant Matrix: (Units=GPa)
#
#
# Indices 1 2 3 4 5 6 
#
# 1 163.7511 79.1600 75.1871 0.0000 0.0000 0.0000
# 2 79.1600 136.7146 61.6226 0.0000 0.0000 0.0000
# 3 75.1871 61.6226 109.5517 0.0000 0.0000 0.0000
# 4 0.0000 0.0000 0.0000 36.0896 0.0000 0.0000
# 5 0.0000 0.0000 0.0000 0.0000 33.4695 0.0000
# 6 0.0000 0.0000 0.0000 0.0000 0.0000 38.6413
#
#
#
# Elastic Compliance Matrix: (Units=1/GPa)
#
#
# Indices 1 2 3 4 5 6 
#
# 1 0.010118 -0.003655 -0.004888 0.000000 0.000000 0.000000
# 2 -0.003655 0.011119 -0.003746 0.000000 0.000000 0.000000
# 3 -0.004888 -0.003746 0.014590 0.000000 0.000000 0.000000
# 4 0.000000 0.000000 0.000000 0.027709 0.000000 0.000000
# 5 0.000000 0.000000 0.000000 0.000000 0.029878 0.000000
# 6 0.000000 0.000000 0.000000 0.000000 0.000000 0.025879
#
#
# Mechanical properties :
#
#
# Convention : Reuss Voigt Hill
#
# Bulk Modulus (GPa) = 88.89851 93.55076 91.22464
# Shear Modulus (GPa) = 33.87019 34.57660 34.22339
#
# Velocity S-wave (km/s) = 4.18550 4.22892 4.20726
# Velocity P-wave (km/s) = 8.32695 8.49891 8.41337
#
# Compressibility (1/GPa) = 0.01124878
#
# Stress axis : x y z
#
# Youngs Moduli (GPa) = 98.83021 89.93243 68.53973
#
# Poissons Ratio (x) = 0.32874 0.33504
# Poissons Ratio (y) = 0.36126 0.25674
# Poissons Ratio (z) = 0.48311 0.33688
#
# Static dielectric constant tensor:
#      x y z
#    x 4.334810 0.000000 0.000000 
#    y 0.000000 3.467840 0.000000 
#    z 0.000000 0.000000 3.762880 
# 
# 
# High freq. dielectric constant tensor:
#      x y z
#    x 1.785130 0.000000 0.000000 
#    y 0.000000 1.732450 0.000000 
#    z 0.000000 0.000000 1.771720 
# 
# From -- ./inp_files/10081.got.cif
#   From: 2010.03.12/outbox.cif.g09.slc.cpg/sg57_6_cif.got.tgz:10081.got - 2010.04.16 15:48:40.
