data_PCOD8231833
_publ_section_title
;
Structure prediction by ZEFSAII (Michael W. Deem and Ramdas Pophale) SiO2 
 PCOD8231833
Probable space group: P B C M
;
_chemical_formula_sum "Si O2"
_cell_formula_units_Z 48
_cell_length_a 9.535286
_cell_length_b 30.169691
_cell_length_c 9.009797
_cell_angle_alpha 90.000000
_cell_angle_beta 90.000000
_cell_angle_gamma 90.000000
_cell_volume 2591.908058
_symmetry_space_group_name_H-M "P B C M"
_symmetry_group_IT_number 57
_symmetry_cell_setting 'orthorhombic'
loop_
_space_group_symop_operation_xyz
x,y,z
-x,-y,1/2+z
x,1/2-y,-z
-x,1/2+y,1/2-z
-x,-y,-z
x,y,1/2-z
-x,1/2+y,z
x,1/2-y,1/2+z
loop_
_atom_site_type_symbol
_atom_site_label
_atom_site_fract_x
_atom_site_fract_y
_atom_site_fract_z
Si Si1 0.699678 0.065202 0.576664
Si Si2 0.511941 0.874262 0.923057
Si Si3 0.094550 0.855341 0.420947
Si Si4 0.146315 0.010714 0.575688
Si Si5 0.208232 0.388001 0.078152
Si Si6 0.303346 0.795727 0.577611
O O1 0.680825 0.055350 0.750000
O O2 0.555550 0.085070 0.513462
O O3 0.827679 0.098532 0.544550
O O4 0.731401 0.019742 0.491624
O O5 0.506573 0.885733 0.750000
O O6 0.429366 0.829214 0.958843
O O7 0.670437 0.867426 0.976809
O O8 0.115764 0.842518 0.250000
O O9 0.157049 0.815602 0.518237
O O10 0.932236 0.861107 0.461992
O O11 0.130831 0.002188 0.750000
O O12 0.188106 0.060727 0.539674
O O13 0.000000 0.000000 0.500000
O O14 0.247358 0.381696 0.250000
O O15 0.341519 0.750000 0.500000
O O16 0.285285 0.786851 0.750000
#
# Coordination Sequence:
#
# PCOD8231833 Si02
#       6
#     8   8   8   8   8   8
#     4  10  19  35  56  79 108 149 192 232 277 323
#     4  10  22  38  56  83 113 146 187 230 278 332
#     4   9  18  35  57  81 110 142 181 224 271 325
#     4  11  21  34  53  80 112 148 194 238 277 325
#     4  10  21  37  55  80 113 150 187 226 277 331
#     4  10  21  38  61  87 110 137 178 222 272 334
#
# _framework density 18.519175000000001
#
# number of rings (size 3 to 8) (size 9 to 14) (size 15 to 20)
#    0.000    2.000    1.667    2.000    0.000    5.333 
#    0.000    0.833    0.000    2.000    0.000    0.000 
#    0.000    0.000    0.000    0.000    0.000    0.000 
#
# Total GULP energy -595441.397146 kJ/mol
# GULP energy per Si atom -12405.029107 kJ/mol
# Density = 1.847702 g / cm^3
# Si number density = 18.519175 Si / 1000 Ang^3
#
#
#
# Elastic Constant Matrix: (Units=GPa)
#
#
# Indices 1 2 3 4 5 6 
#
# 1 116.0228 41.2050 51.2658 0.0000 0.0000 0.0000
# 2 41.2050 87.6234 58.6794 0.0000 0.0000 0.0000
# 3 51.2658 58.6794 99.6401 0.0000 0.0000 0.0000
# 4 0.0000 0.0000 0.0000 33.7636 0.0000 0.0000
# 5 0.0000 0.0000 0.0000 0.0000 35.9470 0.0000
# 6 0.0000 0.0000 0.0000 0.0000 0.0000 15.0922
#
#
#
# Elastic Compliance Matrix: (Units=1/GPa)
#
#
# Indices 1 2 3 4 5 6 
#
# 1 0.011447 -0.002376 -0.004490 0.000000 0.000000 0.000000
# 2 -0.002376 0.019337 -0.010166 0.000000 0.000000 0.000000
# 3 -0.004490 -0.010166 0.018333 0.000000 0.000000 0.000000
# 4 0.000000 0.000000 0.000000 0.029618 0.000000 0.000000
# 5 0.000000 0.000000 0.000000 0.000000 0.027819 0.000000
# 6 0.000000 0.000000 0.000000 0.000000 0.000000 0.066259
#
#
# Mechanical properties :
#
#
# Convention : Reuss Voigt Hill
#
# Bulk Modulus (GPa) = 66.42878 67.28742 66.85810
# Shear Modulus (GPa) = 23.59659 27.10297 25.34978
#
# Velocity S-wave (km/s) = 3.57343 3.82973 3.70380
# Velocity P-wave (km/s) = 7.27832 7.48122 7.38047
#
# Compressibility (1/GPa) = 0.01505372
#
# Stress axis : x y z
#
# Youngs Moduli (GPa) = 87.36012 51.71314 54.54590
#
# Poissons Ratio (x) = 0.12286 0.24493
# Poissons Ratio (y) = 0.20755 0.55450
# Poissons Ratio (z) = 0.39228 0.52570
#
# Static dielectric constant tensor:
#      x y z
#    x 3.392390 0.000000 0.000000 
#    y 0.000000 3.355790 0.000000 
#    z 0.000000 0.000000 3.463530 
# 
# 
# High freq. dielectric constant tensor:
#      x y z
#    x 1.718450 0.000000 0.000000 
#    y 0.000000 1.705610 0.000000 
#    z 0.000000 0.000000 1.728080 
# 
# From -- ./inp_files/1987.got.cif
#   From: 2010.03.12/outbox.cif.g09.slc.cpg/sg57_1_cif.got.tgz:1987.got - 2010.04.16 15:48:40.
