data_PCOD8231524
_publ_section_title
;
Structure prediction by ZEFSAII (Michael W. Deem and Ramdas Pophale) SiO2 
 PCOD8231524
Probable space group: P B C M
;
_chemical_formula_sum "Si O2"
_cell_formula_units_Z 64
_cell_length_a 23.403141
_cell_length_b 15.686231
_cell_length_c 8.748980
_cell_angle_alpha 90.000000
_cell_angle_beta 90.000000
_cell_angle_gamma 90.000000
_cell_volume 3211.812464
_symmetry_space_group_name_H-M "P B C M"
_symmetry_group_IT_number 57
_symmetry_cell_setting 'orthorhombic'
loop_
_space_group_symop_operation_xyz
x,y,z
-x,-y,1/2+z
x,1/2-y,-z
-x,1/2+y,1/2-z
-x,-y,-z
x,y,1/2-z
-x,1/2+y,z
x,1/2-y,1/2+z
loop_
_atom_site_type_symbol
_atom_site_label
_atom_site_fract_x
_atom_site_fract_y
_atom_site_fract_z
Si Si1 0.566883 0.084394 0.071945
Si Si2 0.668511 0.663908 0.928706
Si Si3 0.029452 0.421319 0.425511
Si Si4 0.437834 0.097371 0.426194
Si Si5 0.141108 0.498505 0.069857
Si Si6 0.081309 0.662380 0.929751
Si Si7 0.263020 0.490498 0.571111
Si Si8 0.326160 0.836850 0.069329
O O1 0.577381 0.063419 0.250000
O O2 0.503666 0.122817 0.046295
O O3 0.612131 0.152295 0.009874
O O4 0.574177 0.999496 0.973703
O O5 0.676362 0.669277 0.750000
O O6 0.695373 0.750000 0.000000
O O7 0.601573 0.659466 0.973482
O O8 0.699301 0.579853 0.988462
O O9 0.028620 0.443497 0.250000
O O10 0.096650 0.420466 0.473403
O O11 0.000000 0.500000 0.500000
O O12 0.988124 0.340814 0.460276
O O13 0.420078 0.106931 0.250000
O O14 0.154232 0.502609 0.250000
O O15 0.114525 0.587657 0.015737
O O16 0.198113 0.478731 0.978872
O O17 0.095315 0.657598 0.750000
O O18 0.104236 0.750000 0.000000
O O19 0.268565 0.475479 0.750000
O O20 0.284925 0.584634 0.525055
O O21 0.333606 0.828273 0.250000
O O22 0.299140 0.750000 0.000000
#
# Coordination Sequence:
#
# PCOD8231524 Si02
#       8
#     8   8   8   8   8   8   8   8
#     4  10  20  35  59  88 120 156 195 239 298 363
#     4  12  25  42  66  91 117 154 199 251 307 366
#     4   8  16  31  52  78 108 142 182 225 272 328
#     4  10  20  36  59  89 121 153 192 242 298 363
#     4  10  20  36  59  84 112 152 197 239 289 350
#     4  10  19  33  54  84 120 154 190 236 287 342
#     4  11  24  43  63  87 120 160 204 255 305 356
#     4  11  24  40  61  85 118 157 201 250 301 362
#
# _framework density 19.926442999999999
#
# number of rings (size 3 to 8) (size 9 to 14) (size 15 to 20)
#    0.000    1.750    1.250    3.375    0.000    5.000 
#    0.000    1.875    0.000    1.500    0.000    0.000 
#    0.000    0.000    0.000    0.000    0.000    0.000 
#
# Total GULP energy -793303.866043 kJ/mol
# GULP energy per Si atom -12395.372907 kJ/mol
# Density = 1.988109 g / cm^3
# Si number density = 19.926443 Si / 1000 Ang^3
#
#
#
# Elastic Constant Matrix: (Units=GPa)
#
#
# Indices 1 2 3 4 5 6 
#
# 1 97.9986 19.0162 39.8854 0.0000 0.0000 0.0000
# 2 19.0162 64.1249 38.5183 0.0000 0.0000 0.0000
# 3 39.8854 38.5183 96.7102 0.0000 0.0000 0.0000
# 4 0.0000 0.0000 0.0000 31.3817 0.0000 0.0000
# 5 0.0000 0.0000 0.0000 0.0000 31.1790 0.0000
# 6 0.0000 0.0000 0.0000 0.0000 0.0000 14.3143
#
#
#
# Elastic Compliance Matrix: (Units=1/GPa)
#
#
# Indices 1 2 3 4 5 6 
#
# 1 0.012293 -0.000789 -0.004756 0.000000 0.000000 0.000000
# 2 -0.000789 0.020549 -0.007859 0.000000 0.000000 0.000000
# 3 -0.004756 -0.007859 0.015432 0.000000 0.000000 0.000000
# 4 0.000000 0.000000 0.000000 0.031866 0.000000 0.000000
# 5 0.000000 0.000000 0.000000 0.000000 0.032073 0.000000
# 6 0.000000 0.000000 0.000000 0.000000 0.000000 0.069860
#
#
# Mechanical properties :
#
#
# Convention : Reuss Voigt Hill
#
# Bulk Modulus (GPa) = 46.58411 50.40816 48.49613
# Shear Modulus (GPa) = 23.14437 26.13592 24.64014
#
# Velocity S-wave (km/s) = 3.41176 3.62556 3.52028
# Velocity P-wave (km/s) = 6.24091 6.54815 6.39637
#
# Compressibility (1/GPa) = 0.02146655
#
# Stress axis : x y z
#
# Youngs Moduli (GPa) = 81.34818 48.66351 64.80168
#
# Poissons Ratio (x) = 0.03839 0.30817
# Poissons Ratio (y) = 0.06417 0.50929
# Poissons Ratio (z) = 0.38686 0.38245
#
# Static dielectric constant tensor:
#      x y z
#    x 3.979800 0.000000 0.000000 
#    y 0.000000 3.636270 0.000000 
#    z 0.000000 0.000000 3.670770 
# 
# 
# High freq. dielectric constant tensor:
#      x y z
#    x 1.778140 0.000000 0.000000 
#    y 0.000000 1.761570 0.000000 
#    z 0.000000 0.000000 1.791090 
# 
# From -- ./inp_files/9503.got.cif
#   From: 2010.03.12/outbox.cif.g09.slc.cpg/sg57_5_cif.got.tgz:9503.got - 2010.04.16 15:48:40.
