data_PCOD8231230
_publ_section_title
;
Structure prediction by ZEFSAII (Michael W. Deem and Ramdas Pophale) SiO2 
 PCOD8231230
Probable space group: P B C M
;
_chemical_formula_sum "Si O2"
_cell_formula_units_Z 48
_cell_length_a 4.844827
_cell_length_b 27.288619
_cell_length_c 17.544788
_cell_angle_alpha 90.000000
_cell_angle_beta 90.000000
_cell_angle_gamma 90.000000
_cell_volume 2319.572528
_symmetry_space_group_name_H-M "P B C M"
_symmetry_group_IT_number 57
_symmetry_cell_setting 'orthorhombic'
loop_
_space_group_symop_operation_xyz
x,y,z
-x,-y,1/2+z
x,1/2-y,-z
-x,1/2+y,1/2-z
-x,-y,-z
x,y,1/2-z
-x,1/2+y,z
x,1/2-y,1/2+z
loop_
_atom_site_type_symbol
_atom_site_label
_atom_site_fract_x
_atom_site_fract_y
_atom_site_fract_z
Si Si1 0.104304 0.177838 0.834221
Si Si2 0.579184 0.888057 0.664210
Si Si3 0.078288 0.609561 0.961205
Si Si4 0.919056 0.333381 0.609370
Si Si5 0.408550 0.445148 0.513357
Si Si6 0.401480 0.756846 0.166002
O O1 0.219193 0.163415 0.750000
O O2 0.056020 0.129057 0.883335
O O3 0.314587 0.219774 0.868724
O O4 0.798738 0.197655 0.825868
O O5 0.632880 0.907431 0.750000
O O6 0.263193 0.872057 0.656328
O O7 0.614065 0.931969 0.603415
O O8 0.774546 0.839988 0.646211
O O9 0.899948 0.561843 0.982741
O O10 0.050214 0.654220 0.020623
O O11 0.394843 0.591552 0.964239
O O12 0.765354 0.281305 0.613343
O O13 0.500000 0.500000 0.500000
O O14 0.459014 0.733286 0.250000
#
# Coordination Sequence:
#
# PCOD8231230 Si02
#       6
#     8   8   8   8   8   8
#     4  10  21  36  54  78 110 147 184 221 260 311
#     4  10  19  33  54  80 110 139 176 224 275 328
#     4  10  21  38  56  78 108 143 181 224 279 329
#     4  10  20  33  53  79 109 146 180 219 269 320
#     4  10  21  38  59  80 106 140 178 227 283 337
#     4  10  19  32  52  77 107 143 183 221 258 307
#
# _framework density 20.693470000000001
#
# number of rings (size 3 to 8) (size 9 to 14) (size 15 to 20)
#    0.000    2.000    0.000    4.000    0.000    2.000 
#    0.000    3.333    0.000    0.000    0.000    0.000 
#    0.000    0.000    0.000    0.000    0.000    0.000 
#
# Total GULP energy -594652.171047 kJ/mol
# GULP energy per Si atom -12388.586897 kJ/mol
# Density = 2.064637 g / cm^3
# Si number density = 20.693470 Si / 1000 Ang^3
#
#
#
# Elastic Constant Matrix: (Units=GPa)
#
#
# Indices 1 2 3 4 5 6 
#
# 1 84.6083 -1.2019 21.2561 0.0000 0.0000 0.0000
# 2 -1.2019 64.2837 42.9649 0.0000 0.0000 0.0000
# 3 21.2561 42.9649 90.6281 0.0000 0.0000 0.0000
# 4 0.0000 0.0000 0.0000 19.4374 0.0000 0.0000
# 5 0.0000 0.0000 0.0000 0.0000 24.3087 0.0000
# 6 0.0000 0.0000 0.0000 0.0000 0.0000 30.6964
#
#
#
# Elastic Compliance Matrix: (Units=1/GPa)
#
#
# Indices 1 2 3 4 5 6 
#
# 1 0.013033 0.003347 -0.004644 0.000000 0.000000 0.000000
# 2 0.003347 0.023631 -0.011988 0.000000 0.000000 0.000000
# 3 -0.004644 -0.011988 0.017807 0.000000 0.000000 0.000000
# 4 0.000000 0.000000 0.000000 0.051447 0.000000 0.000000
# 5 0.000000 0.000000 0.000000 0.000000 0.041138 0.000000
# 6 0.000000 0.000000 0.000000 0.000000 0.000000 0.032577
#
#
# Mechanical properties :
#
#
# Convention : Reuss Voigt Hill
#
# Bulk Modulus (GPa) = 35.83965 40.61759 38.22862
# Shear Modulus (GPa) = 23.20157 26.65523 24.92840
#
# Velocity S-wave (km/s) = 3.35207 3.59290 3.47457
# Velocity P-wave (km/s) = 5.68671 6.07312 5.88309
#
# Compressibility (1/GPa) = 0.02790206
#
# Stress axis : x y z
#
# Youngs Moduli (GPa) = 76.72598 42.31715 56.15895
#
# Poissons Ratio (x) = -0.14165 0.26079
# Poissons Ratio (y) = -0.25684 0.67324
# Poissons Ratio (z) = 0.35630 0.50730
#
# Static dielectric constant tensor:
#      x y z
#    x 4.076880 0.000000 0.000000 
#    y 0.000000 3.245910 0.000000 
#    z 0.000000 0.000000 3.852640 
# 
# 
# High freq. dielectric constant tensor:
#      x y z
#    x 1.838790 0.000000 0.000000 
#    y 0.000000 1.769190 0.000000 
#    z 0.000000 0.000000 1.791920 
# 
# From -- ./inp_files/20177.got.cif
#   From: 2010.03.12/outbox.cif.g09.slc.cpg/sg57_11_cif.got.tgz:20177.got - 2010.04.16 15:48:40.
