data_PCOD8231986
_publ_section_title
;
Structure prediction by ZEFSAII (Michael W. Deem and Ramdas Pophale) SiO2 
 PCOD8231986
Probable space group: P B C M
;
_chemical_formula_sum "Si O2"
_cell_formula_units_Z 48
_cell_length_a 14.517039
_cell_length_b 10.414084
_cell_length_c 16.871885
_cell_angle_alpha 90.000000
_cell_angle_beta 90.000000
_cell_angle_gamma 90.000000
_cell_volume 2550.719642
_symmetry_space_group_name_H-M "P B C M"
_symmetry_group_IT_number 57
_symmetry_cell_setting 'orthorhombic'
loop_
_space_group_symop_operation_xyz
x,y,z
-x,-y,1/2+z
x,1/2-y,-z
-x,1/2+y,1/2-z
-x,-y,-z
x,y,1/2-z
-x,1/2+y,z
x,1/2-y,1/2+z
loop_
_atom_site_type_symbol
_atom_site_label
_atom_site_fract_x
_atom_site_fract_y
_atom_site_fract_z
Si Si1 0.616003 0.376504 0.450518
Si Si2 0.738124 0.724640 0.838509
Si Si3 0.060129 0.280359 0.157675
Si Si4 0.238335 0.512948 0.841708
Si Si5 0.407216 0.126481 0.552335
Si Si6 0.039403 0.015584 0.411616
O O1 0.640652 0.250000 0.500000
O O2 0.688538 0.386557 0.378364
O O3 0.512148 0.370920 0.416480
O O4 0.621513 0.498452 0.507407
O O5 0.746972 0.674826 0.750000
O O6 0.837683 0.703357 0.879586
O O7 0.711753 0.874867 0.842989
O O8 0.659885 0.634325 0.873548
O O9 0.066562 0.244507 0.250000
O O10 0.011233 0.159197 0.115040
O O11 0.006480 0.411240 0.145229
O O12 0.213954 0.550712 0.750000
O O13 0.148581 0.507954 0.898672
O O14 0.385955 0.250000 0.500000
O O15 0.000000 0.000000 0.500000
#
# Coordination Sequence:
#
# PCOD8231986 Si02
#       6
#     8   8   8   8   8   8
#     4  10  22  36  57  88 118 150 191 240 290 342
#     4   9  19  35  61  85 108 150 200 237 280 347
#     4  10  21  39  59  84 117 152 190 240 295 348
#     4  10  21  40  60  82 118 161 193 232 297 358
#     4  10  19  36  60  84 114 150 191 242 288 338
#     4  11  23  37  60  89 114 149 197 243 288 348
#
# _framework density 18.81822
#
# number of rings (size 3 to 8) (size 9 to 14) (size 15 to 20)
#    0.000    2.000    1.667    3.000    2.333    2.000 
#    0.000    0.833    0.000    0.000    0.000    0.000 
#    0.000    0.000    0.000    0.000    0.000    0.000 
#
# Total GULP energy -595014.347430 kJ/mol
# GULP energy per Si atom -12396.132238 kJ/mol
# Density = 1.877539 g / cm^3
# Si number density = 18.818220 Si / 1000 Ang^3
#
#
#
# Elastic Constant Matrix: (Units=GPa)
#
#
# Indices 1 2 3 4 5 6 
#
# 1 95.9213 47.1826 55.2614 0.0000 0.0000 0.0000
# 2 47.1826 107.7169 30.9923 0.0000 0.0000 0.0000
# 3 55.2614 30.9923 92.3529 0.0000 0.0000 0.0000
# 4 0.0000 0.0000 0.0000 25.9574 0.0000 0.0000
# 5 0.0000 0.0000 0.0000 0.0000 36.5564 0.0000
# 6 0.0000 0.0000 0.0000 0.0000 0.0000 37.7012
#
#
#
# Elastic Compliance Matrix: (Units=1/GPa)
#
#
# Indices 1 2 3 4 5 6 
#
# 1 0.018373 -0.005407 -0.009180 0.000000 0.000000 0.000000
# 2 -0.005407 0.011867 -0.000747 0.000000 0.000000 0.000000
# 3 -0.009180 -0.000747 0.016572 0.000000 0.000000 0.000000
# 4 0.000000 0.000000 0.000000 0.038525 0.000000 0.000000
# 5 0.000000 0.000000 0.000000 0.000000 0.027355 0.000000
# 6 0.000000 0.000000 0.000000 0.000000 0.000000 0.026524
#
#
# Mechanical properties :
#
#
# Convention : Reuss Voigt Hill
#
# Bulk Modulus (GPa) = 61.93970 62.54041 62.24005
# Shear Modulus (GPa) = 28.52839 30.88000 29.70419
#
# Velocity S-wave (km/s) = 3.89781 4.05527 3.97732
# Velocity P-wave (km/s) = 7.29681 7.43190 7.36466
#
# Compressibility (1/GPa) = 0.01614473
#
# Stress axis : x y z
#
# Youngs Moduli (GPa) = 54.42702 84.26841 60.34436
#
# Poissons Ratio (x) = 0.45562 0.55394
# Poissons Ratio (y) = 0.29427 0.04508
# Poissons Ratio (z) = 0.49962 0.06296
#
# Static dielectric constant tensor:
#      x y z
#    x 3.512450 0.000000 0.000000 
#    y 0.000000 4.036370 0.000000 
#    z 0.000000 0.000000 3.426300 
# 
# 
# High freq. dielectric constant tensor:
#      x y z
#    x 1.734370 0.000000 0.000000 
#    y 0.000000 1.729530 0.000000 
#    z 0.000000 0.000000 1.721660 
# 
# From -- ./inp_files/18381.got.cif
#   From: 2010.03.12/outbox.cif.g09.slc.cpg/sg57_10_cif.got.tgz:18381.got - 2010.04.16 15:48:40.
