data_PCOD8231540
_publ_section_title
;
Structure prediction by ZEFSAII (Michael W. Deem and Ramdas Pophale) SiO2 
 PCOD8231540
Probable space group: P B C M
;
_chemical_formula_sum "Si O2"
_cell_formula_units_Z 56
_cell_length_a 11.963138
_cell_length_b 15.972015
_cell_length_c 15.795884
_cell_angle_alpha 90.000000
_cell_angle_beta 90.000000
_cell_angle_gamma 90.000000
_cell_volume 3018.205163
_symmetry_space_group_name_H-M "P B C M"
_symmetry_group_IT_number 57
_symmetry_cell_setting 'orthorhombic'
loop_
_space_group_symop_operation_xyz
x,y,z
-x,-y,1/2+z
x,1/2-y,-z
-x,1/2+y,1/2-z
-x,-y,-z
x,y,1/2-z
-x,1/2+y,z
x,1/2-y,1/2+z
loop_
_atom_site_type_symbol
_atom_site_label
_atom_site_fract_x
_atom_site_fract_y
_atom_site_fract_z
Si Si1 0.688146 0.454924 0.048416
Si Si2 0.892764 0.552942 0.985205
Si Si3 0.599107 0.185132 0.067013
Si Si4 0.190088 0.300067 0.915261
Si Si5 0.397903 0.392725 0.653037
Si Si6 0.220567 0.803974 0.350132
Si Si7 0.031419 0.170625 0.845304
O O1 0.783344 0.495996 0.989993
O O2 0.611796 0.526050 0.092433
O O3 0.734660 0.394889 0.122273
O O4 0.619459 0.401290 0.981637
O O5 0.885722 0.621515 0.058827
O O6 0.908811 0.595065 0.894085
O O7 0.000000 0.500000 0.000000
O O8 0.511004 0.160535 0.139092
O O9 0.711411 0.227992 0.105372
O O10 0.544769 0.250000 0.000000
O O11 0.298792 0.328028 0.864820
O O12 0.113845 0.248932 0.850723
O O13 0.225439 0.250000 0.000000
O O14 0.394385 0.422808 0.750000
O O15 0.234100 0.793898 0.250000
O O16 0.090824 0.801222 0.379756
O O17 0.018047 0.139181 0.750000
#
# Coordination Sequence:
#
# PCOD8231540 Si02
#       7
#     8   8   8   8   8   8   8
#     4  10  21  36  57  81 110 145 184 226 274 334
#     4  10  19  33  55  80 109 146 181 215 272 331
#     4  10  22  37  59  79 109 145 187 226 275 329
#     4   9  20  34  56  79 107 145 186 221 270 328
#     4  11  21  37  57  81 109 140 185 234 277 322
#     4  10  20  35  55  83 111 143 182 226 276 325
#     4  10  20  35  54  82 117 145 181 229 274 325
#
# _framework density 18.554074
#
# number of rings (size 3 to 8) (size 9 to 14) (size 15 to 20)
#    0.000    2.000    1.429    2.143    2.000    1.714 
#    0.000    2.143    0.000    0.000    0.000    0.000 
#    0.000    0.000    0.000    0.000    0.000    0.000 
#
# Total GULP energy -694225.580898 kJ/mol
# GULP energy per Si atom -12396.885373 kJ/mol
# Density = 1.851184 g / cm^3
# Si number density = 18.554074 Si / 1000 Ang^3
#
#
#
# Elastic Constant Matrix: (Units=GPa)
#
#
# Indices 1 2 3 4 5 6 
#
# 1 96.1576 58.3735 50.7555 0.0000 0.0000 0.0000
# 2 58.3735 103.0304 28.4396 0.0000 0.0000 0.0000
# 3 50.7555 28.4396 80.0927 0.0000 0.0000 0.0000
# 4 0.0000 0.0000 0.0000 24.2392 0.0000 0.0000
# 5 0.0000 0.0000 0.0000 0.0000 28.2350 0.0000
# 6 0.0000 0.0000 0.0000 0.0000 0.0000 25.8561
#
#
#
# Elastic Compliance Matrix: (Units=1/GPa)
#
#
# Indices 1 2 3 4 5 6 
#
# 1 0.021518 -0.009343 -0.010319 0.000000 0.000000 0.000000
# 2 -0.009343 0.014817 0.000659 0.000000 0.000000 0.000000
# 3 -0.010319 0.000659 0.018790 0.000000 0.000000 0.000000
# 4 0.000000 0.000000 0.000000 0.041256 0.000000 0.000000
# 5 0.000000 0.000000 0.000000 0.000000 0.035417 0.000000
# 6 0.000000 0.000000 0.000000 0.000000 0.000000 0.038676
#
#
# Mechanical properties :
#
#
# Convention : Reuss Voigt Hill
#
# Bulk Modulus (GPa) = 58.40721 61.60200 60.00461
# Shear Modulus (GPa) = 23.34429 25.11353 24.22891
#
# Velocity S-wave (km/s) = 3.55093 3.68303 3.61758
# Velocity P-wave (km/s) = 6.95413 7.16657 7.06115
#
# Compressibility (1/GPa) = 0.01712117
#
# Stress axis : x y z
#
# Youngs Moduli (GPa) = 46.47296 67.48858 53.21883
#
# Poissons Ratio (x) = 0.63055 0.54914
# Poissons Ratio (y) = 0.43420 -0.03509
# Poissons Ratio (z) = 0.47953 -0.04450
#
# Static dielectric constant tensor:
#      x y z
#    x 3.325390 0.000000 0.000000 
#    y 0.000000 3.487740 0.000000 
#    z 0.000000 0.000000 3.210260 
# 
# 
# High freq. dielectric constant tensor:
#      x y z
#    x 1.721010 0.000000 0.000000 
#    y 0.000000 1.728330 0.000000 
#    z 0.000000 0.000000 1.716200 
# 
# From -- ./inp_files/17695.got.cif
#   From: 2010.03.12/outbox.cif.g09.slc.cpg/sg57_9_cif.got.tgz:17695.got - 2010.04.16 15:48:40.
