data_PCOD8231361
_publ_section_title
;
Structure prediction by ZEFSAII (Michael W. Deem and Ramdas Pophale) SiO2 
 PCOD8231361
Probable space group: P B C M
;
_chemical_formula_sum "Si O2"
_cell_formula_units_Z 40
_cell_length_a 25.878869
_cell_length_b 9.854142
_cell_length_c 8.585942
_cell_angle_alpha 90.000000
_cell_angle_beta 90.000000
_cell_angle_gamma 90.000000
_cell_volume 2189.535842
_symmetry_space_group_name_H-M "P B C M"
_symmetry_group_IT_number 57
_symmetry_cell_setting 'orthorhombic'
loop_
_space_group_symop_operation_xyz
x,y,z
-x,-y,1/2+z
x,1/2-y,-z
-x,1/2+y,1/2-z
-x,-y,-z
x,y,1/2-z
-x,1/2+y,z
x,1/2-y,1/2+z
loop_
_atom_site_type_symbol
_atom_site_label
_atom_site_fract_x
_atom_site_fract_y
_atom_site_fract_z
Si Si1 0.233954 0.098281 0.934244
Si Si2 0.542277 0.900279 0.066056
Si Si3 0.654011 0.604279 0.930599
Si Si4 0.151657 0.895104 0.066237
Si Si5 0.958730 0.396769 0.565348
O O1 0.222361 0.099103 0.750000
O O2 0.291218 0.031375 0.969240
O O3 0.229306 0.250000 0.000000
O O4 0.193946 0.006179 0.025381
O O5 0.536167 0.893762 0.250000
O O6 0.599216 0.960545 0.013864
O O7 0.533896 0.750000 0.000000
O O8 0.500000 0.000000 0.000000
O O9 0.648952 0.626334 0.750000
O O10 0.659514 0.750000 0.000000
O O11 0.144431 0.882984 0.250000
O O12 0.169479 0.750000 0.000000
O O13 0.097863 0.942043 0.990713
O O14 0.973153 0.250000 0.500000
O O15 0.960412 0.394317 0.750000
O O16 0.000000 0.500000 0.500000
#
# Coordination Sequence:
#
# PCOD8231361 Si02
#       5
#     8   8   8   8   8
#     4  10  19  34  55  81 107 136 174 219 262 310
#     4  10  19  33  52  76 103 136 173 215 262 314
#     4   8  16  30  50  73 101 133 170 212 260 310
#     4  11  22  38  57  80 109 144 178 215 263 316
#     4  11  22  39  60  84 111 143 179 219 263 312
#
# _framework density 18.268712000000001
#
# number of rings (size 3 to 8) (size 9 to 14) (size 15 to 20)
#    0.000    2.000    0.000    6.000    0.000    2.400 
#    0.000    5.000    0.000    0.000    0.000    0.000 
#    0.000    0.000    0.000    0.000    0.000    0.000 
#
# Total GULP energy -495586.441191 kJ/mol
# GULP energy per Si atom -12389.661030 kJ/mol
# Density = 1.822713 g / cm^3
# Si number density = 18.268712 Si / 1000 Ang^3
#
#
#
# Elastic Constant Matrix: (Units=GPa)
#
#
# Indices 1 2 3 4 5 6 
#
# 1 159.4167 85.7608 62.3793 0.0000 0.0000 0.0000
# 2 85.7608 84.6612 43.1909 0.0000 0.0000 0.0000
# 3 62.3793 43.1909 121.4896 0.0000 0.0000 0.0000
# 4 0.0000 0.0000 0.0000 31.8346 0.0000 0.0000
# 5 0.0000 0.0000 0.0000 0.0000 27.6806 0.0000
# 6 0.0000 0.0000 0.0000 0.0000 0.0000 31.8564
#
#
#
# Elastic Compliance Matrix: (Units=1/GPa)
#
#
# Indices 1 2 3 4 5 6 
#
# 1 0.014482 -0.013286 -0.002712 0.000000 0.000000 0.000000
# 2 -0.013286 0.026618 -0.002641 0.000000 0.000000 0.000000
# 3 -0.002712 -0.002641 0.010563 0.000000 0.000000 0.000000
# 4 0.000000 0.000000 0.000000 0.031412 0.000000 0.000000
# 5 0.000000 0.000000 0.000000 0.000000 0.036126 0.000000
# 6 0.000000 0.000000 0.000000 0.000000 0.000000 0.031391
#
#
# Mechanical properties :
#
#
# Convention : Reuss Voigt Hill
#
# Bulk Modulus (GPa) = 69.52563 83.13661 76.33112
# Shear Modulus (GPa) = 25.95180 29.89009 27.92095
#
# Velocity S-wave (km/s) = 3.77312 4.04931 3.91365
# Velocity P-wave (km/s) = 7.55789 8.21395 7.89274
#
# Compressibility (1/GPa) = 0.01438319
#
# Stress axis : x y z
#
# Youngs Moduli (GPa) = 69.05329 37.56902 94.67203
#
# Poissons Ratio (x) = 0.49914 0.25678
# Poissons Ratio (y) = 0.91744 0.25005
# Poissons Ratio (z) = 0.18730 0.09923
#
# Static dielectric constant tensor:
#      x y z
#    x 4.062870 0.000000 0.000000 
#    y 0.000000 3.096950 0.000000 
#    z 0.000000 0.000000 3.542090 
# 
# 
# High freq. dielectric constant tensor:
#      x y z
#    x 1.733390 0.000000 0.000000 
#    y 0.000000 1.677170 0.000000 
#    z 0.000000 0.000000 1.727870 
# 
# From -- ./inp_files/9632.got.cif
#   From: 2010.03.12/outbox.cif.g09.slc.cpg/sg57_5_cif.got.tgz:9632.got - 2010.04.16 15:48:40.
