data_PCOD8231085
_publ_section_title
;
Structure prediction by ZEFSAII (Michael W. Deem and Ramdas Pophale) SiO2 
 PCOD8231085
Probable space group: P B C M
;
_chemical_formula_sum "Si O2"
_cell_formula_units_Z 48
_cell_length_a 31.604504
_cell_length_b 9.108065
_cell_length_c 8.756988
_cell_angle_alpha 90.000000
_cell_angle_beta 90.000000
_cell_angle_gamma 90.000000
_cell_volume 2520.750458
_symmetry_space_group_name_H-M "P B C M"
_symmetry_group_IT_number 57
_symmetry_cell_setting 'orthorhombic'
loop_
_space_group_symop_operation_xyz
x,y,z
-x,-y,1/2+z
x,1/2-y,-z
-x,1/2+y,1/2-z
-x,-y,-z
x,y,1/2-z
-x,1/2+y,z
x,1/2-y,1/2+z
loop_
_atom_site_type_symbol
_atom_site_label
_atom_site_fract_x
_atom_site_fract_y
_atom_site_fract_z
Si Si1 0.303286 0.412134 0.430850
Si Si2 0.537478 0.908749 0.572965
Si Si3 0.781220 0.588755 0.430670
Si Si4 0.128532 0.407338 0.927214
Si Si5 0.378602 0.592592 0.928273
Si Si6 0.962511 0.909566 0.929196
O O1 0.309706 0.250000 0.500000
O O2 0.303902 0.399226 0.250000
O O3 0.258961 0.486647 0.487281
O O4 0.339594 0.519912 0.485599
O O5 0.540952 0.750000 0.500000
O O6 0.527556 0.889634 0.750000
O O7 0.500000 0.000000 0.500000
O O8 0.580974 0.992078 0.542717
O O9 0.784005 0.750000 0.500000
O O10 0.772670 0.594361 0.250000
O O11 0.826933 0.509662 0.469995
O O12 0.129890 0.375393 0.750000
O O13 0.083612 0.486493 0.967594
O O14 0.127736 0.250000 0.000000
O O15 0.368081 0.608583 0.750000
O O16 0.388254 0.750000 0.000000
O O17 0.969940 0.898051 0.750000
O O18 0.963815 0.750000 0.000000
O O19 0.000000 0.000000 0.000000
#
# Coordination Sequence:
#
# PCOD8231085 Si02
#       6
#     8   8   8   8   8   8
#     4  11  21  34  54  81 111 143 178 221 268 318
#     4  11  24  41  64  91 121 153 189 230 275 323
#     4   9  15  26  45  71 101 132 167 213 263 314
#     4   8  15  26  43  67  96 128 165 209 258 310
#     4  11  24  41  60  84 113 149 188 228 271 321
#     4  10  19  32  49  72 100 133 171 213 261 314
#
# _framework density 19.041948000000001
#
# number of rings (size 3 to 8) (size 9 to 14) (size 15 to 20)
#    0.000    2.000    0.000    5.500    0.000    6.667 
#    0.000    0.000    0.000    1.000    0.000    4.667 
#    0.000    0.000    0.000    0.000    0.000    0.000 
#
# Total GULP energy -594631.328676 kJ/mol
# GULP energy per Si atom -12388.152681 kJ/mol
# Density = 1.899861 g / cm^3
# Si number density = 19.041948 Si / 1000 Ang^3
#
#
#
# Elastic Constant Matrix: (Units=GPa)
#
#
# Indices 1 2 3 4 5 6 
#
# 1 175.9367 53.5065 91.5813 0.0000 0.0000 0.0000
# 2 53.5065 82.2445 52.8803 0.0000 0.0000 0.0000
# 3 91.5813 52.8803 131.6009 0.0000 0.0000 0.0000
# 4 0.0000 0.0000 0.0000 27.8012 0.0000 0.0000
# 5 0.0000 0.0000 0.0000 0.0000 29.7732 0.0000
# 6 0.0000 0.0000 0.0000 0.0000 0.0000 53.1925
#
#
#
# Elastic Compliance Matrix: (Units=1/GPa)
#
#
# Indices 1 2 3 4 5 6 
#
# 1 0.009291 -0.002545 -0.005443 0.000000 0.000000 0.000000
# 2 -0.002545 0.017092 -0.005097 0.000000 0.000000 0.000000
# 3 -0.005443 -0.005097 0.013435 0.000000 0.000000 0.000000
# 4 0.000000 0.000000 0.000000 0.035970 0.000000 0.000000
# 5 0.000000 0.000000 0.000000 0.000000 0.033587 0.000000
# 6 0.000000 0.000000 0.000000 0.000000 0.000000 0.018800
#
#
# Mechanical properties :
#
#
# Convention : Reuss Voigt Hill
#
# Bulk Modulus (GPa) = 73.27231 87.30203 80.28717
# Shear Modulus (GPa) = 31.46775 34.94098 33.20436
#
# Velocity S-wave (km/s) = 4.06957 4.28828 4.18035
# Velocity P-wave (km/s) = 7.78748 8.39439 8.09662
#
# Compressibility (1/GPa) = 0.01364772
#
# Stress axis : x y z
#
# Youngs Moduli (GPa) = 107.62903 58.50837 74.43447
#
# Poissons Ratio (x) = 0.14890 0.40516
# Poissons Ratio (y) = 0.27390 0.37938
# Poissons Ratio (z) = 0.58584 0.29821
#
# Static dielectric constant tensor:
#      x y z
#    x 4.684820 0.000000 0.000000 
#    y 0.000000 3.062450 0.000000 
#    z 0.000000 0.000000 3.713520 
# 
# 
# High freq. dielectric constant tensor:
#      x y z
#    x 1.779340 0.000000 0.000000 
#    y 0.000000 1.687530 0.000000 
#    z 0.000000 0.000000 1.758200 
# 
# From -- ./inp_files/9953.got.cif
#   From: 2010.03.12/outbox.cif.g09.slc.cpg/sg57_5_cif.got.tgz:9953.got - 2010.04.16 15:48:40.
