data_PCOD8231772
_publ_section_title
;
Structure prediction by ZEFSAII (Michael W. Deem and Ramdas Pophale) SiO2 
 PCOD8231772
Probable space group: P B C M
;
_chemical_formula_sum "Si O2"
_cell_formula_units_Z 64
_cell_length_a 11.894931
_cell_length_b 30.085789
_cell_length_c 9.016087
_cell_angle_alpha 90.000000
_cell_angle_beta 90.000000
_cell_angle_gamma 90.000000
_cell_volume 3226.572487
_symmetry_space_group_name_H-M "P B C M"
_symmetry_group_IT_number 57
_symmetry_cell_setting 'orthorhombic'
loop_
_space_group_symop_operation_xyz
x,y,z
-x,-y,1/2+z
x,1/2-y,-z
-x,1/2+y,1/2-z
-x,-y,-z
x,y,1/2-z
-x,1/2+y,z
x,1/2-y,1/2+z
loop_
_atom_site_type_symbol
_atom_site_label
_atom_site_fract_x
_atom_site_fract_y
_atom_site_fract_z
Si Si1 0.493205 0.134276 0.918881
Si Si2 0.174768 0.977978 0.075965
Si Si3 0.325605 0.792424 0.420448
Si Si4 0.685007 0.702940 0.575867
Si Si5 0.915526 0.843398 0.082530
Si Si6 0.428075 0.960644 0.071926
Si Si7 0.907834 0.293571 0.923813
Si Si8 0.937924 0.943562 0.081240
O O1 0.458343 0.125991 0.750000
O O2 0.605567 0.162774 0.932502
O O3 0.394015 0.163771 0.993025
O O4 0.517456 0.085713 0.988811
O O5 0.185443 0.981481 0.250000
O O6 0.297334 0.962244 0.016285
O O7 0.070115 0.945544 0.030063
O O8 0.144745 0.026500 0.015234
O O9 0.385842 0.750000 0.500000
O O10 0.300917 0.779832 0.250000
O O11 0.212541 0.802826 0.507214
O O12 0.660298 0.750000 0.500000
O O13 0.658644 0.708652 0.750000
O O14 0.810992 0.687792 0.544026
O O15 0.957929 0.833961 0.250000
O O16 0.885447 0.894882 0.064825
O O17 0.012562 0.834457 0.963925
O O18 0.434272 0.963664 0.250000
O O19 0.500000 0.000000 0.000000
O O20 0.898710 0.286994 0.750000
O O21 0.961936 0.250000 0.000000
O O22 0.931675 0.960567 0.250000
#
# Coordination Sequence:
#
# PCOD8231772 Si02
#       8
#     8   8   8   8   8   8   8   8
#     4   9  20  37  60  84 110 149 192 230 279 340
#     4   9  19  36  57  83 116 147 185 232 288 338
#     4  10  19  34  58  84 113 149 186 230 279 336
#     4  10  21  38  58  84 113 148 191 236 282 337
#     4  10  21  35  57  84 111 146 193 233 278 340
#     4  10  22  39  60  85 115 151 190 237 285 339
#     4  11  22  36  54  79 113 148 182 226 278 332
#     4   9  19  35  59  86 111 148 188 230 280 343
#
# _framework density 19.835289
#
# number of rings (size 3 to 8) (size 9 to 14) (size 15 to 20)
#    0.000    2.250    0.000    3.000    3.500    2.500 
#    0.000    2.500    0.000    0.000    0.000    0.000 
#    0.000    0.000    0.000    0.000    0.000    0.000 
#
# Total GULP energy -793224.692477 kJ/mol
# GULP energy per Si atom -12394.135820 kJ/mol
# Density = 1.979014 g / cm^3
# Si number density = 19.835289 Si / 1000 Ang^3
#
#
#
# Elastic Constant Matrix: (Units=GPa)
#
#
# Indices 1 2 3 4 5 6 
#
# 1 77.6153 46.5321 32.5362 0.0000 0.0000 0.0000
# 2 46.5321 124.4668 31.1647 0.0000 0.0000 0.0000
# 3 32.5362 31.1647 67.5301 0.0000 0.0000 0.0000
# 4 0.0000 0.0000 0.0000 31.9898 0.0000 0.0000
# 5 0.0000 0.0000 0.0000 0.0000 19.9018 0.0000
# 6 0.0000 0.0000 0.0000 0.0000 0.0000 31.8967
#
#
#
# Elastic Compliance Matrix: (Units=1/GPa)
#
#
# Indices 1 2 3 4 5 6 
#
# 1 0.018898 -0.005410 -0.006608 0.000000 0.000000 0.000000
# 2 -0.005410 0.010633 -0.002300 0.000000 0.000000 0.000000
# 3 -0.006608 -0.002300 0.019054 0.000000 0.000000 0.000000
# 4 0.000000 0.000000 0.000000 0.031260 0.000000 0.000000
# 5 0.000000 0.000000 0.000000 0.000000 0.050247 0.000000
# 6 0.000000 0.000000 0.000000 0.000000 0.000000 0.031351
#
#
# Mechanical properties :
#
#
# Convention : Reuss Voigt Hill
#
# Bulk Modulus (GPa) = 50.13367 54.45313 52.29340
# Shear Modulus (GPa) = 25.41571 27.38296 26.39934
#
# Velocity S-wave (km/s) = 3.58346 3.71956 3.65215
# Velocity P-wave (km/s) = 6.51548 6.77931 6.64871
#
# Compressibility (1/GPa) = 0.01994667
#
# Stress axis : x y z
#
# Youngs Moduli (GPa) = 52.91609 94.04766 52.48348
#
# Poissons Ratio (x) = 0.50883 0.34682
# Poissons Ratio (y) = 0.28630 0.12073
# Poissons Ratio (z) = 0.34968 0.21633
#
# Static dielectric constant tensor:
#      x y z
#    x 3.716660 0.000000 0.000000 
#    y 0.000000 3.715410 0.000000 
#    z 0.000000 0.000000 3.480620 
# 
# 
# High freq. dielectric constant tensor:
#      x y z
#    x 1.780400 0.000000 0.000000 
#    y 0.000000 1.778560 0.000000 
#    z 0.000000 0.000000 1.749670 
# 
# From -- ./inp_files/3798.got.cif
#   From: 2010.03.12/outbox.cif.g09.slc.cpg/sg57_2_cif.got.tgz:3798.got - 2010.04.16 15:48:40.
