data_PCOD8231662
_publ_section_title
;
Structure prediction by ZEFSAII (Michael W. Deem and Ramdas Pophale) SiO2 
 PCOD8231662
Probable space group: P B C M
;
_chemical_formula_sum "Si O2"
_cell_formula_units_Z 64
_cell_length_a 20.564424
_cell_length_b 9.356762
_cell_length_c 17.341798
_cell_angle_alpha 90.000000
_cell_angle_beta 90.000000
_cell_angle_gamma 90.000000
_cell_volume 3336.846705
_symmetry_space_group_name_H-M "P B C M"
_symmetry_group_IT_number 57
_symmetry_cell_setting 'orthorhombic'
loop_
_space_group_symop_operation_xyz
x,y,z
-x,-y,1/2+z
x,1/2-y,-z
-x,1/2+y,1/2-z
-x,-y,-z
x,y,1/2-z
-x,1/2+y,z
x,1/2-y,1/2+z
loop_
_atom_site_type_symbol
_atom_site_label
_atom_site_fract_x
_atom_site_fract_y
_atom_site_fract_z
Si Si1 0.183710 0.260492 0.340030
Si Si2 0.556493 0.239383 0.841548
Si Si3 0.326113 0.547558 0.658076
Si Si4 0.062444 0.741454 0.657719
Si Si5 0.321461 0.257596 0.090611
Si Si6 0.060242 0.435568 0.158220
Si Si7 0.817677 0.434803 0.160237
Si Si8 0.433246 0.437446 0.341763
O O1 0.198709 0.284782 0.250000
O O2 0.248022 0.298486 0.387307
O O3 0.126589 0.362403 0.370833
O O4 0.161367 0.097975 0.355106
O O5 0.556712 0.234085 0.750000
O O6 0.621202 0.160492 0.872801
O O7 0.555511 0.401290 0.871535
O O8 0.492883 0.158213 0.872886
O O9 0.325763 0.536688 0.750000
O O10 0.344459 0.391265 0.627484
O O11 0.254731 0.593979 0.626525
O O12 0.062630 0.738356 0.750000
O O13 0.128323 0.669950 0.623443
O O14 0.001186 0.652172 0.625639
O O15 0.057654 0.902937 0.626583
O O16 0.366464 0.383155 0.122524
O O17 0.328441 0.250000 0.000000
O O18 0.058500 0.433586 0.250000
O O19 0.815368 0.401753 0.250000
O O20 0.428210 0.432139 0.250000
#
# Coordination Sequence:
#
# PCOD8231662 Si02
#       8
#     8   8   8   8   8   8   8   8
#     4   9  17  31  49  69  93 128 167 205 246 293
#     4   9  18  32  56  83 105 131 167 207 249 294
#     4   9  17  33  54  76 101 133 169 207 249 299
#     4   9  15  23  37  66 102 129 153 193 245 296
#     4  11  22  35  51  74 102 136 171 209 255 302
#     4   9  16  24  39  64  97 128 156 194 244 294
#     4   8  14  24  41  63  91 123 156 192 237 286
#     4  10  19  34  55  79 104 132 166 207 248 296
#
# _framework density 19.179784000000001
#
# number of rings (size 3 to 8) (size 9 to 14) (size 15 to 20)
#    0.000    2.750    0.000    3.375    0.000    6.000 
#    0.000    6.875    0.000    0.000    0.000    7.875 
#    0.000    0.000    0.000    0.000    0.000    0.000 
#
# Total GULP energy -793506.643032 kJ/mol
# GULP energy per Si atom -12398.541297 kJ/mol
# Density = 1.913613 g / cm^3
# Si number density = 19.179784 Si / 1000 Ang^3
#
#
#
# Elastic Constant Matrix: (Units=GPa)
#
#
# Indices 1 2 3 4 5 6 
#
# 1 132.7812 87.9673 16.1910 0.0000 0.0000 0.0000
# 2 87.9673 149.4378 17.4830 0.0000 0.0000 0.0000
# 3 16.1910 17.4830 23.0826 0.0000 0.0000 0.0000
# 4 0.0000 0.0000 0.0000 -5.2258 0.0000 0.0000
# 5 0.0000 0.0000 0.0000 0.0000 3.4507 0.0000
# 6 0.0000 0.0000 0.0000 0.0000 0.0000 46.3533
#
#
#
# Elastic Compliance Matrix: (Units=1/GPa)
#
#
# Indices 1 2 3 4 5 6 
#
# 1 0.012603 -0.007005 -0.003534 0.000000 0.000000 0.000000
# 2 -0.007005 0.011236 -0.003597 0.000000 0.000000 0.000000
# 3 -0.003534 -0.003597 0.048526 0.000000 0.000000 0.000000
# 4 0.000000 0.000000 0.000000 -0.191358 0.000000 0.000000
# 5 0.000000 0.000000 0.000000 0.000000 0.289798 0.000000
# 6 0.000000 0.000000 0.000000 0.000000 0.000000 0.021573
#
#
# Mechanical properties :
#
#
# Convention : Reuss Voigt Hill
#
# Bulk Modulus (GPa) = 22.67953 60.95380 41.81666
# Shear Modulus (GPa) = 21.24502 21.15966 21.20234
#
# Velocity S-wave (km/s) = 3.33179 3.32509 3.32844
# Velocity P-wave (km/s) = 5.16251 6.82575 6.05154
#
# Compressibility (1/GPa) = 0.04409263
#
# Stress axis : x y z
#
# Youngs Moduli (GPa) = 79.34446 88.99697 20.60751
#
# Poissons Ratio (x) = 0.62347 0.07283
# Poissons Ratio (y) = 0.55585 0.07412
# Poissons Ratio (z) = 0.28043 0.32009
#
# Static dielectric constant tensor:
#      x y z
#    x 3.831990 0.000000 0.000000 
#    y 0.000000 3.656890 0.000000 
#    z 0.000000 0.000000 2.816080 
# 
# 
# High freq. dielectric constant tensor:
#      x y z
#    x 1.763970 0.000000 0.000000 
#    y 0.000000 1.751690 0.000000 
#    z 0.000000 0.000000 1.675870 
# 
# From -- ./inp_files/23015.got.cif
#   From: 2010.03.12/outbox.cif.g09.slc.cpg/sg57_12_cif.got.tgz:23015.got - 2010.04.16 15:48:40.
