data_PCOD8231305
_publ_section_title
;
Structure prediction by ZEFSAII (Michael W. Deem and Ramdas Pophale) SiO2 
 PCOD8231305
Probable space group: P B C M
;
_chemical_formula_sum "Si O2"
_cell_formula_units_Z 64
_cell_length_a 18.758949
_cell_length_b 19.534674
_cell_length_c 9.016002
_cell_angle_alpha 90.000000
_cell_angle_beta 90.000000
_cell_angle_gamma 90.000000
_cell_volume 3303.913512
_symmetry_space_group_name_H-M "P B C M"
_symmetry_group_IT_number 57
_symmetry_cell_setting 'orthorhombic'
loop_
_space_group_symop_operation_xyz
x,y,z
-x,-y,1/2+z
x,1/2-y,-z
-x,1/2+y,1/2-z
-x,-y,-z
x,y,1/2-z
-x,1/2+y,z
x,1/2-y,1/2+z
loop_
_atom_site_type_symbol
_atom_site_label
_atom_site_fract_x
_atom_site_fract_y
_atom_site_fract_z
Si Si1 0.922649 0.930805 0.576968
Si Si2 0.782614 0.575028 0.579567
Si Si3 0.708087 0.436578 0.576812
Si Si4 0.937492 0.088486 0.576903
Si Si5 0.667162 0.681533 0.575109
Si Si6 0.507752 0.815615 0.080508
Si Si7 0.799932 0.324542 0.072931
Si Si8 0.562102 0.042888 0.923344
O O1 0.926359 0.918890 0.750000
O O2 0.849909 0.899199 0.514533
O O3 0.989852 0.890879 0.506750
O O4 0.920375 0.010637 0.532202
O O5 0.799378 0.590881 0.750000
O O6 0.767899 0.494642 0.555960
O O7 0.714510 0.617626 0.523476
O O8 0.694971 0.420135 0.750000
O O9 0.734131 0.368598 0.491622
O O10 0.636646 0.468222 0.505681
O O11 0.951683 0.095321 0.750000
O O12 0.873757 0.138525 0.527006
O O13 0.697441 0.750000 0.500000
O O14 0.670109 0.690900 0.750000
O O15 0.586702 0.666600 0.518467
O O16 0.514881 0.795366 0.250000
O O17 0.454854 0.877643 0.054764
O O18 0.474240 0.750000 0.000000
O O19 0.791511 0.319232 0.250000
O O20 0.798603 0.250000 0.000000
O O21 0.567225 0.022886 0.750000
O O22 0.500000 0.000000 0.000000
#
# Coordination Sequence:
#
# PCOD8231305 Si02
#       8
#     8   8   8   8   8   8   8   8
#     4  10  19  32  56  86 113 142 185 234 279 335
#     4  10  20  35  56  81 114 151 186 230 285 343
#     4  11  23  39  60  86 116 153 196 241 295 356
#     4   9  19  36  56  81 114 147 184 233 284 338
#     4   9  18  34  54  78 107 141 180 224 276 337
#     4   9  19  36  57  79 106 141 185 231 281 341
#     4  11  23  41  62  87 120 158 201 248 298 352
#     4  11  23  39  59  85 118 153 192 245 298 353
#
# _framework density 19.370965999999999
#
# number of rings (size 3 to 8) (size 9 to 14) (size 15 to 20)
#    0.000    2.000    1.250    2.250    0.000    6.000 
#    0.000    4.375    0.000    0.000    0.000    0.000 
#    0.000    0.000    0.000    0.000    0.000    0.000 
#
# Total GULP energy -793672.548850 kJ/mol
# GULP energy per Si atom -12401.133576 kJ/mol
# Density = 1.932688 g / cm^3
# Si number density = 19.370966 Si / 1000 Ang^3
#
#
#
# Elastic Constant Matrix: (Units=GPa)
#
#
# Indices 1 2 3 4 5 6 
#
# 1 100.5567 17.1179 46.4197 0.0000 0.0000 0.0000
# 2 17.1179 61.4190 31.3974 0.0000 0.0000 0.0000
# 3 46.4197 31.3974 72.9744 0.0000 0.0000 0.0000
# 4 0.0000 0.0000 0.0000 31.7205 0.0000 0.0000
# 5 0.0000 0.0000 0.0000 0.0000 34.4478 0.0000
# 6 0.0000 0.0000 0.0000 0.0000 0.0000 26.2704
#
#
#
# Elastic Compliance Matrix: (Units=1/GPa)
#
#
# Indices 1 2 3 4 5 6 
#
# 1 0.014113 0.000841 -0.009339 0.000000 0.000000 0.000000
# 2 0.000841 0.020922 -0.009537 0.000000 0.000000 0.000000
# 3 -0.009339 -0.009537 0.023747 0.000000 0.000000 0.000000
# 4 0.000000 0.000000 0.000000 0.031525 0.000000 0.000000
# 5 0.000000 0.000000 0.000000 0.000000 0.029029 0.000000
# 6 0.000000 0.000000 0.000000 0.000000 0.000000 0.038066
#
#
# Mechanical properties :
#
#
# Convention : Reuss Voigt Hill
#
# Bulk Modulus (GPa) = 44.02864 47.20224 45.61544
# Shear Modulus (GPa) = 24.87026 27.82208 26.34617
#
# Velocity S-wave (km/s) = 3.58703 3.79394 3.69193
# Velocity P-wave (km/s) = 6.31936 6.60397 6.46323
#
# Compressibility (1/GPa) = 0.02271249
#
# Stress axis : x y z
#
# Youngs Moduli (GPa) = 70.85866 47.79553 42.11021
#
# Poissons Ratio (x) = -0.04019 0.39326
# Poissons Ratio (y) = -0.05958 0.40159
# Poissons Ratio (z) = 0.66174 0.45581
#
# Static dielectric constant tensor:
#      x y z
#    x 3.602760 0.000000 0.000000 
#    y 0.000000 3.431880 0.000000 
#    z 0.000000 0.000000 3.546180 
# 
# 
# High freq. dielectric constant tensor:
#      x y z
#    x 1.759870 0.000000 0.000000 
#    y 0.000000 1.738640 0.000000 
#    z 0.000000 0.000000 1.756550 
# 
# From -- ./inp_files/7258.got.cif
#   From: 2010.03.12/outbox.cif.g09.slc.cpg/sg57_4_cif.got.tgz:7258.got - 2010.04.16 15:48:40.
