data_PCOD8231607
_publ_section_title
;
Structure prediction by ZEFSAII (Michael W. Deem and Ramdas Pophale) SiO2 
 PCOD8231607
Probable space group: P B C M
;
_chemical_formula_sum "Si O2"
_cell_formula_units_Z 64
_cell_length_a 8.499703
_cell_length_b 21.442688
_cell_length_c 18.188812
_cell_angle_alpha 90.000000
_cell_angle_beta 90.000000
_cell_angle_gamma 90.000000
_cell_volume 3315.028842
_symmetry_space_group_name_H-M "P B C M"
_symmetry_group_IT_number 57
_symmetry_cell_setting 'orthorhombic'
loop_
_space_group_symop_operation_xyz
x,y,z
-x,-y,1/2+z
x,1/2-y,-z
-x,1/2+y,1/2-z
-x,-y,-z
x,y,1/2-z
-x,1/2+y,z
x,1/2-y,1/2+z
loop_
_atom_site_type_symbol
_atom_site_label
_atom_site_fract_x
_atom_site_fract_y
_atom_site_fract_z
Si Si1 0.711225 0.159040 0.338515
Si Si2 0.987995 0.452458 0.436049
Si Si3 0.195653 0.333914 0.053553
Si Si4 0.601297 0.901845 0.332975
Si Si5 0.500810 0.683277 0.469856
Si Si6 0.786505 0.480648 0.664773
Si Si7 0.101522 0.738741 0.917810
Si Si8 0.302128 0.622130 0.589928
O O1 0.683881 0.165411 0.250000
O O2 0.551597 0.177983 0.383696
O O3 0.753174 0.088871 0.364358
O O4 0.857500 0.202308 0.365550
O O5 0.806125 0.437915 0.422240
O O6 0.000000 0.500000 0.500000
O O7 0.078831 0.390652 0.462725
O O8 0.056331 0.486727 0.364860
O O9 0.307772 0.348796 0.121901
O O10 0.087291 0.274128 0.076135
O O11 0.309406 0.323125 0.982203
O O12 0.652938 0.890510 0.250000
O O13 0.415646 0.892944 0.342073
O O14 0.643616 0.972787 0.357050
O O15 0.447312 0.750000 0.500000
O O16 0.405808 0.631764 0.516519
O O17 0.813126 0.474940 0.750000
O O18 0.193672 0.679722 0.885023
O O19 0.166081 0.750000 0.000000
#
# Coordination Sequence:
#
# PCOD8231607 Si02
#       8
#     8   8   8   8   8   8   8   8
#     4  11  22  36  62  88 117 159 194 233 289 361
#     4  10  20  34  56  87 112 144 198 251 278 336
#     4   9  22  35  59  86 110 154 196 235 304 335
#     4   9  19  37  57  82 117 150 189 243 292 346
#     4  11  19  39  57  84 118 150 189 239 294 340
#     4   9  20  38  55  78 118 158 185 228 298 350
#     4  11  20  38  59  83 116 151 192 241 291 344
#     4  10  19  33  59  86 108 149 196 238 297 332
#
# _framework density 19.306016
#
# number of rings (size 3 to 8) (size 9 to 14) (size 15 to 20)
#    0.000    2.000    2.500    1.125    1.750    2.500 
#    0.000    6.250    0.000    3.000    0.000    0.000 
#    0.000    0.000    0.000    0.000    0.000    0.000 
#
# Total GULP energy -793190.602107 kJ/mol
# GULP energy per Si atom -12393.603158 kJ/mol
# Density = 1.926207 g / cm^3
# Si number density = 19.306016 Si / 1000 Ang^3
#
#
#
# Elastic Constant Matrix: (Units=GPa)
#
#
# Indices 1 2 3 4 5 6 
#
# 1 136.8629 47.6547 36.4231 0.0000 0.0000 0.0000
# 2 47.6547 94.4293 36.1198 0.0000 0.0000 0.0000
# 3 36.4231 36.1198 69.7589 0.0000 0.0000 0.0000
# 4 0.0000 0.0000 0.0000 28.5686 0.0000 0.0000
# 5 0.0000 0.0000 0.0000 0.0000 24.0739 0.0000
# 6 0.0000 0.0000 0.0000 0.0000 0.0000 23.2727
#
#
#
# Elastic Compliance Matrix: (Units=1/GPa)
#
#
# Indices 1 2 3 4 5 6 
#
# 1 0.009355 -0.003557 -0.003043 0.000000 0.000000 0.000000
# 2 -0.003557 0.014558 -0.005680 0.000000 0.000000 0.000000
# 3 -0.003043 -0.005680 0.018865 0.000000 0.000000 0.000000
# 4 0.000000 0.000000 0.000000 0.035003 0.000000 0.000000
# 5 0.000000 0.000000 0.000000 0.000000 0.041539 0.000000
# 6 0.000000 0.000000 0.000000 0.000000 0.000000 0.042969
#
#
# Mechanical properties :
#
#
# Convention : Reuss Voigt Hill
#
# Bulk Modulus (GPa) = 54.89323 60.16068 57.52695
# Shear Modulus (GPa) = 25.91724 27.23995 26.57859
#
# Velocity S-wave (km/s) = 3.66791 3.76035 3.71442
# Velocity P-wave (km/s) = 6.81418 7.07692 6.94679
#
# Compressibility (1/GPa) = 0.01821718
#
# Stress axis : x y z
#
# Youngs Moduli (GPa) = 106.89581 68.69097 53.00837
#
# Poissons Ratio (x) = 0.24435 0.16128
# Poissons Ratio (y) = 0.38025 0.30111
# Poissons Ratio (z) = 0.32524 0.39020
#
# Static dielectric constant tensor:
#      x y z
#    x 3.527100 0.000000 0.000000 
#    y 0.000000 1.636370 0.000000 
#    z 0.000000 0.000000 3.590160 
# 
# 
# High freq. dielectric constant tensor:
#      x y z
#    x 1.752840 0.000000 0.000000 
#    y 0.000000 1.757840 0.000000 
#    z 0.000000 0.000000 1.731950 
# 
# From -- ./inp_files/21390.got.cif
#   From: 2010.03.12/outbox.cif.g09.slc.cpg/sg57_11_cif.got.tgz:21390.got - 2010.04.16 15:48:40.
