data_PCOD8231544
_publ_section_title
;
Structure prediction by ZEFSAII (Michael W. Deem and Ramdas Pophale) SiO2 
 PCOD8231544
Probable space group: P B C M
;
_chemical_formula_sum "Si O2"
_cell_formula_units_Z 64
_cell_length_a 10.301984
_cell_length_b 18.866643
_cell_length_c 18.077444
_cell_angle_alpha 90.000000
_cell_angle_beta 90.000000
_cell_angle_gamma 90.000000
_cell_volume 3513.601692
_symmetry_space_group_name_H-M "P B C M"
_symmetry_group_IT_number 57
_symmetry_cell_setting 'orthorhombic'
loop_
_space_group_symop_operation_xyz
x,y,z
-x,-y,1/2+z
x,1/2-y,-z
-x,1/2+y,1/2-z
-x,-y,-z
x,y,1/2-z
-x,1/2+y,z
x,1/2-y,1/2+z
loop_
_atom_site_type_symbol
_atom_site_label
_atom_site_fract_x
_atom_site_fract_y
_atom_site_fract_z
Si Si1 0.751364 0.138833 0.663353
Si Si2 0.360069 0.482342 0.089499
Si Si3 0.543793 0.652873 0.662617
Si Si4 0.245512 0.793582 0.664449
Si Si5 0.498730 0.285606 0.922926
Si Si6 0.385002 0.435820 0.925249
Si Si7 0.151564 0.008031 0.162102
Si Si8 0.873973 0.061601 0.164164
O O1 0.753810 0.129192 0.750000
O O2 0.602628 0.134673 0.636100
O O3 0.810255 0.215812 0.640591
O O4 0.832376 0.072725 0.630556
O O5 0.361762 0.406787 0.130533
O O6 0.488254 0.527168 0.110265
O O7 0.233837 0.523210 0.116169
O O8 0.348481 0.473165 0.001929
O O9 0.559811 0.656769 0.750000
O O10 0.578980 0.729491 0.628368
O O11 0.290785 0.789812 0.750000
O O12 0.371121 0.813111 0.616669
O O13 0.136504 0.853354 0.652618
O O14 0.407164 0.352559 0.937792
O O15 0.537992 0.250000 0.000000
O O16 0.265874 0.443313 0.869201
O O17 0.160143 0.011914 0.250000
O O18 0.013801 0.037462 0.134390
O O19 0.854116 0.041397 0.250000
#
# Coordination Sequence:
#
# PCOD8231544 Si02
#       8
#     8   8   8   8   8   8   8   8
#     4   8  15  30  53  79 106 140 187 231 276 330
#     4  11  21  36  56  85 114 146 187 236 292 342
#     4  10  19  33  55  83 111 145 188 236 287 340
#     4   9  18  33  56  82 110 146 189 236 284 336
#     4  11  20  35  55  83 117 147 185 242 286 341
#     4  11  23  36  58  84 114 150 187 234 297 345
#     4  10  21  37  58  84 115 152 193 236 285 346
#     4  10  21  37  57  84 117 151 194 241 284 337
#
# _framework density 18.214926999999999
#
# number of rings (size 3 to 8) (size 9 to 14) (size 15 to 20)
#    0.000    2.000    3.750    1.500    0.000    2.000 
#    0.000    1.250    0.000    3.000    0.000    0.000 
#    0.000    0.000    0.000    0.000    0.000    0.000 
#
# Total GULP energy -793524.468776 kJ/mol
# GULP energy per Si atom -12398.819825 kJ/mol
# Density = 1.817347 g / cm^3
# Si number density = 18.214927 Si / 1000 Ang^3
#
#
#
# Elastic Constant Matrix: (Units=GPa)
#
#
# Indices 1 2 3 4 5 6 
#
# 1 107.5272 57.7310 36.9440 0.0000 0.0000 0.0000
# 2 57.7310 125.9440 25.3778 0.0000 0.0000 0.0000
# 3 36.9440 25.3778 56.9962 0.0000 0.0000 0.0000
# 4 0.0000 0.0000 0.0000 27.7771 0.0000 0.0000
# 5 0.0000 0.0000 0.0000 0.0000 20.3029 0.0000
# 6 0.0000 0.0000 0.0000 0.0000 0.0000 27.0587
#
#
#
# Elastic Compliance Matrix: (Units=1/GPa)
#
#
# Indices 1 2 3 4 5 6 
#
# 1 0.014553 -0.005240 -0.007100 0.000000 0.000000 0.000000
# 2 -0.005240 0.010610 -0.001327 0.000000 0.000000 0.000000
# 3 -0.007100 -0.001327 0.022738 0.000000 0.000000 0.000000
# 4 0.000000 0.000000 0.000000 0.036001 0.000000 0.000000
# 5 0.000000 0.000000 0.000000 0.000000 0.049254 0.000000
# 6 0.000000 0.000000 0.000000 0.000000 0.000000 0.036957
#
#
# Mechanical properties :
#
#
# Convention : Reuss Voigt Hill
#
# Bulk Modulus (GPa) = 48.62428 58.95254 53.78841
# Shear Modulus (GPa) = 24.47366 26.38871 25.43118
#
# Velocity S-wave (km/s) = 3.66950 3.81036 3.74059
# Velocity P-wave (km/s) = 6.68628 7.19678 6.94622
#
# Compressibility (1/GPa) = 0.02056586
#
# Stress axis : x y z
#
# Youngs Moduli (GPa) = 68.71594 94.25505 43.97950
#
# Poissons Ratio (x) = 0.49391 0.31224
# Poissons Ratio (y) = 0.36008 0.05838
# Poissons Ratio (z) = 0.48785 0.12511
#
# Static dielectric constant tensor:
#      x y z
#    x 3.109520 0.000000 0.000000 
#    y 0.000000 3.778380 0.000000 
#    z 0.000000 0.000000 3.251890 
# 
# 
# High freq. dielectric constant tensor:
#      x y z
#    x 1.666160 0.000000 0.000000 
#    y 0.000000 1.725550 0.000000 
#    z 0.000000 0.000000 1.700370 
# 
# From -- ./inp_files/24603.got.cif
#   From: 2010.03.12/outbox.cif.g09.slc.cpg/sg57_13_cif.got.tgz:24603.got - 2010.04.16 15:48:40.
