data_PCOD8231093
_publ_section_title
;
Structure prediction by ZEFSAII (Michael W. Deem and Ramdas Pophale) SiO2 
 PCOD8231093
Probable space group: P B C M
;
_chemical_formula_sum "Si O2"
_cell_formula_units_Z 64
_cell_length_a 15.535269
_cell_length_b 28.520245
_cell_length_c 8.770793
_cell_angle_alpha 90.000000
_cell_angle_beta 90.000000
_cell_angle_gamma 90.000000
_cell_volume 3886.072430
_symmetry_space_group_name_H-M "P B C M"
_symmetry_group_IT_number 57
_symmetry_cell_setting 'orthorhombic'
loop_
_space_group_symop_operation_xyz
x,y,z
-x,-y,1/2+z
x,1/2-y,-z
-x,1/2+y,1/2-z
-x,-y,-z
x,y,1/2-z
-x,1/2+y,z
x,1/2-y,1/2+z
loop_
_atom_site_type_symbol
_atom_site_label
_atom_site_fract_x
_atom_site_fract_y
_atom_site_fract_z
Si Si1 0.657636 0.650841 0.068862
Si Si2 0.593308 0.551311 0.429449
Si Si3 0.655095 0.142768 0.428411
Si Si4 0.496883 0.700262 0.569046
Si Si5 0.004176 0.700615 0.925116
Si Si6 0.600701 0.458169 0.926536
Si Si7 0.809168 0.301710 0.069383
Si Si8 0.182444 0.198280 0.570120
O O1 0.649122 0.655401 0.250000
O O2 0.640708 0.597922 0.010731
O O3 0.590261 0.686256 0.992947
O O4 0.752533 0.663801 0.013951
O O5 0.597300 0.550537 0.250000
O O6 0.495114 0.552775 0.489325
O O7 0.639638 0.504192 0.491208
O O8 0.642892 0.153751 0.250000
O O9 0.573558 0.162723 0.517760
O O10 0.659994 0.086961 0.458745
O O11 0.743120 0.163756 0.489707
O O12 0.469336 0.750000 0.500000
O O13 0.499395 0.703671 0.750000
O O14 0.009866 0.712216 0.750000
O O15 0.095421 0.676593 0.970869
O O16 0.913055 0.675086 0.961339
O O17 0.998303 0.750000 0.000000
O O18 0.596141 0.470196 0.750000
O O19 0.791312 0.299583 0.250000
O O20 0.798343 0.250000 0.000000
O O21 0.190654 0.250000 0.500000
O O22 0.202347 0.201092 0.750000
#
# Coordination Sequence:
#
# PCOD8231093 Si02
#       8
#     8   8   8   8   8   8   8   8
#     4  11  21  35  50  70  99 129 160 198 240 285
#     4   9  18  33  51  70  93 122 156 198 242 283
#     4  11  21  35  50  70  99 129 160 198 240 285
#     4  12  24  36  49  66  93 132 169 200 232 278
#     4   8  16  30  48  68  95 124 159 202 241 280
#     4   9  18  33  51  70  93 122 156 198 242 283
#     4  10  19  32  49  72  98 130 165 200 240 284
#     4  10  19  32  49  72  98 130 165 200 240 284
#
# _framework density 16.469069999999999
#
# number of rings (size 3 to 8) (size 9 to 14) (size 15 to 20)
#    0.000    2.000    1.250    3.375    0.000    3.000 
#    0.000    0.000    0.000    0.000    0.000    0.875 
#    0.000    0.000    0.000    0.000    0.000    0.000 
#
# Total GULP energy -793199.324802 kJ/mol
# GULP energy per Si atom -12393.739450 kJ/mol
# Density = 1.643159 g / cm^3
# Si number density = 16.469070 Si / 1000 Ang^3
#
#
#
# Elastic Constant Matrix: (Units=GPa)
#
#
# Indices 1 2 3 4 5 6 
#
# 1 98.5815 37.4125 32.1592 0.0000 0.0000 0.0000
# 2 37.4125 89.1490 32.9483 0.0000 0.0000 0.0000
# 3 32.1592 32.9483 73.6509 0.0000 0.0000 0.0000
# 4 0.0000 0.0000 0.0000 26.8595 0.0000 0.0000
# 5 0.0000 0.0000 0.0000 0.0000 21.8283 0.0000
# 6 0.0000 0.0000 0.0000 0.0000 0.0000 9.4281
#
#
#
# Elastic Compliance Matrix: (Units=1/GPa)
#
#
# Indices 1 2 3 4 5 6 
#
# 1 0.012918 -0.003997 -0.003852 0.000000 0.000000 0.000000
# 2 -0.003997 0.014676 -0.004820 0.000000 0.000000 0.000000
# 3 -0.003852 -0.004820 0.017416 0.000000 0.000000 0.000000
# 4 0.000000 0.000000 0.000000 0.037231 0.000000 0.000000
# 5 0.000000 0.000000 0.000000 0.000000 0.045812 0.000000
# 6 0.000000 0.000000 0.000000 0.000000 0.000000 0.106066
#
#
# Mechanical properties :
#
#
# Convention : Reuss Voigt Hill
#
# Bulk Modulus (GPa) = 50.83753 51.82458 51.33106
# Shear Modulus (GPa) = 18.79600 22.21395 20.50497
#
# Velocity S-wave (km/s) = 3.38196 3.67662 3.53237
# Velocity P-wave (km/s) = 6.79601 7.03985 6.91901
#
# Compressibility (1/GPa) = 0.01967051
#
# Stress axis : x y z
#
# Youngs Moduli (GPa) = 77.41408 68.13785 57.41889
#
# Poissons Ratio (x) = 0.27237 0.22119
# Poissons Ratio (y) = 0.30945 0.27676
# Poissons Ratio (z) = 0.29821 0.32843
#
# Static dielectric constant tensor:
#      x y z
#    x 3.496700 0.000000 0.000000 
#    y 0.000000 3.072480 0.000000 
#    z 0.000000 0.000000 3.217070 
# 
# 
# High freq. dielectric constant tensor:
#      x y z
#    x 1.626710 0.000000 0.000000 
#    y 0.000000 1.611860 0.000000 
#    z 0.000000 0.000000 1.647200 
# 
# From -- ./inp_files/5979.got.cif
#   From: 2010.03.12/outbox.cif.g09.slc.cpg/sg57_3_cif.got.tgz:5979.got - 2010.04.16 15:48:40.
