data_PCOD8231629
_publ_section_title
;
Structure prediction by ZEFSAII (Michael W. Deem and Ramdas Pophale) SiO2 
 PCOD8231629
Probable space group: P B C M
;
_chemical_formula_sum "Si O2"
_cell_formula_units_Z 32
_cell_length_a 7.716104
_cell_length_b 8.749544
_cell_length_c 18.253423
_cell_angle_alpha 90.000000
_cell_angle_beta 90.000000
_cell_angle_gamma 90.000000
_cell_volume 1232.332239
_symmetry_space_group_name_H-M "P B C M"
_symmetry_group_IT_number 57
_symmetry_cell_setting 'orthorhombic'
loop_
_space_group_symop_operation_xyz
x,y,z
-x,-y,1/2+z
x,1/2-y,-z
-x,1/2+y,1/2-z
-x,-y,-z
x,y,1/2-z
-x,1/2+y,z
x,1/2-y,1/2+z
loop_
_atom_site_type_symbol
_atom_site_label
_atom_site_fract_x
_atom_site_fract_y
_atom_site_fract_z
Si Si1 0.581936 0.499883 0.401986
Si Si2 0.394862 0.613460 0.750000
Si Si3 0.465874 0.250000 0.000000
Si Si4 0.177859 0.984517 0.905634
Si Si5 0.962042 0.750000 0.000000
Si Si6 0.248610 0.957719 0.750000
O O1 0.674742 0.472674 0.323808
O O2 0.662426 0.640658 0.449640
O O3 0.597367 0.346649 0.449598
O O4 0.382090 0.550143 0.397497
O O5 0.343747 0.790650 0.750000
O O6 0.603821 0.592192 0.750000
O O7 0.121057 0.980839 0.819846
O O8 0.081703 0.855377 0.950235
O O9 0.151957 0.148637 0.943456
#
# Coordination Sequence:
#
# PCOD8231629 Si02
#       6
#     8   4   4   8   4   4
#     4  10  19  34  53  81 114 152 191 242 301 362
#     4  10  20  36  58  86 122 154 190 242 304 376
#     4  10  20  30  52  82 114 148 194 236 296 374
#     4  10  21  38  59  82 116 157 202 252 299 341
#     4  10  22  40  60  84 116 158 212 258 288 336
#     4  10  22  40  62  90 124 158 194 244 308 374
#
# _framework density 25.967023999999999
#
# number of rings (size 3 to 8) (size 9 to 14) (size 15 to 20)
#    0.000    2.000    0.000    4.500    0.000    3.000 
#    0.000   10.000    0.000    0.000    0.000    0.000 
#    0.000    0.000    0.000    0.000    0.000    0.000 
#
# Total GULP energy -396433.408689 kJ/mol
# GULP energy per Si atom -12388.544022 kJ/mol
# Density = 2.590792 g / cm^3
# Si number density = 25.967024 Si / 1000 Ang^3
#
#
#
# Elastic Constant Matrix: (Units=GPa)
#
#
# Indices 1 2 3 4 5 6 
#
# 1 49.2907 27.6422 18.4239 0.0000 0.0000 0.0000
# 2 27.6422 191.7540 117.9180 0.0000 0.0000 0.0000
# 3 18.4239 117.9180 285.7688 0.0000 0.0000 0.0000
# 4 0.0000 0.0000 0.0000 26.3150 0.0000 0.0000
# 5 0.0000 0.0000 0.0000 0.0000 20.3963 0.0000
# 6 0.0000 0.0000 0.0000 0.0000 0.0000 12.6381
#
#
#
# Elastic Compliance Matrix: (Units=1/GPa)
#
#
# Indices 1 2 3 4 5 6 
#
# 1 0.022077 -0.003092 -0.000148 0.000000 0.000000 0.000000
# 2 -0.003092 0.007421 -0.002863 0.000000 0.000000 0.000000
# 3 -0.000148 -0.002863 0.004690 0.000000 0.000000 0.000000
# 4 0.000000 0.000000 0.000000 0.038001 0.000000 0.000000
# 5 0.000000 0.000000 0.000000 0.000000 0.049028 0.000000
# 6 0.000000 0.000000 0.000000 0.000000 0.000000 0.079126
#
#
# Mechanical properties :
#
#
# Convention : Reuss Voigt Hill
#
# Bulk Modulus (GPa) = 45.48807 94.97575 70.23191
# Shear Modulus (GPa) = 22.74009 36.05851 29.39930
#
# Velocity S-wave (km/s) = 2.96248 3.73047 3.36844
# Velocity P-wave (km/s) = 5.40901 7.43035 6.49875
#
# Compressibility (1/GPa) = 0.02198378
#
# Stress axis : x y z
#
# Youngs Moduli (GPa) = 45.29642 134.74828 213.21095
#
# Poissons Ratio (x) = 0.41660 0.03146
# Poissons Ratio (y) = 0.14004 0.61041
# Poissons Ratio (z) = 0.00668 0.38578
#
# Static dielectric constant tensor:
#      x y z
#    x 4.101180 0.000000 0.000000 
#    y 0.000000 4.890620 0.000000 
#    z 0.000000 0.000000 6.006130 
# 
# 
# High freq. dielectric constant tensor:
#      x y z
#    x 1.989260 0.000000 0.000000 
#    y 0.000000 2.059430 0.000000 
#    z 0.000000 0.000000 2.074540 
# 
# From -- ./inp_files/23972.got.cif
#   From: 2010.03.12/outbox.cif.g09.slc.cpg/sg57_12_cif.got.tgz:23972.got - 2010.04.16 15:48:40.
