data_PCOD8231368
_publ_section_title
;
Structure prediction by ZEFSAII (Michael W. Deem and Ramdas Pophale) SiO2 
 PCOD8231368
Probable space group: P B C M
;
_chemical_formula_sum "Si O2"
_cell_formula_units_Z 48
_cell_length_a 16.377680
_cell_length_b 17.819396
_cell_length_c 9.182989
_cell_angle_alpha 90.000000
_cell_angle_beta 90.000000
_cell_angle_gamma 90.000000
_cell_volume 2679.966866
_symmetry_space_group_name_H-M "P B C M"
_symmetry_group_IT_number 57
_symmetry_cell_setting 'orthorhombic'
loop_
_space_group_symop_operation_xyz
x,y,z
-x,-y,1/2+z
x,1/2-y,-z
-x,1/2+y,1/2-z
-x,-y,-z
x,y,1/2-z
-x,1/2+y,z
x,1/2-y,1/2+z
loop_
_atom_site_type_symbol
_atom_site_label
_atom_site_fract_x
_atom_site_fract_y
_atom_site_fract_z
Si Si1 0.149420 0.825893 0.417093
Si Si2 0.818019 0.910522 0.082926
Si Si3 0.583339 0.980370 0.421910
Si Si4 0.000107 0.422054 0.082214
Si Si5 0.337616 0.176406 0.582948
Si Si6 0.264618 0.961236 0.418359
O O1 0.168154 0.750000 0.500000
O O2 0.133424 0.805752 0.250000
O O3 0.228545 0.878174 0.435783
O O4 0.068425 0.866339 0.482233
O O5 0.799814 0.935472 0.250000
O O6 0.911087 0.883000 0.064311
O O7 0.756152 0.843483 0.040749
O O8 0.803107 0.981211 0.978356
O O9 0.576763 0.994953 0.250000
O O10 0.605061 0.893990 0.457022
O O11 0.500000 0.000000 0.500000
O O12 0.652946 0.034047 0.487921
O O13 0.979636 0.439403 0.250000
O O14 0.000000 0.500000 0.000000
O O15 0.367826 0.250000 0.500000
O O16 0.345523 0.197076 0.750000
O O17 0.283093 0.980127 0.250000
#
# Coordination Sequence:
#
# PCOD8231368 Si02
#       6
#     8   8   8   8   8   8
#     4  10  22  36  51  76 109 144 186 231 275 321
#     4   9  18  32  52  76 105 141 180 223 269 319
#     4  10  21  38  60  86 111 139 177 218 265 322
#     4  10  19  33  52  76 106 142 186 232 274 319
#     4   9  19  34  52  79 111 141 173 214 265 318
#     4  10  19  34  55  79 106 137 178 222 264 320
#
# _framework density 17.91067
#
# number of rings (size 3 to 8) (size 9 to 14) (size 15 to 20)
#    0.000    2.333    1.667    2.000    0.000    6.000 
#    0.000    0.833    0.000    0.000    0.000    0.000 
#    0.000    0.000    0.000    0.000    0.000    0.000 
#
# Total GULP energy -595192.417147 kJ/mol
# GULP energy per Si atom -12399.842024 kJ/mol
# Density = 1.786990 g / cm^3
# Si number density = 17.910670 Si / 1000 Ang^3
#
#
#
# Elastic Constant Matrix: (Units=GPa)
#
#
# Indices 1 2 3 4 5 6 
#
# 1 118.2929 48.2113 51.1014 0.0000 0.0000 0.0000
# 2 48.2113 110.2732 58.6093 0.0000 0.0000 0.0000
# 3 51.1014 58.6093 87.7329 0.0000 0.0000 0.0000
# 4 0.0000 0.0000 0.0000 33.6351 0.0000 0.0000
# 5 0.0000 0.0000 0.0000 0.0000 29.7807 0.0000
# 6 0.0000 0.0000 0.0000 0.0000 0.0000 17.6475
#
#
#
# Elastic Compliance Matrix: (Units=1/GPa)
#
#
# Indices 1 2 3 4 5 6 
#
# 1 0.011663 -0.002308 -0.005251 0.000000 0.000000 0.000000
# 2 -0.002308 0.014517 -0.008354 0.000000 0.000000 0.000000
# 3 -0.005251 -0.008354 0.020038 0.000000 0.000000 0.000000
# 4 0.000000 0.000000 0.000000 0.029731 0.000000 0.000000
# 5 0.000000 0.000000 0.000000 0.000000 0.033579 0.000000
# 6 0.000000 0.000000 0.000000 0.000000 0.000000 0.056665
#
#
# Mechanical properties :
#
#
# Convention : Reuss Voigt Hill
#
# Bulk Modulus (GPa) = 69.48562 70.23811 69.86187
# Shear Modulus (GPa) = 24.65283 26.77115 25.71199
#
# Velocity S-wave (km/s) = 3.71406 3.87033 3.79300
# Velocity P-wave (km/s) = 7.56784 7.69893 7.63367
#
# Compressibility (1/GPa) = 0.01439147
#
# Stress axis : x y z
#
# Youngs Moduli (GPa) = 85.74325 68.88245 49.90562
#
# Poissons Ratio (x) = 0.15897 0.26207
# Poissons Ratio (y) = 0.19788 0.41691
# Poissons Ratio (z) = 0.45027 0.57545
#
# Static dielectric constant tensor:
#      x y z
#    x 3.450340 0.000000 0.000000 
#    y 0.000000 3.089190 0.000000 
#    z 0.000000 0.000000 3.351050 
# 
# 
# High freq. dielectric constant tensor:
#      x y z
#    x 1.695650 0.000000 0.000000 
#    y 0.000000 1.674040 0.000000 
#    z 0.000000 0.000000 1.697310 
# 
# From -- ./inp_files/6683.got.cif
#   From: 2010.03.12/outbox.cif.g09.slc.cpg/sg57_4_cif.got.tgz:6683.got - 2010.04.16 15:48:40.
