data_PCOD8231521
_publ_section_title
;
Structure prediction by ZEFSAII (Michael W. Deem and Ramdas Pophale) SiO2 
 PCOD8231521
Probable space group: P B C M
;
_chemical_formula_sum "Si O2"
_cell_formula_units_Z 56
_cell_length_a 14.577825
_cell_length_b 22.208367
_cell_length_c 8.939833
_cell_angle_alpha 90.000000
_cell_angle_beta 90.000000
_cell_angle_gamma 90.000000
_cell_volume 2894.268141
_symmetry_space_group_name_H-M "P B C M"
_symmetry_group_IT_number 57
_symmetry_cell_setting 'orthorhombic'
loop_
_space_group_symop_operation_xyz
x,y,z
-x,-y,1/2+z
x,1/2-y,-z
-x,1/2+y,1/2-z
-x,-y,-z
x,y,1/2-z
-x,1/2+y,z
x,1/2-y,1/2+z
loop_
_atom_site_type_symbol
_atom_site_label
_atom_site_fract_x
_atom_site_fract_y
_atom_site_fract_z
Si Si1 0.428352 0.187882 0.076660
Si Si2 0.911154 0.419713 0.924801
Si Si3 0.290684 0.105271 0.576243
Si Si4 0.403721 0.993313 0.576621
Si Si5 0.624891 0.139581 0.077944
Si Si6 0.203250 0.687507 0.927562
Si Si7 0.903196 0.942994 0.077104
O O1 0.412882 0.198239 0.250000
O O2 0.517253 0.147315 0.041564
O O3 0.449882 0.250000 0.000000
O O4 0.334632 0.160318 0.012829
O O5 0.901527 0.404982 0.750000
O O6 0.876477 0.487623 0.961387
O O7 0.853836 0.369730 0.013746
O O8 0.017248 0.416787 0.972959
O O9 0.311448 0.115100 0.750000
O O10 0.182583 0.100619 0.545754
O O11 0.335665 0.043974 0.515694
O O12 0.423405 0.000839 0.750000
O O13 0.353607 0.930096 0.544664
O O14 0.500000 0.000000 0.500000
O O15 0.646031 0.156994 0.250000
O O16 0.689841 0.179555 0.972626
O O17 0.193683 0.691746 0.750000
O O18 0.166603 0.750000 0.000000
O O19 0.934441 0.939869 0.250000
#
# Coordination Sequence:
#
# PCOD8231521 Si02
#       7
#     8   8   8   8   8   8   8
#     4  11  23  38  56  77 108 149 194 239 280 331
#     4  10  20  38  63  90 121 151 185 234 290 347
#     4  10  20  35  57  83 116 152 187 230 280 332
#     4  10  19  33  54  83 117 151 186 231 283 332
#     4  10  21  38  58  83 116 152 192 237 286 339
#     4  12  25  40  60  86 117 155 198 242 291 351
#     4   9  19  37  62  90 119 152 189 233 287 345
#
# _framework density 19.348587999999999
#
# number of rings (size 3 to 8) (size 9 to 14) (size 15 to 20)
#    0.000    1.714    1.429    3.429    0.000    6.286 
#    0.000    2.143    0.000    3.429    0.000    0.000 
#    0.000    0.000    0.000    0.000    0.000    0.000 
#
# Total GULP energy -694450.127431 kJ/mol
# GULP energy per Si atom -12400.895133 kJ/mol
# Density = 1.930455 g / cm^3
# Si number density = 19.348588 Si / 1000 Ang^3
#
#
#
# Elastic Constant Matrix: (Units=GPa)
#
#
# Indices 1 2 3 4 5 6 
#
# 1 76.0665 21.1474 40.9022 0.0000 0.0000 0.0000
# 2 21.1474 57.8005 34.5868 0.0000 0.0000 0.0000
# 3 40.9022 34.5868 93.4249 0.0000 0.0000 0.0000
# 4 0.0000 0.0000 0.0000 30.9583 0.0000 0.0000
# 5 0.0000 0.0000 0.0000 0.0000 35.7437 0.0000
# 6 0.0000 0.0000 0.0000 0.0000 0.0000 27.7010
#
#
#
# Elastic Compliance Matrix: (Units=1/GPa)
#
#
# Indices 1 2 3 4 5 6 
#
# 1 0.017434 -0.002327 -0.006772 0.000000 0.000000 0.000000
# 2 -0.002327 0.022535 -0.007324 0.000000 0.000000 0.000000
# 3 -0.006772 -0.007324 0.016380 0.000000 0.000000 0.000000
# 4 0.000000 0.000000 0.000000 0.032302 0.000000 0.000000
# 5 0.000000 0.000000 0.000000 0.000000 0.027977 0.000000
# 6 0.000000 0.000000 0.000000 0.000000 0.000000 0.036100
#
#
# Mechanical properties :
#
#
# Convention : Reuss Voigt Hill
#
# Bulk Modulus (GPa) = 42.54498 46.72940 44.63719
# Shear Modulus (GPa) = 25.85232 27.59098 26.72165
#
# Velocity S-wave (km/s) = 3.65928 3.78033 3.72030
# Velocity P-wave (km/s) = 6.31587 6.57710 6.44781
#
# Compressibility (1/GPa) = 0.02350453
#
# Stress axis : x y z
#
# Youngs Moduli (GPa) = 57.35779 44.37612 61.05086
#
# Poissons Ratio (x) = 0.10325 0.41341
# Poissons Ratio (y) = 0.13346 0.44713
# Poissons Ratio (z) = 0.38840 0.32501
#
# Static dielectric constant tensor:
#      x y z
#    x 3.413130 0.000000 0.000000 
#    y 0.000000 3.578260 0.000000 
#    z 0.000000 0.000000 3.511820 
# 
# 
# High freq. dielectric constant tensor:
#      x y z
#    x 1.750750 0.000000 0.000000 
#    y 0.000000 1.752740 0.000000 
#    z 0.000000 0.000000 1.750900 
# 
# From -- ./inp_files/5242.got.cif
#   From: 2010.03.12/outbox.cif.g09.slc.cpg/sg57_3_cif.got.tgz:5242.got - 2010.04.16 15:48:40.
