data_PCOD8231706
_publ_section_title
;
Structure prediction by ZEFSAII (Michael W. Deem and Ramdas Pophale) SiO2 
 PCOD8231706
Probable space group: P B C M
;
_chemical_formula_sum "Si O2"
_cell_formula_units_Z 48
_cell_length_a 9.115682
_cell_length_b 31.038628
_cell_length_c 8.825035
_cell_angle_alpha 90.000000
_cell_angle_beta 90.000000
_cell_angle_gamma 90.000000
_cell_volume 2496.940070
_symmetry_space_group_name_H-M "P B C M"
_symmetry_group_IT_number 57
_symmetry_cell_setting 'orthorhombic'
loop_
_space_group_symop_operation_xyz
x,y,z
-x,-y,1/2+z
x,1/2-y,-z
-x,1/2+y,1/2-z
-x,-y,-z
x,y,1/2-z
-x,1/2+y,z
x,1/2-y,1/2+z
loop_
_atom_site_type_symbol
_atom_site_label
_atom_site_fract_x
_atom_site_fract_y
_atom_site_fract_z
Si Si1 0.078028 0.118849 0.070983
Si Si2 0.575583 0.707871 0.581395
Si Si3 0.924822 0.792988 0.421793
Si Si4 0.913247 0.039592 0.930121
Si Si5 0.594752 0.037595 0.429231
Si Si6 0.586553 0.621920 0.425584
O O1 0.053301 0.113548 0.250000
O O2 0.247211 0.111774 0.023054
O O3 0.022575 0.165851 0.018494
O O4 0.984384 0.084092 0.981423
O O5 0.509897 0.750000 0.500000
O O6 0.513520 0.708434 0.750000
O O7 0.519542 0.663976 0.505252
O O8 0.750259 0.709273 0.576685
O O9 0.989711 0.750000 0.500000
O O10 0.983918 0.796355 0.250000
O O11 0.915157 0.035774 0.750000
O O12 0.749253 0.037655 0.989543
O O13 0.000000 0.000000 0.000000
O O14 0.612712 0.030826 0.250000
O O15 0.514927 0.082109 0.468415
O O16 0.500000 0.000000 0.500000
O O17 0.586711 0.632631 0.250000
#
# Coordination Sequence:
#
# PCOD8231706 Si02
#       6
#     8   8   8   8   8   8
#     4  10  19  34  56  83 113 146 184 229 278 330
#     4   9  16  26  45  73 107 143 181 223 267 314
#     4   9  16  27  45  74 109 146 185 227 272 320
#     4  12  25  41  60  83 111 145 185 230 279 335
#     4  11  23  40  61  85 113 146 183 227 277 332
#     4   9  19  34  54  80 111 144 181 224 272 323
#
# _framework density 19.223528000000002
#
# number of rings (size 3 to 8) (size 9 to 14) (size 15 to 20)
#    0.000    2.000    0.000    4.500    0.000    7.333 
#    0.000    0.000    0.000    1.000    0.000    2.333 
#    0.000    0.000    0.000    0.000    0.000    0.000 
#
# Total GULP energy -595276.643505 kJ/mol
# GULP energy per Si atom -12401.596740 kJ/mol
# Density = 1.917977 g / cm^3
# Si number density = 19.223528 Si / 1000 Ang^3
#
#
#
# Elastic Constant Matrix: (Units=GPa)
#
#
# Indices 1 2 3 4 5 6 
#
# 1 88.9300 68.6118 57.2900 0.0000 0.0000 0.0000
# 2 68.6118 175.4842 93.0690 0.0000 0.0000 0.0000
# 3 57.2900 93.0690 137.3998 0.0000 0.0000 0.0000
# 4 0.0000 0.0000 0.0000 44.0923 0.0000 0.0000
# 5 0.0000 0.0000 0.0000 0.0000 24.9678 0.0000
# 6 0.0000 0.0000 0.0000 0.0000 0.0000 16.6360
#
#
#
# Elastic Compliance Matrix: (Units=1/GPa)
#
#
# Indices 1 2 3 4 5 6 
#
# 1 0.017500 -0.004639 -0.004155 0.000000 0.000000 0.000000
# 2 -0.004639 0.010123 -0.004923 0.000000 0.000000 0.000000
# 3 -0.004155 -0.004923 0.012345 0.000000 0.000000 0.000000
# 4 0.000000 0.000000 0.000000 0.022680 0.000000 0.000000
# 5 0.000000 0.000000 0.000000 0.000000 0.040052 0.000000
# 6 0.000000 0.000000 0.000000 0.000000 0.000000 0.060111
#
#
# Mechanical properties :
#
#
# Convention : Reuss Voigt Hill
#
# Bulk Modulus (GPa) = 79.77304 93.30617 86.53960
# Shear Modulus (GPa) = 25.71735 29.32877 27.52306
#
# Velocity S-wave (km/s) = 3.66157 3.91022 3.78794
# Velocity P-wave (km/s) = 7.71128 8.30839 8.01539
#
# Compressibility (1/GPa) = 0.01253556
#
# Stress axis : x y z
#
# Youngs Moduli (GPa) = 57.14162 98.78450 81.00565
#
# Poissons Ratio (x) = 0.45825 0.33656
# Poissons Ratio (y) = 0.26508 0.39877
# Poissons Ratio (z) = 0.23741 0.48629
#
# Static dielectric constant tensor:
#      x y z
#    x 3.515710 0.000000 0.000000 
#    y 0.000000 3.836050 0.000000 
#    z 0.000000 0.000000 3.728310 
# 
# 
# High freq. dielectric constant tensor:
#      x y z
#    x 1.707940 0.000000 0.000000 
#    y 0.000000 1.769640 0.000000 
#    z 0.000000 0.000000 1.763080 
# 
# From -- ./inp_files/2000.got.cif
#   From: 2010.03.12/outbox.cif.g09.slc.cpg/sg57_1_cif.got.tgz:2000.got - 2010.04.16 15:48:40.
