data_PCOD8231753
_publ_section_title
;
Structure prediction by ZEFSAII (Michael W. Deem and Ramdas Pophale) SiO2 
 PCOD8231753
Probable space group: P B C M
;
_chemical_formula_sum "Si O2"
_cell_formula_units_Z 64
_cell_length_a 20.653686
_cell_length_b 18.560327
_cell_length_c 8.888255
_cell_angle_alpha 90.000000
_cell_angle_beta 90.000000
_cell_angle_gamma 90.000000
_cell_volume 3407.216258
_symmetry_space_group_name_H-M "P B C M"
_symmetry_group_IT_number 57
_symmetry_cell_setting 'orthorhombic'
loop_
_space_group_symop_operation_xyz
x,y,z
-x,-y,1/2+z
x,1/2-y,-z
-x,1/2+y,1/2-z
-x,-y,-z
x,y,1/2-z
-x,1/2+y,z
x,1/2-y,1/2+z
loop_
_atom_site_type_symbol
_atom_site_label
_atom_site_fract_x
_atom_site_fract_y
_atom_site_fract_z
Si Si1 0.805449 0.035672 0.923658
Si Si2 0.504516 0.577149 0.073008
Si Si3 0.388758 0.678615 0.423792
Si Si4 0.242475 0.675588 0.072015
Si Si5 0.118342 0.326420 0.073096
Si Si6 0.059199 0.459846 0.575214
Si Si7 0.615651 0.827983 0.428337
Si Si8 0.749216 0.902208 0.425297
O O1 0.789700 0.048722 0.750000
O O2 0.877645 0.007985 0.950916
O O3 0.800708 0.110484 0.011747
O O4 0.754273 0.977368 0.986124
O O5 0.518887 0.572376 0.250000
O O6 0.435099 0.612392 0.038828
O O7 0.500000 0.500000 0.000000
O O8 0.560371 0.621506 0.992975
O O9 0.417346 0.750000 0.500000
O O10 0.387031 0.696530 0.250000
O O11 0.316421 0.660884 0.480866
O O12 0.235308 0.680484 0.250000
O O13 0.217134 0.750000 0.000000
O O14 0.107129 0.321637 0.250000
O O15 0.191402 0.349965 0.032747
O O16 0.103929 0.250000 0.000000
O O17 0.067676 0.382846 0.004262
O O18 0.045158 0.446953 0.750000
O O19 0.000000 0.500000 0.500000
O O20 0.608903 0.750000 0.500000
O O21 0.608389 0.821658 0.250000
O O22 0.684333 0.861765 0.475260
O O23 0.748858 0.921652 0.250000
#
# Coordination Sequence:
#
# PCOD8231753 Si02
#       8
#     8   8   8   8   8   8   8   8
#     4  10  21  36  57  86 116 146 183 230 278 328
#     4  11  24  40  56  79 109 145 187 234 285 336
#     4   9  20  37  57  78 103 137 180 227 277 333
#     4  10  20  36  58  83 111 144 183 231 283 336
#     4  10  19  34  57  85 116 151 190 232 280 331
#     4  10  21  38  59  84 116 152 191 231 274 328
#     4  11  23  39  58  82 113 148 187 232 282 337
#     4   9  20  36  56  82 114 151 187 228 279 334
#
# _framework density 18.783662
#
# number of rings (size 3 to 8) (size 9 to 14) (size 15 to 20)
#    0.000    2.000    0.000    3.000    1.750    5.500 
#    0.000    0.625    0.000    3.000    0.000    0.000 
#    0.000    0.000    0.000    0.000    0.000    0.000 
#
# Total GULP energy -793873.677093 kJ/mol
# GULP energy per Si atom -12404.276205 kJ/mol
# Density = 1.874091 g / cm^3
# Si number density = 18.783662 Si / 1000 Ang^3
#
#
#
# Elastic Constant Matrix: (Units=GPa)
#
#
# Indices 1 2 3 4 5 6 
#
# 1 72.6970 57.9121 45.9624 0.0000 0.0000 0.0000
# 2 57.9121 173.8544 78.5958 0.0000 0.0000 0.0000
# 3 45.9624 78.5958 99.8161 0.0000 0.0000 0.0000
# 4 0.0000 0.0000 0.0000 42.3646 0.0000 0.0000
# 5 0.0000 0.0000 0.0000 0.0000 28.6982 0.0000
# 6 0.0000 0.0000 0.0000 0.0000 0.0000 12.6038
#
#
#
# Elastic Compliance Matrix: (Units=1/GPa)
#
#
# Indices 1 2 3 4 5 6 
#
# 1 0.021133 -0.004100 -0.006503 0.000000 0.000000 0.000000
# 2 -0.004100 0.009726 -0.005771 0.000000 0.000000 0.000000
# 3 -0.006503 -0.005771 0.017557 0.000000 0.000000 0.000000
# 4 0.000000 0.000000 0.000000 0.023605 0.000000 0.000000
# 5 0.000000 0.000000 0.000000 0.000000 0.034845 0.000000
# 6 0.000000 0.000000 0.000000 0.000000 0.000000 0.079341
#
#
# Mechanical properties :
#
#
# Convention : Reuss Voigt Hill
#
# Bulk Modulus (GPa) = 63.81930 79.03424 71.42677
# Shear Modulus (GPa) = 22.30367 27.65979 24.98173
#
# Velocity S-wave (km/s) = 3.44960 3.84154 3.65083
# Velocity P-wave (km/s) = 7.06513 7.86409 7.47529
#
# Compressibility (1/GPa) = 0.01566924
#
# Stress axis : x y z
#
# Youngs Moduli (GPa) = 47.31894 102.81220 56.95752
#
# Poissons Ratio (x) = 0.42150 0.37040
# Poissons Ratio (y) = 0.19399 0.32870
# Poissons Ratio (z) = 0.30772 0.59332
#
# Static dielectric constant tensor:
#      x y z
#    x 3.510610 0.000000 0.000000 
#    y 0.000000 3.519210 0.000000 
#    z 0.000000 0.000000 3.438200 
# 
# 
# High freq. dielectric constant tensor:
#      x y z
#    x 1.721470 0.000000 0.000000 
#    y 0.000000 1.739690 0.000000 
#    z 0.000000 0.000000 1.742410 
# 
# From -- ./inp_files/8380.got.cif
#   From: 2010.03.12/outbox.cif.g09.slc.cpg/sg57_5_cif.got.tgz:8380.got - 2010.04.16 15:48:40.
