data_PCOD8231905
_publ_section_title
;
Structure prediction by ZEFSAII (Michael W. Deem and Ramdas Pophale) SiO2 
 PCOD8231905
Probable space group: P B C M
;
_chemical_formula_sum "Si O2"
_cell_formula_units_Z 48
_cell_length_a 14.496735
_cell_length_b 20.481167
_cell_length_c 8.760720
_cell_angle_alpha 90.000000
_cell_angle_beta 90.000000
_cell_angle_gamma 90.000000
_cell_volume 2601.145818
_symmetry_space_group_name_H-M "P B C M"
_symmetry_group_IT_number 57
_symmetry_cell_setting 'orthorhombic'
loop_
_space_group_symop_operation_xyz
x,y,z
-x,-y,1/2+z
x,1/2-y,-z
-x,1/2+y,1/2-z
-x,-y,-z
x,y,1/2-z
-x,1/2+y,z
x,1/2-y,1/2+z
loop_
_atom_site_type_symbol
_atom_site_label
_atom_site_fract_x
_atom_site_fract_y
_atom_site_fract_z
Si Si1 0.552906 0.438734 0.931500
Si Si2 0.750745 0.481342 0.569759
Si Si3 0.446317 0.319634 0.429940
Si Si4 0.947313 0.439506 0.930475
Si Si5 0.754463 0.628695 0.929769
Si Si6 0.063943 0.182676 0.069654
O O1 0.542749 0.440260 0.750000
O O2 0.659403 0.443918 0.985544
O O3 0.500000 0.500000 0.000000
O O4 0.515154 0.371588 0.996950
O O5 0.748396 0.487856 0.750000
O O6 0.840693 0.441247 0.514798
O O7 0.753920 0.555036 0.504397
O O8 0.471408 0.250000 0.500000
O O9 0.461949 0.318707 0.250000
O O10 0.342055 0.338143 0.472326
O O11 0.954481 0.445294 0.750000
O O12 0.994191 0.373172 0.989594
O O13 0.000000 0.500000 0.000000
O O14 0.773916 0.630648 0.750000
O O15 0.832740 0.669340 0.014364
O O16 0.063774 0.187792 0.250000
O O17 0.027173 0.250000 0.000000
#
# Coordination Sequence:
#
# PCOD8231905 Si02
#       6
#     8   8   8   8   8   8
#     4  11  21  37  60  85 114 151 190 234 281 334
#     4   9  18  35  58  84 113 146 181 227 282 331
#     4  11  23  39  57  84 116 152 191 231 285 341
#     4  10  20  36  58  82 110 144 186 228 274 330
#     4  10  19  35  59  84 115 149 182 227 282 338
#     4  11  23  36  54  83 114 149 187 228 277 332
#
# _framework density 18.453406000000001
#
# number of rings (size 3 to 8) (size 9 to 14) (size 15 to 20)
#    0.000    1.667    3.333    2.000    0.000    3.333 
#    0.000    2.500    0.000    2.000    0.000    0.000 
#    0.000    0.000    0.000    0.000    0.000    0.000 
#
# Total GULP energy -595303.011398 kJ/mol
# GULP energy per Si atom -12402.146071 kJ/mol
# Density = 1.841141 g / cm^3
# Si number density = 18.453406 Si / 1000 Ang^3
#
#
#
# Elastic Constant Matrix: (Units=GPa)
#
#
# Indices 1 2 3 4 5 6 
#
# 1 150.8722 84.9035 41.7003 0.0000 0.0000 0.0000
# 2 84.9035 173.8410 43.5538 0.0000 0.0000 0.0000
# 3 41.7003 43.5538 52.0331 0.0000 0.0000 0.0000
# 4 0.0000 0.0000 0.0000 32.2774 0.0000 0.0000
# 5 0.0000 0.0000 0.0000 0.0000 17.8459 0.0000
# 6 0.0000 0.0000 0.0000 0.0000 0.0000 34.1896
#
#
#
# Elastic Compliance Matrix: (Units=1/GPa)
#
#
# Indices 1 2 3 4 5 6 
#
# 1 0.010075 -0.003667 -0.005005 0.000000 0.000000 0.000000
# 2 -0.003667 0.008613 -0.004271 0.000000 0.000000 0.000000
# 3 -0.005005 -0.004271 0.026805 0.000000 0.000000 0.000000
# 4 0.000000 0.000000 0.000000 0.030981 0.000000 0.000000
# 5 0.000000 0.000000 0.000000 0.000000 0.056035 0.000000
# 6 0.000000 0.000000 0.000000 0.000000 0.000000 0.029249
#
#
# Mechanical properties :
#
#
# Convention : Reuss Voigt Hill
#
# Bulk Modulus (GPa) = 51.00149 79.67350 65.33749
# Shear Modulus (GPa) = 25.74933 30.63516 28.19224
#
# Velocity S-wave (km/s) = 3.73952 4.07890 3.91289
# Velocity P-wave (km/s) = 6.80759 8.09027 7.47649
#
# Compressibility (1/GPa) = 0.01960727
#
# Stress axis : x y z
#
# Youngs Moduli (GPa) = 99.25668 116.10075 37.30662
#
# Poissons Ratio (x) = 0.42569 0.18672
# Poissons Ratio (y) = 0.36393 0.15934
# Poissons Ratio (z) = 0.49679 0.49588
#
# Static dielectric constant tensor:
#      x y z
#    x 3.674750 0.000000 0.000000 
#    y 0.000000 3.536900 0.000000 
#    z 0.000000 0.000000 3.289540 
# 
# 
# High freq. dielectric constant tensor:
#      x y z
#    x 1.720440 0.000000 0.000000 
#    y 0.000000 1.720430 0.000000 
#    z 0.000000 0.000000 1.706130 
# 
# From -- ./inp_files/4560.got.cif
#   From: 2010.03.12/outbox.cif.g09.slc.cpg/sg57_3_cif.got.tgz:4560.got - 2010.04.16 15:48:40.
