data_PCOD8231177
_publ_section_title
;
Structure prediction by ZEFSAII (Michael W. Deem and Ramdas Pophale) SiO2 
 PCOD8231177
Probable space group: P B C M
;
_chemical_formula_sum "Si O2"
_cell_formula_units_Z 48
_cell_length_a 16.383562
_cell_length_b 18.050222
_cell_length_c 9.072918
_cell_angle_alpha 90.000000
_cell_angle_beta 90.000000
_cell_angle_gamma 90.000000
_cell_volume 2683.106198
_symmetry_space_group_name_H-M "P B C M"
_symmetry_group_IT_number 57
_symmetry_cell_setting 'orthorhombic'
loop_
_space_group_symop_operation_xyz
x,y,z
-x,-y,1/2+z
x,1/2-y,-z
-x,1/2+y,1/2-z
-x,-y,-z
x,y,1/2-z
-x,1/2+y,z
x,1/2-y,1/2+z
loop_
_atom_site_type_symbol
_atom_site_label
_atom_site_fract_x
_atom_site_fract_y
_atom_site_fract_z
Si Si1 0.754999 0.461122 0.918847
Si Si2 0.078671 0.466010 0.075234
Si Si3 0.498232 0.078557 0.421831
Si Si4 0.649636 0.173226 0.421482
Si Si5 0.318303 0.406799 0.919431
Si Si6 0.157679 0.172711 0.425826
O O1 0.738712 0.479549 0.750000
O O2 0.849182 0.475355 0.959012
O O3 0.729487 0.376900 0.955051
O O4 0.694159 0.515021 0.002959
O O5 0.065887 0.454044 0.250000
O O6 0.098297 0.388332 0.996789
O O7 0.000000 0.500000 0.000000
O O8 0.512784 0.063370 0.250000
O O9 0.568603 0.132478 0.483760
O O10 0.411015 0.119418 0.450614
O O11 0.500000 0.000000 0.500000
O O12 0.664350 0.250000 0.500000
O O13 0.638874 0.189289 0.250000
O O14 0.303136 0.423423 0.750000
O O15 0.251679 0.345975 0.970632
O O16 0.134158 0.250000 0.500000
O O17 0.144501 0.176274 0.250000
#
# Coordination Sequence:
#
# PCOD8231177 Si02
#       6
#     8   8   8   8   8   8
#     4   9  18  34  54  75 101 135 173 215 260 313
#     4  10  20  36  59  84 109 139 177 219 269 326
#     4  10  19  32  51  75 104 139 181 223 263 310
#     4  10  21  35  50  73 105 139 177 219 261 306
#     4   9  18  31  51  77 103 135 176 218 260 312
#     4  10  20  35  54  80 113 144 177 220 270 322
#
# _framework density 17.889713
#
# number of rings (size 3 to 8) (size 9 to 14) (size 15 to 20)
#    0.000    2.333    1.667    1.000    0.000    3.333 
#    0.000    0.833    0.000    2.000    0.000    0.000 
#    0.000    0.000    0.000    0.000    0.000    0.000 
#
# Total GULP energy -595070.980938 kJ/mol
# GULP energy per Si atom -12397.312103 kJ/mol
# Density = 1.784899 g / cm^3
# Si number density = 17.889713 Si / 1000 Ang^3
#
#
#
# Elastic Constant Matrix: (Units=GPa)
#
#
# Indices 1 2 3 4 5 6 
#
# 1 118.8507 66.5310 43.2616 0.0000 0.0000 0.0000
# 2 66.5310 137.3743 52.7296 0.0000 0.0000 0.0000
# 3 43.2616 52.7296 64.2314 0.0000 0.0000 0.0000
# 4 0.0000 0.0000 0.0000 33.7955 0.0000 0.0000
# 5 0.0000 0.0000 0.0000 0.0000 24.4161 0.0000
# 6 0.0000 0.0000 0.0000 0.0000 0.0000 20.7337
#
#
#
# Elastic Compliance Matrix: (Units=1/GPa)
#
#
# Indices 1 2 3 4 5 6 
#
# 1 0.012580 -0.004147 -0.005069 0.000000 0.000000 0.000000
# 2 -0.004147 0.011996 -0.007054 0.000000 0.000000 0.000000
# 3 -0.005069 -0.007054 0.024774 0.000000 0.000000 0.000000
# 4 0.000000 0.000000 0.000000 0.029590 0.000000 0.000000
# 5 0.000000 0.000000 0.000000 0.000000 0.040957 0.000000
# 6 0.000000 0.000000 0.000000 0.000000 0.000000 0.048231
#
#
# Mechanical properties :
#
#
# Convention : Reuss Voigt Hill
#
# Bulk Modulus (GPa) = 59.49074 71.72231 65.60652
# Shear Modulus (GPa) = 24.24003 26.31802 25.27903
#
# Velocity S-wave (km/s) = 3.68499 3.83969 3.76313
# Velocity P-wave (km/s) = 7.17160 7.73537 7.45882
#
# Compressibility (1/GPa) = 0.01680934
#
# Stress axis : x y z
#
# Youngs Moduli (GPa) = 79.48824 83.36375 40.36531
#
# Poissons Ratio (x) = 0.34573 0.20460
# Poissons Ratio (y) = 0.32965 0.28475
# Poissons Ratio (z) = 0.40290 0.58808
#
# Static dielectric constant tensor:
#      x y z
#    x 3.605720 0.000000 0.000000 
#    y 0.000000 3.222660 0.000000 
#    z 0.000000 0.000000 3.342320 
# 
# 
# High freq. dielectric constant tensor:
#      x y z
#    x 1.694580 0.000000 0.000000 
#    y 0.000000 1.678670 0.000000 
#    z 0.000000 0.000000 1.695370 
# 
# From -- ./inp_files/4672.got.cif
#   From: 2010.03.12/outbox.cif.g09.slc.cpg/sg57_3_cif.got.tgz:4672.got - 2010.04.16 15:48:40.
