data_PCOD8231761
_publ_section_title
;
Structure prediction by ZEFSAII (Michael W. Deem and Ramdas Pophale) SiO2 
 PCOD8231761
Probable space group: P B C M
;
_chemical_formula_sum "Si O2"
_cell_formula_units_Z 64
_cell_length_a 15.468843
_cell_length_b 23.795186
_cell_length_c 8.906687
_cell_angle_alpha 90.000000
_cell_angle_beta 90.000000
_cell_angle_gamma 90.000000
_cell_volume 3278.408946
_symmetry_space_group_name_H-M "P B C M"
_symmetry_group_IT_number 57
_symmetry_cell_setting 'orthorhombic'
loop_
_space_group_symop_operation_xyz
x,y,z
-x,-y,1/2+z
x,1/2-y,-z
-x,1/2+y,1/2-z
-x,-y,-z
x,y,1/2-z
-x,1/2+y,z
x,1/2-y,1/2+z
loop_
_atom_site_type_symbol
_atom_site_label
_atom_site_fract_x
_atom_site_fract_y
_atom_site_fract_z
Si Si1 0.344914 0.122351 0.926869
Si Si2 0.408268 0.004365 0.574871
Si Si3 0.993606 0.309997 0.426749
Si Si4 0.656358 0.116500 0.425363
Si Si5 0.153708 0.117161 0.927237
Si Si6 0.092541 0.005577 0.425660
Si Si7 0.491295 0.689802 0.928604
Si Si8 0.832456 0.385619 0.075206
O O1 0.355084 0.120341 0.750000
O O2 0.248106 0.142009 0.970987
O O3 0.416941 0.165418 0.989535
O O4 0.360157 0.059410 0.990592
O O5 0.424835 0.010649 0.750000
O O6 0.351483 0.949639 0.538831
O O7 0.500000 0.000000 0.500000
O O8 0.982739 0.250000 0.500000
O O9 0.996838 0.302223 0.250000
O O10 0.081919 0.339027 0.484610
O O11 0.914095 0.348804 0.476629
O O12 0.644856 0.130223 0.250000
O O13 0.584437 0.148888 0.519268
O O14 0.750856 0.135666 0.479596
O O15 0.144683 0.106517 0.750000
O O16 0.144066 0.057700 0.007394
O O17 0.078301 0.013830 0.250000
O O18 0.148019 0.950300 0.461029
O O19 0.000000 0.000000 0.500000
O O20 0.489268 0.694819 0.750000
O O21 0.475845 0.750000 0.000000
O O22 0.812345 0.376459 0.250000
#
# Coordination Sequence:
#
# PCOD8231761 Si02
#       8
#     8   8   8   8   8   8   8   8
#     4   9  19  36  61  87 116 157 193 231 293 350
#     4  10  19  34  57  87 118 150 189 230 285 349
#     4  10  22  40  60  83 114 153 195 242 291 341
#     4  11  23  38  61  92 119 153 196 243 297 355
#     4  10  20  39  62  87 121 156 193 241 294 354
#     4  11  21  36  60  90 122 157 195 239 295 354
#     4  11  23  41  62  85 117 158 201 248 296 348
#     4  10  22  40  59  85 120 158 195 240 296 350
#
# _framework density 19.521663
#
# number of rings (size 3 to 8) (size 9 to 14) (size 15 to 20)
#    0.000    1.750    2.500    1.875    0.000    4.500 
#    0.000    3.125    0.000    0.000    0.000    0.000 
#    0.000    0.000    0.000    0.000    0.000    0.000 
#
# Total GULP energy -793706.705932 kJ/mol
# GULP energy per Si atom -12401.667280 kJ/mol
# Density = 1.947723 g / cm^3
# Si number density = 19.521663 Si / 1000 Ang^3
#
#
#
# Elastic Constant Matrix: (Units=GPa)
#
#
# Indices 1 2 3 4 5 6 
#
# 1 136.1389 20.8121 39.6524 0.0000 0.0000 0.0000
# 2 20.8121 74.9920 35.7433 0.0000 0.0000 0.0000
# 3 39.6524 35.7433 55.6089 0.0000 0.0000 0.0000
# 4 0.0000 0.0000 0.0000 29.1648 0.0000 0.0000
# 5 0.0000 0.0000 0.0000 0.0000 25.9580 0.0000
# 6 0.0000 0.0000 0.0000 0.0000 0.0000 7.8419
#
#
#
# Elastic Compliance Matrix: (Units=1/GPa)
#
#
# Indices 1 2 3 4 5 6 
#
# 1 0.009307 0.000836 -0.007174 0.000000 0.000000 0.000000
# 2 0.000836 0.019299 -0.013001 0.000000 0.000000 0.000000
# 3 -0.007174 -0.013001 0.031455 0.000000 0.000000 0.000000
# 4 0.000000 0.000000 0.000000 0.034288 0.000000 0.000000
# 5 0.000000 0.000000 0.000000 0.000000 0.038524 0.000000
# 6 0.000000 0.000000 0.000000 0.000000 0.000000 0.127520
#
#
# Mechanical properties :
#
#
# Convention : Reuss Voigt Hill
#
# Bulk Modulus (GPa) = 46.76501 51.01725 48.89113
# Shear Modulus (GPa) = 16.32923 23.96173 20.14548
#
# Velocity S-wave (km/s) = 2.89531 3.50729 3.21589
# Velocity P-wave (km/s) = 5.93166 6.52624 6.23604
#
# Compressibility (1/GPa) = 0.02138351
#
# Stress axis : x y z
#
# Youngs Moduli (GPa) = 107.44430 51.81494 31.79129
#
# Poissons Ratio (x) = -0.04334 0.22808
# Poissons Ratio (y) = -0.08987 0.41333
# Poissons Ratio (z) = 0.77082 0.67367
#
# Static dielectric constant tensor:
#      x y z
#    x 3.308290 0.000000 0.000000 
#    y 0.000000 3.603230 0.000000 
#    z 0.000000 0.000000 3.357390 
# 
# 
# High freq. dielectric constant tensor:
#      x y z
#    x 1.776170 0.000000 0.000000 
#    y 0.000000 1.759800 0.000000 
#    z 0.000000 0.000000 1.745890 
# 
# From -- ./inp_files/5546.got.cif
#   From: 2010.03.12/outbox.cif.g09.slc.cpg/sg57_3_cif.got.tgz:5546.got - 2010.04.16 15:48:40.
