data_PCOD8231049
_publ_section_title
;
Structure prediction by ZEFSAII (Michael W. Deem and Ramdas Pophale) SiO2 
 PCOD8231049
Probable space group: P B C M
;
_chemical_formula_sum "Si O2"
_cell_formula_units_Z 48
_cell_length_a 14.664461
_cell_length_b 19.114236
_cell_length_c 9.044590
_cell_angle_alpha 90.000000
_cell_angle_beta 90.000000
_cell_angle_gamma 90.000000
_cell_volume 2535.198291
_symmetry_space_group_name_H-M "P B C M"
_symmetry_group_IT_number 57
_symmetry_cell_setting 'orthorhombic'
loop_
_space_group_symop_operation_xyz
x,y,z
-x,-y,1/2+z
x,1/2-y,-z
-x,1/2+y,1/2-z
-x,-y,-z
x,y,1/2-z
-x,1/2+y,z
x,1/2-y,1/2+z
loop_
_atom_site_type_symbol
_atom_site_label
_atom_site_fract_x
_atom_site_fract_y
_atom_site_fract_z
Si Si1 0.028745 0.324982 0.426000
Si Si2 0.170739 0.061291 0.924382
Si Si3 0.699280 0.182735 0.082451
Si Si4 0.872929 0.091806 0.419868
Si Si5 0.372646 0.461215 0.079315
Si Si6 0.438964 0.902506 0.080588
O O1 0.040733 0.250000 0.500000
O O2 0.027593 0.316101 0.250000
O O3 0.111854 0.373662 0.483919
O O4 0.935304 0.360922 0.476122
O O5 0.164078 0.058885 0.750000
O O6 0.276050 0.071147 0.972861
O O7 0.128521 0.987700 0.981729
O O8 0.680846 0.203905 0.250000
O O9 0.769627 0.118995 0.068669
O O10 0.740537 0.250000 0.000000
O O11 0.602603 0.161638 0.010906
O O12 0.907360 0.096459 0.250000
O O13 0.367602 0.487336 0.250000
O O14 0.451232 0.402535 0.061235
O O15 0.396323 0.525474 0.975476
O O16 0.410640 0.893430 0.250000
#
# Coordination Sequence:
#
# PCOD8231049 Si02
#       6
#     8   8   8   8   8   8
#     4  11  23  38  57  80 111 147 184 226 276 332
#     4   9  18  36  60  84 109 144 184 227 278 327
#     4  11  22  36  55  78 113 151 186 229 281 337
#     4  10  20  37  60  83 108 141 183 230 282 335
#     4   9  17  34  57  80 109 143 180 224 274 323
#     4  10  19  31  53  83 112 143 182 223 270 328
#
# _framework density 18.933430000000001
#
# number of rings (size 3 to 8) (size 9 to 14) (size 15 to 20)
#    0.000    2.000    1.667    2.500    0.000    3.333 
#    0.000    3.333    0.000    2.000    0.000    0.000 
#    0.000    0.000    0.000    0.000    0.000    0.000 
#
# Total GULP energy -595195.902653 kJ/mol
# GULP energy per Si atom -12399.914639 kJ/mol
# Density = 1.889034 g / cm^3
# Si number density = 18.933430 Si / 1000 Ang^3
#
#
#
# Elastic Constant Matrix: (Units=GPa)
#
#
# Indices 1 2 3 4 5 6 
#
# 1 102.1529 57.4276 42.6162 0.0000 0.0000 0.0000
# 2 57.4276 123.2686 45.2946 0.0000 0.0000 0.0000
# 3 42.6162 45.2946 93.2483 0.0000 0.0000 0.0000
# 4 0.0000 0.0000 0.0000 25.4416 0.0000 0.0000
# 5 0.0000 0.0000 0.0000 0.0000 21.3390 0.0000
# 6 0.0000 0.0000 0.0000 0.0000 0.0000 25.7151
#
#
#
# Elastic Compliance Matrix: (Units=1/GPa)
#
#
# Indices 1 2 3 4 5 6 
#
# 1 0.014418 -0.005229 -0.004049 0.000000 0.000000 0.000000
# 2 -0.005229 0.011771 -0.003328 0.000000 0.000000 0.000000
# 3 -0.004049 -0.003328 0.014191 0.000000 0.000000 0.000000
# 4 0.000000 0.000000 0.000000 0.039306 0.000000 0.000000
# 5 0.000000 0.000000 0.000000 0.000000 0.046862 0.000000
# 6 0.000000 0.000000 0.000000 0.000000 0.000000 0.038888
#
#
# Mechanical properties :
#
#
# Convention : Reuss Voigt Hill
#
# Bulk Modulus (GPa) = 65.92939 67.70520 66.81729
# Shear Modulus (GPa) = 25.54855 26.05456 25.80155
#
# Velocity S-wave (km/s) = 3.67739 3.71363 3.69555
# Velocity P-wave (km/s) = 7.27518 7.36378 7.31961
#
# Compressibility (1/GPa) = 0.01516774
#
# Stress axis : x y z
#
# Youngs Moduli (GPa) = 69.35642 84.95188 70.46585
#
# Poissons Ratio (x) = 0.44423 0.28534
# Poissons Ratio (y) = 0.36268 0.23451
# Poissons Ratio (z) = 0.28085 0.28272
#
# Static dielectric constant tensor:
#      x y z
#    x 3.700820 0.000000 0.000000 
#    y 0.000000 3.473950 0.000000 
#    z 0.000000 0.000000 3.415670 
# 
# 
# High freq. dielectric constant tensor:
#      x y z
#    x 1.740800 0.000000 0.000000 
#    y 0.000000 1.724460 0.000000 
#    z 0.000000 0.000000 1.727150 
# 
# From -- ./inp_files/4706.got.cif
#   From: 2010.03.12/outbox.cif.g09.slc.cpg/sg57_3_cif.got.tgz:4706.got - 2010.04.16 15:48:40.
