data_PCOD8231555
_publ_section_title
;
Structure prediction by ZEFSAII (Michael W. Deem and Ramdas Pophale) SiO2 
 PCOD8231555
Probable space group: P B C M
;
_chemical_formula_sum "Si O2"
_cell_formula_units_Z 64
_cell_length_a 17.574688
_cell_length_b 22.484164
_cell_length_c 8.473399
_cell_angle_alpha 90.000000
_cell_angle_beta 90.000000
_cell_angle_gamma 90.000000
_cell_volume 3348.281979
_symmetry_space_group_name_H-M "P B C M"
_symmetry_group_IT_number 57
_symmetry_cell_setting 'orthorhombic'
loop_
_space_group_symop_operation_xyz
x,y,z
-x,-y,1/2+z
x,1/2-y,-z
-x,1/2+y,1/2-z
-x,-y,-z
x,y,1/2-z
-x,1/2+y,z
x,1/2-y,1/2+z
loop_
_atom_site_type_symbol
_atom_site_label
_atom_site_fract_x
_atom_site_fract_y
_atom_site_fract_z
Si Si1 0.152521 0.580259 0.564234
Si Si2 0.420885 0.522314 0.066913
Si Si3 0.988909 0.935722 0.434329
Si Si4 0.328180 0.419690 0.932091
Si Si5 0.750301 0.312322 0.933875
Si Si6 0.825504 0.948902 0.435798
Si Si7 0.597689 0.351536 0.066682
Si Si8 0.562756 0.812390 0.934594
O O1 0.159415 0.568314 0.750000
O O2 0.208532 0.632808 0.517444
O O3 0.174825 0.519146 0.477326
O O4 0.065190 0.601125 0.518212
O O5 0.429923 0.539194 0.250000
O O6 0.500000 0.500000 0.000000
O O7 0.358404 0.471717 0.044736
O O8 0.393491 0.579123 0.970396
O O9 0.983834 0.941348 0.250000
O O10 0.904453 0.915349 0.490487
O O11 0.000000 0.000000 0.500000
O O12 0.341980 0.436539 0.750000
O O13 0.371436 0.359199 0.975282
O O14 0.239114 0.413125 0.969337
O O15 0.766805 0.315858 0.750000
O O16 0.782629 0.250000 0.000000
O O17 0.660253 0.315366 0.967983
O O18 0.810971 0.942569 0.250000
O O19 0.612951 0.339995 0.250000
O O20 0.514319 0.329377 0.022768
O O21 0.545590 0.809271 0.750000
O O22 0.593059 0.750000 0.000000
#
# Coordination Sequence:
#
# PCOD8231555 Si02
#       8
#     8   8   8   8   8   8   8   8
#     4  10  19  35  57  83 115 149 185 225 277 334
#     4  12  23  37  57  83 113 146 183 228 281 334
#     4   8  16  30  52  81 113 145 176 215 263 322
#     4  11  23  38  56  81 113 148 185 228 278 331
#     4  12  25  41  58  80 111 148 192 237 282 334
#     4  10  19  33  55  86 118 148 184 227 279 334
#     4  12  24  40  61  83 111 146 186 230 279 331
#     4  11  24  41  60  79 105 140 186 233 278 328
#
# _framework density 19.114280000000001
#
# number of rings (size 3 to 8) (size 9 to 14) (size 15 to 20)
#    0.000    1.250    1.250    6.000    0.000    2.500 
#    0.000    0.000    0.000    0.750    0.000    1.750 
#    0.000    0.000    0.000    0.000    0.000    0.000 
#
# Total GULP energy -793428.828167 kJ/mol
# GULP energy per Si atom -12397.325440 kJ/mol
# Density = 1.907078 g / cm^3
# Si number density = 19.114280 Si / 1000 Ang^3
#
#
#
# Elastic Constant Matrix: (Units=GPa)
#
#
# Indices 1 2 3 4 5 6 
#
# 1 127.0421 28.4737 12.8256 0.0000 0.0000 0.0000
# 2 28.4737 79.3522 6.9541 0.0000 0.0000 0.0000
# 3 12.8256 6.9541 44.3091 0.0000 0.0000 0.0000
# 4 0.0000 0.0000 0.0000 26.5604 0.0000 0.0000
# 5 0.0000 0.0000 0.0000 0.0000 27.3511 0.0000
# 6 0.0000 0.0000 0.0000 0.0000 0.0000 13.6035
#
#
#
# Elastic Compliance Matrix: (Units=1/GPa)
#
#
# Indices 1 2 3 4 5 6 
#
# 1 0.008743 -0.002956 -0.002067 0.000000 0.000000 0.000000
# 2 -0.002956 0.013777 -0.001307 0.000000 0.000000 0.000000
# 3 -0.002067 -0.001307 0.023372 0.000000 0.000000 0.000000
# 4 0.000000 0.000000 0.000000 0.037650 0.000000 0.000000
# 5 0.000000 0.000000 0.000000 0.000000 0.036562 0.000000
# 6 0.000000 0.000000 0.000000 0.000000 0.000000 0.073510
#
#
# Mechanical properties :
#
#
# Convention : Reuss Voigt Hill
#
# Bulk Modulus (GPa) = 30.09032 38.57890 34.33461
# Shear Modulus (GPa) = 23.00435 26.99966 25.00201
#
# Velocity S-wave (km/s) = 3.47294 3.76245 3.62059
# Velocity P-wave (km/s) = 5.64431 6.25315 5.95651
#
# Compressibility (1/GPa) = 0.03323328
#
# Stress axis : x y z
#
# Youngs Moduli (GPa) = 114.38300 72.58355 42.78619
#
# Poissons Ratio (x) = 0.21455 0.08843
# Poissons Ratio (y) = 0.33811 0.05591
# Poissons Ratio (z) = 0.23639 0.09484
#
# Static dielectric constant tensor:
#      x y z
#    x 4.245340 0.000000 0.000000 
#    y 0.000000 3.401460 0.000000 
#    z 0.000000 0.000000 3.571840 
# 
# 
# High freq. dielectric constant tensor:
#      x y z
#    x 1.756800 0.000000 0.000000 
#    y 0.000000 1.714590 0.000000 
#    z 0.000000 0.000000 1.756960 
# 
# From -- ./inp_files/7292.got.cif
#   From: 2010.03.12/outbox.cif.g09.slc.cpg/sg57_4_cif.got.tgz:7292.got - 2010.04.16 15:48:40.
