data_PCOD8231808
_publ_section_title
;
Structure prediction by ZEFSAII (Michael W. Deem and Ramdas Pophale) SiO2 
 PCOD8231808
Probable space group: P B C M
;
_chemical_formula_sum "Si O2"
_cell_formula_units_Z 64
_cell_length_a 9.567744
_cell_length_b 23.599060
_cell_length_c 13.585491
_cell_angle_alpha 90.000000
_cell_angle_beta 90.000000
_cell_angle_gamma 90.000000
_cell_volume 3067.464817
_symmetry_space_group_name_H-M "P B C M"
_symmetry_group_IT_number 57
_symmetry_cell_setting 'orthorhombic'
loop_
_space_group_symop_operation_xyz
x,y,z
-x,-y,1/2+z
x,1/2-y,-z
-x,1/2+y,1/2-z
-x,-y,-z
x,y,1/2-z
-x,1/2+y,z
x,1/2-y,1/2+z
loop_
_atom_site_type_symbol
_atom_site_label
_atom_site_fract_x
_atom_site_fract_y
_atom_site_fract_z
Si Si1 0.185576 0.631016 0.141476
Si Si2 0.716220 0.155270 0.559503
Si Si3 0.048202 0.914876 0.363103
Si Si4 0.211598 0.230835 0.138688
Si Si5 0.591624 0.665937 0.637283
Si Si6 0.088815 0.744174 0.858925
Si Si7 0.059671 0.456302 0.863128
Si Si8 0.810664 0.875297 0.497715
O O1 0.256761 0.624830 0.250000
O O2 0.094241 0.687852 0.136643
O O3 0.082899 0.578679 0.120746
O O4 0.300302 0.635104 0.054681
O O5 0.792566 0.106001 0.621971
O O6 0.566745 0.168721 0.602712
O O7 0.810567 0.212499 0.564215
O O8 0.002666 0.907954 0.250000
O O9 0.951338 0.875402 0.431501
O O10 0.033171 0.979653 0.398109
O O11 0.210307 0.205714 0.250000
O O12 0.344661 0.271304 0.122998
O O13 0.074123 0.270008 0.121065
O O14 0.212604 0.181734 0.058990
O O15 0.598975 0.646474 0.750000
O O16 0.677013 0.619220 0.574281
O O17 0.132689 0.722423 0.750000
O O18 0.108203 0.455229 0.750000
O O19 0.183547 0.428532 0.927694
#
# Coordination Sequence:
#
# PCOD8231808 Si02
#       8
#     8   8   8   8   8   8   8   8
#     4  10  21  37  62  93 124 157 201 263 319 372
#     4  12  23  40  62  88 124 169 213 253 313 379
#     4  11  23  39  67  96 125 162 212 266 318 378
#     4  10  21  38  60  89 125 167 206 257 315 374
#     4  11  26  42  56  85 132 172 208 255 313 374
#     4  10  19  34  60  91 121 155 205 257 309 372
#     4  10  21  40  65  97 128 157 204 268 325 376
#     4  12  21  38  63  94 120 162 211 260 311 373
#
# _framework density 20.864135999999998
#
# number of rings (size 3 to 8) (size 9 to 14) (size 15 to 20)
#    0.000    1.250    2.500    3.750    0.000    4.000 
#    0.000    3.125    0.000    0.750    0.000    0.000 
#    0.000    0.000    0.000    0.000    0.000    0.000 
#
# Total GULP energy -793474.870132 kJ/mol
# GULP energy per Si atom -12398.044846 kJ/mol
# Density = 2.081665 g / cm^3
# Si number density = 20.864136 Si / 1000 Ang^3
#
#
#
# Elastic Constant Matrix: (Units=GPa)
#
#
# Indices 1 2 3 4 5 6 
#
# 1 125.1350 42.7406 55.4198 0.0000 0.0000 0.0000
# 2 42.7406 108.4319 44.4392 0.0000 0.0000 0.0000
# 3 55.4198 44.4392 141.3585 0.0000 0.0000 0.0000
# 4 0.0000 0.0000 0.0000 32.1743 0.0000 0.0000
# 5 0.0000 0.0000 0.0000 0.0000 33.6853 0.0000
# 6 0.0000 0.0000 0.0000 0.0000 0.0000 9.6799
#
#
#
# Elastic Compliance Matrix: (Units=1/GPa)
#
#
# Indices 1 2 3 4 5 6 
#
# 1 0.010350 -0.002774 -0.003186 0.000000 0.000000 0.000000
# 2 -0.002774 0.011330 -0.002474 0.000000 0.000000 0.000000
# 3 -0.003186 -0.002474 0.009101 0.000000 0.000000 0.000000
# 4 0.000000 0.000000 0.000000 0.031081 0.000000 0.000000
# 5 0.000000 0.000000 0.000000 0.000000 0.029687 0.000000
# 6 0.000000 0.000000 0.000000 0.000000 0.000000 0.103307
#
#
# Mechanical properties :
#
#
# Convention : Reuss Voigt Hill
#
# Bulk Modulus (GPa) = 71.87570 73.34717 72.61144
# Shear Modulus (GPa) = 23.10961 30.59628 26.85294
#
# Velocity S-wave (km/s) = 3.33171 3.83358 3.59142
# Velocity P-wave (km/s) = 7.02314 7.40447 7.21633
#
# Compressibility (1/GPa) = 0.01391291
#
# Stress axis : x y z
#
# Youngs Moduli (GPa) = 96.62169 88.26263 109.87876
#
# Poissons Ratio (x) = 0.24484 0.35002
# Poissons Ratio (y) = 0.26803 0.27187
# Poissons Ratio (z) = 0.30779 0.21838
#
# Static dielectric constant tensor:
#      x y z
#    x 3.403240 0.000000 0.000000 
#    y 0.000000 3.705340 0.000000 
#    z 0.000000 0.000000 4.395500 
# 
# 
# High freq. dielectric constant tensor:
#      x y z
#    x 1.771150 0.000000 0.000000 
#    y 0.000000 1.806190 0.000000 
#    z 0.000000 0.000000 1.857290 
# 
# From -- ./inp_files/16966.got.cif
#   From: 2010.03.12/outbox.cif.g09.slc.cpg/sg57_9_cif.got.tgz:16966.got - 2010.04.16 15:48:40.
