data_PCOD8231891
_publ_section_title
;
Structure prediction by ZEFSAII (Michael W. Deem and Ramdas Pophale) SiO2 
 PCOD8231891
Probable space group: P B C M
;
_chemical_formula_sum "Si O2"
_cell_formula_units_Z 60
_cell_length_a 9.290347
_cell_length_b 27.567705
_cell_length_c 11.422150
_cell_angle_alpha 90.000000
_cell_angle_beta 90.000000
_cell_angle_gamma 90.000000
_cell_volume 2925.367333
_symmetry_space_group_name_H-M "P B C M"
_symmetry_group_IT_number 57
_symmetry_cell_setting 'orthorhombic'
loop_
_space_group_symop_operation_xyz
x,y,z
-x,-y,1/2+z
x,1/2-y,-z
-x,1/2+y,1/2-z
-x,-y,-z
x,y,1/2-z
-x,1/2+y,z
x,1/2-y,1/2+z
loop_
_atom_site_type_symbol
_atom_site_label
_atom_site_fract_x
_atom_site_fract_y
_atom_site_fract_z
Si Si1 0.525379 0.103756 0.033573
Si Si2 0.003953 0.382751 0.020776
Si Si3 0.237913 0.949630 0.115407
Si Si4 0.355949 0.750000 0.500000
Si Si5 0.579438 0.690325 0.620380
Si Si6 0.759458 0.559733 0.114741
Si Si7 0.770299 0.336820 0.876541
Si Si8 0.900567 0.717724 0.886265
O O1 0.409826 0.070576 0.099367
O O2 0.630657 0.128587 0.127408
O O3 0.623443 0.071973 0.948335
O O4 0.439401 0.145876 0.967002
O O5 0.910883 0.366965 0.909309
O O6 0.148969 0.406510 0.971735
O O7 0.909687 0.420439 0.095411
O O8 0.039663 0.336872 0.102437
O O9 0.279743 0.948159 0.250000
O O10 0.211278 0.004717 0.074973
O O11 0.457198 0.731523 0.605104
O O12 0.249931 0.706950 0.465778
O O13 0.566933 0.668709 0.750000
O O14 0.729550 0.717164 0.600808
O O15 0.803184 0.568427 0.250000
O O16 0.795024 0.314089 0.750000
O O17 0.939854 0.735636 0.750000
O O18 0.956504 0.750000 0.000000
#
# Coordination Sequence:
#
# PCOD8231891 Si02
#       8
#     8   8   8   4   8   8   8   8
#     4  10  20  38  60  88 121 155 206 258 319 368
#     4  11  23  42  61  88 127 168 205 258 315 381
#     4  10  22  40  63  90 122 163 209 263 320 384
#     4  10  20  36  56  84 114 154 210 252 316 362
#     4  10  19  35  58  84 117 154 200 253 311 367
#     4  11  22  38  63  93 124 163 211 260 321 382
#     4  10  22  38  58  84 120 162 207 254 314 379
#     4  11  24  42  63  93 125 163 213 261 315 377
#
# _framework density 20.510244
#
# number of rings (size 3 to 8) (size 9 to 14) (size 15 to 20)
#    0.000    1.600    2.000    2.800    0.933    1.067 
#    0.000    1.333    0.000    6.400    0.000    0.000 
#    0.000    0.000    0.000    0.000    0.000    0.000 
#
# Total GULP energy -743777.306775 kJ/mol
# GULP energy per Si atom -12396.288446 kJ/mol
# Density = 2.046356 g / cm^3
# Si number density = 20.510244 Si / 1000 Ang^3
#
#
#
# Elastic Constant Matrix: (Units=GPa)
#
#
# Indices 1 2 3 4 5 6 
#
# 1 82.1503 32.8216 18.7075 0.0000 0.0000 0.0000
# 2 32.8216 103.1531 33.2709 0.0000 0.0000 0.0000
# 3 18.7075 33.2709 88.1340 0.0000 0.0000 0.0000
# 4 0.0000 0.0000 0.0000 42.1986 0.0000 0.0000
# 5 0.0000 0.0000 0.0000 0.0000 -19.6910 0.0000
# 6 0.0000 0.0000 0.0000 0.0000 0.0000 29.9905
#
#
#
# Elastic Compliance Matrix: (Units=1/GPa)
#
#
# Indices 1 2 3 4 5 6 
#
# 1 0.014113 -0.004013 -0.001481 0.000000 0.000000 0.000000
# 2 -0.004013 0.012179 -0.003746 0.000000 0.000000 0.000000
# 3 -0.001481 -0.003746 0.013075 0.000000 0.000000 0.000000
# 4 0.000000 0.000000 0.000000 0.023697 0.000000 0.000000
# 5 0.000000 0.000000 0.000000 0.000000 -0.050785 0.000000
# 6 0.000000 0.000000 0.000000 0.000000 0.000000 0.033344
#
#
# Mechanical properties :
#
#
# Convention : Reuss Voigt Hill
#
# Bulk Modulus (GPa) = 47.87439 49.22639 48.55039
# Shear Modulus (GPa) = 70.35667 23.07546 46.71607
#
# Velocity S-wave (km/s) = 5.86325 3.35784 4.77770
# Velocity P-wave (km/s) = 8.32041 6.25192 7.35920
#
# Compressibility (1/GPa) = 0.02088799
#
# Stress axis : x y z
#
# Youngs Moduli (GPa) = 70.85491 82.10572 76.48306
#
# Poissons Ratio (x) = 0.32949 0.11326
# Poissons Ratio (y) = 0.28434 0.28650
# Poissons Ratio (z) = 0.10492 0.30757
#
# Static dielectric constant tensor:
#      x y z
#    x 3.711690 0.000000 0.000000 
#    y 0.000000 3.755710 0.000000 
#    z 0.000000 0.000000 3.661390 
# 
# 
# High freq. dielectric constant tensor:
#      x y z
#    x 1.812100 0.000000 0.000000 
#    y 0.000000 1.803210 0.000000 
#    z 0.000000 0.000000 1.797970 
# 
# From -- ./inp_files/12177.got.cif
#   From: 2010.03.12/outbox.cif.g09.slc.cpg/sg57_7_cif.got.tgz:12177.got - 2010.04.16 15:48:40.
