data_PCOD8231559
_publ_section_title
;
Structure prediction by ZEFSAII (Michael W. Deem and Ramdas Pophale) SiO2 
 PCOD8231559
Probable space group: P B C M
;
_chemical_formula_sum "Si O2"
_cell_formula_units_Z 48
_cell_length_a 8.996491
_cell_length_b 18.356007
_cell_length_c 15.559058
_cell_angle_alpha 90.000000
_cell_angle_beta 90.000000
_cell_angle_gamma 90.000000
_cell_volume 2569.417420
_symmetry_space_group_name_H-M "P B C M"
_symmetry_group_IT_number 57
_symmetry_cell_setting 'orthorhombic'
loop_
_space_group_symop_operation_xyz
x,y,z
-x,-y,1/2+z
x,1/2-y,-z
-x,1/2+y,1/2-z
-x,-y,-z
x,y,1/2-z
-x,1/2+y,z
x,1/2-y,1/2+z
loop_
_atom_site_type_symbol
_atom_site_label
_atom_site_fract_x
_atom_site_fract_y
_atom_site_fract_z
Si Si1 0.074321 0.577635 0.506508
Si Si2 0.411274 0.676757 0.155640
Si Si3 0.080496 0.171240 0.849037
Si Si4 0.075044 0.821915 0.652382
Si Si5 0.423186 0.922475 0.501272
Si Si6 0.397447 0.201457 0.916816
O O1 0.031053 0.617753 0.417603
O O2 0.249884 0.569192 0.518759
O O3 0.000000 0.500000 0.500000
O O4 0.012511 0.618469 0.589922
O O5 0.425624 0.643535 0.250000
O O6 0.243978 0.703965 0.136205
O O7 0.454318 0.610149 0.095057
O O8 0.517874 0.746129 0.148958
O O9 0.057370 0.146879 0.750000
O O10 0.252787 0.167508 0.873436
O O11 0.029926 0.253664 0.863633
O O12 0.054619 0.852474 0.750000
O O13 0.495358 0.866822 0.434018
O O14 0.500000 0.000000 0.500000
O O15 0.357845 0.250000 0.000000
#
# Coordination Sequence:
#
# PCOD8231559 Si02
#       6
#     8   8   8   8   8   8
#     4  11  22  37  57  80 113 150 182 225 275 328
#     4   9  18  35  57  81 106 137 177 224 273 326
#     4  11  22  36  56  83 110 142 184 229 273 323
#     4   9  19  36  59  82 107 140 181 225 275 330
#     4  10  21  37  55  79 110 147 184 219 272 330
#     4  10  19  33  56  81 109 142 179 224 271 323
#
# _framework density 18.681277999999999
#
# number of rings (size 3 to 8) (size 9 to 14) (size 15 to 20)
#    0.000    2.000    0.000    4.000    0.000    4.667 
#    0.000    6.667    0.000    0.000    0.000    0.000 
#    0.000    0.000    0.000    0.000    0.000    0.000 
#
# Total GULP energy -595221.432659 kJ/mol
# GULP energy per Si atom -12400.446514 kJ/mol
# Density = 1.863876 g / cm^3
# Si number density = 18.681278 Si / 1000 Ang^3
#
#
#
# Elastic Constant Matrix: (Units=GPa)
#
#
# Indices 1 2 3 4 5 6 
#
# 1 121.7067 69.9612 59.2586 0.0000 0.0000 0.0000
# 2 69.9612 127.8967 72.1514 0.0000 0.0000 0.0000
# 3 59.2586 72.1514 125.8880 0.0000 0.0000 0.0000
# 4 0.0000 0.0000 0.0000 20.6880 0.0000 0.0000
# 5 0.0000 0.0000 0.0000 0.0000 29.9326 0.0000
# 6 0.0000 0.0000 0.0000 0.0000 0.0000 39.2561
#
#
#
# Elastic Compliance Matrix: (Units=1/GPa)
#
#
# Indices 1 2 3 4 5 6 
#
# 1 0.012684 -0.005276 -0.002947 0.000000 0.000000 0.000000
# 2 -0.005276 0.013749 -0.005397 0.000000 0.000000 0.000000
# 3 -0.002947 -0.005397 0.012424 0.000000 0.000000 0.000000
# 4 0.000000 0.000000 0.000000 0.048337 0.000000 0.000000
# 5 0.000000 0.000000 0.000000 0.000000 0.033408 0.000000
# 6 0.000000 0.000000 0.000000 0.000000 0.000000 0.025474
#
#
# Mechanical properties :
#
#
# Convention : Reuss Voigt Hill
#
# Bulk Modulus (GPa) = 86.07251 86.47043 86.27147
# Shear Modulus (GPa) = 28.21853 29.58334 28.90093
#
# Velocity S-wave (km/s) = 3.89076 3.98374 3.93753
# Velocity P-wave (km/s) = 8.14606 8.21876 8.18249
#
# Compressibility (1/GPa) = 0.01161811
#
# Stress axis : x y z
#
# Youngs Moduli (GPa) = 78.83904 72.73072 80.49032
#
# Poissons Ratio (x) = 0.38372 0.23719
# Poissons Ratio (y) = 0.41595 0.43439
# Poissons Ratio (z) = 0.23233 0.39251
#
# Static dielectric constant tensor:
#      x y z
#    x 3.541580 0.000000 0.000000 
#    y 0.000000 3.261480 0.000000 
#    z 0.000000 0.000000 3.825150 
# 
# 
# High freq. dielectric constant tensor:
#      x y z
#    x 1.737580 0.000000 0.000000 
#    y 0.000000 1.714570 0.000000 
#    z 0.000000 0.000000 1.733170 
# 
# From -- ./inp_files/16354.got.cif
#   From: 2010.03.12/outbox.cif.g09.slc.cpg/sg57_9_cif.got.tgz:16354.got - 2010.04.16 15:48:40.
