data_PCOD8231141
_publ_section_title
;
Structure prediction by ZEFSAII (Michael W. Deem and Ramdas Pophale) SiO2 
 PCOD8231141
Probable space group: P B C M
;
_chemical_formula_sum "Si O2"
_cell_formula_units_Z 56
_cell_length_a 14.812806
_cell_length_b 20.977498
_cell_length_c 9.036203
_cell_angle_alpha 90.000000
_cell_angle_beta 90.000000
_cell_angle_gamma 90.000000
_cell_volume 2807.870035
_symmetry_space_group_name_H-M "P B C M"
_symmetry_group_IT_number 57
_symmetry_cell_setting 'orthorhombic'
loop_
_space_group_symop_operation_xyz
x,y,z
-x,-y,1/2+z
x,1/2-y,-z
-x,1/2+y,1/2-z
-x,-y,-z
x,y,1/2-z
-x,1/2+y,z
x,1/2-y,1/2+z
loop_
_atom_site_type_symbol
_atom_site_label
_atom_site_fract_x
_atom_site_fract_y
_atom_site_fract_z
Si Si1 0.736929 0.512352 0.579478
Si Si2 0.055455 0.311221 0.587295
Si Si3 0.155790 0.690624 0.086302
Si Si4 0.547430 0.184798 0.581151
Si Si5 0.722574 0.109212 0.918954
Si Si6 0.923024 0.545045 0.427696
Si Si7 0.547025 0.940646 0.421348
O O1 0.767774 0.505470 0.750000
O O2 0.688013 0.449080 0.517995
O O3 0.823703 0.524257 0.477556
O O4 0.656261 0.563415 0.562177
O O5 0.096994 0.250000 0.500000
O O6 0.100191 0.309766 0.750000
O O7 0.070038 0.381267 0.515422
O O8 0.949741 0.301301 0.600941
O O9 0.199400 0.686121 0.250000
O O10 0.198594 0.750000 0.000000
O O11 0.180971 0.628960 0.989273
O O12 0.524321 0.250000 0.500000
O O13 0.519923 0.195477 0.750000
O O14 0.652862 0.167300 0.565521
O O15 0.489575 0.126187 0.513377
O O16 0.736765 0.087977 0.750000
O O17 0.933600 0.541196 0.250000
O O18 0.000000 0.500000 0.500000
O O19 0.518364 0.946456 0.250000
O O20 0.500000 0.000000 0.500000
#
# Coordination Sequence:
#
# PCOD8231141 Si02
#       7
#     8   8   8   8   8   8   8
#     4  11  23  38  60  88 117 156 202 249 307 367
#     4   9  20  37  57  80 109 151 198 246 299 357
#     4  10  19  32  50  76 111 148 192 239 295 365
#     4  10  22  38  57  85 119 155 198 248 304 363
#     4  11  21  34  54  81 115 152 195 246 302 366
#     4  11  23  40  62  91 126 161 204 256 308 366
#     4  10  21  40  63  87 117 155 201 249 297 357
#
# _framework density 19.943943999999998
#
# number of rings (size 3 to 8) (size 9 to 14) (size 15 to 20)
#    0.000    1.714    1.429    3.000    0.000    6.286 
#    0.000    0.714    0.000    3.429    0.000    0.000 
#    0.000    0.000    0.000    0.000    0.000    0.000 
#
# Total GULP energy -694006.425963 kJ/mol
# GULP energy per Si atom -12392.971892 kJ/mol
# Density = 1.989855 g / cm^3
# Si number density = 19.943944 Si / 1000 Ang^3
#
#
#
# Elastic Constant Matrix: (Units=GPa)
#
#
# Indices 1 2 3 4 5 6 
#
# 1 69.1613 33.4354 32.3938 0.0000 0.0000 0.0000
# 2 33.4354 152.1967 51.5369 0.0000 0.0000 0.0000
# 3 32.3938 51.5369 87.7083 0.0000 0.0000 0.0000
# 4 0.0000 0.0000 0.0000 36.4107 0.0000 0.0000
# 5 0.0000 0.0000 0.0000 0.0000 22.2599 0.0000
# 6 0.0000 0.0000 0.0000 0.0000 0.0000 28.8914
#
#
#
# Elastic Compliance Matrix: (Units=1/GPa)
#
#
# Indices 1 2 3 4 5 6 
#
# 1 0.018019 -0.002129 -0.005404 0.000000 0.000000 0.000000
# 2 -0.002129 0.008454 -0.004181 0.000000 0.000000 0.000000
# 3 -0.005404 -0.004181 0.015854 0.000000 0.000000 0.000000
# 4 0.000000 0.000000 0.000000 0.027464 0.000000 0.000000
# 5 0.000000 0.000000 0.000000 0.000000 0.044924 0.000000
# 6 0.000000 0.000000 0.000000 0.000000 0.000000 0.034612
#
#
# Mechanical properties :
#
#
# Convention : Reuss Voigt Hill
#
# Bulk Modulus (GPa) = 52.91283 60.42206 56.66744
# Shear Modulus (GPa) = 27.92411 30.29241 29.10826
#
# Velocity S-wave (km/s) = 3.74589 3.90151 3.82449
# Velocity P-wave (km/s) = 6.73033 7.11740 6.92657
#
# Compressibility (1/GPa) = 0.01889901
#
# Stress axis : x y z
#
# Youngs Moduli (GPa) = 55.49598 118.28808 63.07382
#
# Poissons Ratio (x) = 0.25178 0.34088
# Poissons Ratio (y) = 0.11812 0.26373
# Poissons Ratio (z) = 0.29993 0.49460
#
# Static dielectric constant tensor:
#      x y z
#    x 3.406990 0.000000 0.000000 
#    y 0.000000 3.881850 0.000000 
#    z 0.000000 0.000000 3.845250 
# 
# 
# High freq. dielectric constant tensor:
#      x y z
#    x 1.759060 0.000000 0.000000 
#    y 0.000000 1.782460 0.000000 
#    z 0.000000 0.000000 1.781270 
# 
# From -- ./inp_files/5110.got.cif
#   From: 2010.03.12/outbox.cif.g09.slc.cpg/sg57_3_cif.got.tgz:5110.got - 2010.04.16 15:48:40.
