data_PCOD8231855
_publ_section_title
;
Structure prediction by ZEFSAII (Michael W. Deem and Ramdas Pophale) SiO2 
 PCOD8231855
Probable space group: P B C M
;
_chemical_formula_sum "Si O2"
_cell_formula_units_Z 64
_cell_length_a 19.922356
_cell_length_b 19.968790
_cell_length_c 8.910988
_cell_angle_alpha 90.000000
_cell_angle_beta 90.000000
_cell_angle_gamma 90.000000
_cell_volume 3545.016860
_symmetry_space_group_name_H-M "P B C M"
_symmetry_group_IT_number 57
_symmetry_cell_setting 'orthorhombic'
loop_
_space_group_symop_operation_xyz
x,y,z
-x,-y,1/2+z
x,1/2-y,-z
-x,1/2+y,1/2-z
-x,-y,-z
x,y,1/2-z
-x,1/2+y,z
x,1/2-y,1/2+z
loop_
_atom_site_type_symbol
_atom_site_label
_atom_site_fract_x
_atom_site_fract_y
_atom_site_fract_z
Si Si1 0.931813 0.819730 0.073749
Si Si2 0.309684 0.930999 0.071544
Si Si3 0.331836 0.081746 0.426546
Si Si4 0.802307 0.604695 0.576537
Si Si5 0.402071 0.680229 0.072450
Si Si6 0.555779 0.818485 0.574134
Si Si7 0.966248 0.064375 0.572462
Si Si8 0.172164 0.950549 0.574930
O O1 0.927872 0.810256 0.250000
O O2 0.859754 0.845964 0.014014
O O3 0.989221 0.871885 0.029848
O O4 0.950762 0.750000 0.000000
O O5 0.308379 0.923156 0.250000
O O6 0.334666 0.004693 0.019951
O O7 0.360311 0.879016 0.999662
O O8 0.235994 0.917084 0.005727
O O9 0.326248 0.084922 0.250000
O O10 0.266447 0.119126 0.489981
O O11 0.398230 0.120179 0.484278
O O12 0.787871 0.617361 0.750000
O O13 0.828394 0.529823 0.548839
O O14 0.390468 0.683119 0.250000
O O15 0.479297 0.665729 0.029595
O O16 0.378350 0.750000 0.000000
O O17 0.581071 0.750000 0.500000
O O18 0.563462 0.808844 0.750000
O O19 0.961004 0.053188 0.750000
O O20 0.893667 0.079246 0.502676
O O21 0.000000 0.000000 0.500000
O O22 0.173199 0.931778 0.750000
#
# Coordination Sequence:
#
# PCOD8231855 Si02
#       8
#     8   8   8   8   8   8   8   8
#     4  10  22  38  53  77 111 144 180 224 269 321
#     4  10  20  35  55  82 112 142 179 225 273 327
#     4   9  19  34  52  78 110 143 180 223 268 320
#     4   9  18  34  52  74 106 140 176 219 264 318
#     4  10  20  36  57  79 105 142 182 226 277 330
#     4   9  19  35  53  75 106 142 184 226 270 325
#     4  11  21  36  58  83 109 141 183 228 274 328
#     4  10  19  35  57  82 109 138 179 226 271 322
#
# _framework density 18.053509999999999
#
# number of rings (size 3 to 8) (size 9 to 14) (size 15 to 20)
#    0.000    2.250    1.250    1.500    0.000    4.500 
#    0.000    3.125    0.000    1.500    0.000    0.000 
#    0.000    0.000    0.000    0.000    0.000    0.000 
#
# Total GULP energy -793730.681503 kJ/mol
# GULP energy per Si atom -12402.041898 kJ/mol
# Density = 1.801242 g / cm^3
# Si number density = 18.053510 Si / 1000 Ang^3
#
#
#
# Elastic Constant Matrix: (Units=GPa)
#
#
# Indices 1 2 3 4 5 6 
#
# 1 142.8313 86.5514 53.7804 0.0000 0.0000 0.0000
# 2 86.5514 117.6941 52.0886 0.0000 0.0000 0.0000
# 3 53.7804 52.0886 64.9884 0.0000 0.0000 0.0000
# 4 0.0000 0.0000 0.0000 30.1168 0.0000 0.0000
# 5 0.0000 0.0000 0.0000 0.0000 33.1152 0.0000
# 6 0.0000 0.0000 0.0000 0.0000 0.0000 20.3500
#
#
#
# Elastic Compliance Matrix: (Units=1/GPa)
#
#
# Indices 1 2 3 4 5 6 
#
# 1 0.013611 -0.007786 -0.005023 0.000000 0.000000 0.000000
# 2 -0.007786 0.017622 -0.007680 0.000000 0.000000 0.000000
# 3 -0.005023 -0.007680 0.025700 0.000000 0.000000 0.000000
# 4 0.000000 0.000000 0.000000 0.033204 0.000000 0.000000
# 5 0.000000 0.000000 0.000000 0.000000 0.030198 0.000000
# 6 0.000000 0.000000 0.000000 0.000000 0.000000 0.049140
#
#
# Mechanical properties :
#
#
# Convention : Reuss Voigt Hill
#
# Bulk Modulus (GPa) = 62.68261 78.92829 70.80545
# Shear Modulus (GPa) = 23.17276 25.58929 24.38103
#
# Velocity S-wave (km/s) = 3.58657 3.76894 3.67888
# Velocity P-wave (km/s) = 7.20743 7.92173 7.57301
#
# Compressibility (1/GPa) = 0.01595339
#
# Stress axis : x y z
#
# Youngs Moduli (GPa) = 73.47156 56.74780 38.91096
#
# Poissons Ratio (x) = 0.44186 0.19543
# Poissons Ratio (y) = 0.57207 0.29886
# Poissons Ratio (z) = 0.36902 0.43585
#
# Static dielectric constant tensor:
#      x y z
#    x 3.641740 0.000000 0.000000 
#    y 0.000000 3.089530 0.000000 
#    z 0.000000 0.000000 3.349090 
# 
# 
# High freq. dielectric constant tensor:
#      x y z
#    x 1.708150 0.000000 0.000000 
#    y 0.000000 1.687580 0.000000 
#    z 0.000000 0.000000 1.703440 
# 
# From -- ./inp_files/7167.got.cif
#   From: 2010.03.12/outbox.cif.g09.slc.cpg/sg57_4_cif.got.tgz:7167.got - 2010.04.16 15:48:40.
