data_PCOD8231977
_publ_section_title
;
Structure prediction by ZEFSAII (Michael W. Deem and Ramdas Pophale) SiO2 
 PCOD8231977
Probable space group: P B C M
;
_chemical_formula_sum "Si O2"
_cell_formula_units_Z 48
_cell_length_a 15.718178
_cell_length_b 8.680515
_cell_length_c 16.108334
_cell_angle_alpha 90.000000
_cell_angle_beta 90.000000
_cell_angle_gamma 90.000000
_cell_volume 2197.851373
_symmetry_space_group_name_H-M "P B C M"
_symmetry_group_IT_number 57
_symmetry_cell_setting 'orthorhombic'
loop_
_space_group_symop_operation_xyz
x,y,z
-x,-y,1/2+z
x,1/2-y,-z
-x,1/2+y,1/2-z
-x,-y,-z
x,y,1/2-z
-x,1/2+y,z
x,1/2-y,1/2+z
loop_
_atom_site_type_symbol
_atom_site_label
_atom_site_fract_x
_atom_site_fract_y
_atom_site_fract_z
Si Si1 0.581057 0.168105 0.653995
Si Si2 0.917699 0.324989 0.409092
Si Si3 0.910711 0.810191 0.592446
Si Si4 0.587193 0.827002 0.650925
Si Si5 0.751235 0.856564 0.154185
Si Si6 0.251540 0.688742 0.407080
O O1 0.561022 0.147143 0.750000
O O2 0.498765 0.251028 0.614125
O O3 0.664154 0.272367 0.643864
O O4 0.594153 0.999656 0.613659
O O5 0.914915 0.250000 0.500000
O O6 0.920036 0.507578 0.410317
O O7 0.830936 0.269396 0.364018
O O8 0.003619 0.261524 0.365990
O O9 0.897061 0.750000 0.500000
O O10 0.831114 0.758379 0.647556
O O11 0.586798 0.832910 0.750000
O O12 0.668138 0.730664 0.619964
O O13 0.740355 0.906739 0.250000
O O14 0.763780 0.005580 0.096093
O O15 0.264056 0.750000 0.500000
#
# Coordination Sequence:
#
# PCOD8231977 Si02
#       6
#     8   8   8   8   8   8
#     4  10  19  36  59  83 112 152 198 248 300 362
#     4  10  20  36  59  86 117 154 196 235 288 357
#     4  11  20  37  62  86 115 154 198 241 286 351
#     4   9  19  35  58  83 111 150 194 236 301 376
#     4  11  23  40  60  88 122 158 199 252 309 362
#     4  11  22  38  58  86 119 158 204 248 299 360
#
# _framework density 21.839511999999999
#
# number of rings (size 3 to 8) (size 9 to 14) (size 15 to 20)
#    0.000    1.667    0.000    7.500    0.000    2.667 
#    0.000    9.167    0.000    0.000    0.000    0.000 
#    0.000    0.000    0.000    0.000    0.000    0.000 
#
# Total GULP energy -595183.207226 kJ/mol
# GULP energy per Si atom -12399.650151 kJ/mol
# Density = 2.178980 g / cm^3
# Si number density = 21.839512 Si / 1000 Ang^3
#
#
#
# Elastic Constant Matrix: (Units=GPa)
#
#
# Indices 1 2 3 4 5 6 
#
# 1 209.7772 77.4124 4.7139 0.0000 0.0000 0.0000
# 2 77.4124 202.0937 10.6800 0.0000 0.0000 0.0000
# 3 4.7139 10.6800 23.7104 0.0000 0.0000 0.0000
# 4 0.0000 0.0000 0.0000 26.3988 0.0000 0.0000
# 5 0.0000 0.0000 0.0000 0.0000 21.6702 0.0000
# 6 0.0000 0.0000 0.0000 0.0000 0.0000 45.7719
#
#
#
# Elastic Compliance Matrix: (Units=1/GPa)
#
#
# Indices 1 2 3 4 5 6 
#
# 1 0.005552 -0.002119 -0.000149 0.000000 0.000000 0.000000
# 2 -0.002119 0.005877 -0.002226 0.000000 0.000000 0.000000
# 3 -0.000149 -0.002226 0.043208 0.000000 0.000000 0.000000
# 4 0.000000 0.000000 0.000000 0.037881 0.000000 0.000000
# 5 0.000000 0.000000 0.000000 0.000000 0.046146 0.000000
# 6 0.000000 0.000000 0.000000 0.000000 0.000000 0.021847
#
#
# Mechanical properties :
#
#
# Convention : Reuss Voigt Hill
#
# Bulk Modulus (GPa) = 21.90636 69.02154 45.46395
# Shear Modulus (GPa) = 27.06837 41.61984 34.34411
#
# Velocity S-wave (km/s) = 3.52436 4.37018 3.96986
# Velocity P-wave (km/s) = 5.15886 7.55892 6.47113
#
# Compressibility (1/GPa) = 0.04564884
#
# Stress axis : x y z
#
# Youngs Moduli (GPa) = 180.10743 170.14051 23.14382
#
# Poissons Ratio (x) = 0.36051 0.00346
# Poissons Ratio (y) = 0.38163 0.05152
# Poissons Ratio (z) = 0.02691 0.37876
#
# Static dielectric constant tensor:
#      x y z
#    x 4.628050 0.000000 0.000000 
#    y 0.000000 4.096820 0.000000 
#    z 0.000000 0.000000 3.363450 
# 
# 
# High freq. dielectric constant tensor:
#      x y z
#    x 1.886620 0.000000 0.000000 
#    y 0.000000 1.876060 0.000000 
#    z 0.000000 0.000000 1.803990 
# 
# From -- ./inp_files/22445.got.cif
#   From: 2010.03.12/outbox.cif.g09.slc.cpg/sg57_12_cif.got.tgz:22445.got - 2010.04.16 15:48:40.
