data_PCOD8231724
_publ_section_title
;
Structure prediction by ZEFSAII (Michael W. Deem and Ramdas Pophale) SiO2 
 PCOD8231724
Probable space group: P B C M
;
_chemical_formula_sum "Si O2"
_cell_formula_units_Z 64
_cell_length_a 11.902527
_cell_length_b 30.790890
_cell_length_c 8.919800
_cell_angle_alpha 90.000000
_cell_angle_beta 90.000000
_cell_angle_gamma 90.000000
_cell_volume 3269.012146
_symmetry_space_group_name_H-M "P B C M"
_symmetry_group_IT_number 57
_symmetry_cell_setting 'orthorhombic'
loop_
_space_group_symop_operation_xyz
x,y,z
-x,-y,1/2+z
x,1/2-y,-z
-x,1/2+y,1/2-z
-x,-y,-z
x,y,1/2-z
-x,1/2+y,z
x,1/2-y,1/2+z
loop_
_atom_site_type_symbol
_atom_site_label
_atom_site_fract_x
_atom_site_fract_y
_atom_site_fract_z
Si Si1 0.241436 0.052342 0.575949
Si Si2 0.230644 0.793358 0.927254
Si Si3 0.775891 0.454647 0.576027
Si Si4 0.625292 0.627183 0.427667
Si Si5 0.988526 0.323611 0.074787
Si Si6 0.629574 0.375715 0.572094
Si Si7 0.238363 0.295133 0.426578
Si Si8 0.993309 0.076667 0.925504
O O1 0.254446 0.066080 0.750000
O O2 0.321239 0.081472 0.474119
O O3 0.113571 0.058754 0.522768
O O4 0.275850 0.002328 0.548913
O O5 0.235989 0.789409 0.750000
O O6 0.302835 0.833914 0.987628
O O7 0.282967 0.750000 0.000000
O O8 0.101937 0.797566 0.978529
O O9 0.795021 0.445642 0.750000
O O10 0.690027 0.419031 0.507909
O O11 0.897696 0.451795 0.502080
O O12 0.633458 0.633067 0.250000
O O13 0.497380 0.626614 0.486340
O O14 0.686758 0.666724 0.507077
O O15 0.961720 0.318173 0.250000
O O16 0.109339 0.304324 0.033390
O O17 0.983866 0.373498 0.024117
O O18 0.630573 0.376962 0.750000
O O19 0.276617 0.250000 0.500000
O O20 0.258258 0.293067 0.250000
O O21 0.978206 0.071617 0.750000
#
# Coordination Sequence:
#
# PCOD8231724 Si02
#       8
#     8   8   8   8   8   8   8   8
#     4  10  21  38  59  86 120 154 189 237 292 343
#     4  11  22  38  60  85 117 150 190 234 285 345
#     4  10  20  37  61  86 116 154 193 234 289 350
#     4  11  23  40  61  83 114 154 199 243 286 336
#     4  10  20  36  59  86 119 151 183 230 284 341
#     4   9  21  40  58  82 114 150 193 245 288 334
#     4  11  23  41  62  88 121 152 190 236 290 345
#     4  10  19  34  56  86 122 150 183 235 289 343
#
# _framework density 19.577780000000001
#
# number of rings (size 3 to 8) (size 9 to 14) (size 15 to 20)
#    0.000    1.750    2.500    1.875    0.000    4.000 
#    0.000    5.000    0.000    0.000    0.000    0.000 
#    0.000    0.000    0.000    0.000    0.000    0.000 
#
# Total GULP energy -793853.389810 kJ/mol
# GULP energy per Si atom -12403.959216 kJ/mol
# Density = 1.953322 g / cm^3
# Si number density = 19.577780 Si / 1000 Ang^3
#
#
#
# Elastic Constant Matrix: (Units=GPa)
#
#
# Indices 1 2 3 4 5 6 
#
# 1 136.9278 67.6046 44.6022 0.0000 0.0000 0.0000
# 2 67.6046 141.3252 39.0975 0.0000 0.0000 0.0000
# 3 44.6022 39.0975 54.9006 0.0000 0.0000 0.0000
# 4 0.0000 0.0000 0.0000 32.4647 0.0000 0.0000
# 5 0.0000 0.0000 0.0000 0.0000 13.8078 0.0000
# 6 0.0000 0.0000 0.0000 0.0000 0.0000 6.0124
#
#
#
# Elastic Compliance Matrix: (Units=1/GPa)
#
#
# Indices 1 2 3 4 5 6 
#
# 1 0.011189 -0.003534 -0.006574 0.000000 0.000000 0.000000
# 2 -0.003534 0.009928 -0.004199 0.000000 0.000000 0.000000
# 3 -0.006574 -0.004199 0.026546 0.000000 0.000000 0.000000
# 4 0.000000 0.000000 0.000000 0.030803 0.000000 0.000000
# 5 0.000000 0.000000 0.000000 0.000000 0.072423 0.000000
# 6 0.000000 0.000000 0.000000 0.000000 0.000000 0.166324
#
#
# Mechanical properties :
#
#
# Convention : Reuss Voigt Hill
#
# Bulk Modulus (GPa) = 52.49499 70.64023 61.56761
# Shear Modulus (GPa) = 14.19745 22.58026 18.38885
#
# Velocity S-wave (km/s) = 2.69584 3.39980 3.06808
# Velocity P-wave (km/s) = 6.04664 7.18134 6.63828
#
# Compressibility (1/GPa) = 0.01904944
#
# Stress axis : x y z
#
# Youngs Moduli (GPa) = 89.37249 100.72436 37.67079
#
# Poissons Ratio (x) = 0.35595 0.24763
# Poissons Ratio (y) = 0.31583 0.15819
# Poissons Ratio (z) = 0.58750 0.42297
#
# Static dielectric constant tensor:
#      x y z
#    x 3.611260 0.000000 0.000000 
#    y 0.000000 3.808910 0.000000 
#    z 0.000000 0.000000 3.371490 
# 
# 
# High freq. dielectric constant tensor:
#      x y z
#    x 1.758860 0.000000 0.000000 
#    y 0.000000 1.781380 0.000000 
#    z 0.000000 0.000000 1.747740 
# 
# From -- ./inp_files/3743.got.cif
#   From: 2010.03.12/outbox.cif.g09.slc.cpg/sg57_2_cif.got.tgz:3743.got - 2010.04.16 15:48:40.
