data_PCOD8231998
_publ_section_title
;
Structure prediction by ZEFSAII (Michael W. Deem and Ramdas Pophale) SiO2 
 PCOD8231998
Probable space group: P B C M
;
_chemical_formula_sum "Si O2"
_cell_formula_units_Z 64
_cell_length_a 15.291550
_cell_length_b 23.591855
_cell_length_c 8.890774
_cell_angle_alpha 90.000000
_cell_angle_beta 90.000000
_cell_angle_gamma 90.000000
_cell_volume 3207.400335
_symmetry_space_group_name_H-M "P B C M"
_symmetry_group_IT_number 57
_symmetry_cell_setting 'orthorhombic'
loop_
_space_group_symop_operation_xyz
x,y,z
-x,-y,1/2+z
x,1/2-y,-z
-x,1/2+y,1/2-z
-x,-y,-z
x,y,1/2-z
-x,1/2+y,z
x,1/2-y,1/2+z
loop_
_atom_site_type_symbol
_atom_site_label
_atom_site_fract_x
_atom_site_fract_y
_atom_site_fract_z
Si Si1 0.838871 0.504453 0.578901
Si Si2 0.584751 0.123001 0.573530
Si Si3 0.243760 0.310146 0.928490
Si Si4 0.407850 0.114671 0.072926
Si Si5 0.655962 0.004906 0.572258
Si Si6 0.094543 0.882614 0.575784
Si Si7 0.244078 0.689488 0.927476
Si Si8 0.085636 0.375050 0.073088
O O1 0.805221 0.508590 0.750000
O O2 0.756253 0.499572 0.472409
O O3 0.901136 0.450390 0.556176
O O4 0.893436 0.559860 0.533601
O O5 0.570974 0.118179 0.750000
O O6 0.493760 0.142321 0.500193
O O7 0.657714 0.169555 0.533473
O O8 0.613039 0.061888 0.505013
O O9 0.235350 0.305261 0.750000
O O10 0.322684 0.350945 0.978314
O O11 0.264882 0.250000 0.000000
O O12 0.154319 0.333873 0.994924
O O13 0.419235 0.117367 0.250000
O O14 0.397085 0.050014 0.014331
O O15 0.654624 0.007406 0.750000
O O16 0.092144 0.864792 0.750000
O O17 0.178725 0.855813 0.497736
O O18 0.008507 0.859442 0.494031
O O19 0.228376 0.692516 0.750000
O O20 0.226596 0.750000 0.000000
O O21 0.085534 0.363254 0.250000
#
# Coordination Sequence:
#
# PCOD8231998 Si02
#       8
#     8   8   8   8   8   8   8   8
#     4  10  21  36  60  93 125 159 197 241 297 358
#     4  10  22  38  61  90 122 159 199 245 300 358
#     4  11  24  43  64  88 119 159 205 255 304 355
#     4  10  22  38  61  90 122 159 199 245 300 358
#     4  10  19  36  60  89 123 159 197 243 299 360
#     4  11  23  40  63  93 125 160 200 245 299 359
#     4  11  24  43  64  88 119 159 205 255 304 355
#     4  11  23  40  63  93 125 160 200 245 299 359
#
# _framework density 19.953855000000001
#
# number of rings (size 3 to 8) (size 9 to 14) (size 15 to 20)
#    0.000    1.500    2.500    2.250    0.000    5.000 
#    0.000    5.000    0.000    0.000    0.000    0.000 
#    0.000    0.000    0.000    0.000    0.000    0.000 
#
# Total GULP energy -793896.006650 kJ/mol
# GULP energy per Si atom -12404.625104 kJ/mol
# Density = 1.990844 g / cm^3
# Si number density = 19.953855 Si / 1000 Ang^3
#
#
#
# Elastic Constant Matrix: (Units=GPa)
#
#
# Indices 1 2 3 4 5 6 
#
# 1 105.7886 2.7050 36.7556 0.0000 0.0000 0.0000
# 2 2.7050 72.2701 27.3677 0.0000 0.0000 0.0000
# 3 36.7556 27.3677 64.3224 0.0000 0.0000 0.0000
# 4 0.0000 0.0000 0.0000 27.8616 0.0000 0.0000
# 5 0.0000 0.0000 0.0000 0.0000 39.5513 0.0000
# 6 0.0000 0.0000 0.0000 0.0000 0.0000 17.5026
#
#
#
# Elastic Compliance Matrix: (Units=1/GPa)
#
#
# Indices 1 2 3 4 5 6 
#
# 1 0.012191 0.002601 -0.008073 0.000000 0.000000 0.000000
# 2 0.002601 0.017049 -0.008740 0.000000 0.000000 0.000000
# 3 -0.008073 -0.008740 0.023879 0.000000 0.000000 0.000000
# 4 0.000000 0.000000 0.000000 0.035892 0.000000 0.000000
# 5 0.000000 0.000000 0.000000 0.000000 0.025284 0.000000
# 6 0.000000 0.000000 0.000000 0.000000 0.000000 0.057134
#
#
# Mechanical properties :
#
#
# Convention : Reuss Voigt Hill
#
# Bulk Modulus (GPa) = 40.49515 41.78196 41.13855
# Shear Modulus (GPa) = 24.02861 28.68663 26.35762
#
# Velocity S-wave (km/s) = 3.47394 3.79575 3.63840
# Velocity P-wave (km/s) = 6.03568 6.33995 6.18969
#
# Compressibility (1/GPa) = 0.02469432
#
# Stress axis : x y z
#
# Youngs Moduli (GPa) = 82.02629 58.65289 41.87850
#
# Poissons Ratio (x) = -0.15255 0.33808
# Poissons Ratio (y) = -0.21334 0.36603
# Poissons Ratio (z) = 0.66220 0.51264
#
# Static dielectric constant tensor:
#      x y z
#    x 3.608090 0.000000 0.000000 
#    y 0.000000 3.776370 0.000000 
#    z 0.000000 0.000000 3.584640 
# 
# 
# High freq. dielectric constant tensor:
#      x y z
#    x 1.786500 0.000000 0.000000 
#    y 0.000000 1.780420 0.000000 
#    z 0.000000 0.000000 1.778580 
# 
# From -- ./inp_files/5633.got.cif
#   From: 2010.03.12/outbox.cif.g09.slc.cpg/sg57_3_cif.got.tgz:5633.got - 2010.04.16 15:48:40.
