data_PCOD8231129
_publ_section_title
;
Structure prediction by ZEFSAII (Michael W. Deem and Ramdas Pophale) SiO2 
 PCOD8231129
Probable space group: P B C M
;
_chemical_formula_sum "Si O2"
_cell_formula_units_Z 48
_cell_length_a 13.974174
_cell_length_b 21.382024
_cell_length_c 8.723116
_cell_angle_alpha 90.000000
_cell_angle_beta 90.000000
_cell_angle_gamma 90.000000
_cell_volume 2606.433249
_symmetry_space_group_name_H-M "P B C M"
_symmetry_group_IT_number 57
_symmetry_cell_setting 'orthorhombic'
loop_
_space_group_symop_operation_xyz
x,y,z
-x,-y,1/2+z
x,1/2-y,-z
-x,1/2+y,1/2-z
-x,-y,-z
x,y,1/2-z
-x,1/2+y,z
x,1/2-y,1/2+z
loop_
_atom_site_type_symbol
_atom_site_label
_atom_site_fract_x
_atom_site_fract_y
_atom_site_fract_z
Si Si1 0.970356 0.434410 0.569042
Si Si2 0.769503 0.034022 0.080595
Si Si3 0.851015 0.896175 0.079238
Si Si4 0.428171 0.551019 0.929259
Si Si5 0.498974 0.815124 0.069041
Si Si6 0.704691 0.688080 0.071282
O O1 0.989381 0.434116 0.750000
O O2 0.857515 0.419213 0.534228
O O3 0.000000 0.500000 0.500000
O O4 0.041263 0.385142 0.485658
O O5 0.729391 0.050759 0.250000
O O6 0.821773 0.967945 0.086332
O O7 0.682015 0.034700 0.963013
O O8 0.844199 0.866553 0.250000
O O9 0.778094 0.866960 0.958475
O O10 0.446904 0.547894 0.750000
O O11 0.444978 0.622126 0.989439
O O12 0.500000 0.500000 0.000000
O O13 0.491989 0.808972 0.250000
O O14 0.456373 0.750000 0.000000
O O15 0.607524 0.825027 0.019149
O O16 0.681912 0.695184 0.250000
O O17 0.752375 0.750000 0.000000
#
# Coordination Sequence:
#
# PCOD8231129 Si02
#       6
#     8   8   8   8   8   8
#     4   9  17  30  48  72  99 130 164 200 245 301
#     4   9  19  33  50  73 103 134 166 205 251 299
#     4  10  19  32  50  74 103 133 165 206 250 300
#     4  11  23  35  52  78 107 136 172 216 263 310
#     4  10  21  37  54  75 102 136 176 215 255 308
#     4  11  21  33  51  74  99 131 167 206 252 304
#
# _framework density 18.415970999999999
#
# number of rings (size 3 to 8) (size 9 to 14) (size 15 to 20)
#    0.000    2.000    0.000    6.500    0.000   10.667 
#    0.000    0.000    0.000    1.000    0.000    2.333 
#    0.000    0.000    0.000    0.000    0.000    0.000 
#
# Total GULP energy -594789.822427 kJ/mol
# GULP energy per Si atom -12391.454634 kJ/mol
# Density = 1.837406 g / cm^3
# Si number density = 18.415971 Si / 1000 Ang^3
#
#
#
# Elastic Constant Matrix: (Units=GPa)
#
#
# Indices 1 2 3 4 5 6 
#
# 1 98.3915 35.2889 27.1577 0.0000 0.0000 0.0000
# 2 35.2889 68.0542 34.5438 0.0000 0.0000 0.0000
# 3 27.1577 34.5438 73.5522 0.0000 0.0000 0.0000
# 4 0.0000 0.0000 0.0000 27.1386 0.0000 0.0000
# 5 0.0000 0.0000 0.0000 0.0000 23.3545 0.0000
# 6 0.0000 0.0000 0.0000 0.0000 0.0000 22.2337
#
#
#
# Elastic Compliance Matrix: (Units=1/GPa)
#
#
# Indices 1 2 3 4 5 6 
#
# 1 0.012728 -0.005534 -0.002101 0.000000 0.000000 0.000000
# 2 -0.005534 0.021699 -0.008148 0.000000 0.000000 0.000000
# 3 -0.002101 -0.008148 0.018198 0.000000 0.000000 0.000000
# 4 0.000000 0.000000 0.000000 0.036848 0.000000 0.000000
# 5 0.000000 0.000000 0.000000 0.000000 0.042818 0.000000
# 6 0.000000 0.000000 0.000000 0.000000 0.000000 0.044977
#
#
# Mechanical properties :
#
#
# Convention : Reuss Voigt Hill
#
# Bulk Modulus (GPa) = 47.48124 48.21983 47.85054
# Shear Modulus (GPa) = 23.16385 24.07918 23.62152
#
# Velocity S-wave (km/s) = 3.55041 3.61988 3.58532
# Velocity P-wave (km/s) = 6.53038 6.61150 6.57107
#
# Compressibility (1/GPa) = 0.02106095
#
# Stress axis : x y z
#
# Youngs Moduli (GPa) = 78.56693 46.08409 54.95077
#
# Poissons Ratio (x) = 0.25502 0.11543
# Poissons Ratio (y) = 0.43477 0.44774
# Poissons Ratio (z) = 0.16504 0.37549
#
# Static dielectric constant tensor:
#      x y z
#    x 3.543150 0.000000 0.000000 
#    y 0.000000 3.280650 0.000000 
#    z 0.000000 0.000000 3.581500 
# 
# 
# High freq. dielectric constant tensor:
#      x y z
#    x 1.713240 0.000000 0.000000 
#    y 0.000000 1.684090 0.000000 
#    z 0.000000 0.000000 1.727670 
# 
# From -- ./inp_files/4847.got.cif
#   From: 2010.03.12/outbox.cif.g09.slc.cpg/sg57_3_cif.got.tgz:4847.got - 2010.04.16 15:48:40.
