data_PCOD8231302
_publ_section_title
;
Structure prediction by ZEFSAII (Michael W. Deem and Ramdas Pophale) SiO2 
 PCOD8231302
Probable space group: P B C M
;
_chemical_formula_sum "Si O2"
_cell_formula_units_Z 56
_cell_length_a 20.131796
_cell_length_b 15.695192
_cell_length_c 8.632642
_cell_angle_alpha 90.000000
_cell_angle_beta 90.000000
_cell_angle_gamma 90.000000
_cell_volume 2727.676642
_symmetry_space_group_name_H-M "P B C M"
_symmetry_group_IT_number 57
_symmetry_cell_setting 'orthorhombic'
loop_
_space_group_symop_operation_xyz
x,y,z
-x,-y,1/2+z
x,1/2-y,-z
-x,1/2+y,1/2-z
-x,-y,-z
x,y,1/2-z
-x,1/2+y,z
x,1/2-y,1/2+z
loop_
_atom_site_type_symbol
_atom_site_label
_atom_site_fract_x
_atom_site_fract_y
_atom_site_fract_z
Si Si1 0.107818 0.667912 0.922720
Si Si2 0.211311 0.045526 0.567934
Si Si3 0.665392 0.843754 0.068614
Si Si4 0.620904 0.335030 0.571665
Si Si5 0.746670 0.128460 0.578411
Si Si6 0.427099 0.491688 0.932204
Si Si7 0.928607 0.000892 0.074977
O O1 0.078006 0.649648 0.750000
O O2 0.186183 0.682268 0.910320
O O3 0.073332 0.750000 0.000000
O O4 0.097392 0.594986 0.047476
O O5 0.213298 0.021009 0.750000
O O6 0.258232 0.127200 0.534271
O O7 0.240809 0.969361 0.467641
O O8 0.132919 0.060930 0.518273
O O9 0.651862 0.839363 0.250000
O O10 0.653780 0.750000 0.000000
O O11 0.612733 0.911177 0.000595
O O12 0.585932 0.250000 0.500000
O O13 0.599843 0.344846 0.750000
O O14 0.700220 0.325692 0.549582
O O15 0.606755 0.419404 0.474205
O O16 0.712976 0.128061 0.750000
O O17 0.430951 0.478564 0.750000
O O18 0.500000 0.500000 0.000000
O O19 0.942813 0.979562 0.250000
O O20 0.000000 0.000000 0.000000
#
# Coordination Sequence:
#
# PCOD8231302 Si02
#       7
#     8   8   8   8   8   8   8
#     4  10  20  33  51  79 112 148 191 239 291 357
#     4   9  19  36  60  86 120 162 208 258 314 371
#     4  11  23  42  68  99 130 170 219 274 328 388
#     4  12  24  39  60  90 126 163 202 248 303 368
#     4  10  19  32  55  86 119 154 193 238 295 358
#     4  12  26  46  69  95 127 167 211 263 322 387
#     4  10  20  36  57  83 116 160 205 255 311 375
#
# _framework density 20.530294000000001
#
# number of rings (size 3 to 8) (size 9 to 14) (size 15 to 20)
#    0.000    1.429    1.429    4.714    0.000    4.571 
#    0.000    3.571    0.000    1.714    0.000    0.000 
#    0.000    0.000    0.000    0.000    0.000    0.000 
#
# Total GULP energy -693758.862580 kJ/mol
# GULP energy per Si atom -12388.551117 kJ/mol
# Density = 2.048357 g / cm^3
# Si number density = 20.530294 Si / 1000 Ang^3
#
#
#
# Elastic Constant Matrix: (Units=GPa)
#
#
# Indices 1 2 3 4 5 6 
#
# 1 126.1173 47.9725 41.0102 0.0000 0.0000 0.0000
# 2 47.9725 124.7334 41.4921 0.0000 0.0000 0.0000
# 3 41.0102 41.4921 106.1223 0.0000 0.0000 0.0000
# 4 0.0000 0.0000 0.0000 33.3269 0.0000 0.0000
# 5 0.0000 0.0000 0.0000 0.0000 31.9601 0.0000
# 6 0.0000 0.0000 0.0000 0.0000 0.0000 10.0239
#
#
#
# Elastic Compliance Matrix: (Units=1/GPa)
#
#
# Indices 1 2 3 4 5 6 
#
# 1 0.009914 -0.002918 -0.002690 0.000000 0.000000 0.000000
# 2 -0.002918 0.010075 -0.002811 0.000000 0.000000 0.000000
# 3 -0.002690 -0.002811 0.011562 0.000000 0.000000 0.000000
# 4 0.000000 0.000000 0.000000 0.030006 0.000000 0.000000
# 5 0.000000 0.000000 0.000000 0.000000 0.031289 0.000000
# 6 0.000000 0.000000 0.000000 0.000000 0.000000 0.099761
#
#
# Mechanical properties :
#
#
# Convention : Reuss Voigt Hill
#
# Bulk Modulus (GPa) = 67.97564 68.65805 68.31684
# Shear Modulus (GPa) = 23.32639 30.16205 26.74422
#
# Velocity S-wave (km/s) = 3.37440 3.83711 3.61317
# Velocity P-wave (km/s) = 6.95442 7.29014 7.12426
#
# Compressibility (1/GPa) = 0.01471115
#
# Stress axis : x y z
#
# Youngs Moduli (GPa) = 100.86873 99.26012 86.49083
#
# Poissons Ratio (x) = 0.28964 0.23268
# Poissons Ratio (y) = 0.29433 0.24316
# Poissons Ratio (z) = 0.27136 0.27906
#
# Static dielectric constant tensor:
#      x y z
#    x 11.741440 0.000000 0.000000 
#    y 0.000000 3.665320 0.000000 
#    z 0.000000 0.000000 5.553740 
# 
# 
# High freq. dielectric constant tensor:
#      x y z
#    x 1.798440 0.000000 0.000000 
#    y 0.000000 1.791890 0.000000 
#    z 0.000000 0.000000 1.813240 
# 
# From -- ./inp_files/8182.got.cif
#   From: 2010.03.12/outbox.cif.g09.slc.cpg/sg57_5_cif.got.tgz:8182.got - 2010.04.16 15:48:40.
