data_PCOD8231679
_publ_section_title
;
Structure prediction by ZEFSAII (Michael W. Deem and Ramdas Pophale) SiO2 
 PCOD8231679
Probable space group: P B C M
;
_chemical_formula_sum "Si O2"
_cell_formula_units_Z 56
_cell_length_a 22.017520
_cell_length_b 14.237606
_cell_length_c 8.631243
_cell_angle_alpha 90.000000
_cell_angle_beta 90.000000
_cell_angle_gamma 90.000000
_cell_volume 2705.694219
_symmetry_space_group_name_H-M "P B C M"
_symmetry_group_IT_number 57
_symmetry_cell_setting 'orthorhombic'
loop_
_space_group_symop_operation_xyz
x,y,z
-x,-y,1/2+z
x,1/2-y,-z
-x,1/2+y,1/2-z
-x,-y,-z
x,y,1/2-z
-x,1/2+y,z
x,1/2-y,1/2+z
loop_
_atom_site_type_symbol
_atom_site_label
_atom_site_fract_x
_atom_site_fract_y
_atom_site_fract_z
Si Si1 0.934532 0.984787 0.929121
Si Si2 0.129659 0.844308 0.930714
Si Si3 0.830153 0.646957 0.065799
Si Si4 0.741925 0.338281 0.072291
Si Si5 0.527429 0.351354 0.568040
Si Si6 0.416509 0.046385 0.568944
Si Si7 0.708043 0.954242 0.926893
O O1 0.944721 0.967850 0.750000
O O2 0.893516 0.898559 0.996282
O O3 0.895836 0.075964 0.959994
O O4 0.000000 0.000000 0.000000
O O5 0.113097 0.858249 0.750000
O O6 0.099697 0.750000 0.000000
O O7 0.201349 0.843723 0.955804
O O8 0.830852 0.648049 0.250000
O O9 0.771762 0.586664 0.008174
O O10 0.823971 0.750000 0.000000
O O11 0.762382 0.320012 0.250000
O O12 0.704884 0.433385 0.060277
O O13 0.703378 0.250000 0.000000
O O14 0.547416 0.250000 0.500000
O O15 0.529413 0.339592 0.750000
O O16 0.459776 0.379543 0.516456
O O17 0.571237 0.438086 0.514408
O O18 0.428544 0.055892 0.750000
O O19 0.348343 0.080360 0.529024
O O20 0.698971 0.921697 0.750000
#
# Coordination Sequence:
#
# PCOD8231679 Si02
#       7
#     8   8   8   8   8   8   8
#     4  11  23  42  63  88 121 155 199 250 303 363
#     4  11  21  35  58  86 114 149 190 237 294 354
#     4  10  23  43  64  87 120 158 200 248 299 355
#     4  10  19  34  55  82 116 152 190 237 293 355
#     4  10  21  39  62  87 120 160 203 250 304 356
#     4  10  22  38  59  90 122 157 204 253 299 357
#     4  10  21  39  60  84 122 164 197 246 305 356
#
# _framework density 20.697092000000001
#
# number of rings (size 3 to 8) (size 9 to 14) (size 15 to 20)
#    0.000    1.714    1.429    3.857    0.000    6.286 
#    0.000    5.714    0.000    0.000    0.000    0.000 
#    0.000    0.000    0.000    0.000    0.000    0.000 
#
# Total GULP energy -694090.059040 kJ/mol
# GULP energy per Si atom -12394.465340 kJ/mol
# Density = 2.064998 g / cm^3
# Si number density = 20.697092 Si / 1000 Ang^3
#
#
#
# Elastic Constant Matrix: (Units=GPa)
#
#
# Indices 1 2 3 4 5 6 
#
# 1 107.8825 24.5904 28.6752 0.0000 0.0000 0.0000
# 2 24.5904 95.2347 21.7236 0.0000 0.0000 0.0000
# 3 28.6752 21.7236 52.0573 0.0000 0.0000 0.0000
# 4 0.0000 0.0000 0.0000 37.0698 0.0000 0.0000
# 5 0.0000 0.0000 0.0000 0.0000 30.0163 0.0000
# 6 0.0000 0.0000 0.0000 0.0000 0.0000 7.2727
#
#
#
# Elastic Compliance Matrix: (Units=1/GPa)
#
#
# Indices 1 2 3 4 5 6 
#
# 1 0.011082 -0.001624 -0.005427 0.000000 0.000000 0.000000
# 2 -0.001624 0.011843 -0.004048 0.000000 0.000000 0.000000
# 3 -0.005427 -0.004048 0.023888 0.000000 0.000000 0.000000
# 4 0.000000 0.000000 0.000000 0.026976 0.000000 0.000000
# 5 0.000000 0.000000 0.000000 0.000000 0.033315 0.000000
# 6 0.000000 0.000000 0.000000 0.000000 0.000000 0.137500
#
#
# Mechanical properties :
#
#
# Convention : Reuss Voigt Hill
#
# Bulk Modulus (GPa) = 40.62304 45.01701 42.82003
# Shear Modulus (GPa) = 18.18144 26.88412 22.53278
#
# Velocity S-wave (km/s) = 2.96709 3.60798 3.30311
# Velocity P-wave (km/s) = 5.60430 6.25734 5.93980
#
# Compressibility (1/GPa) = 0.02461657
#
# Stress axis : x y z
#
# Youngs Moduli (GPa) = 90.23760 84.43876 41.86196
#
# Poissons Ratio (x) = 0.13709 0.22718
# Poissons Ratio (y) = 0.14650 0.16945
# Poissons Ratio (z) = 0.48970 0.34179
#
# Static dielectric constant tensor:
#      x y z
#    x 3.362450 0.000000 0.000000 
#    y 0.000000 1.361920 0.000000 
#    z 0.000000 0.000000 3.649580 
# 
# 
# High freq. dielectric constant tensor:
#      x y z
#    x 1.799420 0.000000 0.000000 
#    y 0.000000 1.816010 0.000000 
#    z 0.000000 0.000000 1.807860 
# 
# From -- ./inp_files/8064.got.cif
#   From: 2010.03.12/outbox.cif.g09.slc.cpg/sg57_5_cif.got.tgz:8064.got - 2010.04.16 15:48:40.
