data_PCOD8231653
_publ_section_title
;
Structure prediction by ZEFSAII (Michael W. Deem and Ramdas Pophale) SiO2 
 PCOD8231653
Probable space group: P B C M
;
_chemical_formula_sum "Si O2"
_cell_formula_units_Z 64
_cell_length_a 19.864205
_cell_length_b 19.989604
_cell_length_c 8.907988
_cell_angle_alpha 90.000000
_cell_angle_beta 90.000000
_cell_angle_gamma 90.000000
_cell_volume 3537.162422
_symmetry_space_group_name_H-M "P B C M"
_symmetry_group_IT_number 57
_symmetry_cell_setting 'orthorhombic'
loop_
_space_group_symop_operation_xyz
x,y,z
-x,-y,1/2+z
x,1/2-y,-z
-x,1/2+y,1/2-z
-x,-y,-z
x,y,1/2-z
-x,1/2+y,z
x,1/2-y,1/2+z
loop_
_atom_site_type_symbol
_atom_site_label
_atom_site_fract_x
_atom_site_fract_y
_atom_site_fract_z
Si Si1 0.905973 0.681664 0.425888
Si Si2 0.303759 0.891203 0.573566
Si Si3 0.323798 0.044663 0.576278
Si Si4 0.810828 0.564744 0.073181
Si Si5 0.426293 0.819445 0.071805
Si Si6 0.527876 0.565928 0.574126
Si Si7 0.938740 0.319369 0.572898
Si Si8 0.833675 0.086290 0.571544
O O1 0.880046 0.750000 0.500000
O O2 0.895631 0.689363 0.250000
O O3 0.862423 0.619970 0.490914
O O4 0.983424 0.667932 0.466396
O O5 0.299721 0.876461 0.750000
O O6 0.355044 0.840394 0.496883
O O7 0.231327 0.877868 0.499391
O O8 0.328169 0.966104 0.537775
O O9 0.308243 0.055650 0.750000
O O10 0.263927 0.080253 0.486407
O O11 0.394380 0.077959 0.526971
O O12 0.808159 0.568636 0.250000
O O13 0.835234 0.491392 0.021381
O O14 0.419613 0.813695 0.250000
O O15 0.484233 0.871042 0.022303
O O16 0.448968 0.750000 0.000000
O O17 0.500000 0.500000 0.500000
O O18 0.523144 0.553896 0.750000
O O19 0.913901 0.250000 0.500000
O O20 0.925176 0.317138 0.750000
O O21 0.899715 0.380423 0.497330
O O22 0.832363 0.094606 0.750000
#
# Coordination Sequence:
#
# PCOD8231653 Si02
#       8
#     8   8   8   8   8   8   8   8
#     4   9  19  36  56  78 105 139 180 223 268 320
#     4  10  19  34  55  77 105 139 176 216 263 316
#     4   9  18  33  54  81 108 135 172 218 262 313
#     4   9  19  35  54  79 110 141 175 219 267 317
#     4  11  23  37  54  78 110 144 180 222 269 319
#     4  10  20  35  57  82 106 138 179 222 267 318
#     4  10  20  35  54  76 104 139 180 222 266 319
#     4  10  20  34  53  79 111 142 176 218 265 317
#
# _framework density 18.093599000000001
#
# number of rings (size 3 to 8) (size 9 to 14) (size 15 to 20)
#    0.000    2.250    1.250    1.500    0.000    4.000 
#    0.000    3.125    0.000    3.000    0.000    0.000 
#    0.000    0.000    0.000    0.000    0.000    0.000 
#
# Total GULP energy -793767.843636 kJ/mol
# GULP energy per Si atom -12402.622557 kJ/mol
# Density = 1.805242 g / cm^3
# Si number density = 18.093599 Si / 1000 Ang^3
#
#
#
# Elastic Constant Matrix: (Units=GPa)
#
#
# Indices 1 2 3 4 5 6 
#
# 1 121.8007 83.3507 41.4219 0.0000 0.0000 0.0000
# 2 83.3507 122.1336 46.7245 0.0000 0.0000 0.0000
# 3 41.4219 46.7245 60.5052 0.0000 0.0000 0.0000
# 4 0.0000 0.0000 0.0000 27.9055 0.0000 0.0000
# 5 0.0000 0.0000 0.0000 0.0000 30.4351 0.0000
# 6 0.0000 0.0000 0.0000 0.0000 0.0000 32.3028
#
#
#
# Elastic Compliance Matrix: (Units=1/GPa)
#
#
# Indices 1 2 3 4 5 6 
#
# 1 0.015927 -0.009507 -0.003562 0.000000 0.000000 0.000000
# 2 -0.009507 0.017296 -0.006848 0.000000 0.000000 0.000000
# 3 -0.003562 -0.006848 0.024254 0.000000 0.000000 0.000000
# 4 0.000000 0.000000 0.000000 0.035835 0.000000 0.000000
# 5 0.000000 0.000000 0.000000 0.000000 0.032857 0.000000
# 6 0.000000 0.000000 0.000000 0.000000 0.000000 0.030957
#
#
# Mechanical properties :
#
#
# Convention : Reuss Voigt Hill
#
# Bulk Modulus (GPa) = 56.67889 71.93707 64.30798
# Shear Modulus (GPa) = 24.64977 26.99152 25.82064
#
# Velocity S-wave (km/s) = 3.69500 3.86654 3.78174
# Velocity P-wave (km/s) = 7.04255 7.73163 7.39512
#
# Compressibility (1/GPa) = 0.01764325
#
# Stress axis : x y z
#
# Youngs Moduli (GPa) = 62.78508 57.81825 41.22954
#
# Poissons Ratio (x) = 0.54967 0.14687
# Poissons Ratio (y) = 0.59689 0.28234
# Poissons Ratio (z) = 0.22366 0.39593
#
# Static dielectric constant tensor:
#      x y z
#    x 3.488220 0.000000 0.000000 
#    y 0.000000 3.373070 0.000000 
#    z 0.000000 0.000000 3.342780 
# 
# 
# High freq. dielectric constant tensor:
#      x y z
#    x 1.706980 0.000000 0.000000 
#    y 0.000000 1.689920 0.000000 
#    z 0.000000 0.000000 1.704820 
# 
# From -- ./inp_files/7165.got.cif
#   From: 2010.03.12/outbox.cif.g09.slc.cpg/sg57_4_cif.got.tgz:7165.got - 2010.04.16 15:48:40.
