data_PCOD8231993
_publ_section_title
;
Structure prediction by ZEFSAII (Michael W. Deem and Ramdas Pophale) SiO2 
 PCOD8231993
Probable space group: P B C M
;
_chemical_formula_sum "Si O2"
_cell_formula_units_Z 44
_cell_length_a 9.046003
_cell_length_b 17.506468
_cell_length_c 14.417771
_cell_angle_alpha 90.000000
_cell_angle_beta 90.000000
_cell_angle_gamma 90.000000
_cell_volume 2283.249572
_symmetry_space_group_name_H-M "P B C M"
_symmetry_group_IT_number 57
_symmetry_cell_setting 'orthorhombic'
loop_
_space_group_symop_operation_xyz
x,y,z
-x,-y,1/2+z
x,1/2-y,-z
-x,1/2+y,1/2-z
-x,-y,-z
x,y,1/2-z
-x,1/2+y,z
x,1/2-y,1/2+z
loop_
_atom_site_type_symbol
_atom_site_label
_atom_site_fract_x
_atom_site_fract_y
_atom_site_fract_z
Si Si1 0.940082 0.243436 0.892063
Si Si2 0.300285 0.431828 0.250000
Si Si3 0.381451 0.258926 0.250000
Si Si4 0.601835 0.213331 0.594852
Si Si5 0.005806 0.617205 0.750000
Si Si6 0.529564 0.036779 0.900312
Si Si7 0.903624 0.841432 0.750000
Si Si8 0.247343 0.495704 0.750000
O O1 0.765162 0.239795 0.876705
O O2 0.010709 0.169064 0.842790
O O3 0.004299 0.318484 0.841647
O O4 0.983913 0.250000 0.000000
O O5 0.305995 0.340716 0.250000
O O6 0.376818 0.465109 0.157645
O O7 0.124046 0.447306 0.250000
O O8 0.486165 0.248348 0.337290
O O9 0.258768 0.194501 0.250000
O O10 0.553483 0.250000 0.500000
O O11 0.591060 0.122142 0.590029
O O12 0.164847 0.577094 0.750000
O O13 0.651998 0.989484 0.842513
O O14 0.500000 0.000000 0.000000
O O15 0.878860 0.931750 0.750000
#
# Coordination Sequence:
#
# PCOD8231993 Si02
#       8
#     8   4   4   8   4   8   4   4
#     4  10  21  40  63  88 120 159 208 248 297 363
#     4   9  20  39  62  84 116 163 202 241 307 364
#     4  10  19  36  60  86 116 150 202 253 301 342
#     4  10  21  38  64  88 113 163 205 246 299 363
#     4  11  19  43  62  87 122 166 198 243 313 377
#     4  10  22  41  62  90 125 159 200 255 309 371
#     4  11  24  38  59  93 121 156 199 268 291 364
#     4  11  24  42  61  86 127 167 193 249 328 355
#
# _framework density 19.270779000000001
#
# number of rings (size 3 to 8) (size 9 to 14) (size 15 to 20)
#    0.000    1.818    3.636    1.636    2.545    2.182 
#    6.545    1.818    0.000    0.000    0.000    0.000 
#    0.000    0.000    0.000    0.000    0.000    0.000 
#
# Total GULP energy -545518.100212 kJ/mol
# GULP energy per Si atom -12398.138641 kJ/mol
# Density = 1.922692 g / cm^3
# Si number density = 19.270779 Si / 1000 Ang^3
#
#
#
# Elastic Constant Matrix: (Units=GPa)
#
#
# Indices 1 2 3 4 5 6 
#
# 1 105.5388 23.6200 63.1447 0.0000 0.0000 0.0000
# 2 23.6200 64.1187 42.1138 0.0000 0.0000 0.0000
# 3 63.1447 42.1138 162.4409 0.0000 0.0000 0.0000
# 4 0.0000 0.0000 0.0000 -534.0612 0.0000 0.0000
# 5 0.0000 0.0000 0.0000 0.0000 10.9010 0.0000
# 6 0.0000 0.0000 0.0000 0.0000 0.0000 28.0328
#
#
#
# Elastic Compliance Matrix: (Units=1/GPa)
#
#
# Indices 1 2 3 4 5 6 
#
# 1 0.012499 -0.001703 -0.004417 0.000000 0.000000 0.000000
# 2 -0.001703 0.019029 -0.004271 0.000000 0.000000 0.000000
# 3 -0.004417 -0.004271 0.008981 0.000000 0.000000 0.000000
# 4 0.000000 0.000000 0.000000 -0.001872 0.000000 0.000000
# 5 0.000000 0.000000 0.000000 0.000000 0.091734 0.000000
# 6 0.000000 0.000000 0.000000 0.000000 0.000000 0.035672
#
#
# Mechanical properties :
#
#
# Convention : Reuss Voigt Hill
#
# Bulk Modulus (GPa) = 50.69634 65.53949 58.11791
# Shear Modulus (GPa) = 25.85296 -85.47748 -29.81226
#
# Velocity S-wave (km/s) = 3.66671 -6.66726 -3.93748
# Velocity P-wave (km/s) = 6.65513 5.01858 3.09069
#
# Compressibility (1/GPa) = 0.01972529
#
# Stress axis : x y z
#
# Youngs Moduli (GPa) = 80.00506 52.55160 111.35226
#
# Poissons Ratio (x) = 0.08951 0.49186
# Poissons Ratio (y) = 0.13627 0.47562
# Poissons Ratio (z) = 0.35340 0.22446
#
# Static dielectric constant tensor:
#      x y z
#    x 3.646160 0.000000 0.000000 
#    y 0.000000 3.303600 0.000000 
#    z 0.000000 0.000000 3.591350 
# 
# 
# High freq. dielectric constant tensor:
#      x y z
#    x 1.763270 0.000000 0.000000 
#    y 0.000000 1.731410 0.000000 
#    z 0.000000 0.000000 1.756250 
# 
# From -- ./inp_files/16268.got.cif
#   From: 2010.03.12/outbox.cif.g09.slc.cpg/sg57_9_cif.got.tgz:16268.got - 2010.04.16 15:48:40.
