data_PCOD8231326
_publ_section_title
;
Structure prediction by ZEFSAII (Michael W. Deem and Ramdas Pophale) SiO2 
 PCOD8231326
Probable space group: P B C M
;
_chemical_formula_sum "Si O2"
_cell_formula_units_Z 56
_cell_length_a 19.607797
_cell_length_b 7.953392
_cell_length_c 21.239231
_cell_angle_alpha 90.000000
_cell_angle_beta 90.000000
_cell_angle_gamma 90.000000
_cell_volume 3312.226126
_symmetry_space_group_name_H-M "P B C M"
_symmetry_group_IT_number 57
_symmetry_cell_setting 'orthorhombic'
loop_
_space_group_symop_operation_xyz
x,y,z
-x,-y,1/2+z
x,1/2-y,-z
-x,1/2+y,1/2-z
-x,-y,-z
x,y,1/2-z
-x,1/2+y,z
x,1/2-y,1/2+z
loop_
_atom_site_type_symbol
_atom_site_label
_atom_site_fract_x
_atom_site_fract_y
_atom_site_fract_z
Si Si1 0.925987 0.163014 0.324920
Si Si2 0.073908 0.457457 0.675105
Si Si3 0.427250 0.898845 0.679888
Si Si4 0.681756 0.676927 0.821897
Si Si5 0.473601 0.607124 0.895130
Si Si6 0.838228 0.647022 0.824142
Si Si7 0.398589 0.305786 0.564403
O O1 0.923935 0.167452 0.250000
O O2 0.910137 0.352816 0.350455
O O3 0.999990 0.102971 0.348508
O O4 0.872153 0.024666 0.351426
O O5 0.075853 0.462232 0.750000
O O6 0.128008 0.319433 0.648916
O O7 0.436916 0.829660 0.750000
O O8 0.422054 0.745988 0.631462
O O9 0.357373 0.001039 0.673959
O O10 0.495332 0.004172 0.663772
O O11 0.676261 0.749995 0.750000
O O12 0.759138 0.645372 0.842079
O O13 0.648816 0.801190 0.873414
O O14 0.537133 0.680621 0.933143
O O15 0.427448 0.494211 0.941015
O O16 0.849844 0.646084 0.750000
O O17 0.359262 0.250000 0.500000
#
# Coordination Sequence:
#
# PCOD8231326 Si02
#       7
#     8   8   8   8   8   8   8
#     4   9  14  21  36  57  81 114 153 189 229 274
#     4   9  14  21  36  58  82 116 156 191 230 275
#     4   9  16  28  45  66  94 122 150 185 232 281
#     4   9  19  33  45  63  95 129 154 187 235 286
#     4   9  18  29  47  71  88 113 154 198 234 272
#     4   9  16  27  39  55  88 124 153 189 231 279
#     4  10  19  33  51  70  92 119 154 194 237 281
#
# _framework density 16.907059
#
# number of rings (size 3 to 8) (size 9 to 14) (size 15 to 20)
#    0.000    2.857    1.429    0.857    0.000    4.000 
#    2.571    0.000    0.000    0.000    0.000    0.000 
#    0.000    1.143    0.000    0.000    0.000    0.286 
#
# Total GULP energy -693886.353095 kJ/mol
# GULP energy per Si atom -12390.827734 kJ/mol
# Density = 1.686858 g / cm^3
# Si number density = 16.907059 Si / 1000 Ang^3
#
#
#
# Elastic Constant Matrix: (Units=GPa)
#
#
# Indices 1 2 3 4 5 6 
#
# 1 79.9991 34.1643 10.5053 0.0000 0.0000 0.0000
# 2 34.1643 112.9923 10.0361 0.0000 0.0000 0.0000
# 3 10.5053 10.0361 43.5795 0.0000 0.0000 0.0000
# 4 0.0000 0.0000 0.0000 9.2816 0.0000 0.0000
# 5 0.0000 0.0000 0.0000 0.0000 5.4804 0.0000
# 6 0.0000 0.0000 0.0000 0.0000 0.0000 15.7779
#
#
#
# Elastic Compliance Matrix: (Units=1/GPa)
#
#
# Indices 1 2 3 4 5 6 
#
# 1 0.014628 -0.004196 -0.002560 0.000000 0.000000 0.000000
# 2 -0.004196 0.010238 -0.001346 0.000000 0.000000 0.000000
# 3 -0.002560 -0.001346 0.023874 0.000000 0.000000 0.000000
# 4 0.000000 0.000000 0.000000 0.107740 0.000000 0.000000
# 5 0.000000 0.000000 0.000000 0.000000 0.182468 0.000000
# 6 0.000000 0.000000 0.000000 0.000000 0.000000 0.063380
#
#
# Mechanical properties :
#
#
# Convention : Reuss Voigt Hill
#
# Bulk Modulus (GPa) = 30.73511 38.44248 34.58880
# Shear Modulus (GPa) = 11.64476 18.23232 14.93854
#
# Velocity S-wave (km/s) = 2.62725 3.28744 2.97571
# Velocity P-wave (km/s) = 5.23657 6.09890 5.68411
#
# Compressibility (1/GPa) = 0.03253608
#
# Stress axis : x y z
#
# Youngs Moduli (GPa) = 68.36169 97.67227 41.88697
#
# Poissons Ratio (x) = 0.40979 0.10723
# Poissons Ratio (y) = 0.28682 0.05640
# Poissons Ratio (z) = 0.17501 0.13151
#
# Static dielectric constant tensor:
#      x y z
#    x 3.077240 0.000000 0.000000 
#    y 0.000000 3.476440 0.000000 
#    z 0.000000 0.000000 2.740650 
# 
# 
# High freq. dielectric constant tensor:
#      x y z
#    x 1.635060 0.000000 0.000000 
#    y 0.000000 1.662300 0.000000 
#    z 0.000000 0.000000 1.594270 
# 
# From -- ./inp_files/25561.got.cif
#   From: 2010.03.12/outbox.cif.g09.slc.cpg/sg57_13_cif.got.tgz:25561.got - 2010.04.16 15:48:40.
