data_PCOD8231550
_publ_section_title
;
Structure prediction by ZEFSAII (Michael W. Deem and Ramdas Pophale) SiO2 
 PCOD8231550
Probable space group: P B C M
;
_chemical_formula_sum "Si O2"
_cell_formula_units_Z 64
_cell_length_a 15.534402
_cell_length_b 24.779310
_cell_length_c 8.855928
_cell_angle_alpha 90.000000
_cell_angle_beta 90.000000
_cell_angle_gamma 90.000000
_cell_volume 3408.927976
_symmetry_space_group_name_H-M "P B C M"
_symmetry_group_IT_number 57
_symmetry_cell_setting 'orthorhombic'
loop_
_space_group_symop_operation_xyz
x,y,z
-x,-y,1/2+z
x,1/2-y,-z
-x,1/2+y,1/2-z
-x,-y,-z
x,y,1/2-z
-x,1/2+y,z
x,1/2-y,1/2+z
loop_
_atom_site_type_symbol
_atom_site_label
_atom_site_fract_x
_atom_site_fract_y
_atom_site_fract_z
Si Si1 0.672944 0.405870 0.083595
Si Si2 0.613720 0.306023 0.574524
Si Si3 0.798192 0.482797 0.572760
Si Si4 0.421831 0.345694 0.925827
Si Si5 0.483362 0.054922 0.583762
Si Si6 0.023995 0.945564 0.576819
Si Si7 0.150135 0.096216 0.071322
Si Si8 0.747077 0.805594 0.429513
O O1 0.716188 0.401652 0.250000
O O2 0.572644 0.415171 0.103386
O O3 0.680159 0.349721 0.993898
O O4 0.712284 0.455364 0.989516
O O5 0.638448 0.250000 0.500000
O O6 0.632841 0.303190 0.750000
O O7 0.513826 0.318841 0.542931
O O8 0.788583 0.495298 0.750000
O O9 0.874272 0.437619 0.542304
O O10 0.813048 0.539024 0.486545
O O11 0.397532 0.346033 0.750000
O O12 0.419965 0.407461 0.985491
O O13 0.351371 0.312146 0.017602
O O14 0.442316 0.044784 0.750000
O O15 0.500000 0.000000 0.500000
O O16 0.009557 0.957135 0.750000
O O17 0.953379 0.899911 0.531071
O O18 0.000000 0.000000 0.500000
O O19 0.167941 0.101050 0.250000
O O20 0.195164 0.145059 0.986226
O O21 0.783497 0.750000 0.500000
O O22 0.750777 0.802369 0.250000
#
# Coordination Sequence:
#
# PCOD8231550 Si02
#       8
#     8   8   8   8   8   8   8   8
#     4  10  21  35  51  76 107 142 179 219 267 318
#     4  10  20  35  56  78 102 136 177 223 270 318
#     4  10  19  33  55  84 115 144 179 222 270 325
#     4  10  21  37  56  78 104 138 182 228 275 322
#     4  10  21  35  51  72 105 145 185 225 271 324
#     4   8  16  31  53  80 108 138 171 210 255 309
#     4  10  20  36  57  81 110 144 180 220 271 325
#     4  12  25  40  57  80 109 144 186 231 276 326
#
# _framework density 18.774231
#
# number of rings (size 3 to 8) (size 9 to 14) (size 15 to 20)
#    0.000    2.000    0.000    3.750    1.750    5.000 
#    0.000    0.000    0.000    0.750    0.000    3.500 
#    0.000    0.000    0.000    0.000    0.000    0.000 
#
# Total GULP energy -793149.460390 kJ/mol
# GULP energy per Si atom -12392.960319 kJ/mol
# Density = 1.873150 g / cm^3
# Si number density = 18.774231 Si / 1000 Ang^3
#
#
#
# Elastic Constant Matrix: (Units=GPa)
#
#
# Indices 1 2 3 4 5 6 
#
# 1 50.5720 25.7412 31.8826 0.0000 0.0000 0.0000
# 2 25.7412 122.2708 55.5881 0.0000 0.0000 0.0000
# 3 31.8826 55.5881 127.0713 0.0000 0.0000 0.0000
# 4 0.0000 0.0000 0.0000 34.5906 0.0000 0.0000
# 5 0.0000 0.0000 0.0000 0.0000 19.3090 0.0000
# 6 0.0000 0.0000 0.0000 0.0000 0.0000 21.5221
#
#
#
# Elastic Compliance Matrix: (Units=1/GPa)
#
#
# Indices 1 2 3 4 5 6 
#
# 1 0.024300 -0.002926 -0.004817 0.000000 0.000000 0.000000
# 2 -0.002926 0.010561 -0.003886 0.000000 0.000000 0.000000
# 3 -0.004817 -0.003886 0.010778 0.000000 0.000000 0.000000
# 4 0.000000 0.000000 0.000000 0.028910 0.000000 0.000000
# 5 0.000000 0.000000 0.000000 0.000000 0.051789 0.000000
# 6 0.000000 0.000000 0.000000 0.000000 0.000000 0.046464
#
#
# Mechanical properties :
#
#
# Convention : Reuss Voigt Hill
#
# Bulk Modulus (GPa) = 44.67943 58.48197 51.58070
# Shear Modulus (GPa) = 24.56761 27.53116 26.04938
#
# Velocity S-wave (km/s) = 3.62136 3.83356 3.72897
# Velocity P-wave (km/s) = 6.42927 7.12830 6.78779
#
# Compressibility (1/GPa) = 0.02238166
#
# Stress axis : x y z
#
# Youngs Moduli (GPa) = 41.15249 94.68613 92.78040
#
# Poissons Ratio (x) = 0.27703 0.44692
# Poissons Ratio (y) = 0.12040 0.36054
# Poissons Ratio (z) = 0.19823 0.36795
#
# Static dielectric constant tensor:
#      x y z
#    x 3.927130 0.000000 0.000000 
#    y 0.000000 3.388600 0.000000 
#    z 0.000000 0.000000 3.778740 
# 
# 
# High freq. dielectric constant tensor:
#      x y z
#    x 1.712070 0.000000 0.000000 
#    y 0.000000 1.715410 0.000000 
#    z 0.000000 0.000000 1.749760 
# 
# From -- ./inp_files/5602.got.cif
#   From: 2010.03.12/outbox.cif.g09.slc.cpg/sg57_3_cif.got.tgz:5602.got - 2010.04.16 15:48:40.
