data_PCOD8231792
_publ_section_title
;
Structure prediction by ZEFSAII (Michael W. Deem and Ramdas Pophale) SiO2 
 PCOD8231792
Probable space group: P B C M
;
_chemical_formula_sum "Si O2"
_cell_formula_units_Z 48
_cell_length_a 9.664368
_cell_length_b 19.482156
_cell_length_c 13.048229
_cell_angle_alpha 90.000000
_cell_angle_beta 90.000000
_cell_angle_gamma 90.000000
_cell_volume 2456.756113
_symmetry_space_group_name_H-M "P B C M"
_symmetry_group_IT_number 57
_symmetry_cell_setting 'orthorhombic'
loop_
_space_group_symop_operation_xyz
x,y,z
-x,-y,1/2+z
x,1/2-y,-z
-x,1/2+y,1/2-z
-x,-y,-z
x,y,1/2-z
-x,1/2+y,z
x,1/2-y,1/2+z
loop_
_atom_site_type_symbol
_atom_site_label
_atom_site_fract_x
_atom_site_fract_y
_atom_site_fract_z
Si Si1 0.528356 0.469202 0.869204
Si Si2 0.193877 0.944975 0.980740
Si Si3 0.374713 0.203149 0.637204
Si Si4 0.080757 0.439585 0.632022
Si Si5 0.626792 0.111049 0.864641
Si Si6 0.323114 0.352432 0.569856
O O1 0.527321 0.452237 0.750000
O O2 0.458179 0.541950 0.893523
O O3 0.442518 0.409601 0.925924
O O4 0.685720 0.473625 0.907648
O O5 0.249704 0.882658 0.052290
O O6 0.144855 0.002532 0.060268
O O7 0.070302 0.918310 0.908990
O O8 0.316707 0.182486 0.750000
O O9 0.532846 0.178202 0.626145
O O10 0.378714 0.284734 0.625870
O O11 0.286083 0.165279 0.549062
O O12 0.071056 0.464375 0.750000
O O13 0.181984 0.374344 0.625619
O O14 0.687752 0.104444 0.750000
#
# Coordination Sequence:
#
# PCOD8231792 Si02
#       6
#     8   8   8   8   8   8
#     4  11  20  34  60  90 117 151 198 246 294 349
#     4  11  21  35  56  87 122 151 194 243 295 352
#     4  10  21  36  60  90 117 150 198 249 297 349
#     4  11  23  38  57  85 123 162 198 241 299 364
#     4  10  19  34  58  89 121 149 190 252 305 344
#     4  11  21  38  62  87 117 160 200 245 292 355
#
# _framework density 19.537960000000002
#
# number of rings (size 3 to 8) (size 9 to 14) (size 15 to 20)
#    0.000    1.333    3.333    4.000    0.000    0.000 
#    0.000    4.167    7.333    0.000    0.000    0.000 
#    0.000    0.000    0.000    0.000    0.000    0.000 
#
# Total GULP energy -595078.737704 kJ/mol
# GULP energy per Si atom -12397.473702 kJ/mol
# Density = 1.949349 g / cm^3
# Si number density = 19.537960 Si / 1000 Ang^3
#
#
#
# Elastic Constant Matrix: (Units=GPa)
#
#
# Indices 1 2 3 4 5 6 
#
# 1 115.5558 36.3946 52.6887 0.0000 0.0000 0.0000
# 2 36.3946 81.6735 47.9213 0.0000 0.0000 0.0000
# 3 52.6887 47.9213 113.3233 0.0000 0.0000 0.0000
# 4 0.0000 0.0000 0.0000 21.0566 0.0000 0.0000
# 5 0.0000 0.0000 0.0000 0.0000 36.2262 0.0000
# 6 0.0000 0.0000 0.0000 0.0000 0.0000 14.8336
#
#
#
# Elastic Compliance Matrix: (Units=1/GPa)
#
#
# Indices 1 2 3 4 5 6 
#
# 1 0.011388 -0.002617 -0.004188 0.000000 0.000000 0.000000
# 2 -0.002617 0.016886 -0.005924 0.000000 0.000000 0.000000
# 3 -0.004188 -0.005924 0.013276 0.000000 0.000000 0.000000
# 4 0.000000 0.000000 0.000000 0.047491 0.000000 0.000000
# 5 0.000000 0.000000 0.000000 0.000000 0.027604 0.000000
# 6 0.000000 0.000000 0.000000 0.000000 0.000000 0.067415
#
#
# Mechanical properties :
#
#
# Convention : Reuss Voigt Hill
#
# Bulk Modulus (GPa) = 62.14156 64.95132 63.54644
# Shear Modulus (GPa) = 23.26864 25.99313 24.63089
#
# Velocity S-wave (km/s) = 3.45475 3.65141 3.55444
# Velocity P-wave (km/s) = 6.91291 7.14793 7.03140
#
# Compressibility (1/GPa) = 0.01609229
#
# Stress axis : x y z
#
# Youngs Moduli (GPa) = 87.81470 59.22130 75.32194
#
# Poissons Ratio (x) = 0.15500 0.31543
# Poissons Ratio (y) = 0.22984 0.44618
# Poissons Ratio (z) = 0.36775 0.35081
#
# Static dielectric constant tensor:
#      x y z
#    x 3.606060 0.000000 0.000000 
#    y 0.000000 3.377960 0.000000 
#    z 0.000000 0.000000 4.091200 
# 
# 
# High freq. dielectric constant tensor:
#      x y z
#    x 1.737350 0.000000 0.000000 
#    y 0.000000 1.737070 0.000000 
#    z 0.000000 0.000000 1.797210 
# 
# From -- ./inp_files/16571.got.cif
#   From: 2010.03.12/outbox.cif.g09.slc.cpg/sg57_9_cif.got.tgz:16571.got - 2010.04.16 15:48:40.
