data_PCOD8231829
_publ_section_title
;
Structure prediction by ZEFSAII (Michael W. Deem and Ramdas Pophale) SiO2 
 PCOD8231829
Probable space group: P B C M
;
_chemical_formula_sum "Si O2"
_cell_formula_units_Z 48
_cell_length_a 9.097983
_cell_length_b 16.375212
_cell_length_c 16.681516
_cell_angle_alpha 90.000000
_cell_angle_beta 90.000000
_cell_angle_gamma 90.000000
_cell_volume 2485.235614
_symmetry_space_group_name_H-M "P B C M"
_symmetry_group_IT_number 57
_symmetry_cell_setting 'orthorhombic'
loop_
_space_group_symop_operation_xyz
x,y,z
-x,-y,1/2+z
x,1/2-y,-z
-x,1/2+y,1/2-z
-x,-y,-z
x,y,1/2-z
-x,1/2+y,z
x,1/2-y,1/2+z
loop_
_atom_site_type_symbol
_atom_site_label
_atom_site_fract_x
_atom_site_fract_y
_atom_site_fract_z
Si Si1 0.211721 0.097742 0.089243
Si Si2 0.381655 0.950624 0.155737
Si Si3 0.942966 0.477983 0.838479
Si Si4 0.836433 0.768427 0.344242
Si Si5 0.303693 0.073203 0.907566
Si Si6 0.886879 0.145977 0.838067
O O1 0.236566 0.192084 0.111215
O O2 0.308800 0.039848 0.146294
O O3 0.258054 0.084478 0.998772
O O4 0.038198 0.079404 0.102685
O O5 0.416161 0.938145 0.250000
O O6 0.524257 0.944724 0.100759
O O7 0.268547 0.880061 0.121628
O O8 0.931330 0.437180 0.750000
O O9 0.780643 0.493042 0.874208
O O10 0.017018 0.565226 0.830684
O O11 0.846530 0.750797 0.250000
O O12 0.730438 0.845240 0.357974
O O13 0.003155 0.787795 0.379454
O O14 0.847905 0.179106 0.750000
#
# Coordination Sequence:
#
# PCOD8231829 Si02
#       6
#     8   8   8   8   8   8
#     4  11  21  34  54  82 112 141 183 242 284 313
#     4  10  19  35  56  79 108 148 187 223 273 342
#     4   9  17  33  54  76 101 140 186 223 263 326
#     4  10  19  35  56  78 104 143 188 230 274 332
#     4  11  21  34  54  82 114 146 182 230 284 335
#     4   7  14  29  52  75  97 130 177 216 254 316
#
# _framework density 19.314064999999999
#
# number of rings (size 3 to 8) (size 9 to 14) (size 15 to 20)
#    0.000    2.333    0.000    6.500    0.000    0.000 
#    0.000    1.667    0.000    8.000    0.000    0.000 
#    0.000    0.000    0.000    0.000    0.000    0.000 
#
# Total GULP energy -594703.414189 kJ/mol
# GULP energy per Si atom -12389.654462 kJ/mol
# Density = 1.927010 g / cm^3
# Si number density = 19.314065 Si / 1000 Ang^3
#
#
#
# Elastic Constant Matrix: (Units=GPa)
#
#
# Indices 1 2 3 4 5 6 
#
# 1 122.2618 28.1720 17.5788 0.0000 0.0000 0.0000
# 2 28.1720 66.4070 7.2494 0.0000 0.0000 0.0000
# 3 17.5788 7.2494 73.9576 0.0000 0.0000 0.0000
# 4 0.0000 0.0000 0.0000 -1.9463 0.0000 0.0000
# 5 0.0000 0.0000 0.0000 0.0000 18.8743 0.0000
# 6 0.0000 0.0000 0.0000 0.0000 0.0000 19.2279
#
#
#
# Elastic Compliance Matrix: (Units=1/GPa)
#
#
# Indices 1 2 3 4 5 6 
#
# 1 0.009308 -0.003747 -0.001845 0.000000 0.000000 0.000000
# 2 -0.003747 0.016730 -0.000749 0.000000 0.000000 0.000000
# 3 -0.001845 -0.000749 0.014033 0.000000 0.000000 0.000000
# 4 0.000000 0.000000 0.000000 -0.513801 0.000000 0.000000
# 5 0.000000 0.000000 0.000000 0.000000 0.052982 0.000000
# 6 0.000000 0.000000 0.000000 0.000000 0.000000 0.052008
#
#
# Mechanical properties :
#
#
# Convention : Reuss Voigt Hill
#
# Bulk Modulus (GPa) = 36.51211 40.95852 38.73532
# Shear Modulus (GPa) = -14.41224 21.20628 3.39702
#
# Velocity S-wave (km/s) = -2.73464 3.31716 1.32765
# Velocity P-wave (km/s) = 2.99574 5.99366 4.73806
#
# Compressibility (1/GPa) = 0.02738817
#
# Stress axis : x y z
#
# Youngs Moduli (GPa) = 107.43537 59.77225 71.25932
#
# Poissons Ratio (x) = 0.22398 0.13148
# Poissons Ratio (y) = 0.40259 0.05339
# Poissons Ratio (z) = 0.19822 0.04478
#
# Static dielectric constant tensor:
#      x y z
#    x 3.699460 0.000000 0.000000 
#    y 0.000000 3.471730 0.000000 
#    z 0.000000 0.000000 3.405330 
# 
# 
# High freq. dielectric constant tensor:
#      x y z
#    x 1.746760 0.000000 0.000000 
#    y 0.000000 1.728080 0.000000 
#    z 0.000000 0.000000 1.740540 
# 
# From -- ./inp_files/16398.got.cif
#   From: 2010.03.12/outbox.cif.g09.slc.cpg/sg57_9_cif.got.tgz:16398.got - 2010.04.16 15:48:40.
