data_PCOD8231627
_publ_section_title
;
Structure prediction by ZEFSAII (Michael W. Deem and Ramdas Pophale) SiO2 
 PCOD8231627
Probable space group: P B C M
;
_chemical_formula_sum "Si O2"
_cell_formula_units_Z 64
_cell_length_a 18.868757
_cell_length_b 19.035014
_cell_length_c 9.051257
_cell_angle_alpha 90.000000
_cell_angle_beta 90.000000
_cell_angle_gamma 90.000000
_cell_volume 3250.913309
_symmetry_space_group_name_H-M "P B C M"
_symmetry_group_IT_number 57
_symmetry_cell_setting 'orthorhombic'
loop_
_space_group_symop_operation_xyz
x,y,z
-x,-y,1/2+z
x,1/2-y,-z
-x,1/2+y,1/2-z
-x,-y,-z
x,y,1/2-z
-x,1/2+y,z
x,1/2-y,1/2+z
loop_
_atom_site_type_symbol
_atom_site_label
_atom_site_fract_x
_atom_site_fract_y
_atom_site_fract_z
Si Si1 0.569341 0.470603 0.574237
Si Si2 0.079935 0.086491 0.421572
Si Si3 0.801296 0.676416 0.578265
Si Si4 0.285080 0.456733 0.420599
Si Si5 0.924386 0.437292 0.579477
Si Si6 0.268371 0.688135 0.410542
Si Si7 0.791675 0.071866 0.923872
Si Si8 0.428404 0.687075 0.091081
O O1 0.500000 0.500000 0.500000
O O2 0.563423 0.472693 0.750000
O O3 0.636681 0.519148 0.525545
O O4 0.572970 0.390135 0.516181
O O5 0.103322 0.085545 0.250000
O O6 0.128166 0.141267 0.510026
O O7 0.996649 0.107328 0.438476
O O8 0.081326 0.008047 0.483309
O O9 0.784257 0.750000 0.500000
O O10 0.816946 0.690321 0.750000
O O11 0.731644 0.626322 0.559617
O O12 0.274086 0.479566 0.250000
O O13 0.225007 0.492703 0.523174
O O14 0.910847 0.456559 0.750000
O O15 0.860048 0.393609 0.506753
O O16 0.228010 0.750000 0.500000
O O17 0.231972 0.675195 0.250000
O O18 0.272141 0.618753 0.512538
O O19 0.348383 0.711726 0.382033
O O20 0.799494 0.076295 0.750000
O O21 0.467538 0.682629 0.250000
O O22 0.467004 0.750000 0.000000
#
# Coordination Sequence:
#
# PCOD8231627 Si02
#       8
#     8   8   8   8   8   8   8   8
#     4  10  21  39  60  87 120 156 196 243 301 360
#     4  10  20  35  56  84 114 146 194 245 291 355
#     4  11  23  39  63  87 117 161 205 254 313 363
#     4  10  21  40  61  83 115 155 195 244 306 361
#     4  10  20  34  54  81 116 153 188 238 300 349
#     4  10  19  34  53  77 112 148 184 227 278 338
#     4  12  22  32  54  86 116 150 195 241 287 347
#     4   9  18  33  55  81 112 148 186 230 282 347
#
# _framework density 19.686775999999998
#
# number of rings (size 3 to 8) (size 9 to 14) (size 15 to 20)
#    0.000    1.750    2.500    2.625    0.000    3.500 
#    0.000    1.250    0.000    6.000    0.000    0.000 
#    0.000    0.000    0.000    0.000    0.000    0.000 
#
# Total GULP energy -792925.515736 kJ/mol
# GULP energy per Si atom -12389.461183 kJ/mol
# Density = 1.964197 g / cm^3
# Si number density = 19.686776 Si / 1000 Ang^3
#
#
#
# Elastic Constant Matrix: (Units=GPa)
#
#
# Indices 1 2 3 4 5 6 
#
# 1 88.3146 38.2820 43.6992 0.0000 0.0000 0.0000
# 2 38.2820 125.5681 55.5325 0.0000 0.0000 0.0000
# 3 43.6992 55.5325 125.0244 0.0000 0.0000 0.0000
# 4 0.0000 0.0000 0.0000 34.4354 0.0000 0.0000
# 5 0.0000 0.0000 0.0000 0.0000 24.4474 0.0000
# 6 0.0000 0.0000 0.0000 0.0000 0.0000 20.1287
#
#
#
# Elastic Compliance Matrix: (Units=1/GPa)
#
#
# Indices 1 2 3 4 5 6 
#
# 1 0.014386 -0.002691 -0.003833 0.000000 0.000000 0.000000
# 2 -0.002691 0.010414 -0.003685 0.000000 0.000000 0.000000
# 3 -0.003833 -0.003685 0.010975 0.000000 0.000000 0.000000
# 4 0.000000 0.000000 0.000000 0.029040 0.000000 0.000000
# 5 0.000000 0.000000 0.000000 0.000000 0.040904 0.000000
# 6 0.000000 0.000000 0.000000 0.000000 0.000000 0.049680
#
#
# Mechanical properties :
#
#
# Convention : Reuss Voigt Hill
#
# Bulk Modulus (GPa) = 65.11628 68.21493 66.66561
# Shear Modulus (GPa) = 27.63400 29.22853 28.43126
#
# Velocity S-wave (km/s) = 3.75064 3.85733 3.80436
# Velocity P-wave (km/s) = 7.20447 7.38675 7.29618
#
# Compressibility (1/GPa) = 0.01535714
#
# Stress axis : x y z
#
# Youngs Moduli (GPa) = 69.51096 96.02606 91.11570
#
# Poissons Ratio (x) = 0.25838 0.34927
# Poissons Ratio (y) = 0.18703 0.33577
# Poissons Ratio (z) = 0.26645 0.35386
#
# Static dielectric constant tensor:
#      x y z
#    x 3.716800 0.000000 0.000000 
#    y 0.000000 3.520640 0.000000 
#    z 0.000000 0.000000 3.917630 
# 
# 
# High freq. dielectric constant tensor:
#      x y z
#    x 1.746810 0.000000 0.000000 
#    y 0.000000 1.752910 0.000000 
#    z 0.000000 0.000000 1.776340 
# 
# From -- ./inp_files/8760.got.cif
#   From: 2010.03.12/outbox.cif.g09.slc.cpg/sg57_5_cif.got.tgz:8760.got - 2010.04.16 15:48:40.
