data_PCOD8231658
_publ_section_title
;
Structure prediction by ZEFSAII (Michael W. Deem and Ramdas Pophale) SiO2 
 PCOD8231658
Probable space group: P B C M
;
_chemical_formula_sum "Si O2"
_cell_formula_units_Z 48
_cell_length_a 12.711463
_cell_length_b 23.589502
_cell_length_c 8.762583
_cell_angle_alpha 90.000000
_cell_angle_beta 90.000000
_cell_angle_gamma 90.000000
_cell_volume 2627.522568
_symmetry_space_group_name_H-M "P B C M"
_symmetry_group_IT_number 57
_symmetry_cell_setting 'orthorhombic'
loop_
_space_group_symop_operation_xyz
x,y,z
-x,-y,1/2+z
x,1/2-y,-z
-x,1/2+y,1/2-z
-x,-y,-z
x,y,1/2-z
-x,1/2+y,z
x,1/2-y,1/2+z
loop_
_atom_site_type_symbol
_atom_site_label
_atom_site_fract_x
_atom_site_fract_y
_atom_site_fract_z
Si Si1 0.999614 0.310487 0.069943
Si Si2 0.616180 0.688938 0.568191
Si Si3 0.811366 0.374090 0.927390
Si Si4 0.191769 0.385480 0.069270
Si Si5 0.885365 0.004029 0.430088
Si Si6 0.396965 0.809658 0.928633
O O1 0.002502 0.305052 0.250000
O O2 0.088929 0.352941 0.007031
O O3 0.023921 0.250000 0.000000
O O4 0.885819 0.332497 0.021042
O O5 0.645413 0.750000 0.500000
O O6 0.614209 0.693173 0.750000
O O7 0.702109 0.643832 0.507438
O O8 0.503326 0.668161 0.507533
O O9 0.839491 0.367270 0.750000
O O10 0.826928 0.438730 0.983051
O O11 0.691461 0.356707 0.960361
O O12 0.192213 0.382146 0.250000
O O13 0.185016 0.450725 0.013395
O O14 0.899228 0.001974 0.250000
O O15 0.000000 0.000000 0.500000
O O16 0.417354 0.800439 0.750000
O O17 0.360691 0.750000 0.000000
#
# Coordination Sequence:
#
# PCOD8231658 Si02
#       6
#     8   8   8   8   8   8
#     4  11  21  33  51  77 108 138 171 215 264 317
#     4  10  19  34  55  78 104 138 175 215 264 315
#     4  10  21  35  54  78 106 139 176 217 263 313
#     4   9  19  34  53  77 106 138 173 214 264 314
#     4  10  19  36  56  77 105 141 179 216 261 312
#     4  10  20  35  53  77 105 137 174 216 264 312
#
# _framework density 18.268158
#
# number of rings (size 3 to 8) (size 9 to 14) (size 15 to 20)
#    0.000    2.000    1.667    3.500    0.000    2.667 
#    0.000    5.000    0.000    0.000    0.000    0.000 
#    0.000    0.000    0.000    0.000    0.000    0.000 
#
# Total GULP energy -595238.297111 kJ/mol
# GULP energy per Si atom -12400.797856 kJ/mol
# Density = 1.822658 g / cm^3
# Si number density = 18.268158 Si / 1000 Ang^3
#
#
#
# Elastic Constant Matrix: (Units=GPa)
#
#
# Indices 1 2 3 4 5 6 
#
# 1 122.4023 62.6530 31.0269 0.0000 0.0000 0.0000
# 2 62.6530 118.0978 25.9536 0.0000 0.0000 0.0000
# 3 31.0269 25.9536 56.4063 0.0000 0.0000 0.0000
# 4 0.0000 0.0000 0.0000 16.1106 0.0000 0.0000
# 5 0.0000 0.0000 0.0000 0.0000 26.7760 0.0000
# 6 0.0000 0.0000 0.0000 0.0000 0.0000 32.0879
#
#
#
# Elastic Compliance Matrix: (Units=1/GPa)
#
#
# Indices 1 2 3 4 5 6 
#
# 1 0.012006 -0.005471 -0.004087 0.000000 0.000000 0.000000
# 2 -0.005471 0.011914 -0.002472 0.000000 0.000000 0.000000
# 3 -0.004087 -0.002472 0.021114 0.000000 0.000000 0.000000
# 4 0.000000 0.000000 0.000000 0.062071 0.000000 0.000000
# 5 0.000000 0.000000 0.000000 0.000000 0.037347 0.000000
# 6 0.000000 0.000000 0.000000 0.000000 0.000000 0.031164
#
#
# Mechanical properties :
#
#
# Convention : Reuss Voigt Hill
#
# Bulk Modulus (GPa) = 47.67946 59.57483 53.62715
# Shear Modulus (GPa) = 24.19348 26.81310 25.50329
#
# Velocity S-wave (km/s) = 3.64311 3.83528 3.74043
# Velocity P-wave (km/s) = 6.62214 7.23150 6.93352
#
# Compressibility (1/GPa) = 0.02097339
#
# Stress axis : x y z
#
# Youngs Moduli (GPa) = 83.28952 83.93824 47.36230
#
# Poissons Ratio (x) = 0.45926 0.19355
# Poissons Ratio (y) = 0.45572 0.11708
# Poissons Ratio (z) = 0.34038 0.20750
#
# Static dielectric constant tensor:
#      x y z
#    x 2.580250 0.000000 0.000000 
#    y 0.000000 3.630710 0.000000 
#    z 0.000000 0.000000 3.283100 
# 
# 
# High freq. dielectric constant tensor:
#      x y z
#    x 1.709720 0.000000 0.000000 
#    y 0.000000 1.710870 0.000000 
#    z 0.000000 0.000000 1.699930 
# 
# From -- ./inp_files/3130.got.cif
#   From: 2010.03.12/outbox.cif.g09.slc.cpg/sg57_2_cif.got.tgz:3130.got - 2010.04.16 15:48:40.
