data_PCOD8231383
_publ_section_title
;
Structure prediction by ZEFSAII (Michael W. Deem and Ramdas Pophale) SiO2 
 PCOD8231383
Probable space group: P B C M
;
_chemical_formula_sum "Si O2"
_cell_formula_units_Z 64
_cell_length_a 20.089417
_cell_length_b 19.881115
_cell_length_c 8.977255
_cell_angle_alpha 90.000000
_cell_angle_beta 90.000000
_cell_angle_gamma 90.000000
_cell_volume 3585.515734
_symmetry_space_group_name_H-M "P B C M"
_symmetry_group_IT_number 57
_symmetry_cell_setting 'orthorhombic'
loop_
_space_group_symop_operation_xyz
x,y,z
-x,-y,1/2+z
x,1/2-y,-z
-x,1/2+y,1/2-z
-x,-y,-z
x,y,1/2-z
-x,1/2+y,z
x,1/2-y,1/2+z
loop_
_atom_site_type_symbol
_atom_site_label
_atom_site_fract_x
_atom_site_fract_y
_atom_site_fract_z
Si Si1 0.295054 0.913736 0.076205
Si Si2 0.517731 0.930918 0.422836
Si Si3 0.972940 0.067247 0.575082
Si Si4 0.195339 0.089435 0.924336
Si Si5 0.162734 0.939803 0.926923
Si Si6 0.583689 0.179087 0.923233
Si Si7 0.919178 0.680168 0.923693
Si Si8 0.664950 0.547399 0.577532
O O1 0.278889 0.921638 0.250000
O O2 0.343533 0.851166 0.044919
O O3 0.227214 0.899511 0.985949
O O4 0.332666 0.980703 0.021638
O O5 0.501157 0.940374 0.250000
O O6 0.473282 0.870572 0.488862
O O7 0.595734 0.913895 0.449792
O O8 0.500000 0.000000 0.500000
O O9 0.965312 0.054016 0.750000
O O10 0.902930 0.089597 0.503812
O O11 0.022499 0.128029 0.541076
O O12 0.000000 0.000000 0.500000
O O13 0.182593 0.091125 0.750000
O O14 0.149899 0.149082 0.991938
O O15 0.273690 0.097421 0.965044
O O16 0.170329 0.016905 0.980915
O O17 0.157675 0.932013 0.750000
O O18 0.571298 0.189884 0.750000
O O19 0.576385 0.250000 0.000000
O O20 0.912466 0.694427 0.750000
O O21 0.936178 0.750000 0.000000
O O22 0.672977 0.524987 0.750000
#
# Coordination Sequence:
#
# PCOD8231383 Si02
#       8
#     8   8   8   8   8   8   8   8
#     4  10  19  33  52  79 110 137 174 228 276 322
#     4  10  19  33  53  81 110 142 183 229 277 328
#     4  11  21  35  56  83 113 145 183 232 279 324
#     4   8  15  31  51  75 105 136 171 216 263 315
#     4  10  19  34  56  82 109 138 178 224 274 329
#     4  10  22  37  53  76 111 148 187 231 278 334
#     4  10  21  37  54  76 110 146 182 224 271 326
#     4   9  17  30  54  80 105 139 177 219 273 327
#
# _framework density 17.849594
#
# number of rings (size 3 to 8) (size 9 to 14) (size 15 to 20)
#    0.000    2.250    2.500    1.875    0.000    2.500 
#    0.000    1.875    0.000    0.000    0.000    0.000 
#    0.000    0.000    0.000    0.000    0.000    0.000 
#
# Total GULP energy -793451.296527 kJ/mol
# GULP energy per Si atom -12397.676508 kJ/mol
# Density = 1.780897 g / cm^3
# Si number density = 17.849594 Si / 1000 Ang^3
#
#
#
# Elastic Constant Matrix: (Units=GPa)
#
#
# Indices 1 2 3 4 5 6 
#
# 1 150.9043 70.5730 56.5604 0.0000 0.0000 0.0000
# 2 70.5730 117.1211 50.5690 0.0000 0.0000 0.0000
# 3 56.5604 50.5690 66.3950 0.0000 0.0000 0.0000
# 4 0.0000 0.0000 0.0000 27.2821 0.0000 0.0000
# 5 0.0000 0.0000 0.0000 0.0000 27.2955 0.0000
# 6 0.0000 0.0000 0.0000 0.0000 0.0000 20.6557
#
#
#
# Elastic Compliance Matrix: (Units=1/GPa)
#
#
# Indices 1 2 3 4 5 6 
#
# 1 0.010741 -0.003757 -0.006288 0.000000 0.000000 0.000000
# 2 -0.003757 0.014036 -0.007490 0.000000 0.000000 0.000000
# 3 -0.006288 -0.007490 0.026123 0.000000 0.000000 0.000000
# 4 0.000000 0.000000 0.000000 0.036654 0.000000 0.000000
# 5 0.000000 0.000000 0.000000 0.000000 0.036636 0.000000
# 6 0.000000 0.000000 0.000000 0.000000 0.000000 0.048413
#
#
# Mechanical properties :
#
#
# Convention : Reuss Voigt Hill
#
# Bulk Modulus (GPa) = 63.17435 76.64725 69.91080
# Shear Modulus (GPa) = 23.47987 25.49453 24.48720
#
# Velocity S-wave (km/s) = 3.63082 3.78338 3.70789
# Velocity P-wave (km/s) = 7.28331 7.88157 7.58834
#
# Compressibility (1/GPa) = 0.01582921
#
# Stress axis : x y z
#
# Youngs Moduli (GPa) = 93.10484 71.24668 38.28067
#
# Poissons Ratio (x) = 0.26766 0.24072
# Poissons Ratio (y) = 0.34978 0.28672
# Poissons Ratio (z) = 0.58548 0.53363
#
# Static dielectric constant tensor:
#      x y z
#    x 3.824330 0.000000 0.000000 
#    y 0.000000 3.108800 0.000000 
#    z 0.000000 0.000000 3.230130 
# 
# 
# High freq. dielectric constant tensor:
#      x y z
#    x 1.712250 0.000000 0.000000 
#    y 0.000000 1.658340 0.000000 
#    z 0.000000 0.000000 1.682580 
# 
# From -- ./inp_files/8476.got.cif
#   From: 2010.03.12/outbox.cif.g09.slc.cpg/sg57_5_cif.got.tgz:8476.got - 2010.04.16 15:48:40.
