data_PCOD8231884
_publ_section_title
;
Structure prediction by ZEFSAII (Michael W. Deem and Ramdas Pophale) SiO2 
 PCOD8231884
Probable space group: P B C M
;
_chemical_formula_sum "Si O2"
_cell_formula_units_Z 64
_cell_length_a 20.066138
_cell_length_b 19.903445
_cell_length_c 8.652533
_cell_angle_alpha 90.000000
_cell_angle_beta 90.000000
_cell_angle_gamma 90.000000
_cell_volume 3455.694263
_symmetry_space_group_name_H-M "P B C M"
_symmetry_group_IT_number 57
_symmetry_cell_setting 'orthorhombic'
loop_
_space_group_symop_operation_xyz
x,y,z
-x,-y,1/2+z
x,1/2-y,-z
-x,1/2+y,1/2-z
-x,-y,-z
x,y,1/2-z
-x,1/2+y,z
x,1/2-y,1/2+z
loop_
_atom_site_type_symbol
_atom_site_label
_atom_site_fract_x
_atom_site_fract_y
_atom_site_fract_z
Si Si1 0.698345 0.593580 0.931853
Si Si2 0.835207 0.560918 0.067015
Si Si3 0.662299 0.455126 0.071819
Si Si4 0.916939 0.177599 0.567541
Si Si5 0.416529 0.177768 0.432772
Si Si6 0.198162 0.912647 0.431693
Si Si7 0.025323 0.069726 0.567716
Si Si8 0.515116 0.428033 0.070406
O O1 0.705137 0.600407 0.750000
O O2 0.771101 0.601720 0.007352
O O3 0.662780 0.523038 0.972223
O O4 0.653010 0.653592 0.995418
O O5 0.838802 0.566573 0.250000
O O6 0.828704 0.484210 0.008133
O O7 0.902193 0.590880 0.994382
O O8 0.671878 0.477941 0.250000
O O9 0.723665 0.406218 0.022177
O O10 0.594106 0.414371 0.049396
O O11 0.930684 0.250000 0.500000
O O12 0.914126 0.183892 0.750000
O O13 0.846933 0.147513 0.499646
O O14 0.975890 0.128549 0.514088
O O15 0.434984 0.250000 0.500000
O O16 0.409832 0.181018 0.250000
O O17 0.476587 0.128361 0.476722
O O18 0.188443 0.911248 0.250000
O O19 0.026836 0.062444 0.750000
O O20 0.000000 0.000000 0.500000
O O21 0.493962 0.426190 0.250000
O O22 0.500000 0.500000 0.000000
#
# Coordination Sequence:
#
# PCOD8231884 Si02
#       8
#     8   8   8   8   8   8   8   8
#     4  11  21  35  57  87 118 148 189 238 289 352
#     4  10  19  35  58  84 114 147 187 238 293 341
#     4   9  18  33  57  84 114 151 191 235 291 341
#     4  10  21  37  55  79 113 152 190 234 286 347
#     4  12  25  42  61  84 117 159 201 247 303 363
#     4   8  15  32  54  78 109 145 183 229 281 336
#     4  11  21  35  56  85 116 149 192 243 295 348
#     4  11  21  35  58  89 121 157 198 245 294 349
#
# _framework density 18.520156
#
# number of rings (size 3 to 8) (size 9 to 14) (size 15 to 20)
#    0.000    1.750    2.500    4.125    0.000    1.500 
#    0.000    1.875    0.000    3.000    0.000    0.000 
#    0.000    0.000    0.000    0.000    0.000    0.000 
#
# Total GULP energy -793584.042846 kJ/mol
# GULP energy per Si atom -12399.750669 kJ/mol
# Density = 1.847800 g / cm^3
# Si number density = 18.520156 Si / 1000 Ang^3
#
#
#
# Elastic Constant Matrix: (Units=GPa)
#
#
# Indices 1 2 3 4 5 6 
#
# 1 140.4824 62.2987 31.6535 0.0000 0.0000 0.0000
# 2 62.2987 116.0093 32.3217 0.0000 0.0000 0.0000
# 3 31.6535 32.3217 70.7235 0.0000 0.0000 0.0000
# 4 0.0000 0.0000 0.0000 27.1951 0.0000 0.0000
# 5 0.0000 0.0000 0.0000 0.0000 30.5346 0.0000
# 6 0.0000 0.0000 0.0000 0.0000 0.0000 32.3530
#
#
#
# Elastic Compliance Matrix: (Units=1/GPa)
#
#
# Indices 1 2 3 4 5 6 
#
# 1 0.009642 -0.004556 -0.002233 0.000000 0.000000 0.000000
# 2 -0.004556 0.012030 -0.003459 0.000000 0.000000 0.000000
# 3 -0.002233 -0.003459 0.016720 0.000000 0.000000 0.000000
# 4 0.000000 0.000000 0.000000 0.036771 0.000000 0.000000
# 5 0.000000 0.000000 0.000000 0.000000 0.032750 0.000000
# 6 0.000000 0.000000 0.000000 0.000000 0.000000 0.030909
#
#
# Mechanical properties :
#
#
# Convention : Reuss Voigt Hill
#
# Bulk Modulus (GPa) = 55.87854 64.41813 60.14834
# Shear Modulus (GPa) = 30.25111 31.41263 30.83187
#
# Velocity S-wave (km/s) = 4.04594 4.12288 4.08459
# Velocity P-wave (km/s) = 7.21550 7.58435 7.40222
#
# Compressibility (1/GPa) = 0.01789596
#
# Stress axis : x y z
#
# Youngs Moduli (GPa) = 103.71555 83.12477 59.80862
#
# Poissons Ratio (x) = 0.37868 0.13358
# Poissons Ratio (y) = 0.47248 0.20688
# Poissons Ratio (z) = 0.23164 0.28753
#
# Static dielectric constant tensor:
#      x y z
#    x 3.905170 0.000000 0.000000 
#    y 0.000000 5.377780 0.000000 
#    z 0.000000 0.000000 3.374080 
# 
# 
# High freq. dielectric constant tensor:
#      x y z
#    x 1.739750 0.000000 0.000000 
#    y 0.000000 1.687560 0.000000 
#    z 0.000000 0.000000 1.717400 
# 
# From -- ./inp_files/8532.got.cif
#   From: 2010.03.12/outbox.cif.g09.slc.cpg/sg57_5_cif.got.tgz:8532.got - 2010.04.16 15:48:40.
