data_PCOD8231657
_publ_section_title
;
Structure prediction by ZEFSAII (Michael W. Deem and Ramdas Pophale) SiO2 
 PCOD8231657
Probable space group: P B C M
;
_chemical_formula_sum "Si O2"
_cell_formula_units_Z 64
_cell_length_a 21.018766
_cell_length_b 18.669752
_cell_length_c 8.498554
_cell_angle_alpha 90.000000
_cell_angle_beta 90.000000
_cell_angle_gamma 90.000000
_cell_volume 3334.961331
_symmetry_space_group_name_H-M "P B C M"
_symmetry_group_IT_number 57
_symmetry_cell_setting 'orthorhombic'
loop_
_space_group_symop_operation_xyz
x,y,z
-x,-y,1/2+z
x,1/2-y,-z
-x,1/2+y,1/2-z
-x,-y,-z
x,y,1/2-z
-x,1/2+y,z
x,1/2-y,1/2+z
loop_
_atom_site_type_symbol
_atom_site_label
_atom_site_fract_x
_atom_site_fract_y
_atom_site_fract_z
Si Si1 0.997294 0.671724 0.063281
Si Si2 0.377662 0.091286 0.936051
Si Si3 0.496286 0.328063 0.563083
Si Si4 0.744526 0.414534 0.569366
Si Si5 0.748634 0.934330 0.568759
Si Si6 0.110891 0.433274 0.568391
Si Si7 0.608960 0.428114 0.937556
Si Si8 0.119024 0.589418 0.436696
O O1 0.997247 0.672814 0.250000
O O2 0.064525 0.641779 0.997055
O O3 0.940299 0.622073 0.998388
O O4 0.985244 0.750000 0.000000
O O5 0.372329 0.096648 0.750000
O O6 0.396697 0.010836 0.993636
O O7 0.428944 0.147571 0.996458
O O8 0.310333 0.115657 0.015083
O O9 0.513465 0.250000 0.500000
O O10 0.494680 0.327790 0.750000
O O11 0.550033 0.382557 0.497008
O O12 0.745188 0.392452 0.750000
O O13 0.746041 0.499858 0.551685
O O14 0.675531 0.391502 0.497664
O O15 0.811141 0.385694 0.492837
O O16 0.739938 0.958913 0.750000
O O17 0.818372 0.898693 0.546946
O O18 0.096459 0.448618 0.750000
O O19 0.102959 0.508312 0.480860
O O20 0.610401 0.426828 0.750000
O O21 0.121695 0.593529 0.250000
#
# Coordination Sequence:
#
# PCOD8231657 Si02
#       8
#     8   8   8   8   8   8   8   8
#     4  10  21  35  48  69 100 135 170 206 246 292
#     4  10  19  34  55  78 100 127 163 204 247 296
#     4  11  22  36  51  71 100 134 167 203 244 290
#     4   8  14  28  49  74 100 126 158 201 246 291
#     4   9  16  28  48  75 102 127 156 201 251 294
#     4   9  18  32  51  74 101 129 164 207 250 294
#     4   8  16  31  53  76  99 127 162 201 243 288
#     4   9  17  30  52  77 100 127 164 205 248 295
#
# _framework density 19.190628
#
# number of rings (size 3 to 8) (size 9 to 14) (size 15 to 20)
#    0.000    2.750    0.000    2.625    0.000    1.500 
#    0.000    6.875    0.000    1.500    0.000    0.000 
#    0.000    0.000    0.000    0.000    0.000    0.000 
#
# Total GULP energy -792859.612073 kJ/mol
# GULP energy per Si atom -12388.431439 kJ/mol
# Density = 1.914695 g / cm^3
# Si number density = 19.190628 Si / 1000 Ang^3
#
#
#
# Elastic Constant Matrix: (Units=GPa)
#
#
# Indices 1 2 3 4 5 6 
#
# 1 123.9476 22.6529 15.5755 0.0000 0.0000 0.0000
# 2 22.6529 52.9763 9.3323 0.0000 0.0000 0.0000
# 3 15.5755 9.3323 29.6295 0.0000 0.0000 0.0000
# 4 0.0000 0.0000 0.0000 17.2144 0.0000 0.0000
# 5 0.0000 0.0000 0.0000 0.0000 19.6058 0.0000
# 6 0.0000 0.0000 0.0000 0.0000 0.0000 11.7164
#
#
#
# Elastic Compliance Matrix: (Units=1/GPa)
#
#
# Indices 1 2 3 4 5 6 
#
# 1 0.009135 -0.003240 -0.003782 0.000000 0.000000 0.000000
# 2 -0.003240 0.021134 -0.004953 0.000000 0.000000 0.000000
# 3 -0.003782 -0.004953 0.037298 0.000000 0.000000 0.000000
# 4 0.000000 0.000000 0.000000 0.058091 0.000000 0.000000
# 5 0.000000 0.000000 0.000000 0.000000 0.051005 0.000000
# 6 0.000000 0.000000 0.000000 0.000000 0.000000 0.085350
#
#
# Mechanical properties :
#
#
# Convention : Reuss Voigt Hill
#
# Bulk Modulus (GPa) = 22.92653 33.51943 28.22298
# Shear Modulus (GPa) = 16.63872 20.30685 18.47278
#
# Velocity S-wave (km/s) = 2.94772 3.25647 3.10594
# Velocity P-wave (km/s) = 4.85367 5.62530 5.25367
#
# Compressibility (1/GPa) = 0.04361758
#
# Stress axis : x y z
#
# Youngs Moduli (GPa) = 109.46541 47.31608 26.81094
#
# Poissons Ratio (x) = 0.15331 0.10139
# Poissons Ratio (y) = 0.35468 0.13281
# Poissons Ratio (z) = 0.41396 0.23438
#
# Static dielectric constant tensor:
#      x y z
#    x 4.342290 0.000000 0.000000 
#    y 0.000000 3.186880 0.000000 
#    z 0.000000 0.000000 3.279670 
# 
# 
# High freq. dielectric constant tensor:
#      x y z
#    x 1.779670 0.000000 0.000000 
#    y 0.000000 1.697070 0.000000 
#    z 0.000000 0.000000 1.727270 
# 
# From -- ./inp_files/8517.got.cif
#   From: 2010.03.12/outbox.cif.g09.slc.cpg/sg57_5_cif.got.tgz:8517.got - 2010.04.16 15:48:40.
