data_PCOD8231584
_publ_section_title
;
Structure prediction by ZEFSAII (Michael W. Deem and Ramdas Pophale) SiO2 
 PCOD8231584
Probable space group: P B C M
;
_chemical_formula_sum "Si O2"
_cell_formula_units_Z 48
_cell_length_a 8.642749
_cell_length_b 19.387362
_cell_length_c 13.678675
_cell_angle_alpha 90.000000
_cell_angle_beta 90.000000
_cell_angle_gamma 90.000000
_cell_volume 2292.000199
_symmetry_space_group_name_H-M "P B C M"
_symmetry_group_IT_number 57
_symmetry_cell_setting 'orthorhombic'
loop_
_space_group_symop_operation_xyz
x,y,z
-x,-y,1/2+z
x,1/2-y,-z
-x,1/2+y,1/2-z
-x,-y,-z
x,y,1/2-z
-x,1/2+y,z
x,1/2-y,1/2+z
loop_
_atom_site_type_symbol
_atom_site_label
_atom_site_fract_x
_atom_site_fract_y
_atom_site_fract_z
Si Si1 0.732368 0.399961 0.488598
Si Si2 0.530002 0.646621 0.859810
Si Si3 0.829715 0.718370 0.860956
Si Si4 0.921006 0.995674 0.863829
Si Si5 0.721428 0.508537 0.638814
Si Si6 0.951449 0.853325 0.541887
O O1 0.607083 0.349650 0.438822
O O2 0.809382 0.445043 0.402733
O O3 0.650433 0.449631 0.568329
O O4 0.861177 0.354377 0.545139
O O5 0.461017 0.645616 0.750000
O O6 0.643005 0.712669 0.873063
O O7 0.632817 0.579132 0.879525
O O8 0.877995 0.700000 0.750000
O O9 0.885627 0.794523 0.887261
O O10 0.906925 0.661230 0.929870
O O11 0.889683 0.984238 0.750000
O O12 0.880789 0.925138 0.920895
O O13 0.097033 0.017411 0.887097
O O14 0.701842 0.483286 0.750000
#
# Coordination Sequence:
#
# PCOD8231584 Si02
#       6
#     8   8   8   8   8   8
#     4  11  20  33  56  87 118 148 187 241 294 345
#     4  10  20  34  55  83 113 149 190 232 286 348
#     4  10  21  39  60  79 109 155 201 242 286 344
#     4  10  19  33  56  88 121 149 186 237 292 350
#     4   9  18  32  52  81 117 153 186 229 289 352
#     4  10  21  37  58  84 112 150 198 241 289 343
#
# _framework density 20.942406999999999
#
# number of rings (size 3 to 8) (size 9 to 14) (size 15 to 20)
#    0.000    2.000    0.000    5.500    0.000    3.333 
#    0.000    3.333    0.000    4.000    0.000   11.667 
#    0.000    0.000    0.000    0.000    0.000    0.000 
#
# Total GULP energy -595156.374854 kJ/mol
# GULP energy per Si atom -12399.091143 kJ/mol
# Density = 2.089474 g / cm^3
# Si number density = 20.942407 Si / 1000 Ang^3
#
#
#
# Elastic Constant Matrix: (Units=GPa)
#
#
# Indices 1 2 3 4 5 6 
#
# 1 73.2091 38.1517 30.1454 0.0000 0.0000 0.0000
# 2 38.1517 71.2948 32.6047 0.0000 0.0000 0.0000
# 3 30.1454 32.6047 106.1358 0.0000 0.0000 0.0000
# 4 0.0000 0.0000 0.0000 27.8036 0.0000 0.0000
# 5 0.0000 0.0000 0.0000 0.0000 32.8056 0.0000
# 6 0.0000 0.0000 0.0000 0.0000 0.0000 26.2574
#
#
#
# Elastic Compliance Matrix: (Units=1/GPa)
#
#
# Indices 1 2 3 4 5 6 
#
# 1 0.019598 -0.009240 -0.002728 0.000000 0.000000 0.000000
# 2 -0.009240 0.020675 -0.003727 0.000000 0.000000 0.000000
# 3 -0.002728 -0.003727 0.011342 0.000000 0.000000 0.000000
# 4 0.000000 0.000000 0.000000 0.035967 0.000000 0.000000
# 5 0.000000 0.000000 0.000000 0.000000 0.030483 0.000000
# 6 0.000000 0.000000 0.000000 0.000000 0.000000 0.038084
#
#
# Mechanical properties :
#
#
# Convention : Reuss Voigt Hill
#
# Bulk Modulus (GPa) = 49.44308 50.27148 49.85728
# Shear Modulus (GPa) = 25.73609 27.35585 26.54597
#
# Velocity S-wave (km/s) = 3.50937 3.61812 3.56416
# Velocity P-wave (km/s) = 6.33097 6.44291 6.38719
#
# Compressibility (1/GPa) = 0.02022528
#
# Stress axis : x y z
#
# Youngs Moduli (GPa) = 51.02568 48.36716 88.17089
#
# Poissons Ratio (x) = 0.44691 0.24052
# Poissons Ratio (y) = 0.47147 0.32861
# Poissons Ratio (z) = 0.13919 0.18026
#
# Static dielectric constant tensor:
#      x y z
#    x 3.682350 0.000000 0.000000 
#    y 0.000000 3.604580 0.000000 
#    z 0.000000 0.000000 3.999180 
# 
# 
# High freq. dielectric constant tensor:
#      x y z
#    x 1.799270 0.000000 0.000000 
#    y 0.000000 1.803270 0.000000 
#    z 0.000000 0.000000 1.838350 
# 
# From -- ./inp_files/16581.got.cif
#   From: 2010.03.12/outbox.cif.g09.slc.cpg/sg57_9_cif.got.tgz:16581.got - 2010.04.16 15:48:40.
