data_PCOD8231220
_publ_section_title
;
Structure prediction by ZEFSAII (Michael W. Deem and Ramdas Pophale) SiO2 
 PCOD8231220
Probable space group: P B C M
;
_chemical_formula_sum "Si O2"
_cell_formula_units_Z 64
_cell_length_a 9.227387
_cell_length_b 20.705493
_cell_length_c 18.515057
_cell_angle_alpha 90.000000
_cell_angle_beta 90.000000
_cell_angle_gamma 90.000000
_cell_volume 3537.442298
_symmetry_space_group_name_H-M "P B C M"
_symmetry_group_IT_number 57
_symmetry_cell_setting 'orthorhombic'
loop_
_space_group_symop_operation_xyz
x,y,z
-x,-y,1/2+z
x,1/2-y,-z
-x,1/2+y,1/2-z
-x,-y,-z
x,y,1/2-z
-x,1/2+y,z
x,1/2-y,1/2+z
loop_
_atom_site_type_symbol
_atom_site_label
_atom_site_fract_x
_atom_site_fract_y
_atom_site_fract_z
Si Si1 0.160291 0.750000 0.333374
Si Si2 0.671481 0.007681 0.420441
Si Si3 0.360032 0.629536 0.165365
Si Si4 0.671482 0.492320 0.079559
Si Si5 0.340080 0.366724 0.585035
Si Si6 0.138747 0.250000 0.084973
Si Si7 0.659919 0.866724 0.414965
Si Si8 0.360033 0.629536 0.665366
O O1 0.116601 0.750000 0.250000
O O2 0.252148 0.687130 0.353486
O O3 0.252148 0.812871 0.353486
O O4 0.016361 0.750000 0.379349
O O5 0.713805 0.063444 0.363999
O O6 0.731305 0.026571 0.500000
O O7 0.500000 0.000001 0.423874
O O8 0.730687 0.936991 0.396682
O O9 0.387861 0.622021 0.250000
O O10 0.511550 0.644942 0.127474
O O11 0.730688 0.563009 0.103319
O O12 0.713804 0.436556 0.136002
O O13 0.226069 0.313195 0.610414
O O14 0.375788 0.361680 0.500000
O O15 0.226069 0.313195 0.110414
O O16 0.116104 0.250000 0.000000
O O17 0.511549 0.855058 0.372527
O O18 0.387863 0.622022 0.750000
#
# Coordination Sequence:
#
# PCOD8231220 Si02
#       8
#     8   8   8   8   8   8   8   8
#     4  10  23  38  48  68 104 136 165 206 248 286
#     4   8  15  29  49  74 103 128 154 200 252 288
#     4  10  19  32  52  76 100 130 167 201 240 295
#     4   8  15  29  49  74 103 128 154 200 252 288
#     4   9  18  33  53  78 103 125 159 207 250 290
#     4  10  21  36  54  74  96 130 173 206 240 294
#     4   9  18  33  53  78 103 125 159 207 250 290
#     4  10  19  32  52  76 100 130 167 201 240 295
#
# _framework density 18.092168999999998
#
# number of rings (size 3 to 8) (size 9 to 14) (size 15 to 20)
#    0.000    2.750    0.000    3.000    0.000    7.500 
#    0.000    1.250    0.000    7.500    0.000    0.000 
#    0.000    0.000    0.000    0.000    0.000    0.000 
#
# Total GULP energy -793407.458779 kJ/mol
# GULP energy per Si atom -12396.991543 kJ/mol
# Density = 1.805099 g / cm^3
# Si number density = 18.092169 Si / 1000 Ang^3
#
#
#
# Elastic Constant Matrix: (Units=GPa)
#
#
# Indices 1 2 3 4 5 6 
#
# 1 84.4993 67.7546 54.1415 0.0000 0.0000 0.0000
# 2 67.7546 175.8687 67.6399 0.0000 0.0000 0.0000
# 3 54.1415 67.6399 78.7752 0.0000 0.0000 0.0000
# 4 0.0000 0.0000 0.0000 30.9679 0.0000 0.0000
# 5 0.0000 0.0000 0.0000 0.0000 23.7982 0.0000
# 6 0.0000 0.0000 0.0000 0.0000 0.0000 -1.5779
#
#
#
# Elastic Compliance Matrix: (Units=1/GPa)
#
#
# Indices 1 2 3 4 5 6 
#
# 1 0.023016 -0.004155 -0.012250 0.000000 0.000000 0.000000
# 2 -0.004155 0.009240 -0.005078 0.000000 0.000000 0.000000
# 3 -0.012250 -0.005078 0.025474 0.000000 0.000000 0.000000
# 4 0.000000 0.000000 0.000000 0.032292 0.000000 0.000000
# 5 0.000000 0.000000 0.000000 0.000000 0.042020 0.000000
# 6 0.000000 0.000000 0.000000 0.000000 0.000000 -0.633765
#
#
# Mechanical properties :
#
#
# Convention : Reuss Voigt Hill
#
# Bulk Modulus (GPa) = 67.74040 79.80169 73.77105
# Shear Modulus (GPa) = -11.01721 20.61145 4.79712
#
# Velocity S-wave (km/s) = -2.47037 3.37894 1.63011
# Velocity P-wave (km/s) = 5.42090 7.70890 6.66383
#
# Compressibility (1/GPa) = 0.01476224
#
# Stress axis : x y z
#
# Youngs Moduli (GPa) = 43.44875 108.22631 39.25561
#
# Poissons Ratio (x) = 0.44972 0.48090
# Poissons Ratio (y) = 0.18054 0.19933
# Poissons Ratio (z) = 0.53227 0.54956
#
# Static dielectric constant tensor:
#      x y z
#    x 2.936070 0.000000 0.000000 
#    y 0.000000 4.059210 0.000000 
#    z 0.000000 0.000000 3.316250 
# 
# 
# High freq. dielectric constant tensor:
#      x y z
#    x 1.660900 0.000000 0.000000 
#    y 0.000000 1.725700 0.000000 
#    z 0.000000 0.000000 1.697460 
# 
# From -- ./inp_files/21391.got.cif
#   From: 2010.03.12/outbox.cif.g09.slc.cpg/sg57_11_cif.got.tgz:21391.got - 2010.04.16 15:48:40.
