data_PCOD8231912
_publ_section_title
;
Structure prediction by ZEFSAII (Michael W. Deem and Ramdas Pophale) SiO2 
 PCOD8231912
Probable space group: P B C M
;
_chemical_formula_sum "Si O2"
_cell_formula_units_Z 64
_cell_length_a 9.734935
_cell_length_b 19.478784
_cell_length_c 18.389769
_cell_angle_alpha 90.000000
_cell_angle_beta 90.000000
_cell_angle_gamma 90.000000
_cell_volume 3487.154358
_symmetry_space_group_name_H-M "P B C M"
_symmetry_group_IT_number 57
_symmetry_cell_setting 'orthorhombic'
loop_
_space_group_symop_operation_xyz
x,y,z
-x,-y,1/2+z
x,1/2-y,-z
-x,1/2+y,1/2-z
-x,-y,-z
x,y,1/2-z
-x,1/2+y,z
x,1/2-y,1/2+z
loop_
_atom_site_type_symbol
_atom_site_label
_atom_site_fract_x
_atom_site_fract_y
_atom_site_fract_z
Si Si1 0.930934 0.866803 0.833103
Si Si2 0.886480 0.179531 0.592349
Si Si3 0.520347 0.160886 0.432469
Si Si4 0.343255 0.061650 0.165438
Si Si5 0.165157 0.831930 0.929536
Si Si6 0.345035 0.904123 0.166306
Si Si7 0.156743 0.287683 0.165203
Si Si8 0.559011 0.812574 0.406162
O O1 0.975713 0.873738 0.750000
O O2 0.815162 0.922092 0.854374
O O3 0.866611 0.792480 0.849750
O O4 0.069869 0.879906 0.878888
O O5 0.910836 0.168751 0.506961
O O6 0.826509 0.255811 0.605231
O O7 0.780073 0.123113 0.618890
O O8 0.026690 0.169166 0.636927
O O9 0.446468 0.106990 0.381116
O O10 0.680540 0.139546 0.436156
O O11 0.454444 0.157926 0.512492
O O12 0.506156 0.237001 0.399937
O O13 0.370170 0.078787 0.250000
O O14 0.372320 0.983032 0.146347
O O15 0.304935 0.895621 0.250000
O O16 0.482293 0.862070 0.149803
O O17 0.182834 0.302836 0.250000
O O18 0.283230 0.312116 0.116694
#
# Coordination Sequence:
#
# PCOD8231912 Si02
#       8
#     8   8   8   8   8   8   8   8
#     4   9  19  36  56  82 112 148 190 236 285 338
#     4  10  19  36  56  85 118 145 185 238 288 338
#     4  11  21  37  60  87 118 148 190 238 292 339
#     4  10  23  40  58  82 117 158 192 229 290 352
#     4  10  19  35  59  87 115 143 188 244 286 334
#     4  11  22  39  59  81 117 160 191 228 289 347
#     4  10  20  33  56  88 114 143 192 243 286 329
#     4  11  21  36  59  89 116 148 188 242 287 338
#
# _framework density 18.353073999999999
#
# number of rings (size 3 to 8) (size 9 to 14) (size 15 to 20)
#    0.000    1.750    3.750    1.500    1.750    3.000 
#    0.000    1.875    0.000    3.000    0.000    0.000 
#    0.000    0.000    0.000    0.000    0.000    0.000 
#
# Total GULP energy -793773.282872 kJ/mol
# GULP energy per Si atom -12402.707545 kJ/mol
# Density = 1.831130 g / cm^3
# Si number density = 18.353074 Si / 1000 Ang^3
#
#
#
# Elastic Constant Matrix: (Units=GPa)
#
#
# Indices 1 2 3 4 5 6 
#
# 1 118.8840 25.3095 57.8279 0.0000 0.0000 0.0000
# 2 25.3095 70.3030 41.4900 0.0000 0.0000 0.0000
# 3 57.8279 41.4900 89.5509 0.0000 0.0000 0.0000
# 4 0.0000 0.0000 0.0000 25.0890 0.0000 0.0000
# 5 0.0000 0.0000 0.0000 0.0000 38.2200 0.0000
# 6 0.0000 0.0000 0.0000 0.0000 0.0000 20.8270
#
#
#
# Elastic Compliance Matrix: (Units=1/GPa)
#
#
# Indices 1 2 3 4 5 6 
#
# 1 0.012270 0.000356 -0.008089 0.000000 0.000000 0.000000
# 2 0.000356 0.019587 -0.009305 0.000000 0.000000 0.000000
# 3 -0.008089 -0.009305 0.020701 0.000000 0.000000 0.000000
# 4 0.000000 0.000000 0.000000 0.039858 0.000000 0.000000
# 5 0.000000 0.000000 0.000000 0.000000 0.026164 0.000000
# 6 0.000000 0.000000 0.000000 0.000000 0.000000 0.048015
#
#
# Mechanical properties :
#
#
# Convention : Reuss Voigt Hill
#
# Bulk Modulus (GPa) = 54.10114 58.66587 56.38351
# Shear Modulus (GPa) = 24.17419 27.10123 25.63771
#
# Velocity S-wave (km/s) = 3.63323 3.84690 3.74159
# Velocity P-wave (km/s) = 6.86603 7.19486 7.03237
#
# Compressibility (1/GPa) = 0.01848390
#
# Stress axis : x y z
#
# Youngs Moduli (GPa) = 81.49826 51.05317 48.30630
#
# Poissons Ratio (x) = -0.01819 0.39073
# Poissons Ratio (y) = -0.02903 0.44950
# Poissons Ratio (z) = 0.65920 0.47506
#
# Static dielectric constant tensor:
#      x y z
#    x 3.439300 0.000000 0.000000 
#    y 0.000000 3.197470 0.000000 
#    z 0.000000 0.000000 3.477160 
# 
# 
# High freq. dielectric constant tensor:
#      x y z
#    x 1.717810 0.000000 0.000000 
#    y 0.000000 1.682630 0.000000 
#    z 0.000000 0.000000 1.720520 
# 
# From -- ./inp_files/21439.got.cif
#   From: 2010.03.12/outbox.cif.g09.slc.cpg/sg57_11_cif.got.tgz:21439.got - 2010.04.16 15:48:40.
