data_PCOD8231453
_publ_section_title
;
Structure prediction by ZEFSAII (Michael W. Deem and Ramdas Pophale) SiO2 
 PCOD8231453
Probable space group: P B C M
;
_chemical_formula_sum "Si O2"
_cell_formula_units_Z 64
_cell_length_a 25.109584
_cell_length_b 14.336488
_cell_length_c 8.818818
_cell_angle_alpha 90.000000
_cell_angle_beta 90.000000
_cell_angle_gamma 90.000000
_cell_volume 3174.626762
_symmetry_space_group_name_H-M "P B C M"
_symmetry_group_IT_number 57
_symmetry_cell_setting 'orthorhombic'
loop_
_space_group_symop_operation_xyz
x,y,z
-x,-y,1/2+z
x,1/2-y,-z
-x,1/2+y,1/2-z
-x,-y,-z
x,y,1/2-z
-x,1/2+y,z
x,1/2-y,1/2+z
loop_
_atom_site_type_symbol
_atom_site_label
_atom_site_fract_x
_atom_site_fract_y
_atom_site_fract_z
Si Si1 0.462528 0.622899 0.418503
Si Si2 0.564642 0.908536 0.080890
Si Si3 0.354947 0.840525 0.427210
Si Si4 0.772129 0.647987 0.930540
Si Si5 0.672205 0.953126 0.570327
Si Si6 0.124667 0.457529 0.427333
Si Si7 0.911227 0.341126 0.929458
Si Si8 0.988126 0.598139 0.928037
O O1 0.459672 0.666958 0.250000
O O2 0.456449 0.512763 0.405378
O O3 0.518801 0.650433 0.495725
O O4 0.416255 0.663877 0.522778
O O5 0.575158 0.868296 0.250000
O O6 0.618209 0.902455 0.981786
O O7 0.325338 0.750000 0.500000
O O8 0.351377 0.830308 0.250000
O O9 0.328133 0.937755 0.478945
O O10 0.773249 0.655992 0.750000
O O11 0.822502 0.589590 0.995615
O O12 0.773535 0.750000 0.000000
O O13 0.719939 0.594474 0.982545
O O14 0.678437 0.941172 0.750000
O O15 0.132014 0.471474 0.250000
O O16 0.114953 0.562592 0.493352
O O17 0.075104 0.386767 0.459108
O O18 0.908991 0.336594 0.750000
O O19 0.881420 0.250000 0.000000
O O20 0.972925 0.331234 0.984877
O O21 0.000997 0.599612 0.750000
O O22 0.000000 0.500000 0.000000
#
# Coordination Sequence:
#
# PCOD8231453 Si02
#       8
#     8   8   8   8   8   8   8   8
#     4   9  16  27  46  74 108 143 179 217 260 314
#     4   9  16  28  49  76 105 141 180 218 266 320
#     4  10  20  34  54  80 113 148 184 223 267 325
#     4  11  23  42  64  84 106 137 179 231 286 337
#     4  10  21  38  58  82 110 143 184 231 279 330
#     4   8  18  36  57  80 111 148 187 230 278 331
#     4  10  19  33  53  82 118 156 193 229 274 331
#     4   9  16  30  51  78 112 150 189 228 269 318
#
# _framework density 20.159849999999999
#
# number of rings (size 3 to 8) (size 9 to 14) (size 15 to 20)
#    0.000    2.500    0.000    3.375    0.000    5.000 
#    0.000   10.000    0.000    3.000    0.000    0.000 
#    0.000    0.000    0.000    0.000    0.000    0.000 
#
# Total GULP energy -793111.382680 kJ/mol
# GULP energy per Si atom -12392.365354 kJ/mol
# Density = 2.011397 g / cm^3
# Si number density = 20.159850 Si / 1000 Ang^3
#
#
#
# Elastic Constant Matrix: (Units=GPa)
#
#
# Indices 1 2 3 4 5 6 
#
# 1 114.3087 55.6086 35.5056 0.0000 0.0000 0.0000
# 2 55.6086 114.0888 36.5009 0.0000 0.0000 0.0000
# 3 35.5056 36.5009 82.8853 0.0000 0.0000 0.0000
# 4 0.0000 0.0000 0.0000 30.2174 0.0000 0.0000
# 5 0.0000 0.0000 0.0000 0.0000 23.2609 0.0000
# 6 0.0000 0.0000 0.0000 0.0000 0.0000 3.1301
#
#
#
# Elastic Compliance Matrix: (Units=1/GPa)
#
#
# Indices 1 2 3 4 5 6 
#
# 1 0.012078 -0.004926 -0.003005 0.000000 0.000000 0.000000
# 2 -0.004926 0.012211 -0.003268 0.000000 0.000000 0.000000
# 3 -0.003005 -0.003268 0.014791 0.000000 0.000000 0.000000
# 4 0.000000 0.000000 0.000000 0.033094 0.000000 0.000000
# 5 0.000000 0.000000 0.000000 0.000000 0.042991 0.000000
# 6 0.000000 0.000000 0.000000 0.000000 0.000000 0.319477
#
#
# Mechanical properties :
#
#
# Convention : Reuss Voigt Hill
#
# Bulk Modulus (GPa) = 59.93648 62.94589 61.44118
# Shear Modulus (GPa) = 10.80852 23.56619 17.18735
#
# Velocity S-wave (km/s) = 2.31798 3.42272 2.92302
# Velocity P-wave (km/s) = 6.07941 6.84918 6.47574
#
# Compressibility (1/GPa) = 0.01668433
#
# Stress axis : x y z
#
# Youngs Moduli (GPa) = 82.79728 81.89118 67.60898
#
# Poissons Ratio (x) = 0.40336 0.20314
# Poissons Ratio (y) = 0.40782 0.22092
# Poissons Ratio (z) = 0.24877 0.26759
#
# Static dielectric constant tensor:
#      x y z
#    x 3.819490 0.000000 0.000000 
#    y 0.000000 3.919730 0.000000 
#    z 0.000000 0.000000 3.994400 
# 
# 
# High freq. dielectric constant tensor:
#      x y z
#    x 1.765770 0.000000 0.000000 
#    y 0.000000 1.786890 0.000000 
#    z 0.000000 0.000000 1.787950 
# 
# From -- ./inp_files/9307.got.cif
#   From: 2010.03.12/outbox.cif.g09.slc.cpg/sg57_5_cif.got.tgz:9307.got - 2010.04.16 15:48:40.
