data_PCOD8231816
_publ_section_title
;
Structure prediction by ZEFSAII (Michael W. Deem and Ramdas Pophale) SiO2 
 PCOD8231816
Probable space group: P B C M
;
_chemical_formula_sum "Si O2"
_cell_formula_units_Z 64
_cell_length_a 9.403335
_cell_length_b 20.306405
_cell_length_c 18.626157
_cell_angle_alpha 90.000000
_cell_angle_beta 90.000000
_cell_angle_gamma 90.000000
_cell_volume 3556.626102
_symmetry_space_group_name_H-M "P B C M"
_symmetry_group_IT_number 57
_symmetry_cell_setting 'orthorhombic'
loop_
_space_group_symop_operation_xyz
x,y,z
-x,-y,1/2+z
x,1/2-y,-z
-x,1/2+y,1/2-z
-x,-y,-z
x,y,1/2-z
-x,1/2+y,z
x,1/2-y,1/2+z
loop_
_atom_site_type_symbol
_atom_site_label
_atom_site_fract_x
_atom_site_fract_y
_atom_site_fract_z
Si Si1 0.461335 0.610731 0.329034
Si Si2 0.723863 0.233350 0.331838
Si Si3 0.978909 0.953466 0.566830
Si Si4 0.567200 0.932831 0.422021
Si Si5 0.226232 0.996658 0.832375
Si Si6 0.343222 0.463651 0.923852
Si Si7 0.612177 0.312789 0.455047
Si Si8 0.886277 0.317079 0.541218
O O1 0.521162 0.592828 0.250000
O O2 0.412335 0.685782 0.331006
O O3 0.325847 0.565766 0.346830
O O4 0.583439 0.600347 0.388075
O O5 0.771225 0.250568 0.250000
O O6 0.673346 0.297311 0.375740
O O7 0.855142 0.200871 0.375399
O O8 0.002179 0.877163 0.542015
O O9 0.820809 0.962394 0.597852
O O10 0.079680 0.979399 0.629354
O O11 0.000000 0.000000 0.500000
O O12 0.691443 0.938065 0.362078
O O13 0.639999 0.965999 0.490838
O O14 0.522743 0.859296 0.442848
O O15 0.425446 0.971351 0.394810
O O16 0.190652 0.009507 0.750000
O O17 0.556479 0.250000 0.500000
O O18 0.741096 0.343401 0.502672
O O19 0.940238 0.250000 0.500000
#
# Coordination Sequence:
#
# PCOD8231816 Si02
#       8
#     8   8   8   8   8   8   8   8
#     4   9  17  32  52  78 107 135 170 223 273 314
#     4   9  16  30  54  79 102 139 183 222 266 322
#     4  12  21  34  55  84 106 146 188 226 272 330
#     4  10  19  35  52  80 109 142 173 230 278 323
#     4  10  21  35  55  78 110 143 177 221 278 333
#     4  10  20  31  55  78 107 139 180 221 274 328
#     4   9  18  30  52  79 108 138 182 228 267 323
#     4   9  19  34  52  79 112 142 180 232 274 324
#
# _framework density 17.994582000000001
#
# number of rings (size 3 to 8) (size 9 to 14) (size 15 to 20)
#    0.000    2.500    2.500    2.250    1.750    1.000 
#    0.000    1.875    0.000    6.000    0.000    0.000 
#    0.000    0.000    0.000    0.000    0.000    0.000 
#
# Total GULP energy -793145.364638 kJ/mol
# GULP energy per Si atom -12392.896322 kJ/mol
# Density = 1.795363 g / cm^3
# Si number density = 17.994582 Si / 1000 Ang^3
#
#
#
# Elastic Constant Matrix: (Units=GPa)
#
#
# Indices 1 2 3 4 5 6 
#
# 1 110.1389 35.0395 42.6137 0.0000 0.0000 0.0000
# 2 35.0395 67.9522 24.8206 0.0000 0.0000 0.0000
# 3 42.6137 24.8206 128.4377 0.0000 0.0000 0.0000
# 4 0.0000 0.0000 0.0000 20.6502 0.0000 0.0000
# 5 0.0000 0.0000 0.0000 0.0000 22.9962 0.0000
# 6 0.0000 0.0000 0.0000 0.0000 0.0000 23.2998
#
#
#
# Elastic Compliance Matrix: (Units=1/GPa)
#
#
# Indices 1 2 3 4 5 6 
#
# 1 0.011817 -0.005015 -0.002951 0.000000 0.000000 0.000000
# 2 -0.005015 0.017963 -0.001807 0.000000 0.000000 0.000000
# 3 -0.002951 -0.001807 0.009114 0.000000 0.000000 0.000000
# 4 0.000000 0.000000 0.000000 0.048426 0.000000 0.000000
# 5 0.000000 0.000000 0.000000 0.000000 0.043485 0.000000
# 6 0.000000 0.000000 0.000000 0.000000 0.000000 0.042919
#
#
# Mechanical properties :
#
#
# Convention : Reuss Voigt Hill
#
# Bulk Modulus (GPa) = 51.69095 56.83071 54.26083
# Shear Modulus (GPa) = 25.03500 26.99292 26.01396
#
# Velocity S-wave (km/s) = 3.73400 3.87726 3.80630
# Velocity P-wave (km/s) = 6.88320 7.18992 7.03823
#
# Compressibility (1/GPa) = 0.01934575
#
# Stress axis : x y z
#
# Youngs Moduli (GPa) = 84.62410 55.67152 109.71669
#
# Poissons Ratio (x) = 0.27921 0.32383
# Poissons Ratio (y) = 0.42442 0.19829
# Poissons Ratio (z) = 0.24977 0.10061
#
# Static dielectric constant tensor:
#      x y z
#    x 3.390300 0.000000 0.000000 
#    y 0.000000 3.225650 0.000000 
#    z 0.000000 0.000000 3.491420 
# 
# 
# High freq. dielectric constant tensor:
#      x y z
#    x 1.667930 0.000000 0.000000 
#    y 0.000000 1.680450 0.000000 
#    z 0.000000 0.000000 1.703720 
# 
# From -- ./inp_files/24692.got.cif
#   From: 2010.03.12/outbox.cif.g09.slc.cpg/sg57_13_cif.got.tgz:24692.got - 2010.04.16 15:48:40.
