data_PCOD8231126
_publ_section_title
;
Structure prediction by ZEFSAII (Michael W. Deem and Ramdas Pophale) SiO2 
 PCOD8231126
Probable space group: P B C M
;
_chemical_formula_sum "Si O2"
_cell_formula_units_Z 64
_cell_length_a 20.123573
_cell_length_b 19.745679
_cell_length_c 9.017709
_cell_angle_alpha 90.000000
_cell_angle_beta 90.000000
_cell_angle_gamma 90.000000
_cell_volume 3583.219250
_symmetry_space_group_name_H-M "P B C M"
_symmetry_group_IT_number 57
_symmetry_cell_setting 'orthorhombic'
loop_
_space_group_symop_operation_xyz
x,y,z
-x,-y,1/2+z
x,1/2-y,-z
-x,1/2+y,1/2-z
-x,-y,-z
x,y,1/2-z
-x,1/2+y,z
x,1/2-y,1/2+z
loop_
_atom_site_type_symbol
_atom_site_label
_atom_site_fract_x
_atom_site_fract_y
_atom_site_fract_z
Si Si1 0.947281 0.314040 0.915697
Si Si2 0.790898 0.312740 0.588737
Si Si3 0.945522 0.046868 0.927093
Si Si4 0.192127 0.539974 0.424767
Si Si5 0.635388 0.681442 0.075410
Si Si6 0.440187 0.538293 0.424157
Si Si7 0.482473 0.682847 0.422810
Si Si8 0.316443 0.050453 0.922293
O O1 0.978136 0.322376 0.750000
O O2 0.869291 0.301989 0.899217
O O3 0.979926 0.250000 0.000000
O O4 0.962281 0.378145 0.017775
O O5 0.758459 0.250000 0.500000
O O6 0.757163 0.309782 0.750000
O O7 0.777797 0.387495 0.519503
O O8 0.948366 0.043495 0.750000
O O9 0.873525 0.022087 0.983301
O O10 0.000000 0.000000 0.000000
O O11 0.174088 0.546814 0.250000
O O12 0.244512 0.480902 0.454799
O O13 0.645228 0.687493 0.250000
O O14 0.558800 0.669714 0.029892
O O15 0.662365 0.750000 0.000000
O O16 0.678092 0.618595 0.016429
O O17 0.500000 0.500000 0.500000
O O18 0.452430 0.533413 0.250000
O O19 0.439958 0.617326 0.472805
O O20 0.371113 0.504573 0.472972
O O21 0.453555 0.750000 0.500000
O O22 0.477300 0.696155 0.250000
O O23 0.325685 0.068268 0.750000
#
# Coordination Sequence:
#
# PCOD8231126 Si02
#       8
#     8   8   8   8   8   8   8   8
#     4   9  16  28  47  74 105 135 169 211 254 301
#     4   8  14  25  43  65  93 127 163 202 241 285
#     4  11  21  34  54  79 106 139 176 218 265 315
#     4   9  19  35  51  73 104 138 174 214 262 317
#     4  10  19  32  51  75 102 131 170 218 262 310
#     4  10  19  32  50  74 101 132 170 212 260 308
#     4   9  18  31  47  70 100 133 170 214 258 304
#     4  10  20  34  54  76 103 138 173 214 266 315
#
# _framework density 17.861032999999999
#
# number of rings (size 3 to 8) (size 9 to 14) (size 15 to 20)
#    0.000    2.500    1.250    2.625    0.000    4.500 
#    0.000    0.625    0.000    0.750    0.000    1.750 
#    0.000    0.000    0.000    0.000    0.000    0.000 
#
# Total GULP energy -793416.186864 kJ/mol
# GULP energy per Si atom -12397.127920 kJ/mol
# Density = 1.782038 g / cm^3
# Si number density = 17.861033 Si / 1000 Ang^3
#
#
#
# Elastic Constant Matrix: (Units=GPa)
#
#
# Indices 1 2 3 4 5 6 
#
# 1 60.7538 54.9394 41.5758 0.0000 0.0000 0.0000
# 2 54.9394 155.0008 64.0077 0.0000 0.0000 0.0000
# 3 41.5758 64.0077 95.4484 0.0000 0.0000 0.0000
# 4 0.0000 0.0000 0.0000 35.5827 0.0000 0.0000
# 5 0.0000 0.0000 0.0000 0.0000 18.1523 0.0000
# 6 0.0000 0.0000 0.0000 0.0000 0.0000 21.7789
#
#
#
# Elastic Compliance Matrix: (Units=1/GPa)
#
#
# Indices 1 2 3 4 5 6 
#
# 1 0.027692 -0.006686 -0.007579 0.000000 0.000000 0.000000
# 2 -0.006686 0.010537 -0.004154 0.000000 0.000000 0.000000
# 3 -0.007579 -0.004154 0.016564 0.000000 0.000000 0.000000
# 4 0.000000 0.000000 0.000000 0.028104 0.000000 0.000000
# 5 0.000000 0.000000 0.000000 0.000000 0.055089 0.000000
# 6 0.000000 0.000000 0.000000 0.000000 0.000000 0.045916
#
#
# Mechanical properties :
#
#
# Convention : Reuss Voigt Hill
#
# Bulk Modulus (GPa) = 55.69198 70.24986 62.97092
# Shear Modulus (GPa) = 22.05335 25.14811 23.60073
#
# Velocity S-wave (km/s) = 3.51767 3.75639 3.63899
# Velocity P-wave (km/s) = 6.90992 7.63090 7.27934
#
# Compressibility (1/GPa) = 0.01795591
#
# Stress axis : x y z
#
# Youngs Moduli (GPa) = 36.11126 94.90789 60.37369
#
# Poissons Ratio (x) = 0.63452 0.45756
# Poissons Ratio (y) = 0.24143 0.25077
# Poissons Ratio (z) = 0.27368 0.39421
#
# Static dielectric constant tensor:
#      x y z
#    x 2.975490 0.000000 0.000000 
#    y 0.000000 1.514370 0.000000 
#    z 0.000000 0.000000 3.388450 
# 
# 
# High freq. dielectric constant tensor:
#      x y z
#    x 1.643980 0.000000 0.000000 
#    y 0.000000 1.704710 0.000000 
#    z 0.000000 0.000000 1.692320 
# 
# From -- ./inp_files/7270.got.cif
#   From: 2010.03.12/outbox.cif.g09.slc.cpg/sg57_4_cif.got.tgz:7270.got - 2010.04.16 15:48:40.
