data_PCOD8231690
_publ_section_title
;
Structure prediction by ZEFSAII (Michael W. Deem and Ramdas Pophale) SiO2 
 PCOD8231690
Probable space group: P B C M
;
_chemical_formula_sum "Si O2"
_cell_formula_units_Z 40
_cell_length_a 12.726687
_cell_length_b 18.297585
_cell_length_c 8.729932
_cell_angle_alpha 90.000000
_cell_angle_beta 90.000000
_cell_angle_gamma 90.000000
_cell_volume 2032.918637
_symmetry_space_group_name_H-M "P B C M"
_symmetry_group_IT_number 57
_symmetry_cell_setting 'orthorhombic'
loop_
_space_group_symop_operation_xyz
x,y,z
-x,-y,1/2+z
x,1/2-y,-z
-x,1/2+y,1/2-z
-x,-y,-z
x,y,1/2-z
-x,1/2+y,z
x,1/2-y,1/2+z
loop_
_atom_site_type_symbol
_atom_site_label
_atom_site_fract_x
_atom_site_fract_y
_atom_site_fract_z
Si Si1 0.696715 0.590438 0.928485
Si Si2 0.093320 0.326982 0.071499
Si Si3 0.875423 0.328944 0.932034
Si Si4 0.683823 0.426272 0.568203
Si Si5 0.507414 0.828218 0.569198
O O1 0.667663 0.594917 0.750000
O O2 0.816373 0.613915 0.957806
O O3 0.682619 0.508861 0.995322
O O4 0.621729 0.645340 0.018588
O O5 0.070945 0.314775 0.250000
O O6 0.128491 0.250000 0.000000
O O7 0.987975 0.357103 0.991716
O O8 0.876830 0.323782 0.750000
O O9 0.787296 0.384930 0.992503
O O10 0.848728 0.250000 0.000000
O O11 0.686507 0.428155 0.750000
O O12 0.579880 0.385221 0.508277
O O13 0.480594 0.750000 0.500000
O O14 0.503858 0.821089 0.750000
#
# Coordination Sequence:
#
# PCOD8231690 Si02
#       5
#     8   8   8   8   8
#     4  10  21  38  57  79 110 143 177 220 270 319
#     4  10  20  34  54  78 106 140 178 221 265 312
#     4  10  19  34  56  79 107 142 180 221 265 315
#     4   9  20  37  56  80 110 142 175 219 272 320
#     4  11  22  37  58  82 108 140 180 221 265 318
#
# _framework density 19.676144000000001
#
# number of rings (size 3 to 8) (size 9 to 14) (size 15 to 20)
#    0.000    2.000    0.000    4.800    0.000    4.000 
#    0.000    6.000    0.000    0.000    0.000    0.000 
#    0.000    0.000    0.000    0.000    0.000    0.000 
#
# Total GULP energy -496134.313994 kJ/mol
# GULP energy per Si atom -12403.357850 kJ/mol
# Density = 1.963136 g / cm^3
# Si number density = 19.676144 Si / 1000 Ang^3
#
#
#
# Elastic Constant Matrix: (Units=GPa)
#
#
# Indices 1 2 3 4 5 6 
#
# 1 98.7982 37.3442 31.1132 0.0000 0.0000 0.0000
# 2 37.3442 94.1345 24.5434 0.0000 0.0000 0.0000
# 3 31.1132 24.5434 71.8031 0.0000 0.0000 0.0000
# 4 0.0000 0.0000 0.0000 20.6482 0.0000 0.0000
# 5 0.0000 0.0000 0.0000 0.0000 15.2336 0.0000
# 6 0.0000 0.0000 0.0000 0.0000 0.0000 37.8647
#
#
#
# Elastic Compliance Matrix: (Units=1/GPa)
#
#
# Indices 1 2 3 4 5 6 
#
# 1 0.012988 -0.004046 -0.004245 0.000000 0.000000 0.000000
# 2 -0.004046 0.012923 -0.002664 0.000000 0.000000 0.000000
# 3 -0.004245 -0.002664 0.016677 0.000000 0.000000 0.000000
# 4 0.000000 0.000000 0.000000 0.048430 0.000000 0.000000
# 5 0.000000 0.000000 0.000000 0.000000 0.065644 0.000000
# 6 0.000000 0.000000 0.000000 0.000000 0.000000 0.026410
#
#
# Mechanical properties :
#
#
# Convention : Reuss Voigt Hill
#
# Bulk Modulus (GPa) = 48.36050 50.08195 49.22123
# Shear Modulus (GPa) = 23.59897 26.19830 24.89864
#
# Velocity S-wave (km/s) = 3.46695 3.65290 3.56114
# Velocity P-wave (km/s) = 6.37636 6.58027 6.47911
#
# Compressibility (1/GPa) = 0.02067803
#
# Stress axis : x y z
#
# Youngs Moduli (GPa) = 76.99664 77.38351 59.96293
#
# Poissons Ratio (x) = 0.31306 0.25453
# Poissons Ratio (y) = 0.31150 0.15975
# Poissons Ratio (z) = 0.32684 0.20616
#
# Static dielectric constant tensor:
#      x y z
#    x 3.722910 0.000000 0.000000 
#    y 0.000000 3.707390 0.000000 
#    z 0.000000 0.000000 3.445980 
# 
# 
# High freq. dielectric constant tensor:
#      x y z
#    x 1.780890 0.000000 0.000000 
#    y 0.000000 1.769780 0.000000 
#    z 0.000000 0.000000 1.754750 
# 
# From -- ./inp_files/2676.got.cif
#   From: 2010.03.12/outbox.cif.g09.slc.cpg/sg57_2_cif.got.tgz:2676.got - 2010.04.16 15:48:40.
