data_PCOD8231193
_publ_section_title
;
Structure prediction by ZEFSAII (Michael W. Deem and Ramdas Pophale) SiO2 
 PCOD8231193
Probable space group: P B C M
;
_chemical_formula_sum "Si O2"
_cell_formula_units_Z 56
_cell_length_a 21.290700
_cell_length_b 9.674713
_cell_length_c 14.922516
_cell_angle_alpha 90.000000
_cell_angle_beta 90.000000
_cell_angle_gamma 90.000000
_cell_volume 3073.760917
_symmetry_space_group_name_H-M "P B C M"
_symmetry_group_IT_number 57
_symmetry_cell_setting 'orthorhombic'
loop_
_space_group_symop_operation_xyz
x,y,z
-x,-y,1/2+z
x,1/2-y,-z
-x,1/2+y,1/2-z
-x,-y,-z
x,y,1/2-z
-x,1/2+y,z
x,1/2-y,1/2+z
loop_
_atom_site_type_symbol
_atom_site_label
_atom_site_fract_x
_atom_site_fract_y
_atom_site_fract_z
Si Si1 0.636838 0.018510 0.147822
Si Si2 0.290046 0.912428 0.486359
Si Si3 0.479276 0.379115 0.063182
Si Si4 0.951637 0.369189 0.352262
Si Si5 0.390926 0.837866 0.149387
Si Si6 0.847654 0.088277 0.512715
Si Si7 0.070168 0.947175 0.647211
O O1 0.659055 0.990286 0.250000
O O2 0.616349 0.175776 0.133346
O O3 0.580980 0.914406 0.123344
O O4 0.693234 0.001271 0.076570
O O5 0.283806 0.750000 0.500000
O O6 0.344916 0.932330 0.412154
O O7 0.221083 0.970588 0.458772
O O8 0.536104 0.360132 0.131639
O O9 0.463977 0.250000 0.000000
O O10 0.500000 0.500000 0.000000
O O11 0.932993 0.396371 0.250000
O O12 0.897612 0.444032 0.409681
O O13 0.957554 0.205838 0.372694
O O14 0.017552 0.439949 0.375567
O O15 0.374314 0.881815 0.250000
O O16 0.841316 0.250000 0.500000
O O17 0.871131 0.022783 0.418359
O O18 0.093230 0.959310 0.750000
#
# Coordination Sequence:
#
# PCOD8231193 Si02
#       7
#     8   8   8   8   8   8   8
#     4  10  20  34  53  77 103 134 169 206 255 306
#     4   9  17  31  48  72 101 132 165 210 250 291
#     4  12  20  35  56  76 106 133 164 211 256 300
#     4   9  17  29  46  70  98 125 158 201 246 292
#     4  10  19  32  51  77 105 133 168 207 253 303
#     4   9  17  28  46  70  98 127 164 202 245 289
#     4   9  17  29  46  70  97 124 157 200 247 293
#
# _framework density 18.218723000000001
#
# number of rings (size 3 to 8) (size 9 to 14) (size 15 to 20)
#    0.000    2.286    2.857    1.286    0.000    1.143 
#    0.000    5.714    0.000    1.714    0.000    2.000 
#    0.000    0.000    0.000    0.000    0.000    0.000 
#
# Total GULP energy -694025.992965 kJ/mol
# GULP energy per Si atom -12393.321303 kJ/mol
# Density = 1.817726 g / cm^3
# Si number density = 18.218723 Si / 1000 Ang^3
#
#
#
# Elastic Constant Matrix: (Units=GPa)
#
#
# Indices 1 2 3 4 5 6 
#
# 1 106.5886 12.4495 49.8568 0.0000 0.0000 0.0000
# 2 12.4495 34.9114 25.1379 0.0000 0.0000 0.0000
# 3 49.8568 25.1379 99.9508 0.0000 0.0000 0.0000
# 4 0.0000 0.0000 0.0000 18.1335 0.0000 0.0000
# 5 0.0000 0.0000 0.0000 0.0000 20.9956 0.0000
# 6 0.0000 0.0000 0.0000 0.0000 0.0000 3.8198
#
#
#
# Elastic Compliance Matrix: (Units=1/GPa)
#
#
# Indices 1 2 3 4 5 6 
#
# 1 0.012237 0.000038 -0.006114 0.000000 0.000000 0.000000
# 2 0.000038 0.034978 -0.008816 0.000000 0.000000 0.000000
# 3 -0.006114 -0.008816 0.015272 0.000000 0.000000 0.000000
# 4 0.000000 0.000000 0.000000 0.055147 0.000000 0.000000
# 5 0.000000 0.000000 0.000000 0.000000 0.047629 0.000000
# 6 0.000000 0.000000 0.000000 0.000000 0.000000 0.261794
#
#
# Mechanical properties :
#
#
# Convention : Reuss Voigt Hill
#
# Bulk Modulus (GPa) = 30.57722 46.25993 38.41857
# Shear Modulus (GPa) = 10.68966 18.85686 14.77326
#
# Velocity S-wave (km/s) = 2.42490 3.22067 2.85069
# Velocity P-wave (km/s) = 4.96589 6.26713 5.65406
#
# Compressibility (1/GPa) = 0.03270409
#
# Stress axis : x y z
#
# Youngs Moduli (GPa) = 81.71902 28.58905 65.48011
#
# Poissons Ratio (x) = -0.00110 0.40032
# Poissons Ratio (y) = -0.00313 0.57729
# Poissons Ratio (z) = 0.49960 0.25205
#
# Static dielectric constant tensor:
#      x y z
#    x 3.343510 0.000000 0.000000 
#    y 0.000000 3.631180 0.000000 
#    z 0.000000 0.000000 3.599480 
# 
# 
# High freq. dielectric constant tensor:
#      x y z
#    x 1.701220 0.000000 0.000000 
#    y 0.000000 1.663230 0.000000 
#    z 0.000000 0.000000 1.718150 
# 
# From -- ./inp_files/19321.got.cif
#   From: 2010.03.12/outbox.cif.g09.slc.cpg/sg57_10_cif.got.tgz:19321.got - 2010.04.16 15:48:40.
