data_PCOD8231280
_publ_section_title
;
Structure prediction by ZEFSAII (Michael W. Deem and Ramdas Pophale) SiO2 
 PCOD8231280
Probable space group: P B C M
;
_chemical_formula_sum "Si O2"
_cell_formula_units_Z 64
_cell_length_a 19.675397
_cell_length_b 19.459635
_cell_length_c 8.815784
_cell_angle_alpha 90.000000
_cell_angle_beta 90.000000
_cell_angle_gamma 90.000000
_cell_volume 3375.352504
_symmetry_space_group_name_H-M "P B C M"
_symmetry_group_IT_number 57
_symmetry_cell_setting 'orthorhombic'
loop_
_space_group_symop_operation_xyz
x,y,z
-x,-y,1/2+z
x,1/2-y,-z
-x,1/2+y,1/2-z
-x,-y,-z
x,y,1/2-z
-x,1/2+y,z
x,1/2-y,1/2+z
loop_
_atom_site_type_symbol
_atom_site_label
_atom_site_fract_x
_atom_site_fract_y
_atom_site_fract_z
Si Si1 0.455911 0.409365 0.919476
Si Si2 0.271931 0.544800 0.070890
Si Si3 0.649899 0.818733 0.426842
Si Si4 0.588122 0.066279 0.579568
Si Si5 0.910626 0.924649 0.921178
Si Si6 0.756658 0.902345 0.577474
Si Si7 0.866572 0.426319 0.071997
Si Si8 0.015789 0.675231 0.573619
O O1 0.449133 0.377815 0.750000
O O2 0.435551 0.488214 0.914971
O O3 0.404734 0.377090 0.040040
O O4 0.532217 0.394579 0.978035
O O5 0.278385 0.551486 0.250000
O O6 0.338250 0.578062 0.994945
O O7 0.266757 0.465650 0.025020
O O8 0.204286 0.584342 0.014964
O O9 0.620310 0.750000 0.500000
O O10 0.662632 0.810658 0.250000
O O11 0.721345 0.835101 0.509317
O O12 0.590111 0.096643 0.750000
O O13 0.939331 0.923768 0.750000
O O14 0.836753 0.890134 0.928509
O O15 0.905520 0.003673 0.981272
O O16 0.958346 0.878310 0.024236
O O17 0.732207 0.916062 0.750000
O O18 0.850459 0.434905 0.250000
O O19 0.911807 0.359637 0.035119
O O20 0.009680 0.750000 0.500000
O O21 0.007019 0.687134 0.750000
#
# Coordination Sequence:
#
# PCOD8231280 Si02
#       8
#     8   8   8   8   8   8   8   8
#     4  10  20  34  53  78 109 142 181 225 271 321
#     4  11  20  31  54  85 113 141 176 223 276 330
#     4  12  24  37  54  75 106 148 190 227 270 325
#     4  10  19  32  54  80 112 144 174 222 275 322
#     4   9  19  36  59  83 111 144 183 232 281 334
#     4  10  20  36  54  77 109 143 180 224 272 323
#     4   9  20  38  58  82 112 148 186 230 284 339
#     4  11  23  38  58  82 112 148 187 231 282 339
#
# _framework density 18.960982999999999
#
# number of rings (size 3 to 8) (size 9 to 14) (size 15 to 20)
#    0.000    1.750    1.250    4.875    0.000    5.000 
#    0.000    0.000    0.000    0.750    0.000    3.500 
#    0.000    0.000    0.000    0.000    0.000    0.000 
#
# Total GULP energy -793617.702110 kJ/mol
# GULP energy per Si atom -12400.276595 kJ/mol
# Density = 1.891783 g / cm^3
# Si number density = 18.960983 Si / 1000 Ang^3
#
#
#
# Elastic Constant Matrix: (Units=GPa)
#
#
# Indices 1 2 3 4 5 6 
#
# 1 98.9283 22.2778 56.3619 0.0000 0.0000 0.0000
# 2 22.2778 45.8168 29.3907 0.0000 0.0000 0.0000
# 3 56.3619 29.3907 114.9172 0.0000 0.0000 0.0000
# 4 0.0000 0.0000 0.0000 24.2931 0.0000 0.0000
# 5 0.0000 0.0000 0.0000 0.0000 31.0566 0.0000
# 6 0.0000 0.0000 0.0000 0.0000 0.0000 6.6005
#
#
#
# Elastic Compliance Matrix: (Units=1/GPa)
#
#
# Indices 1 2 3 4 5 6 
#
# 1 0.014353 -0.002947 -0.006286 0.000000 0.000000 0.000000
# 2 -0.002947 0.026715 -0.005387 0.000000 0.000000 0.000000
# 3 -0.006286 -0.005387 0.013163 0.000000 0.000000 0.000000
# 4 0.000000 0.000000 0.000000 0.041164 0.000000 0.000000
# 5 0.000000 0.000000 0.000000 0.000000 0.032199 0.000000
# 6 0.000000 0.000000 0.000000 0.000000 0.000000 0.151503
#
#
# Mechanical properties :
#
#
# Convention : Reuss Voigt Hill
#
# Bulk Modulus (GPa) = 40.01468 52.85811 46.43639
# Shear Modulus (GPa) = 15.78944 22.49883 19.14414
#
# Velocity S-wave (km/s) = 2.88884 3.44842 3.18096
# Velocity P-wave (km/s) = 5.68126 6.61765 6.16725
#
# Compressibility (1/GPa) = 0.02499083
#
# Stress axis : x y z
#
# Youngs Moduli (GPa) = 69.67105 37.43265 75.97214
#
# Poissons Ratio (x) = 0.11030 0.47756
# Poissons Ratio (y) = 0.20530 0.40928
# Poissons Ratio (z) = 0.43795 0.20166
#
# Static dielectric constant tensor:
#      x y z
#    x 3.623990 0.000000 0.000000 
#    y 0.000000 3.222040 0.000000 
#    z 0.000000 0.000000 3.610450 
# 
# 
# High freq. dielectric constant tensor:
#      x y z
#    x 1.746900 0.000000 0.000000 
#    y 0.000000 1.698440 0.000000 
#    z 0.000000 0.000000 1.748970 
# 
# From -- ./inp_files/7158.got.cif
#   From: 2010.03.12/outbox.cif.g09.slc.cpg/sg57_4_cif.got.tgz:7158.got - 2010.04.16 15:48:40.
