data_PCOD8231098
_publ_section_title
;
Structure prediction by ZEFSAII (Michael W. Deem and Ramdas Pophale) SiO2 
 PCOD8231098
Probable space group: P B C M
;
_chemical_formula_sum "Si O2"
_cell_formula_units_Z 64
_cell_length_a 14.928978
_cell_length_b 29.361771
_cell_length_c 8.868940
_cell_angle_alpha 90.000000
_cell_angle_beta 90.000000
_cell_angle_gamma 90.000000
_cell_volume 3887.622098
_symmetry_space_group_name_H-M "P B C M"
_symmetry_group_IT_number 57
_symmetry_cell_setting 'orthorhombic'
loop_
_space_group_symop_operation_xyz
x,y,z
-x,-y,1/2+z
x,1/2-y,-z
-x,1/2+y,1/2-z
-x,-y,-z
x,y,1/2-z
-x,1/2+y,z
x,1/2-y,1/2+z
loop_
_atom_site_type_symbol
_atom_site_label
_atom_site_fract_x
_atom_site_fract_y
_atom_site_fract_z
Si Si1 0.023865 0.295596 0.426120
Si Si2 0.857603 0.559960 0.073941
Si Si3 0.710150 0.880429 0.076303
Si Si4 0.215842 0.204315 0.428068
Si Si5 0.454893 0.060010 0.922787
Si Si6 0.026969 0.895108 0.075112
Si Si7 0.187896 0.958253 0.075851
Si Si8 0.375245 0.965287 0.573097
O O1 0.979896 0.250000 0.500000
O O2 0.038628 0.286125 0.250000
O O3 0.118772 0.305736 0.502814
O O4 0.963971 0.340638 0.453679
O O5 0.841402 0.570028 0.250000
O O6 0.859951 0.506215 0.038261
O O7 0.776745 0.580283 0.977715
O O8 0.950337 0.582767 0.026301
O O9 0.732626 0.869081 0.250000
O O10 0.608018 0.896322 0.057155
O O11 0.718482 0.836310 0.972354
O O12 0.256566 0.250000 0.500000
O O13 0.208332 0.209077 0.250000
O O14 0.481071 0.051763 0.750000
O O15 0.400597 0.015978 0.984254
O O16 0.546519 0.068422 0.014419
O O17 0.003987 0.904865 0.250000
O O18 0.120635 0.917882 0.028421
O O19 0.212776 0.955596 0.250000
O O20 0.279264 0.950379 0.987379
O O21 0.370016 0.962242 0.750000
#
# Coordination Sequence:
#
# PCOD8231098 Si02
#       8
#     8   8   8   8   8   8   8   8
#     4  10  19  32  50  70  95 127 164 206 252 295
#     4  11  21  31  47  71  99 133 172 209 241 287
#     4  11  20  33  51  72 101 134 168 202 247 299
#     4  11  21  33  50  73 100 130 166 204 250 296
#     4   9  19  33  50  71  97 130 163 200 247 296
#     4  10  21  35  50  68  97 136 170 204 249 300
#     4  10  21  35  49  69  99 135 172 208 249 296
#     4  10  19  32  50  73  97 127 165 207 248 288
#
# _framework density 16.462506000000001
#
# number of rings (size 3 to 8) (size 9 to 14) (size 15 to 20)
#    0.000    1.750    2.500    3.750    0.000    3.000 
#    0.000    0.000    0.000    0.000    0.000    0.875 
#    0.000    2.000    0.000    0.000    0.000    0.000 
#
# Total GULP energy -793663.279062 kJ/mol
# GULP energy per Si atom -12400.988735 kJ/mol
# Density = 1.642504 g / cm^3
# Si number density = 16.462506 Si / 1000 Ang^3
#
#
#
# Elastic Constant Matrix: (Units=GPa)
#
#
# Indices 1 2 3 4 5 6 
#
# 1 91.9464 48.3649 42.5186 0.0000 0.0000 0.0000
# 2 48.3649 108.9115 44.4918 0.0000 0.0000 0.0000
# 3 42.5186 44.4918 88.1775 0.0000 0.0000 0.0000
# 4 0.0000 0.0000 0.0000 25.7882 0.0000 0.0000
# 5 0.0000 0.0000 0.0000 0.0000 25.3956 0.0000
# 6 0.0000 0.0000 0.0000 0.0000 0.0000 17.4939
#
#
#
# Elastic Compliance Matrix: (Units=1/GPa)
#
#
# Indices 1 2 3 4 5 6 
#
# 1 0.015856 -0.004935 -0.005155 0.000000 0.000000 0.000000
# 2 -0.004935 0.013102 -0.004231 0.000000 0.000000 0.000000
# 3 -0.005155 -0.004231 0.015962 0.000000 0.000000 0.000000
# 4 0.000000 0.000000 0.000000 0.038777 0.000000 0.000000
# 5 0.000000 0.000000 0.000000 0.000000 0.039377 0.000000
# 6 0.000000 0.000000 0.000000 0.000000 0.000000 0.057163
#
#
# Mechanical properties :
#
#
# Convention : Reuss Voigt Hill
#
# Bulk Modulus (GPa) = 61.44069 62.19843 61.81956
# Shear Modulus (GPa) = 23.33126 23.97957 23.65542
#
# Velocity S-wave (km/s) = 3.76870 3.82071 3.79479
# Velocity P-wave (km/s) = 7.50601 7.57150 7.53882
#
# Compressibility (1/GPa) = 0.01627586
#
# Stress axis : x y z
#
# Youngs Moduli (GPa) = 63.06816 76.32547 62.65038
#
# Poissons Ratio (x) = 0.37667 0.32299
# Poissons Ratio (y) = 0.31125 0.26508
# Poissons Ratio (z) = 0.32515 0.32294
#
# Static dielectric constant tensor:
#      x y z
#    x 2.955760 0.000000 0.000000 
#    y 0.000000 3.213890 0.000000 
#    z 0.000000 0.000000 3.204370 
# 
# 
# High freq. dielectric constant tensor:
#      x y z
#    x 1.609440 0.000000 0.000000 
#    y 0.000000 1.623440 0.000000 
#    z 0.000000 0.000000 1.647420 
# 
# From -- ./inp_files/6072.got.cif
#   From: 2010.03.12/outbox.cif.g09.slc.cpg/sg57_4_cif.got.tgz:6072.got - 2010.04.16 15:48:40.
