data_PCOD8231510
_publ_section_title
;
Structure prediction by ZEFSAII (Michael W. Deem and Ramdas Pophale) SiO2 
 PCOD8231510
Probable space group: P B C M
;
_chemical_formula_sum "Si O2"
_cell_formula_units_Z 48
_cell_length_a 14.720031
_cell_length_b 19.000067
_cell_length_c 8.879302
_cell_angle_alpha 90.000000
_cell_angle_beta 90.000000
_cell_angle_gamma 90.000000
_cell_volume 2483.377170
_symmetry_space_group_name_H-M "P B C M"
_symmetry_group_IT_number 57
_symmetry_cell_setting 'orthorhombic'
loop_
_space_group_symop_operation_xyz
x,y,z
-x,-y,1/2+z
x,1/2-y,-z
-x,1/2+y,1/2-z
-x,-y,-z
x,y,1/2-z
-x,1/2+y,z
x,1/2-y,1/2+z
loop_
_atom_site_type_symbol
_atom_site_label
_atom_site_fract_x
_atom_site_fract_y
_atom_site_fract_z
Si Si1 0.439928 0.399664 0.422411
Si Si2 0.375124 0.537220 0.922418
Si Si3 0.856148 0.913697 0.072138
Si Si4 0.170105 0.942332 0.424940
Si Si5 0.030827 0.825723 0.073720
Si Si6 0.707041 0.821904 0.926771
O O1 0.415782 0.383144 0.250000
O O2 0.548643 0.402458 0.448259
O O3 0.394619 0.473910 0.464654
O O4 0.396929 0.337780 0.524231
O O5 0.380628 0.509060 0.750000
O O6 0.276809 0.569928 0.957401
O O7 0.840872 0.909426 0.250000
O O8 0.941643 0.867454 0.019168
O O9 0.767473 0.886184 0.985856
O O10 0.870951 0.994117 0.022822
O O11 0.151509 0.959532 0.250000
O O12 0.118931 0.871098 0.473409
O O13 0.026870 0.813602 0.250000
O O14 0.036491 0.750000 0.000000
O O15 0.715172 0.815027 0.750000
O O16 0.742566 0.750000 0.000000
#
# Coordination Sequence:
#
# PCOD8231510 Si02
#       6
#     8   8   8   8   8   8
#     4  10  19  33  54  82 114 147 188 232 277 337
#     4   9  18  33  56  83 113 148 185 228 281 330
#     4  11  22  37  58  87 115 147 191 239 288 345
#     4  10  20  37  60  87 116 150 190 236 284 338
#     4  10  23  40  58  82 115 152 192 234 286 344
#     4  12  24  38  56  81 115 154 193 239 296 351
#
# _framework density 19.328519
#
# number of rings (size 3 to 8) (size 9 to 14) (size 15 to 20)
#    0.000    1.667    1.667    3.500    0.000    4.000 
#    0.000    0.833    0.000    2.000    0.000    0.000 
#    0.000    0.000    0.000    0.000    0.000    0.000 
#
# Total GULP energy -595333.531217 kJ/mol
# GULP energy per Si atom -12402.781900 kJ/mol
# Density = 1.928453 g / cm^3
# Si number density = 19.328519 Si / 1000 Ang^3
#
#
#
# Elastic Constant Matrix: (Units=GPa)
#
#
# Indices 1 2 3 4 5 6 
#
# 1 125.2541 63.0465 44.3239 0.0000 0.0000 0.0000
# 2 63.0465 102.8741 42.3624 0.0000 0.0000 0.0000
# 3 44.3239 42.3624 93.5836 0.0000 0.0000 0.0000
# 4 0.0000 0.0000 0.0000 35.7726 0.0000 0.0000
# 5 0.0000 0.0000 0.0000 0.0000 22.5903 0.0000
# 6 0.0000 0.0000 0.0000 0.0000 0.0000 27.2148
#
#
#
# Elastic Compliance Matrix: (Units=1/GPa)
#
#
# Indices 1 2 3 4 5 6 
#
# 1 0.012167 -0.006248 -0.002934 0.000000 0.000000 0.000000
# 2 -0.006248 0.015157 -0.003901 0.000000 0.000000 0.000000
# 3 -0.002934 -0.003901 0.013841 0.000000 0.000000 0.000000
# 4 0.000000 0.000000 0.000000 0.027954 0.000000 0.000000
# 5 0.000000 0.000000 0.000000 0.000000 0.044267 0.000000
# 6 0.000000 0.000000 0.000000 0.000000 0.000000 0.036745
#
#
# Mechanical properties :
#
#
# Convention : Reuss Voigt Hill
#
# Bulk Modulus (GPa) = 66.68038 69.01971 67.85004
# Shear Modulus (GPa) = 27.57883 28.58082 28.07982
#
# Velocity S-wave (km/s) = 3.78146 3.84954 3.81565
# Velocity P-wave (km/s) = 7.32388 7.45284 7.38864
#
# Compressibility (1/GPa) = 0.01499692
#
# Stress axis : x y z
#
# Youngs Moduli (GPa) = 82.18781 65.97812 72.24665
#
# Poissons Ratio (x) = 0.41226 0.21199
# Poissons Ratio (y) = 0.51354 0.28187
# Poissons Ratio (z) = 0.24116 0.25741
#
# Static dielectric constant tensor:
#      x y z
#    x 3.806280 0.000000 0.000000 
#    y 0.000000 3.401090 0.000000 
#    z 0.000000 0.000000 3.506370 
# 
# 
# High freq. dielectric constant tensor:
#      x y z
#    x 1.763330 0.000000 0.000000 
#    y 0.000000 1.733700 0.000000 
#    z 0.000000 0.000000 1.753670 
# 
# From -- ./inp_files/4578.got.cif
#   From: 2010.03.12/outbox.cif.g09.slc.cpg/sg57_3_cif.got.tgz:4578.got - 2010.04.16 15:48:40.
