data_PCOD8231447
_publ_section_title
;
Structure prediction by ZEFSAII (Michael W. Deem and Ramdas Pophale) SiO2 
 PCOD8231447
Probable space group: P B C M
;
_chemical_formula_sum "Si O2"
_cell_formula_units_Z 56
_cell_length_a 14.605423
_cell_length_b 22.297780
_cell_length_c 8.943699
_cell_angle_alpha 90.000000
_cell_angle_beta 90.000000
_cell_angle_gamma 90.000000
_cell_volume 2912.681117
_symmetry_space_group_name_H-M "P B C M"
_symmetry_group_IT_number 57
_symmetry_cell_setting 'orthorhombic'
loop_
_space_group_symop_operation_xyz
x,y,z
-x,-y,1/2+z
x,1/2-y,-z
-x,1/2+y,1/2-z
-x,-y,-z
x,y,1/2-z
-x,1/2+y,z
x,1/2-y,1/2+z
loop_
_atom_site_type_symbol
_atom_site_label
_atom_site_fract_x
_atom_site_fract_y
_atom_site_fract_z
Si Si1 0.785161 0.587035 0.425001
Si Si2 0.076942 0.190812 0.074126
Si Si3 0.605643 0.943285 0.075019
Si Si4 0.310855 0.688988 0.574658
Si Si5 0.908619 0.020439 0.576859
Si Si6 0.418412 0.580419 0.074168
Si Si7 0.892939 0.155300 0.923070
O O1 0.762215 0.593340 0.250000
O O2 0.859950 0.635670 0.476859
O O3 0.693320 0.594375 0.520607
O O4 0.824956 0.522214 0.467048
O O5 0.076295 0.198183 0.250000
O O6 0.119907 0.250000 0.000000
O O7 0.972531 0.184011 0.021354
O O8 0.589678 0.933626 0.250000
O O9 0.618770 0.013732 0.036241
O O10 0.520954 0.914538 0.987524
O O11 0.349918 0.750000 0.500000
O O12 0.333124 0.689560 0.750000
O O13 0.355963 0.630013 0.504516
O O14 0.202270 0.688070 0.543993
O O15 0.929755 0.015481 0.750000
O O16 0.880044 0.086575 0.527309
O O17 0.000000 0.000000 0.500000
O O18 0.418665 0.592817 0.250000
O O19 0.921285 0.160514 0.750000
#
# Coordination Sequence:
#
# PCOD8231447 Si02
#       7
#     8   8   8   8   8   8   8
#     4  10  21  37  56  82 115 150 187 233 286 339
#     4  11  23  38  56  77 108 150 194 237 279 330
#     4  10  21  37  62  92 117 147 187 235 290 347
#     4  11  23  39  59  85 118 156 197 242 289 344
#     4  10  19  33  53  81 114 147 185 232 284 334
#     4  10  21  39  62  89 119 150 186 233 289 348
#     4  10  21  36  57  83 114 151 191 235 285 339
#
# _framework density 19.226272000000002
#
# number of rings (size 3 to 8) (size 9 to 14) (size 15 to 20)
#    0.000    1.714    1.429    3.000    0.000    6.857 
#    0.000    0.714    0.000    1.714    0.000    0.000 
#    0.000    0.000    0.000    0.000    0.000    0.000 
#
# Total GULP energy -694548.857028 kJ/mol
# GULP energy per Si atom -12402.658161 kJ/mol
# Density = 1.918251 g / cm^3
# Si number density = 19.226272 Si / 1000 Ang^3
#
#
#
# Elastic Constant Matrix: (Units=GPa)
#
#
# Indices 1 2 3 4 5 6 
#
# 1 93.2563 26.7565 46.8711 0.0000 0.0000 0.0000
# 2 26.7565 91.6478 41.7720 0.0000 0.0000 0.0000
# 3 46.8711 41.7720 83.6062 0.0000 0.0000 0.0000
# 4 0.0000 0.0000 0.0000 32.9306 0.0000 0.0000
# 5 0.0000 0.0000 0.0000 0.0000 37.2070 0.0000
# 6 0.0000 0.0000 0.0000 0.0000 0.0000 21.6184
#
#
#
# Elastic Compliance Matrix: (Units=1/GPa)
#
#
# Indices 1 2 3 4 5 6 
#
# 1 0.014965 -0.000706 -0.008037 0.000000 0.000000 0.000000
# 2 -0.000706 0.014162 -0.006680 0.000000 0.000000 0.000000
# 3 -0.008037 -0.006680 0.019804 0.000000 0.000000 0.000000
# 4 0.000000 0.000000 0.000000 0.030367 0.000000 0.000000
# 5 0.000000 0.000000 0.000000 0.000000 0.026877 0.000000
# 6 0.000000 0.000000 0.000000 0.000000 0.000000 0.046257
#
#
# Mechanical properties :
#
#
# Convention : Reuss Voigt Hill
#
# Bulk Modulus (GPa) = 55.29329 55.47883 55.38606
# Shear Modulus (GPa) = 26.41224 28.55858 27.48541
#
# Velocity S-wave (km/s) = 3.71044 3.85826 3.78507
# Velocity P-wave (km/s) = 6.86864 6.98331 6.92621
#
# Compressibility (1/GPa) = 0.01808538
#
# Stress axis : x y z
#
# Youngs Moduli (GPa) = 66.82212 70.61097 50.49466
#
# Poissons Ratio (x) = 0.04984 0.40583
# Poissons Ratio (y) = 0.04717 0.33731
# Poissons Ratio (z) = 0.53705 0.47169
#
# Static dielectric constant tensor:
#      x y z
#    x 3.388970 0.000000 0.000000 
#    y 0.000000 3.681460 0.000000 
#    z 0.000000 0.000000 3.503440 
# 
# 
# High freq. dielectric constant tensor:
#      x y z
#    x 1.743590 0.000000 0.000000 
#    y 0.000000 1.751380 0.000000 
#    z 0.000000 0.000000 1.752190 
# 
# From -- ./inp_files/5290.got.cif
#   From: 2010.03.12/outbox.cif.g09.slc.cpg/sg57_3_cif.got.tgz:5290.got - 2010.04.16 15:48:40.
