data_PCOD8231515
_publ_section_title
;
Structure prediction by ZEFSAII (Michael W. Deem and Ramdas Pophale) SiO2 
 PCOD8231515
Probable space group: P B C M
;
_chemical_formula_sum "Si O2"
_cell_formula_units_Z 64
_cell_length_a 17.631436
_cell_length_b 22.646885
_cell_length_c 8.789274
_cell_angle_alpha 90.000000
_cell_angle_beta 90.000000
_cell_angle_gamma 90.000000
_cell_volume 3509.531650
_symmetry_space_group_name_H-M "P B C M"
_symmetry_group_IT_number 57
_symmetry_cell_setting 'orthorhombic'
loop_
_space_group_symop_operation_xyz
x,y,z
-x,-y,1/2+z
x,1/2-y,-z
-x,1/2+y,1/2-z
-x,-y,-z
x,y,1/2-z
-x,1/2+y,z
x,1/2-y,1/2+z
loop_
_atom_site_type_symbol
_atom_site_label
_atom_site_fract_x
_atom_site_fract_y
_atom_site_fract_z
Si Si1 0.089443 0.649586 0.929440
Si Si2 0.927392 0.689347 0.569564
Si Si3 0.490818 0.438244 0.925017
Si Si4 0.652933 0.416328 0.569813
Si Si5 0.748311 0.310655 0.069504
Si Si6 0.920407 0.016757 0.930320
Si Si7 0.672888 0.546147 0.429710
Si Si8 0.178540 0.417879 0.069747
O O1 0.081615 0.650775 0.750000
O O2 0.163694 0.685004 0.983335
O O3 0.099086 0.582573 0.983901
O O4 0.011902 0.677028 0.997645
O O5 0.896447 0.750000 0.500000
O O6 0.928162 0.693738 0.750000
O O7 0.870842 0.637882 0.515018
O O8 0.496316 0.451986 0.750000
O O9 0.564337 0.398571 0.969361
O O10 0.405306 0.416697 0.964308
O O11 0.500000 0.500000 0.000000
O O12 0.668282 0.417266 0.750000
O O13 0.703617 0.366681 0.492826
O O14 0.672757 0.480671 0.502468
O O15 0.740187 0.309612 0.250000
O O16 0.715126 0.250000 0.000000
O O17 0.924117 0.010107 0.750000
O O18 0.854658 0.976957 0.997885
O O19 0.000000 0.000000 0.000000
O O20 0.687409 0.539298 0.250000
O O21 0.736403 0.587408 0.506233
O O22 0.178342 0.423135 0.250000
#
# Coordination Sequence:
#
# PCOD8231515 Si02
#       8
#     8   8   8   8   8   8   8   8
#     4   9  19  36  54  73 103 137 171 217 265 311
#     4  10  21  38  55  72  97 132 176 223 263 309
#     4   8  16  30  51  78 108 138 167 205 251 310
#     4  10  19  34  55  80 110 143 178 215 265 323
#     4  11  22  36  54  76 106 144 185 229 272 320
#     4  11  20  34  54  78 108 140 175 218 268 322
#     4  10  19  33  54  83 113 140 174 216 269 324
#     4  11  22  36  53  77 109 141 177 220 267 316
#
# _framework density 18.236052999999998
#
# number of rings (size 3 to 8) (size 9 to 14) (size 15 to 20)
#    0.000    2.000    1.250    3.000    0.000    3.000 
#    0.000    2.500    0.000    0.750    0.000    1.750 
#    0.000    0.000    0.000    0.000    0.000    0.000 
#
# Total GULP energy -793164.290523 kJ/mol
# GULP energy per Si atom -12393.192039 kJ/mol
# Density = 1.819455 g / cm^3
# Si number density = 18.236053 Si / 1000 Ang^3
#
#
#
# Elastic Constant Matrix: (Units=GPa)
#
#
# Indices 1 2 3 4 5 6 
#
# 1 126.5922 43.1868 38.4884 0.0000 0.0000 0.0000
# 2 43.1868 91.2329 28.9666 0.0000 0.0000 0.0000
# 3 38.4884 28.9666 62.7421 0.0000 0.0000 0.0000
# 4 0.0000 0.0000 0.0000 26.5860 0.0000 0.0000
# 5 0.0000 0.0000 0.0000 0.0000 28.6832 0.0000
# 6 0.0000 0.0000 0.0000 0.0000 0.0000 15.9286
#
#
#
# Elastic Compliance Matrix: (Units=1/GPa)
#
#
# Indices 1 2 3 4 5 6 
#
# 1 0.010561 -0.003448 -0.004887 0.000000 0.000000 0.000000
# 2 -0.003448 0.013969 -0.004334 0.000000 0.000000 0.000000
# 3 -0.004887 -0.004334 0.020937 0.000000 0.000000 0.000000
# 4 0.000000 0.000000 0.000000 0.037614 0.000000 0.000000
# 5 0.000000 0.000000 0.000000 0.000000 0.034864 0.000000
# 6 0.000000 0.000000 0.000000 0.000000 0.000000 0.062780
#
#
# Mechanical properties :
#
#
# Convention : Reuss Voigt Hill
#
# Bulk Modulus (GPa) = 49.67797 55.76122 52.71960
# Shear Modulus (GPa) = 23.49917 25.56790 24.53354
#
# Velocity S-wave (km/s) = 3.59362 3.74846 3.67186
# Velocity P-wave (km/s) = 6.67230 7.02698 6.85193
#
# Compressibility (1/GPa) = 0.02012965
#
# Stress axis : x y z
#
# Youngs Moduli (GPa) = 94.68419 71.58613 47.76197
#
# Poissons Ratio (x) = 0.24682 0.23341
# Poissons Ratio (y) = 0.32645 0.20701
# Poissons Ratio (z) = 0.46272 0.31027
#
# Static dielectric constant tensor:
#      x y z
#    x 3.829230 0.000000 0.000000 
#    y 0.000000 3.162320 0.000000 
#    z 0.000000 0.000000 3.319980 
# 
# 
# High freq. dielectric constant tensor:
#      x y z
#    x 1.721490 0.000000 0.000000 
#    y 0.000000 1.680900 0.000000 
#    z 0.000000 0.000000 1.707800 
# 
# From -- ./inp_files/7121.got.cif
#   From: 2010.03.12/outbox.cif.g09.slc.cpg/sg57_4_cif.got.tgz:7121.got - 2010.04.16 15:48:40.
