data_PCOD8231473
_publ_section_title
;
Structure prediction by ZEFSAII (Michael W. Deem and Ramdas Pophale) SiO2 
 PCOD8231473
Probable space group: P B C M
;
_chemical_formula_sum "Si O2"
_cell_formula_units_Z 40
_cell_length_a 9.188339
_cell_length_b 25.912894
_cell_length_c 8.971356
_cell_angle_alpha 90.000000
_cell_angle_beta 90.000000
_cell_angle_gamma 90.000000
_cell_volume 2136.048056
_symmetry_space_group_name_H-M "P B C M"
_symmetry_group_IT_number 57
_symmetry_cell_setting 'orthorhombic'
loop_
_space_group_symop_operation_xyz
x,y,z
-x,-y,1/2+z
x,1/2-y,-z
-x,1/2+y,1/2-z
-x,-y,-z
x,y,1/2-z
-x,1/2+y,z
x,1/2-y,1/2+z
loop_
_atom_site_type_symbol
_atom_site_label
_atom_site_fract_x
_atom_site_fract_y
_atom_site_fract_z
Si Si1 0.673734 0.800748 0.080945
Si Si2 0.335576 0.902684 0.923162
Si Si3 0.327194 0.699824 0.583259
Si Si4 0.156255 0.497204 0.426826
Si Si5 0.327787 0.404936 0.925495
O O1 0.733146 0.803573 0.250000
O O2 0.500482 0.798416 0.080759
O O3 0.737361 0.750000 0.000000
O O4 0.727389 0.850095 0.987686
O O5 0.318672 0.890995 0.750000
O O6 0.503084 0.913339 0.963970
O O7 0.243794 0.951837 0.974720
O O8 0.272333 0.852638 0.006495
O O9 0.263340 0.750000 0.500000
O O10 0.265718 0.700662 0.750000
O O11 0.142793 0.492473 0.250000
O O12 0.239857 0.448359 0.489617
O O13 0.000000 0.500000 0.500000
O O14 0.296756 0.407645 0.750000
#
# Coordination Sequence:
#
# PCOD8231473 Si02
#       5
#     8   8   8   8   8
#     4   9  16  27  45  73 106 137 168 206 251 300
#     4   9  19  34  53  77 105 135 171 213 256 302
#     4   9  16  26  45  73 105 136 167 205 251 300
#     4  11  23  38  54  74 102 137 174 215 261 310
#     4  10  19  33  54  79 105 135 171 213 257 304
#
# _framework density 18.726171000000001
#
# number of rings (size 3 to 8) (size 9 to 14) (size 15 to 20)
#    0.000    2.400    0.000    3.000    0.000    7.200 
#    0.000    0.000    0.000    1.200    0.000    2.800 
#    0.000    0.000    0.000    0.000    0.000    0.000 
#
# Total GULP energy -496049.049351 kJ/mol
# GULP energy per Si atom -12401.226234 kJ/mol
# Density = 1.868355 g / cm^3
# Si number density = 18.726171 Si / 1000 Ang^3
#
#
#
# Elastic Constant Matrix: (Units=GPa)
#
#
# Indices 1 2 3 4 5 6 
#
# 1 54.8828 61.7035 41.3757 0.0000 0.0000 0.0000
# 2 61.7035 203.4651 87.2039 0.0000 0.0000 0.0000
# 3 41.3757 87.2039 111.3700 0.0000 0.0000 0.0000
# 4 0.0000 0.0000 0.0000 43.9489 0.0000 0.0000
# 5 0.0000 0.0000 0.0000 0.0000 20.7846 0.0000
# 6 0.0000 0.0000 0.0000 0.0000 0.0000 -4.5413
#
#
#
# Elastic Compliance Matrix: (Units=1/GPa)
#
#
# Indices 1 2 3 4 5 6 
#
# 1 0.030159 -0.006538 -0.006085 0.000000 0.000000 0.000000
# 2 -0.006538 0.008815 -0.004473 0.000000 0.000000 0.000000
# 3 -0.006085 -0.004473 0.014742 0.000000 0.000000 0.000000
# 4 0.000000 0.000000 0.000000 0.022754 0.000000 0.000000
# 5 0.000000 0.000000 0.000000 0.000000 0.048113 0.000000
# 6 0.000000 0.000000 0.000000 0.000000 0.000000 -0.220199
#
#
# Mechanical properties :
#
#
# Convention : Reuss Voigt Hill
#
# Bulk Modulus (GPa) = 51.22071 83.36488 67.29280
# Shear Modulus (GPa) = -91.04592 24.00074 -33.52259
#
# Velocity S-wave (km/s) = -6.98034 3.58392 -4.23560
# Velocity P-wave (km/s) = 6.12822 7.85751 3.47746
#
# Compressibility (1/GPa) = 0.01952335
#
# Stress axis : x y z
#
# Youngs Moduli (GPa) = 33.15792 113.44690 67.83237
#
# Poissons Ratio (x) = 0.74172 0.41277
# Poissons Ratio (y) = 0.21679 0.30342
# Poissons Ratio (z) = 0.20177 0.50745
#
# Static dielectric constant tensor:
#      x y z
#    x 2.727450 0.000000 0.000000 
#    y 0.000000 3.702810 0.000000 
#    z 0.000000 0.000000 3.625190 
# 
# 
# High freq. dielectric constant tensor:
#      x y z
#    x 1.673930 0.000000 0.000000 
#    y 0.000000 1.747640 0.000000 
#    z 0.000000 0.000000 1.742170 
# 
# From -- ./inp_files/1492.got.cif
#   From: 2010.03.12/outbox.cif.g09.slc.cpg/sg57_1_cif.got.tgz:1492.got - 2010.04.16 15:48:40.
