data_PCOD8231815
_publ_section_title
;
Structure prediction by ZEFSAII (Michael W. Deem and Ramdas Pophale) SiO2 
 PCOD8231815
Probable space group: P B C M
;
_chemical_formula_sum "Si O2"
_cell_formula_units_Z 44
_cell_length_a 16.142246
_cell_length_b 5.273445
_cell_length_c 31.851520
_cell_angle_alpha 90.000000
_cell_angle_beta 90.000000
_cell_angle_gamma 90.000000
_cell_volume 2711.368490
_symmetry_space_group_name_H-M "P B C M"
_symmetry_group_IT_number 57
_symmetry_cell_setting 'orthorhombic'
loop_
_space_group_symop_operation_xyz
x,y,z
-x,-y,1/2+z
x,1/2-y,-z
-x,1/2+y,1/2-z
-x,-y,-z
x,y,1/2-z
-x,1/2+y,z
x,1/2-y,1/2+z
loop_
_atom_site_type_symbol
_atom_site_label
_atom_site_fract_x
_atom_site_fract_y
_atom_site_fract_z
Si Si1 0.949982 0.248387 0.250000
Si Si2 0.917414 0.751981 0.451479
Si Si3 0.171887 0.755867 0.175099
Si Si4 0.099234 0.751980 0.416712
Si Si5 0.734806 0.753077 0.700078
Si Si6 0.455871 0.277017 0.200278
O O1 0.897734 0.306749 0.290916
O O2 0.023654 0.453794 0.250000
O O3 0.943505 0.750000 0.500000
O O4 0.864054 0.503275 0.439404
O O5 0.999839 0.753552 0.422758
O O6 0.864292 0.002050 0.439929
O O7 0.124631 0.748729 0.131326
O O8 0.217091 0.490492 0.182981
O O9 0.235377 0.990368 0.177397
O O10 0.747101 0.777010 0.750000
O O11 0.639695 0.718516 0.687350
O O12 0.466000 0.275612 0.250000
O O13 0.500249 0.526524 0.181381
#
# Coordination Sequence:
#
# PCOD8231815 Si02
#       6
#     4   8   8   8   8   8
#     4  12  26  36  50  60  88 130 184 228 242 274
#     4  10  19  35  52  70  88 115 153 204 263 305
#     4  12  23  36  47  69  94 132 172 204 265 276
#     4  10  20  30  49  68  90 113 157 202 238 296
#     4  11  20  36  50  66  97 133 164 203 249 302
#     4   9  17  29  49  73  90 113 158 207 241 280
#
# _framework density 16.227969000000002
#
# number of rings (size 3 to 8) (size 9 to 14) (size 15 to 20)
#    0.000    1.455    1.818    6.000    5.091    2.909 
#    0.000    0.000    0.000    0.000    0.000    0.000 
#    0.000    0.000    0.000    0.000    0.000  374.545 
#
# Total GULP energy -545410.687537 kJ/mol
# GULP energy per Si atom -12395.697444 kJ/mol
# Density = 1.619103 g / cm^3
# Si number density = 16.227969 Si / 1000 Ang^3
#
#
#
# Elastic Constant Matrix: (Units=GPa)
#
#
# Indices 1 2 3 4 5 6 
#
# 1 59.3152 21.8688 35.1690 0.0000 0.0000 0.0000
# 2 21.8688 141.9207 29.9084 0.0000 0.0000 0.0000
# 3 35.1690 29.9084 91.8787 0.0000 0.0000 0.0000
# 4 0.0000 0.0000 0.0000 25.4601 0.0000 0.0000
# 5 0.0000 0.0000 0.0000 0.0000 12.5165 0.0000
# 6 0.0000 0.0000 0.0000 0.0000 0.0000 26.0114
#
#
#
# Elastic Compliance Matrix: (Units=1/GPa)
#
#
# Indices 1 2 3 4 5 6 
#
# 1 0.022207 -0.001751 -0.007930 0.000000 0.000000 0.000000
# 2 -0.001751 0.007703 -0.001837 0.000000 0.000000 0.000000
# 3 -0.007930 -0.001837 0.014518 0.000000 0.000000 0.000000
# 4 0.000000 0.000000 0.000000 0.039277 0.000000 0.000000
# 5 0.000000 0.000000 0.000000 0.000000 0.079895 0.000000
# 6 0.000000 0.000000 0.000000 0.000000 0.000000 0.038445
#
#
# Mechanical properties :
#
#
# Convention : Reuss Voigt Hill
#
# Bulk Modulus (GPa) = 46.74952 51.88965 49.31959
# Shear Modulus (GPa) = 21.53219 26.54215 24.03717
#
# Velocity S-wave (km/s) = 3.64656 4.04862 3.85284
# Velocity P-wave (km/s) = 6.82645 7.34166 7.08873
#
# Compressibility (1/GPa) = 0.02139059
#
# Stress axis : x y z
#
# Youngs Moduli (GPa) = 45.03184 129.81670 68.88217
#
# Poissons Ratio (x) = 0.22726 0.54625
# Poissons Ratio (y) = 0.07883 0.12657
# Poissons Ratio (z) = 0.35711 0.23853
#
# Static dielectric constant tensor:
#      x y z
#    x 2.828280 0.000000 0.000000 
#    y 0.000000 4.247590 0.000000 
#    z 0.000000 0.000000 2.770300 
# 
# 
# High freq. dielectric constant tensor:
#      x y z
#    x 1.582960 0.000000 0.000000 
#    y 0.000000 1.666850 0.000000 
#    z 0.000000 0.000000 1.592040 
# 
# From -- ./inp_files/28724.got.cif
#   From: 2010.03.12/outbox.cif.g09.slc.cpg/sg57_15_cif.got.tgz:28724.got - 2010.04.16 15:48:40.
