data_PCOD8231479
_publ_section_title
;
Structure prediction by ZEFSAII (Michael W. Deem and Ramdas Pophale) SiO2 
 PCOD8231479
Probable space group: P B C M
;
_chemical_formula_sum "Si O2"
_cell_formula_units_Z 48
_cell_length_a 14.772527
_cell_length_b 18.786826
_cell_length_c 9.171725
_cell_angle_alpha 90.000000
_cell_angle_beta 90.000000
_cell_angle_gamma 90.000000
_cell_volume 2545.418698
_symmetry_space_group_name_H-M "P B C M"
_symmetry_group_IT_number 57
_symmetry_cell_setting 'orthorhombic'
loop_
_space_group_symop_operation_xyz
x,y,z
-x,-y,1/2+z
x,1/2-y,-z
-x,1/2+y,1/2-z
-x,-y,-z
x,y,1/2-z
-x,1/2+y,z
x,1/2-y,1/2+z
loop_
_atom_site_type_symbol
_atom_site_label
_atom_site_fract_x
_atom_site_fract_y
_atom_site_fract_z
Si Si1 0.881496 0.945083 0.082456
Si Si2 0.798786 0.180085 0.920417
Si Si3 0.466329 0.175821 0.919668
Si Si4 0.048621 0.603234 0.081973
Si Si5 0.677064 0.941912 0.419257
Si Si6 0.368231 0.918900 0.080783
O O1 0.894365 0.921657 0.250000
O O2 0.779835 0.931342 0.026051
O O3 0.903405 0.027701 0.062201
O O4 0.947351 0.898101 0.982201
O O5 0.811505 0.195457 0.750000
O O6 0.728448 0.116847 0.948782
O O7 0.760365 0.250000 0.000000
O O8 0.894867 0.160657 0.991193
O O9 0.479271 0.192014 0.750000
O O10 0.375887 0.130801 0.950738
O O11 0.552859 0.132373 0.979733
O O12 0.457008 0.250000 0.000000
O O13 0.044318 0.626669 0.250000
O O14 0.676965 0.962309 0.250000
O O15 0.626942 0.005970 0.500457
O O16 0.384957 0.934066 0.250000
#
# Coordination Sequence:
#
# PCOD8231479 Si02
#       6
#     8   8   8   8   8   8
#     4   9  18  33  54  80 109 142 180 226 276 325
#     4  11  22  35  53  79 114 150 186 231 281 336
#     4  10  22  39  57  81 113 149 187 227 277 333
#     4  10  19  33  54  79 108 144 184 224 276 331
#     4  10  20  36  59  85 112 145 187 234 279 329
#     4  10  21  36  56  84 113 144 185 232 280 332
#
# _framework density 18.857408
#
# number of rings (size 3 to 8) (size 9 to 14) (size 15 to 20)
#    0.000    2.000    1.667    2.000    0.000    3.333 
#    0.000    0.833    0.000    2.000    0.000    0.000 
#    0.000    0.000    0.000    0.000    0.000    0.000 
#
# Total GULP energy -595402.600710 kJ/mol
# GULP energy per Si atom -12404.220848 kJ/mol
# Density = 1.881449 g / cm^3
# Si number density = 18.857408 Si / 1000 Ang^3
#
#
#
# Elastic Constant Matrix: (Units=GPa)
#
#
# Indices 1 2 3 4 5 6 
#
# 1 127.1255 48.2230 47.3228 0.0000 0.0000 0.0000
# 2 48.2230 84.0132 44.1513 0.0000 0.0000 0.0000
# 3 47.3228 44.1513 80.2967 0.0000 0.0000 0.0000
# 4 0.0000 0.0000 0.0000 35.4766 0.0000 0.0000
# 5 0.0000 0.0000 0.0000 0.0000 26.0908 0.0000
# 6 0.0000 0.0000 0.0000 0.0000 0.0000 21.5114
#
#
#
# Elastic Compliance Matrix: (Units=1/GPa)
#
#
# Indices 1 2 3 4 5 6 
#
# 1 0.010991 -0.004085 -0.004231 0.000000 0.000000 0.000000
# 2 -0.004085 0.018258 -0.007632 0.000000 0.000000 0.000000
# 3 -0.004231 -0.007632 0.019144 0.000000 0.000000 0.000000
# 4 0.000000 0.000000 0.000000 0.028188 0.000000 0.000000
# 5 0.000000 0.000000 0.000000 0.000000 0.038328 0.000000
# 6 0.000000 0.000000 0.000000 0.000000 0.000000 0.046487
#
#
# Mechanical properties :
#
#
# Convention : Reuss Voigt Hill
#
# Bulk Modulus (GPa) = 60.61797 63.42553 62.02175
# Shear Modulus (GPa) = 25.15200 26.73164 25.94182
#
# Velocity S-wave (km/s) = 3.65608 3.76914 3.71304
# Velocity P-wave (km/s) = 7.07374 7.25598 7.16544
#
# Compressibility (1/GPa) = 0.01649676
#
# Stress axis : x y z
#
# Youngs Moduli (GPa) = 90.98380 54.76906 52.23569
#
# Poissons Ratio (x) = 0.22373 0.22103
# Poissons Ratio (y) = 0.37167 0.39866
# Poissons Ratio (z) = 0.38498 0.41799
#
# Static dielectric constant tensor:
#      x y z
#    x 3.609750 0.000000 0.000000 
#    y 0.000000 3.223620 0.000000 
#    z 0.000000 0.000000 3.417210 
# 
# 
# High freq. dielectric constant tensor:
#      x y z
#    x 1.742670 0.000000 0.000000 
#    y 0.000000 1.717090 0.000000 
#    z 0.000000 0.000000 1.731130 
# 
# From -- ./inp_files/4581.got.cif
#   From: 2010.03.12/outbox.cif.g09.slc.cpg/sg57_3_cif.got.tgz:4581.got - 2010.04.16 15:48:40.
