data_PCOD8231934
_publ_section_title
;
Structure prediction by ZEFSAII (Michael W. Deem and Ramdas Pophale) SiO2 
 PCOD8231934
Probable space group: P B C M
;
_chemical_formula_sum "Si O2"
_cell_formula_units_Z 64
_cell_length_a 10.124670
_cell_length_b 18.487567
_cell_length_c 18.471922
_cell_angle_alpha 90.000000
_cell_angle_beta 90.000000
_cell_angle_gamma 90.000000
_cell_volume 3457.583873
_symmetry_space_group_name_H-M "P B C M"
_symmetry_group_IT_number 57
_symmetry_cell_setting 'orthorhombic'
loop_
_space_group_symop_operation_xyz
x,y,z
-x,-y,1/2+z
x,1/2-y,-z
-x,1/2+y,1/2-z
-x,-y,-z
x,y,1/2-z
-x,1/2+y,z
x,1/2-y,1/2+z
loop_
_atom_site_type_symbol
_atom_site_label
_atom_site_fract_x
_atom_site_fract_y
_atom_site_fract_z
Si Si1 0.541193 0.415773 0.165874
Si Si2 0.557874 0.795990 0.572273
Si Si3 0.663743 0.269556 0.165302
Si Si4 0.240989 0.950280 0.667038
Si Si5 0.760765 0.888530 0.332423
Si Si6 0.076687 0.811695 0.833476
Si Si7 0.838373 0.754320 0.414422
Si Si8 0.500811 0.043167 0.426241
O O1 0.549562 0.431074 0.250000
O O2 0.641538 0.352640 0.141158
O O3 0.393238 0.390806 0.143818
O O4 0.581021 0.491261 0.128308
O O5 0.532308 0.750000 0.500000
O O6 0.438626 0.783612 0.627091
O O7 0.694964 0.773974 0.609777
O O8 0.570030 0.881305 0.556511
O O9 0.637686 0.259743 0.250000
O O10 0.811218 0.246364 0.144192
O O11 0.294340 0.938667 0.750000
O O12 0.126864 0.892636 0.649797
O O13 0.356335 0.940655 0.608434
O O14 0.179656 0.030663 0.660251
O O15 0.773708 0.860248 0.250000
O O16 0.846215 0.836587 0.384673
O O17 0.038594 0.802558 0.750000
O O18 0.948432 0.796969 0.880577
O O19 0.855720 0.750000 0.500000
O O20 0.500000 0.000000 0.500000
#
# Coordination Sequence:
#
# PCOD8231934 Si02
#       8
#     8   8   8   8   8   8   8   8
#     4   9  18  34  56  86 116 144 187 240 289 343
#     4  11  23  37  56  84 121 152 189 240 289 347
#     4  10  19  35  61  87 111 143 192 244 293 342
#     4   9  19  37  61  85 113 149 196 240 287 352
#     4   9  17  34  61  83 108 151 193 231 284 347
#     4  10  21  40  60  84 116 155 199 244 293 347
#     4  11  24  38  55  83 122 155 196 237 285 347
#     4  11  21  33  56  88 118 150 186 236 296 346
#
# _framework density 18.510035999999999
#
# number of rings (size 3 to 8) (size 9 to 14) (size 15 to 20)
#    0.000    2.000    2.500    2.250    5.250    1.500 
#    2.250    1.875    0.000    3.000    0.000    0.000 
#    0.000    0.000    0.000    0.000    0.000    0.000 
#
# Total GULP energy -793461.779154 kJ/mol
# GULP energy per Si atom -12397.840299 kJ/mol
# Density = 1.846791 g / cm^3
# Si number density = 18.510036 Si / 1000 Ang^3
#
#
#
# Elastic Constant Matrix: (Units=GPa)
#
#
# Indices 1 2 3 4 5 6 
#
# 1 54.6069 22.8383 33.7852 0.0000 0.0000 0.0000
# 2 22.8383 138.6883 43.4670 0.0000 0.0000 0.0000
# 3 33.7852 43.4670 74.8613 0.0000 0.0000 0.0000
# 4 0.0000 0.0000 0.0000 32.1268 0.0000 0.0000
# 5 0.0000 0.0000 0.0000 0.0000 18.4289 0.0000
# 6 0.0000 0.0000 0.0000 0.0000 0.0000 24.0982
#
#
#
# Elastic Compliance Matrix: (Units=1/GPa)
#
#
# Indices 1 2 3 4 5 6 
#
# 1 0.025466 -0.000723 -0.011073 0.000000 0.000000 0.000000
# 2 -0.000723 0.008835 -0.004804 0.000000 0.000000 0.000000
# 3 -0.011073 -0.004804 0.021144 0.000000 0.000000 0.000000
# 4 0.000000 0.000000 0.000000 0.031127 0.000000 0.000000
# 5 0.000000 0.000000 0.000000 0.000000 0.054263 0.000000
# 6 0.000000 0.000000 0.000000 0.000000 0.000000 0.041497
#
#
# Mechanical properties :
#
#
# Convention : Reuss Voigt Hill
#
# Bulk Modulus (GPa) = 44.95185 52.03751 48.49468
# Shear Modulus (GPa) = 22.42691 26.13518 24.28104
#
# Velocity S-wave (km/s) = 3.48459 3.76166 3.62578
# Velocity P-wave (km/s) = 6.36614 6.85864 6.61697
#
# Compressibility (1/GPa) = 0.02224603
#
# Stress axis : x y z
#
# Youngs Moduli (GPa) = 39.26801 113.18624 47.29369
#
# Poissons Ratio (x) = 0.08185 0.52369
# Poissons Ratio (y) = 0.02840 0.22718
# Poissons Ratio (z) = 0.43482 0.54370
#
# Static dielectric constant tensor:
#      x y z
#    x 3.130370 0.000000 0.000000 
#    y 0.000000 3.775950 0.000000 
#    z 0.000000 0.000000 3.433540 
# 
# 
# High freq. dielectric constant tensor:
#      x y z
#    x 1.680120 0.000000 0.000000 
#    y 0.000000 1.736200 0.000000 
#    z 0.000000 0.000000 1.719420 
# 
# From -- ./inp_files/24611.got.cif
#   From: 2010.03.12/outbox.cif.g09.slc.cpg/sg57_13_cif.got.tgz:24611.got - 2010.04.16 15:48:40.
