data_PCOD8231384
_publ_section_title
;
Structure prediction by ZEFSAII (Michael W. Deem and Ramdas Pophale) SiO2 
 PCOD8231384
Probable space group: P B C M
;
_chemical_formula_sum "Si O2"
_cell_formula_units_Z 64
_cell_length_a 19.457601
_cell_length_b 19.019707
_cell_length_c 8.823070
_cell_angle_alpha 90.000000
_cell_angle_beta 90.000000
_cell_angle_gamma 90.000000
_cell_volume 3265.222952
_symmetry_space_group_name_H-M "P B C M"
_symmetry_group_IT_number 57
_symmetry_cell_setting 'orthorhombic'
loop_
_space_group_symop_operation_xyz
x,y,z
-x,-y,1/2+z
x,1/2-y,-z
-x,1/2+y,1/2-z
-x,-y,-z
x,y,1/2-z
-x,1/2+y,z
x,1/2-y,1/2+z
loop_
_atom_site_type_symbol
_atom_site_label
_atom_site_fract_x
_atom_site_fract_y
_atom_site_fract_z
Si Si1 0.716454 0.549190 0.928193
Si Si2 0.136710 0.062180 0.070918
Si Si3 0.376700 0.322090 0.428280
Si Si4 0.911898 0.086752 0.570486
Si Si5 0.784624 0.174949 0.573107
Si Si6 0.956620 0.672730 0.569881
Si Si7 0.531124 0.322227 0.427905
Si Si8 0.655089 0.416793 0.426940
O O1 0.733044 0.549591 0.750000
O O2 0.675053 0.617773 0.980800
O O3 0.785628 0.545609 0.024560
O O4 0.668110 0.483858 0.968816
O O5 0.133220 0.074647 0.250000
O O6 0.090082 0.995144 0.020195
O O7 0.111429 0.132167 0.985460
O O8 0.349761 0.250000 0.500000
O O9 0.376554 0.313257 0.250000
O O10 0.454053 0.339960 0.485193
O O11 0.911109 0.090310 0.750000
O O12 0.844290 0.125090 0.505007
O O13 0.979027 0.126942 0.508224
O O14 0.791411 0.250000 0.500000
O O15 0.795583 0.184298 0.750000
O O16 0.711230 0.142177 0.534193
O O17 0.959516 0.750000 0.500000
O O18 0.955835 0.679523 0.750000
O O19 0.558078 0.250000 0.500000
O O20 0.533779 0.310825 0.250000
O O21 0.580956 0.386138 0.474451
O O22 0.658520 0.437919 0.250000
#
# Coordination Sequence:
#
# PCOD8231384 Si02
#       8
#     8   8   8   8   8   8   8   8
#     4  11  23  38  57  84 116 149 193 243 285 340
#     4  11  22  41  64  85 115 154 191 237 293 345
#     4   9  20  38  58  82 112 145 188 240 290 341
#     4   9  19  37  60  84 116 151 188 232 280 338
#     4  10  19  33  52  80 114 150 188 228 272 328
#     4  11  23  40  61  89 119 150 190 236 284 341
#     4   9  18  34  56  82 113 151 191 235 287 342
#     4  10  20  35  55  79 115 154 190 230 283 343
#
# _framework density 19.600498999999999
#
# number of rings (size 3 to 8) (size 9 to 14) (size 15 to 20)
#    0.000    2.000    1.250    2.250    0.000    3.000 
#    0.000    3.750    0.000    0.000    0.000    0.000 
#    0.000    0.000    0.000    0.000    0.000    0.000 
#
# Total GULP energy -793719.207315 kJ/mol
# GULP energy per Si atom -12401.862614 kJ/mol
# Density = 1.955589 g / cm^3
# Si number density = 19.600499 Si / 1000 Ang^3
#
#
#
# Elastic Constant Matrix: (Units=GPa)
#
#
# Indices 1 2 3 4 5 6 
#
# 1 71.9432 59.9776 24.1974 0.0000 0.0000 0.0000
# 2 59.9776 147.8050 43.7655 0.0000 0.0000 0.0000
# 3 24.1974 43.7655 45.7716 0.0000 0.0000 0.0000
# 4 0.0000 0.0000 0.0000 35.9145 0.0000 0.0000
# 5 0.0000 0.0000 0.0000 0.0000 23.6367 0.0000
# 6 0.0000 0.0000 0.0000 0.0000 0.0000 33.5325
#
#
#
# Elastic Compliance Matrix: (Units=1/GPa)
#
#
# Indices 1 2 3 4 5 6 
#
# 1 0.021579 -0.007503 -0.004234 0.000000 0.000000 0.000000
# 2 -0.007503 0.012046 -0.007552 0.000000 0.000000 0.000000
# 3 -0.004234 -0.007552 0.031307 0.000000 0.000000 0.000000
# 4 0.000000 0.000000 0.000000 0.027844 0.000000 0.000000
# 5 0.000000 0.000000 0.000000 0.000000 0.042307 0.000000
# 6 0.000000 0.000000 0.000000 0.000000 0.000000 0.029822
#
#
# Mechanical properties :
#
#
# Convention : Reuss Voigt Hill
#
# Bulk Modulus (GPa) = 37.94371 57.93343 47.93857
# Shear Modulus (GPa) = 23.55522 27.78867 25.67195
#
# Velocity S-wave (km/s) = 3.47041 3.76939 3.62299
# Velocity P-wave (km/s) = 5.95474 6.96891 6.48169
#
# Compressibility (1/GPa) = 0.02635483
#
# Stress axis : x y z
#
# Youngs Moduli (GPa) = 46.34185 83.01229 31.94185
#
# Poissons Ratio (x) = 0.62282 0.13523
# Poissons Ratio (y) = 0.34769 0.24123
# Poissons Ratio (z) = 0.19620 0.62691
#
# Static dielectric constant tensor:
#      x y z
#    x 3.779760 0.000000 0.000000 
#    y 0.000000 3.543810 0.000000 
#    z 0.000000 0.000000 3.659470 
# 
# 
# High freq. dielectric constant tensor:
#      x y z
#    x 1.770570 0.000000 0.000000 
#    y 0.000000 1.771000 0.000000 
#    z 0.000000 0.000000 1.748520 
# 
# From -- ./inp_files/8526.got.cif
#   From: 2010.03.12/outbox.cif.g09.slc.cpg/sg57_5_cif.got.tgz:8526.got - 2010.04.16 15:48:40.
