data_PCOD8231415
_publ_section_title
;
Structure prediction by ZEFSAII (Michael W. Deem and Ramdas Pophale) SiO2 
 PCOD8231415
Probable space group: P B C M
;
_chemical_formula_sum "Si O2"
_cell_formula_units_Z 64
_cell_length_a 22.577491
_cell_length_b 17.708221
_cell_length_c 8.636857
_cell_angle_alpha 90.000000
_cell_angle_beta 90.000000
_cell_angle_gamma 90.000000
_cell_volume 3453.077616
_symmetry_space_group_name_H-M "P B C M"
_symmetry_group_IT_number 57
_symmetry_cell_setting 'orthorhombic'
loop_
_space_group_symop_operation_xyz
x,y,z
-x,-y,1/2+z
x,1/2-y,-z
-x,1/2+y,1/2-z
-x,-y,-z
x,y,1/2-z
-x,1/2+y,z
x,1/2-y,1/2+z
loop_
_atom_site_type_symbol
_atom_site_label
_atom_site_fract_x
_atom_site_fract_y
_atom_site_fract_z
Si Si1 0.244271 0.515098 0.072551
Si Si2 0.462969 0.933471 0.431154
Si Si3 0.047554 0.329667 0.932864
Si Si4 0.195023 0.826292 0.567680
Si Si5 0.073976 0.620317 0.568484
Si Si6 0.112783 0.030901 0.569600
Si Si7 0.562414 0.831047 0.067775
Si Si8 0.362222 0.034564 0.069529
O O1 0.263156 0.505683 0.250000
O O2 0.238244 0.603811 0.030040
O O3 0.182722 0.473364 0.037349
O O4 0.293517 0.475347 0.968637
O O5 0.470770 0.935484 0.250000
O O6 0.495061 0.855806 0.487993
O O7 0.500000 0.000000 0.500000
O O8 0.395025 0.954199 0.476937
O O9 0.056784 0.332921 0.750000
O O10 0.068215 0.250000 0.000000
O O11 0.090285 0.388651 0.016299
O O12 0.979412 0.343631 0.973562
O O13 0.224821 0.750000 0.500000
O O14 0.183057 0.821064 0.750000
O O15 0.132984 0.836297 0.480674
O O16 0.062154 0.630768 0.750000
O O17 0.078180 0.531954 0.528689
O O18 0.099313 0.016410 0.750000
O O19 0.566104 0.823693 0.250000
O O20 0.578528 0.750000 0.000000
O O21 0.610667 0.893229 0.017146
O O22 0.369972 0.050679 0.250000
#
# Coordination Sequence:
#
# PCOD8231415 Si02
#       8
#     8   8   8   8   8   8   8   8
#     4   9  20  37  56  77 105 141 180 219 261 309
#     4   8  16  30  49  74 102 133 165 204 250 300
#     4  12  24  38  55  78 107 138 173 216 269 324
#     4  10  20  35  54  78 107 138 174 219 268 318
#     4  11  21  35  56  81 107 137 173 214 264 323
#     4  10  21  39  58  78 105 138 177 220 265 317
#     4  10  19  33  53  78 110 141 175 217 264 308
#     4  10  19  33  55  80 106 138 180 219 258 309
#
# _framework density 18.534192000000001
#
# number of rings (size 3 to 8) (size 9 to 14) (size 15 to 20)
#    0.000    2.000    0.000    5.250    0.000    4.000 
#    0.000    1.250    0.000    6.000    0.000    0.000 
#    0.000    0.000    0.000    0.000    0.000    0.000 
#
# Total GULP energy -793251.063919 kJ/mol
# GULP energy per Si atom -12394.547874 kJ/mol
# Density = 1.849201 g / cm^3
# Si number density = 18.534192 Si / 1000 Ang^3
#
#
#
# Elastic Constant Matrix: (Units=GPa)
#
#
# Indices 1 2 3 4 5 6 
#
# 1 58.5853 32.2605 17.6547 0.0000 0.0000 0.0000
# 2 32.2605 110.1368 15.0497 0.0000 0.0000 0.0000
# 3 17.6547 15.0497 46.4466 0.0000 0.0000 0.0000
# 4 0.0000 0.0000 0.0000 32.0989 0.0000 0.0000
# 5 0.0000 0.0000 0.0000 0.0000 25.7871 0.0000
# 6 0.0000 0.0000 0.0000 0.0000 0.0000 16.5755
#
#
#
# Elastic Compliance Matrix: (Units=1/GPa)
#
#
# Indices 1 2 3 4 5 6 
#
# 1 0.022132 -0.005580 -0.006605 0.000000 0.000000 0.000000
# 2 -0.005580 0.010907 -0.001413 0.000000 0.000000 0.000000
# 3 -0.006605 -0.001413 0.024498 0.000000 0.000000 0.000000
# 4 0.000000 0.000000 0.000000 0.031154 0.000000 0.000000
# 5 0.000000 0.000000 0.000000 0.000000 0.038779 0.000000
# 6 0.000000 0.000000 0.000000 0.000000 0.000000 0.060330
#
#
# Mechanical properties :
#
#
# Convention : Reuss Voigt Hill
#
# Bulk Modulus (GPa) = 32.95749 38.34427 35.65088
# Shear Modulus (GPa) = 22.21131 24.90588 23.55859
#
# Velocity S-wave (km/s) = 3.46554 3.66974 3.56910
# Velocity P-wave (km/s) = 5.81669 6.22007 6.02176
#
# Compressibility (1/GPa) = 0.03034212
#
# Stress axis : x y z
#
# Youngs Moduli (GPa) = 45.18292 91.68202 40.81901
#
# Poissons Ratio (x) = 0.51162 0.26959
# Poissons Ratio (y) = 0.25214 0.05768
# Poissons Ratio (z) = 0.29841 0.12955
#
# Static dielectric constant tensor:
#      x y z
#    x 3.438600 0.000000 0.000000 
#    y 0.000000 3.597600 0.000000 
#    z 0.000000 0.000000 3.463860 
# 
# 
# High freq. dielectric constant tensor:
#      x y z
#    x 1.704420 0.000000 0.000000 
#    y 0.000000 1.717930 0.000000 
#    z 0.000000 0.000000 1.730890 
# 
# From -- ./inp_files/8438.got.cif
#   From: 2010.03.12/outbox.cif.g09.slc.cpg/sg57_5_cif.got.tgz:8438.got - 2010.04.16 15:48:40.
