data_PCOD8231927
_publ_section_title
;
Structure prediction by ZEFSAII (Michael W. Deem and Ramdas Pophale) SiO2 
 PCOD8231927
Probable space group: P B C M
;
_chemical_formula_sum "Si O2"
_cell_formula_units_Z 40
_cell_length_a 7.478529
_cell_length_b 13.314192
_cell_length_c 18.851226
_cell_angle_alpha 90.000000
_cell_angle_beta 90.000000
_cell_angle_gamma 90.000000
_cell_volume 1877.027337
_symmetry_space_group_name_H-M "P B C M"
_symmetry_group_IT_number 57
_symmetry_cell_setting 'orthorhombic'
loop_
_space_group_symop_operation_xyz
x,y,z
-x,-y,1/2+z
x,1/2-y,-z
-x,1/2+y,1/2-z
-x,-y,-z
x,y,1/2-z
-x,1/2+y,z
x,1/2-y,1/2+z
loop_
_atom_site_type_symbol
_atom_site_label
_atom_site_fract_x
_atom_site_fract_y
_atom_site_fract_z
Si Si1 0.948955 0.148481 0.331509
Si Si2 0.283943 0.832654 0.170553
Si Si3 0.477531 0.157614 0.956955
Si Si4 0.314499 0.439686 0.669592
Si Si5 0.340578 0.951680 0.575384
O O1 0.920613 0.113847 0.250000
O O2 0.890864 0.264060 0.342881
O O3 0.835884 0.075344 0.381847
O O4 0.157651 0.138060 0.351900
O O5 0.358689 0.813547 0.250000
O O6 0.440702 0.800216 0.116502
O O7 0.231952 0.948681 0.160204
O O8 0.331793 0.070952 0.941691
O O9 0.388487 0.250000 0.000000
O O10 0.643377 0.110271 0.002140
O O11 0.378864 0.421789 0.750000
O O12 0.483212 0.423450 0.619951
#
# Coordination Sequence:
#
# PCOD8231927 Si02
#       5
#     8   8   8   8   8
#     4  10  19  35  60  85 114 153 193 229 278 339
#     4   9  18  35  58  80 112 153 184 232 287 328
#     4  10  19  36  57  80 116 145 185 236 277 338
#     4   9  19  36  56  85 117 145 191 238 275 332
#     4  10  20  35  60  81 112 153 187 232 288 329
#
# _framework density 21.310290999999999
#
# number of rings (size 3 to 8) (size 9 to 14) (size 15 to 20)
#    0.000    2.400    2.000    0.600    0.000    0.800 
#    3.600    9.000    0.000    0.000    0.000    0.000 
#    0.000    0.000    0.000    0.000    0.000    0.000 
#
# Total GULP energy -495930.534182 kJ/mol
# GULP energy per Si atom -12398.263355 kJ/mol
# Density = 2.126179 g / cm^3
# Si number density = 21.310291 Si / 1000 Ang^3
#
#
#
# Elastic Constant Matrix: (Units=GPa)
#
#
# Indices 1 2 3 4 5 6 
#
# 1 50.5468 4.1794 22.4055 0.0000 0.0000 0.0000
# 2 4.1794 61.7032 21.4301 0.0000 0.0000 0.0000
# 3 22.4055 21.4301 91.0507 0.0000 0.0000 0.0000
# 4 0.0000 0.0000 0.0000 31.4435 0.0000 0.0000
# 5 0.0000 0.0000 0.0000 0.0000 22.4493 0.0000
# 6 0.0000 0.0000 0.0000 0.0000 0.0000 25.4399
#
#
#
# Elastic Compliance Matrix: (Units=1/GPa)
#
#
# Indices 1 2 3 4 5 6 
#
# 1 0.022216 0.000429 -0.005568 0.000000 0.000000 0.000000
# 2 0.000429 0.017658 -0.004262 0.000000 0.000000 0.000000
# 3 -0.005568 -0.004262 0.013356 0.000000 0.000000 0.000000
# 4 0.000000 0.000000 0.000000 0.031803 0.000000 0.000000
# 5 0.000000 0.000000 0.000000 0.000000 0.044545 0.000000
# 6 0.000000 0.000000 0.000000 0.000000 0.000000 0.039308
#
#
# Mechanical properties :
#
#
# Convention : Reuss Voigt Hill
#
# Bulk Modulus (GPa) = 29.04528 33.25896 31.15212
# Shear Modulus (GPa) = 25.10502 26.21891 25.66197
#
# Velocity S-wave (km/s) = 3.43603 3.51143 3.47393
# Velocity P-wave (km/s) = 5.42227 5.66401 5.54446
#
# Compressibility (1/GPa) = 0.03442900
#
# Stress axis : x y z
#
# Youngs Moduli (GPa) = 45.01218 56.63275 74.87254
#
# Poissons Ratio (x) = -0.02429 0.41688
# Poissons Ratio (y) = -0.01931 0.31907
# Poissons Ratio (z) = 0.25062 0.24134
#
# Static dielectric constant tensor:
#      x y z
#    x 3.265540 0.000000 0.000000 
#    y 0.000000 4.009660 0.000000 
#    z 0.000000 0.000000 4.186650 
# 
# 
# High freq. dielectric constant tensor:
#      x y z
#    x 1.780980 0.000000 0.000000 
#    y 0.000000 1.845210 0.000000 
#    z 0.000000 0.000000 1.854380 
# 
# From -- ./inp_files/20714.got.cif
#   From: 2010.03.12/outbox.cif.g09.slc.cpg/sg57_11_cif.got.tgz:20714.got - 2010.04.16 15:48:40.
