data_PCOD8231543
_publ_section_title
;
Structure prediction by ZEFSAII (Michael W. Deem and Ramdas Pophale) SiO2 
 PCOD8231543
Probable space group: P B C M
;
_chemical_formula_sum "Si O2"
_cell_formula_units_Z 64
_cell_length_a 20.630702
_cell_length_b 17.813218
_cell_length_c 8.859734
_cell_angle_alpha 90.000000
_cell_angle_beta 90.000000
_cell_angle_gamma 90.000000
_cell_volume 3255.945088
_symmetry_space_group_name_H-M "P B C M"
_symmetry_group_IT_number 57
_symmetry_cell_setting 'orthorhombic'
loop_
_space_group_symop_operation_xyz
x,y,z
-x,-y,1/2+z
x,1/2-y,-z
-x,1/2+y,1/2-z
-x,-y,-z
x,y,1/2-z
-x,1/2+y,z
x,1/2-y,1/2+z
loop_
_atom_site_type_symbol
_atom_site_label
_atom_site_fract_x
_atom_site_fract_y
_atom_site_fract_z
Si Si1 0.355506 0.436787 0.927528
Si Si2 0.988730 0.169595 0.072981
Si Si3 0.114782 0.421278 0.573272
Si Si4 0.753057 0.172219 0.571372
Si Si5 0.241589 0.169901 0.426301
Si Si6 0.137102 0.579192 0.071919
Si Si7 0.504501 0.921466 0.576676
Si Si8 0.365851 0.599293 0.072136
O O1 0.347528 0.455764 0.750000
O O2 0.297293 0.385517 0.988206
O O3 0.423125 0.389744 0.957559
O O4 0.353725 0.514015 0.019649
O O5 0.989562 0.181424 0.250000
O O6 0.047974 0.117002 0.022873
O O7 0.922461 0.131071 0.018809
O O8 0.996555 0.250000 0.000000
O O9 0.115661 0.442791 0.750000
O O10 0.172009 0.363981 0.532366
O O11 0.122245 0.494500 0.472611
O O12 0.777801 0.250000 0.500000
O O13 0.755934 0.178259 0.750000
O O14 0.798882 0.105269 0.515207
O O15 0.680153 0.155841 0.517813
O O16 0.249912 0.250000 0.500000
O O17 0.250353 0.180832 0.250000
O O18 0.148794 0.584574 0.250000
O O19 0.496925 0.939648 0.750000
O O20 0.440180 0.873858 0.530704
O O21 0.500000 0.000000 0.500000
O O22 0.351054 0.605539 0.250000
#
# Coordination Sequence:
#
# PCOD8231543 Si02
#       8
#     8   8   8   8   8   8   8   8
#     4   9  17  32  53  79 110 147 186 226 274 327
#     4  10  22  38  58  85 118 152 188 227 273 325
#     4  10  21  38  58  84 115 149 187 227 270 321
#     4  12  25  41  59  80 109 145 182 228 282 339
#     4  10  21  35  53  76 106 143 183 224 271 322
#     4  11  23  39  60  87 113 144 186 231 277 329
#     4   8  15  28  49  76 108 141 179 225 270 320
#     4  10  19  33  55  83 110 141 182 228 275 329
#
# _framework density 19.656352999999999
#
# number of rings (size 3 to 8) (size 9 to 14) (size 15 to 20)
#    0.000    2.000    0.000    3.750    0.000    5.000 
#    0.000    0.625    0.000    1.500    0.000    0.000 
#    0.000    0.000    0.000    0.000    0.000    0.000 
#
# Total GULP energy -793403.132781 kJ/mol
# GULP energy per Si atom -12396.923950 kJ/mol
# Density = 1.961161 g / cm^3
# Si number density = 19.656353 Si / 1000 Ang^3
#
#
#
# Elastic Constant Matrix: (Units=GPa)
#
#
# Indices 1 2 3 4 5 6 
#
# 1 99.1605 7.4082 28.8915 0.0000 0.0000 0.0000
# 2 7.4082 69.4557 26.4088 0.0000 0.0000 0.0000
# 3 28.8915 26.4088 65.9294 0.0000 0.0000 0.0000
# 4 0.0000 0.0000 0.0000 36.4977 0.0000 0.0000
# 5 0.0000 0.0000 0.0000 0.0000 20.6599 0.0000
# 6 0.0000 0.0000 0.0000 0.0000 0.0000 21.5726
#
#
#
# Elastic Compliance Matrix: (Units=1/GPa)
#
#
# Indices 1 2 3 4 5 6 
#
# 1 0.011600 0.000821 -0.005412 0.000000 0.000000 0.000000
# 2 0.000821 0.017042 -0.007186 0.000000 0.000000 0.000000
# 3 -0.005412 -0.007186 0.020418 0.000000 0.000000 0.000000
# 4 0.000000 0.000000 0.000000 0.027399 0.000000 0.000000
# 5 0.000000 0.000000 0.000000 0.000000 0.048403 0.000000
# 6 0.000000 0.000000 0.000000 0.000000 0.000000 0.046355
#
#
# Mechanical properties :
#
#
# Convention : Reuss Voigt Hill
#
# Bulk Modulus (GPa) = 39.20768 39.99584 39.60176
# Shear Modulus (GPa) = 24.59723 27.20184 25.89953
#
# Velocity S-wave (km/s) = 3.54130 3.72408 3.63384
# Velocity P-wave (km/s) = 6.05895 6.23565 6.14794
#
# Compressibility (1/GPa) = 0.02550521
#
# Stress axis : x y z
#
# Youngs Moduli (GPa) = 86.20513 58.67688 48.97664
#
# Poissons Ratio (x) = -0.04815 0.26507
# Poissons Ratio (y) = -0.07073 0.35195
# Poissons Ratio (z) = 0.46655 0.42166
#
# Static dielectric constant tensor:
#      x y z
#    x 4.389090 0.000000 0.000000 
#    y 0.000000 3.379100 0.000000 
#    z 0.000000 0.000000 3.547330 
# 
# 
# High freq. dielectric constant tensor:
#      x y z
#    x 1.793560 0.000000 0.000000 
#    y 0.000000 1.746780 0.000000 
#    z 0.000000 0.000000 1.763210 
# 
# From -- ./inp_files/8408.got.cif
#   From: 2010.03.12/outbox.cif.g09.slc.cpg/sg57_5_cif.got.tgz:8408.got - 2010.04.16 15:48:40.
