data_PCOD8231103
_publ_section_title
;
Structure prediction by ZEFSAII (Michael W. Deem and Ramdas Pophale) SiO2 
 PCOD8231103
Probable space group: P B C M
;
_chemical_formula_sum "Si O2"
_cell_formula_units_Z 48
_cell_length_a 10.199266
_cell_length_b 29.819214
_cell_length_c 8.831084
_cell_angle_alpha 90.000000
_cell_angle_beta 90.000000
_cell_angle_gamma 90.000000
_cell_volume 2685.833745
_symmetry_space_group_name_H-M "P B C M"
_symmetry_group_IT_number 57
_symmetry_cell_setting 'orthorhombic'
loop_
_space_group_symop_operation_xyz
x,y,z
-x,-y,1/2+z
x,1/2-y,-z
-x,1/2+y,1/2-z
-x,-y,-z
x,y,1/2-z
-x,1/2+y,z
x,1/2-y,1/2+z
loop_
_atom_site_type_symbol
_atom_site_label
_atom_site_fract_x
_atom_site_fract_y
_atom_site_fract_z
Si Si1 0.981291 0.886103 0.929870
Si Si2 0.885841 0.971068 0.426943
Si Si3 0.717698 0.292919 0.415892
Si Si4 0.736216 0.109401 0.931350
Si Si5 0.970812 0.793986 0.080497
Si Si6 0.621612 0.475351 0.573153
O O1 0.988637 0.887094 0.750000
O O2 0.122521 0.899597 0.995868
O O3 0.931429 0.837643 0.984557
O O4 0.878899 0.922761 0.991663
O O5 0.914736 0.965008 0.250000
O O6 0.748601 0.994826 0.457348
O O7 0.000000 0.000000 0.500000
O O8 0.656012 0.250000 0.500000
O O9 0.656697 0.290252 0.250000
O O10 0.682409 0.341661 0.486424
O O11 0.873736 0.289290 0.411748
O O12 0.750962 0.108459 0.750000
O O13 0.635221 0.072446 0.990071
O O14 0.912983 0.798054 0.250000
O O15 0.910396 0.750000 0.000000
O O16 0.500000 0.500000 0.500000
O O17 0.597483 0.467165 0.750000
#
# Coordination Sequence:
#
# PCOD8231103 Si02
#       6
#     8   8   8   8   8   8
#     4  11  20  30  48  75 104 138 177 217 265 317
#     4  11  22  36  55  79 105 137 178 220 264 316
#     4   8  15  25  40  65  95 130 165 205 254 303
#     4  10  19  32  50  72 103 138 175 218 264 312
#     4   9  16  27  42  65  99 136 171 212 262 315
#     4  11  24  39  56  78 105 140 180 220 271 324
#
# _framework density 17.871544
#
# number of rings (size 3 to 8) (size 9 to 14) (size 15 to 20)
#    0.000    2.000    1.667    4.500    0.000    6.667 
#    0.000    0.000    0.000    0.000    0.000    1.167 
#    0.000    5.333    0.000    0.000    0.000    0.000 
#
# Total GULP energy -595097.427841 kJ/mol
# GULP energy per Si atom -12397.863080 kJ/mol
# Density = 1.783087 g / cm^3
# Si number density = 17.871544 Si / 1000 Ang^3
#
#
#
# Elastic Constant Matrix: (Units=GPa)
#
#
# Indices 1 2 3 4 5 6 
#
# 1 47.8809 40.2626 39.6886 0.0000 0.0000 0.0000
# 2 40.2626 175.8066 76.2256 0.0000 0.0000 0.0000
# 3 39.6886 76.2256 137.0471 0.0000 0.0000 0.0000
# 4 0.0000 0.0000 0.0000 38.3887 0.0000 0.0000
# 5 0.0000 0.0000 0.0000 0.0000 18.8834 0.0000
# 6 0.0000 0.0000 0.0000 0.0000 0.0000 15.4813
#
#
#
# Elastic Compliance Matrix: (Units=1/GPa)
#
#
# Indices 1 2 3 4 5 6 
#
# 1 0.029492 -0.004021 -0.006305 0.000000 0.000000 0.000000
# 2 -0.004021 0.008044 -0.003310 0.000000 0.000000 0.000000
# 3 -0.006305 -0.003310 0.010963 0.000000 0.000000 0.000000
# 4 0.000000 0.000000 0.000000 0.026049 0.000000 0.000000
# 5 0.000000 0.000000 0.000000 0.000000 0.052957 0.000000
# 6 0.000000 0.000000 0.000000 0.000000 0.000000 0.064594
#
#
# Mechanical properties :
#
#
# Convention : Reuss Voigt Hill
#
# Bulk Modulus (GPa) = 47.10415 74.78755 60.94585
# Shear Modulus (GPa) = 22.08039 28.18786 25.13413
#
# Velocity S-wave (km/s) = 3.51879 3.97577 3.75424
# Velocity P-wave (km/s) = 6.55160 7.93812 7.27795
#
# Compressibility (1/GPa) = 0.02122955
#
# Stress axis : x y z
#
# Youngs Moduli (GPa) = 33.90759 124.31886 91.21309
#
# Poissons Ratio (x) = 0.49984 0.57505
# Poissons Ratio (y) = 0.13633 0.30188
# Poissons Ratio (z) = 0.21377 0.41145
#
# Static dielectric constant tensor:
#      x y z
#    x 3.272150 0.000000 0.000000 
#    y 0.000000 4.287310 0.000000 
#    z 0.000000 0.000000 3.518650 
# 
# 
# High freq. dielectric constant tensor:
#      x y z
#    x 1.619140 0.000000 0.000000 
#    y 0.000000 1.717960 0.000000 
#    z 0.000000 0.000000 1.707810 
# 
# From -- ./inp_files/3316.got.cif
#   From: 2010.03.12/outbox.cif.g09.slc.cpg/sg57_2_cif.got.tgz:3316.got - 2010.04.16 15:48:40.
