data_PCOD8231324
_publ_section_title
;
Structure prediction by ZEFSAII (Michael W. Deem and Ramdas Pophale) SiO2 
 PCOD8231324
Probable space group: P B C M
;
_chemical_formula_sum "Si O2"
_cell_formula_units_Z 64
_cell_length_a 19.262192
_cell_length_b 23.152522
_cell_length_c 8.720440
_cell_angle_alpha 90.000000
_cell_angle_beta 90.000000
_cell_angle_gamma 90.000000
_cell_volume 3889.040012
_symmetry_space_group_name_H-M "P B C M"
_symmetry_group_IT_number 57
_symmetry_cell_setting 'orthorhombic'
loop_
_space_group_symop_operation_xyz
x,y,z
-x,-y,1/2+z
x,1/2-y,-z
-x,1/2+y,1/2-z
-x,-y,-z
x,y,1/2-z
-x,1/2+y,z
x,1/2-y,1/2+z
loop_
_atom_site_type_symbol
_atom_site_label
_atom_site_fract_x
_atom_site_fract_y
_atom_site_fract_z
Si Si1 0.746089 0.504931 0.432388
Si Si2 0.401653 0.528853 0.571723
Si Si3 0.884934 0.689639 0.928741
Si Si4 0.389602 0.188930 0.569130
Si Si5 0.252198 0.364043 0.932131
Si Si6 0.893966 0.479448 0.069652
Si Si7 0.973254 0.582297 0.572371
Si Si8 0.522962 0.590672 0.426971
O O1 0.744404 0.508338 0.250000
O O2 0.678050 0.470029 0.487617
O O3 0.745655 0.570484 0.495421
O O4 0.815323 0.471957 0.494798
O O5 0.408569 0.544757 0.750000
O O6 0.444091 0.576034 0.475220
O O7 0.429204 0.464566 0.540236
O O8 0.867297 0.695882 0.750000
O O9 0.951262 0.648081 0.956183
O O10 0.908013 0.750000 0.000000
O O11 0.818115 0.665963 0.015015
O O12 0.412667 0.250000 0.500000
O O13 0.382480 0.193901 0.750000
O O14 0.316066 0.171086 0.499739
O O15 0.449267 0.143215 0.527691
O O16 0.257165 0.361797 0.750000
O O17 0.888170 0.479980 0.250000
O O18 0.947003 0.428832 0.015378
O O19 0.921465 0.541807 0.020504
O O20 0.966798 0.564931 0.750000
O O21 0.525122 0.608739 0.250000
#
# Coordination Sequence:
#
# PCOD8231324 Si02
#       8
#     8   8   8   8   8   8   8   8
#     4   9  16  28  49  73  97 127 160 194 237 292
#     4   9  17  31  49  71  98 127 161 199 242 292
#     4  11  22  34  46  66  94 130 168 205 239 282
#     4  12  24  37  52  71  97 133 169 205 243 285
#     4  11  20  34  50  70  98 131 167 203 236 282
#     4   9  16  29  49  70  93 124 156 194 245 293
#     4   9  18  30  45  68  95 120 157 203 243 286
#     4  10  19  33  50  72  99 128 163 203 242 286
#
# _framework density 16.456503000000001
#
# number of rings (size 3 to 8) (size 9 to 14) (size 15 to 20)
#    0.000    2.000    2.500    2.625    0.000    1.000 
#    0.000    0.625    0.000    0.000    0.000    0.875 
#    0.000    2.000    0.000    0.000    0.000    0.000 
#
# Total GULP energy -793443.817447 kJ/mol
# GULP energy per Si atom -12397.559648 kJ/mol
# Density = 1.641905 g / cm^3
# Si number density = 16.456503 Si / 1000 Ang^3
#
#
#
# Elastic Constant Matrix: (Units=GPa)
#
#
# Indices 1 2 3 4 5 6 
#
# 1 136.7228 52.1296 28.3479 0.0000 0.0000 0.0000
# 2 52.1296 76.4421 30.0278 0.0000 0.0000 0.0000
# 3 28.3479 30.0278 57.5036 0.0000 0.0000 0.0000
# 4 0.0000 0.0000 0.0000 21.6107 0.0000 0.0000
# 5 0.0000 0.0000 0.0000 0.0000 15.7305 0.0000
# 6 0.0000 0.0000 0.0000 0.0000 0.0000 24.6288
#
#
#
# Elastic Compliance Matrix: (Units=1/GPa)
#
#
# Indices 1 2 3 4 5 6 
#
# 1 0.010018 -0.006154 -0.001725 0.000000 0.000000 0.000000
# 2 -0.006154 0.020238 -0.007534 0.000000 0.000000 0.000000
# 3 -0.001725 -0.007534 0.022175 0.000000 0.000000 0.000000
# 4 0.000000 0.000000 0.000000 0.046273 0.000000 0.000000
# 5 0.000000 0.000000 0.000000 0.000000 0.063571 0.000000
# 6 0.000000 0.000000 0.000000 0.000000 0.000000 0.040603
#
#
# Mechanical properties :
#
#
# Convention : Reuss Voigt Hill
#
# Bulk Modulus (GPa) = 46.28731 54.63102 50.45917
# Shear Modulus (GPa) = 20.75486 23.07154 21.91320
#
# Velocity S-wave (km/s) = 3.55518 3.74835 3.65305
# Velocity P-wave (km/s) = 6.71123 7.21130 6.96575
#
# Compressibility (1/GPa) = 0.02160419
#
# Stress axis : x y z
#
# Youngs Moduli (GPa) = 99.81785 49.41116 45.09592
#
# Poissons Ratio (x) = 0.30409 0.07779
# Poissons Ratio (y) = 0.61431 0.33977
# Poissons Ratio (z) = 0.17219 0.37228
#
# Static dielectric constant tensor:
#      x y z
#    x 3.605190 0.000000 0.000000 
#    y 0.000000 3.013470 0.000000 
#    z 0.000000 0.000000 3.077650 
# 
# 
# High freq. dielectric constant tensor:
#      x y z
#    x 1.636010 0.000000 0.000000 
#    y 0.000000 1.605360 0.000000 
#    z 0.000000 0.000000 1.631620 
# 
# From -- ./inp_files/8747.got.cif
#   From: 2010.03.12/outbox.cif.g09.slc.cpg/sg57_5_cif.got.tgz:8747.got - 2010.04.16 15:48:40.
