data_PCOD8231063
_publ_section_title
;
Structure prediction by ZEFSAII (Michael W. Deem and Ramdas Pophale) SiO2 
 PCOD8231063
Probable space group: P B C M
;
_chemical_formula_sum "Si O2"
_cell_formula_units_Z 64
_cell_length_a 23.062106
_cell_length_b 17.494989
_cell_length_c 8.876599
_cell_angle_alpha 90.000000
_cell_angle_beta 90.000000
_cell_angle_gamma 90.000000
_cell_volume 3581.452856
_symmetry_space_group_name_H-M "P B C M"
_symmetry_group_IT_number 57
_symmetry_cell_setting 'orthorhombic'
loop_
_space_group_symop_operation_xyz
x,y,z
-x,-y,1/2+z
x,1/2-y,-z
-x,1/2+y,1/2-z
-x,-y,-z
x,y,1/2-z
-x,1/2+y,z
x,1/2-y,1/2+z
loop_
_atom_site_type_symbol
_atom_site_label
_atom_site_fract_x
_atom_site_fract_y
_atom_site_fract_z
Si Si1 0.564118 0.830998 0.074636
Si Si2 0.631039 0.518469 0.925309
Si Si3 0.183575 0.171397 0.427178
Si Si4 0.765035 0.974994 0.426591
Si Si5 0.867902 0.055015 0.929990
Si Si6 0.067563 0.093867 0.074203
Si Si7 0.950721 0.167702 0.430112
Si Si8 0.537125 0.065513 0.925683
O O1 0.575250 0.819550 0.250000
O O2 0.606471 0.899380 0.014497
O O3 0.496539 0.854435 0.042171
O O4 0.579060 0.750000 0.000000
O O5 0.616760 0.513980 0.750000
O O6 0.698358 0.508185 0.960508
O O7 0.601043 0.444064 0.002917
O O8 0.203805 0.250000 0.500000
O O9 0.195798 0.171026 0.250000
O O10 0.222031 0.107061 0.503838
O O11 0.115610 0.158068 0.462929
O O12 0.779217 0.974738 0.250000
O O13 0.803274 0.039949 0.508746
O O14 0.866033 0.060921 0.750000
O O15 0.910065 0.987074 0.990077
O O16 0.891723 0.132351 0.003867
O O17 0.060333 0.084027 0.250000
O O18 0.005498 0.118372 0.007569
O O19 0.958399 0.250000 0.500000
O O20 0.948379 0.172163 0.250000
O O21 0.541772 0.050631 0.750000
O O22 0.500000 0.000000 0.000000
#
# Coordination Sequence:
#
# PCOD8231063 Si02
#       8
#     8   8   8   8   8   8   8   8
#     4   9  18  31  47  73 105 134 161 195 237 285
#     4   9  19  34  51  73 100 129 169 211 246 289
#     4  10  19  32  48  70 101 136 171 208 250 300
#     4  10  20  35  53  73  98 132 171 213 255 298
#     4  10  20  36  54  75 102 132 168 211 254 305
#     4   8  17  32  51  74 100 129 165 206 251 306
#     4  11  21  34  52  76 102 130 164 206 259 313
#     4   9  17  30  49  72  99 130 166 202 240 284
#
# _framework density 17.869844000000001
#
# number of rings (size 3 to 8) (size 9 to 14) (size 15 to 20)
#    0.000    2.500    0.000    4.125    0.000    4.000 
#    0.000    7.500    0.000    0.750    0.000    1.750 
#    0.000    0.000    0.000    0.000    0.000    0.000 
#
# Total GULP energy -793256.899841 kJ/mol
# GULP energy per Si atom -12394.639060 kJ/mol
# Density = 1.782917 g / cm^3
# Si number density = 17.869844 Si / 1000 Ang^3
#
#
#
# Elastic Constant Matrix: (Units=GPa)
#
#
# Indices 1 2 3 4 5 6 
#
# 1 102.1579 29.7144 48.7743 0.0000 0.0000 0.0000
# 2 29.7144 40.0526 25.2670 0.0000 0.0000 0.0000
# 3 48.7743 25.2670 76.4089 0.0000 0.0000 0.0000
# 4 0.0000 0.0000 0.0000 29.8313 0.0000 0.0000
# 5 0.0000 0.0000 0.0000 0.0000 27.4563 0.0000
# 6 0.0000 0.0000 0.0000 0.0000 0.0000 19.4401
#
#
#
# Elastic Compliance Matrix: (Units=1/GPa)
#
#
# Indices 1 2 3 4 5 6 
#
# 1 0.015337 -0.006574 -0.007616 0.000000 0.000000 0.000000
# 2 -0.006574 0.034366 -0.007168 0.000000 0.000000 0.000000
# 3 -0.007616 -0.007168 0.020320 0.000000 0.000000 0.000000
# 4 0.000000 0.000000 0.000000 0.033522 0.000000 0.000000
# 5 0.000000 0.000000 0.000000 0.000000 0.036421 0.000000
# 6 0.000000 0.000000 0.000000 0.000000 0.000000 0.051440
#
#
# Mechanical properties :
#
#
# Convention : Reuss Voigt Hill
#
# Bulk Modulus (GPa) = 36.62121 47.34788 41.98454
# Shear Modulus (GPa) = 20.55710 23.00310 21.78010
#
# Velocity S-wave (km/s) = 3.39540 3.59173 3.49495
# Velocity P-wave (km/s) = 5.99245 6.61470 6.31125
#
# Compressibility (1/GPa) = 0.02730658
#
# Stress axis : x y z
#
# Youngs Moduli (GPa) = 65.20072 29.09856 49.21341
#
# Poissons Ratio (x) = 0.19128 0.37483
# Poissons Ratio (y) = 0.42861 0.35276
# Poissons Ratio (z) = 0.49660 0.20858
#
# Static dielectric constant tensor:
#      x y z
#    x 3.520810 0.000000 0.000000 
#    y 0.000000 3.291400 0.000000 
#    z 0.000000 0.000000 3.343740 
# 
# 
# High freq. dielectric constant tensor:
#      x y z
#    x 1.686670 0.000000 0.000000 
#    y 0.000000 1.672120 0.000000 
#    z 0.000000 0.000000 1.692710 
# 
# From -- ./inp_files/9567.got.cif
#   From: 2010.03.12/outbox.cif.g09.slc.cpg/sg57_5_cif.got.tgz:9567.got - 2010.04.16 15:48:40.
