data_PCOD8231683
_publ_section_title
;
Structure prediction by ZEFSAII (Michael W. Deem and Ramdas Pophale) SiO2 
 PCOD8231683
Probable space group: P B C M
;
_chemical_formula_sum "Si O2"
_cell_formula_units_Z 40
_cell_length_a 13.733033
_cell_length_b 18.179802
_cell_length_c 8.507118
_cell_angle_alpha 90.000000
_cell_angle_beta 90.000000
_cell_angle_gamma 90.000000
_cell_volume 2123.919584
_symmetry_space_group_name_H-M "P B C M"
_symmetry_group_IT_number 57
_symmetry_cell_setting 'orthorhombic'
loop_
_space_group_symop_operation_xyz
x,y,z
-x,-y,1/2+z
x,1/2-y,-z
-x,1/2+y,1/2-z
-x,-y,-z
x,y,1/2-z
-x,1/2+y,z
x,1/2-y,1/2+z
loop_
_atom_site_type_symbol
_atom_site_label
_atom_site_fract_x
_atom_site_fract_y
_atom_site_fract_z
Si Si1 0.615569 0.107294 0.064466
Si Si2 0.897609 0.474308 0.435552
Si Si3 0.182277 0.671706 0.063892
Si Si4 0.293703 0.457809 0.064193
Si Si5 0.414782 0.329945 0.935057
O O1 0.606405 0.105302 0.250000
O O2 0.705187 0.159367 0.014002
O O3 0.516000 0.139044 0.990173
O O4 0.636483 0.024359 0.004353
O O5 0.891802 0.483932 0.250000
O O6 0.884290 0.389347 0.482136
O O7 0.816471 0.525376 0.515949
O O8 0.000000 0.500000 0.500000
O O9 0.168616 0.666004 0.250000
O O10 0.147115 0.750000 0.000000
O O11 0.299342 0.448399 0.250000
O O12 0.326722 0.382996 0.981916
O O13 0.423734 0.324940 0.750000
O O14 0.391106 0.250000 0.000000
#
# Coordination Sequence:
#
# PCOD8231683 Si02
#       5
#     8   8   8   8   8
#     4   8  17  32  53  79 110 144 182 222 266 317
#     4  11  22  39  61  84 108 141 180 224 274 329
#     4  10  19  34  55  84 116 146 180 225 273 321
#     4  10  20  37  57  80 108 141 180 227 273 323
#     4  11  21  34  51  77 111 150 188 224 265 316
#
# _framework density 18.833103999999999
#
# number of rings (size 3 to 8) (size 9 to 14) (size 15 to 20)
#    0.000    2.000    0.000    6.000    0.000    0.000 
#    0.000   11.000    0.000    0.000    0.000    0.000 
#    0.000    0.000    0.000    0.000    0.000    0.000 
#
# Total GULP energy -496078.764535 kJ/mol
# GULP energy per Si atom -12401.969113 kJ/mol
# Density = 1.879024 g / cm^3
# Si number density = 18.833104 Si / 1000 Ang^3
#
#
#
# Elastic Constant Matrix: (Units=GPa)
#
#
# Indices 1 2 3 4 5 6 
#
# 1 97.0310 64.1492 5.8733 0.0000 0.0000 0.0000
# 2 64.1492 144.8742 18.9710 0.0000 0.0000 0.0000
# 3 5.8733 18.9710 55.9442 0.0000 0.0000 0.0000
# 4 0.0000 0.0000 0.0000 29.0211 0.0000 0.0000
# 5 0.0000 0.0000 0.0000 0.0000 26.5573 0.0000
# 6 0.0000 0.0000 0.0000 0.0000 0.0000 21.7256
#
#
#
# Elastic Compliance Matrix: (Units=1/GPa)
#
#
# Indices 1 2 3 4 5 6 
#
# 1 0.014597 -0.006554 0.000690 0.000000 0.000000 0.000000
# 2 -0.006554 0.010166 -0.002759 0.000000 0.000000 0.000000
# 3 0.000690 -0.002759 0.018738 0.000000 0.000000 0.000000
# 4 0.000000 0.000000 0.000000 0.034458 0.000000 0.000000
# 5 0.000000 0.000000 0.000000 0.000000 0.037654 0.000000
# 6 0.000000 0.000000 0.000000 0.000000 0.000000 0.046029
#
#
# Mechanical properties :
#
#
# Convention : Reuss Voigt Hill
#
# Bulk Modulus (GPa) = 38.08812 52.87073 45.47943
# Shear Modulus (GPa) = 26.64680 29.38452 28.01566
#
# Velocity S-wave (km/s) = 3.76559 3.95430 3.86109
# Velocity P-wave (km/s) = 6.25892 6.99878 6.63916
#
# Compressibility (1/GPa) = 0.02625491
#
# Stress axis : x y z
#
# Youngs Moduli (GPa) = 68.50676 98.36859 53.36695
#
# Poissons Ratio (x) = 0.64469 -0.03682
# Poissons Ratio (y) = 0.44898 0.14725
# Poissons Ratio (z) = -0.04727 0.27142
#
# Static dielectric constant tensor:
#      x y z
#    x 3.437420 0.000000 0.000000 
#    y 0.000000 3.891550 0.000000 
#    z 0.000000 0.000000 3.372570 
# 
# 
# High freq. dielectric constant tensor:
#      x y z
#    x 1.720110 0.000000 0.000000 
#    y 0.000000 1.736540 0.000000 
#    z 0.000000 0.000000 1.730390 
# 
# From -- ./inp_files/2646.got.cif
#   From: 2010.03.12/outbox.cif.g09.slc.cpg/sg57_2_cif.got.tgz:2646.got - 2010.04.16 15:48:40.
