data_PCOD8231052
_publ_section_title
;
Structure prediction by ZEFSAII (Michael W. Deem and Ramdas Pophale) SiO2 
 PCOD8231052
Probable space group: P B C M
;
_chemical_formula_sum "Si O2"
_cell_formula_units_Z 64
_cell_length_a 18.948739
_cell_length_b 19.897189
_cell_length_c 9.119314
_cell_angle_alpha 90.000000
_cell_angle_beta 90.000000
_cell_angle_gamma 90.000000
_cell_volume 3438.224327
_symmetry_space_group_name_H-M "P B C M"
_symmetry_group_IT_number 57
_symmetry_cell_setting 'orthorhombic'
loop_
_space_group_symop_operation_xyz
x,y,z
-x,-y,1/2+z
x,1/2-y,-z
-x,1/2+y,1/2-z
-x,-y,-z
x,y,1/2-z
-x,1/2+y,z
x,1/2-y,1/2+z
loop_
_atom_site_type_symbol
_atom_site_label
_atom_site_fract_x
_atom_site_fract_y
_atom_site_fract_z
Si Si1 0.480964 0.186192 0.581897
Si Si2 0.932208 0.078935 0.582411
Si Si3 0.554048 0.048947 0.921334
Si Si4 0.910684 0.942726 0.417848
Si Si5 0.189745 0.678496 0.922403
Si Si6 0.679636 0.817324 0.423485
Si Si7 0.223156 0.079784 0.080222
Si Si8 0.289598 0.938725 0.419846
O O1 0.513564 0.250000 0.500000
O O2 0.480656 0.205514 0.750000
O O3 0.530159 0.124113 0.545866
O O4 0.401353 0.171040 0.530347
O O5 0.914834 0.055706 0.750000
O O6 0.886096 0.144430 0.541968
O O7 0.015092 0.096598 0.567133
O O8 0.915764 0.019202 0.471444
O O9 0.551973 0.030742 0.750000
O O10 0.633363 0.044687 0.989011
O O11 0.500000 0.000000 0.000000
O O12 0.884985 0.943748 0.250000
O O13 0.854052 0.903039 0.516743
O O14 0.198050 0.690310 0.750000
O O15 0.251432 0.628306 0.982479
O O16 0.195866 0.750000 0.000000
O O17 0.709098 0.750000 0.500000
O O18 0.691145 0.812457 0.250000
O O19 0.719430 0.880864 0.487627
O O20 0.227685 0.100505 0.250000
O O21 0.236946 0.000737 0.055672
O O22 0.303889 0.925888 0.250000
#
# Coordination Sequence:
#
# PCOD8231052 Si02
#       8
#     8   8   8   8   8   8   8   8
#     4   9  19  34  53  75 103 136 176 221 268 321
#     4   9  18  35  55  76 107 142 178 221 272 323
#     4  10  20  35  54  79 107 140 177 224 274 323
#     4  10  19  31  54  83 107 136 177 226 268 318
#     4  10  20  37  56  78 110 148 186 228 272 323
#     4  10  20  35  53  77 106 138 175 221 271 327
#     4  11  20  34  55  79 108 146 180 219 271 327
#     4   9  19  35  55  76 107 146 183 217 271 333
#
# _framework density 18.614260000000002
#
# number of rings (size 3 to 8) (size 9 to 14) (size 15 to 20)
#    0.000    2.250    1.250    1.875    0.000    2.500 
#    0.000    1.875    0.000    1.500    0.000    0.000 
#    0.000    0.000    0.000    0.000    0.000    0.000 
#
# Total GULP energy -793504.740555 kJ/mol
# GULP energy per Si atom -12398.511571 kJ/mol
# Density = 1.857189 g / cm^3
# Si number density = 18.614260 Si / 1000 Ang^3
#
#
#
# Elastic Constant Matrix: (Units=GPa)
#
#
# Indices 1 2 3 4 5 6 
#
# 1 119.3362 39.5602 37.4072 0.0000 0.0000 0.0000
# 2 39.5602 65.4754 32.3217 0.0000 0.0000 0.0000
# 3 37.4072 32.3217 65.7356 0.0000 0.0000 0.0000
# 4 0.0000 0.0000 0.0000 33.7365 0.0000 0.0000
# 5 0.0000 0.0000 0.0000 0.0000 25.1759 0.0000
# 6 0.0000 0.0000 0.0000 0.0000 0.0000 5.6604
#
#
#
# Elastic Compliance Matrix: (Units=1/GPa)
#
#
# Indices 1 2 3 4 5 6 
#
# 1 0.011234 -0.004796 -0.004035 0.000000 0.000000 0.000000
# 2 -0.004796 0.022216 -0.008194 0.000000 0.000000 0.000000
# 3 -0.004035 -0.008194 0.021537 0.000000 0.000000 0.000000
# 4 0.000000 0.000000 0.000000 0.029642 0.000000 0.000000
# 5 0.000000 0.000000 0.000000 0.000000 0.039721 0.000000
# 6 0.000000 0.000000 0.000000 0.000000 0.000000 0.176666
#
#
# Mechanical properties :
#
#
# Convention : Reuss Voigt Hill
#
# Bulk Modulus (GPa) = 47.76082 52.12505 49.94293
# Shear Modulus (GPa) = 14.61800 22.33176 18.47488
#
# Velocity S-wave (km/s) = 2.80538 3.46744 3.15383
# Velocity P-wave (km/s) = 6.01726 6.64036 6.33648
#
# Compressibility (1/GPa) = 0.02093766
#
# Stress axis : x y z
#
# Youngs Moduli (GPa) = 89.01286 45.01341 46.43078
#
# Poissons Ratio (x) = 0.21588 0.18734
# Poissons Ratio (y) = 0.42691 0.38046
# Poissons Ratio (z) = 0.35915 0.36884
#
# Static dielectric constant tensor:
#      x y z
#    x 3.669370 0.000000 0.000000 
#    y 0.000000 3.242560 0.000000 
#    z 0.000000 0.000000 3.362360 
# 
# 
# High freq. dielectric constant tensor:
#      x y z
#    x 1.734140 0.000000 0.000000 
#    y 0.000000 1.707320 0.000000 
#    z 0.000000 0.000000 1.711870 
# 
# From -- ./inp_files/7284.got.cif
#   From: 2010.03.12/outbox.cif.g09.slc.cpg/sg57_4_cif.got.tgz:7284.got - 2010.04.16 15:48:40.
