data_PCOD8231196
_publ_section_title
;
Structure prediction by ZEFSAII (Michael W. Deem and Ramdas Pophale) SiO2 
 PCOD8231196
Probable space group: P B C M
;
_chemical_formula_sum "Si O2"
_cell_formula_units_Z 56
_cell_length_a 18.763146
_cell_length_b 17.308002
_cell_length_c 9.251261
_cell_angle_alpha 90.000000
_cell_angle_beta 90.000000
_cell_angle_gamma 90.000000
_cell_volume 3004.370772
_symmetry_space_group_name_H-M "P B C M"
_symmetry_group_IT_number 57
_symmetry_cell_setting 'orthorhombic'
loop_
_space_group_symop_operation_xyz
x,y,z
-x,-y,1/2+z
x,1/2-y,-z
-x,1/2+y,1/2-z
-x,-y,-z
x,y,1/2-z
-x,1/2+y,z
x,1/2-y,1/2+z
loop_
_atom_site_type_symbol
_atom_site_label
_atom_site_fract_x
_atom_site_fract_y
_atom_site_fract_z
Si Si1 0.133485 0.671067 0.918909
Si Si2 0.215681 0.050127 0.584398
Si Si3 0.670016 0.831438 0.080362
Si Si4 0.589290 0.324646 0.409319
Si Si5 0.723092 0.088978 0.585302
Si Si6 0.460349 0.434046 0.090127
Si Si7 0.928756 0.024455 0.078652
O O1 0.109544 0.673883 0.750000
O O2 0.217574 0.655454 0.931276
O O3 0.114314 0.750000 0.000000
O O4 0.092937 0.604279 0.004707
O O5 0.228126 0.029107 0.750000
O O6 0.250015 0.134372 0.550071
O O7 0.259648 0.987878 0.497962
O O8 0.131256 0.042131 0.548567
O O9 0.657670 0.816094 0.250000
O O10 0.612686 0.896503 0.025373
O O11 0.661428 0.750000 0.000000
O O12 0.577908 0.250000 0.500000
O O13 0.617238 0.301797 0.250000
O O14 0.649149 0.379560 0.480775
O O15 0.513252 0.363012 0.400321
O O16 0.713674 0.063343 0.750000
O O17 0.445062 0.468035 0.250000
O O18 0.500000 0.500000 0.000000
O O19 0.940843 0.036208 0.250000
O O20 0.000000 0.000000 0.000000
#
# Coordination Sequence:
#
# PCOD8231196 Si02
#       7
#     8   8   8   8   8   8   8
#     4  10  19  32  51  77 107 139 174 212 255 309
#     4   9  19  35  55  77 102 133 172 213 256 309
#     4  10  21  37  55  78 106 139 180 226 271 318
#     4  10  20  32  46  70 101 132 166 206 250 298
#     4   9  18  31  49  74 104 135 170 209 251 303
#     4  10  21  35  52  74 101 133 175 221 265 312
#     4  10  20  36  57  80 107 139 173 215 265 319
#
# _framework density 18.639510000000001
#
# number of rings (size 3 to 8) (size 9 to 14) (size 15 to 20)
#    0.000    2.286    0.000    2.571    0.000    3.429 
#    0.000    0.714    0.000    1.714    0.000    0.000 
#    0.000    0.000    0.000    0.000    0.000    0.000 
#
# Total GULP energy -694030.084889 kJ/mol
# GULP energy per Si atom -12393.394373 kJ/mol
# Density = 1.859709 g / cm^3
# Si number density = 18.639510 Si / 1000 Ang^3
#
#
#
# Elastic Constant Matrix: (Units=GPa)
#
#
# Indices 1 2 3 4 5 6 
#
# 1 114.6300 51.0946 44.0301 0.0000 0.0000 0.0000
# 2 51.0946 97.4506 53.2566 0.0000 0.0000 0.0000
# 3 44.0301 53.2566 85.7476 0.0000 0.0000 0.0000
# 4 0.0000 0.0000 0.0000 33.2915 0.0000 0.0000
# 5 0.0000 0.0000 0.0000 0.0000 25.8919 0.0000
# 6 0.0000 0.0000 0.0000 0.0000 0.0000 21.6309
#
#
#
# Elastic Compliance Matrix: (Units=1/GPa)
#
#
# Indices 1 2 3 4 5 6 
#
# 1 0.012011 -0.004431 -0.003415 0.000000 0.000000 0.000000
# 2 -0.004431 0.017169 -0.008388 0.000000 0.000000 0.000000
# 3 -0.003415 -0.008388 0.018626 0.000000 0.000000 0.000000
# 4 0.000000 0.000000 0.000000 0.030038 0.000000 0.000000
# 5 0.000000 0.000000 0.000000 0.000000 0.038622 0.000000
# 6 0.000000 0.000000 0.000000 0.000000 0.000000 0.046230
#
#
# Mechanical properties :
#
#
# Convention : Reuss Voigt Hill
#
# Bulk Modulus (GPa) = 65.20430 66.06564 65.63497
# Shear Modulus (GPa) = 24.96559 26.12600 25.54579
#
# Velocity S-wave (km/s) = 3.66374 3.74792 3.70607
# Velocity P-wave (km/s) = 7.27702 7.36546 7.32137
#
# Compressibility (1/GPa) = 0.01533641
#
# Stress axis : x y z
#
# Youngs Moduli (GPa) = 83.26030 58.24496 53.68942
#
# Poissons Ratio (x) = 0.25807 0.18337
# Poissons Ratio (y) = 0.36891 0.45036
# Poissons Ratio (z) = 0.28436 0.48857
#
# Static dielectric constant tensor:
#      x y z
#    x 3.598350 0.000000 0.000000 
#    y 0.000000 3.337050 0.000000 
#    z 0.000000 0.000000 3.558080 
# 
# 
# High freq. dielectric constant tensor:
#      x y z
#    x 1.726940 0.000000 0.000000 
#    y 0.000000 1.712160 0.000000 
#    z 0.000000 0.000000 1.725340 
# 
# From -- ./inp_files/8183.got.cif
#   From: 2010.03.12/outbox.cif.g09.slc.cpg/sg57_5_cif.got.tgz:8183.got - 2010.04.16 15:48:40.
