data_PCOD8231358
_publ_section_title
;
Structure prediction by ZEFSAII (Michael W. Deem and Ramdas Pophale) SiO2 
 PCOD8231358
Probable space group: P B C M
;
_chemical_formula_sum "Si O2"
_cell_formula_units_Z 64
_cell_length_a 11.875389
_cell_length_b 31.297630
_cell_length_c 9.177705
_cell_angle_alpha 90.000000
_cell_angle_beta 90.000000
_cell_angle_gamma 90.000000
_cell_volume 3411.091669
_symmetry_space_group_name_H-M "P B C M"
_symmetry_group_IT_number 57
_symmetry_cell_setting 'orthorhombic'
loop_
_space_group_symop_operation_xyz
x,y,z
-x,-y,1/2+z
x,1/2-y,-z
-x,1/2+y,1/2-z
-x,-y,-z
x,y,1/2-z
-x,1/2+y,z
x,1/2-y,1/2+z
loop_
_atom_site_type_symbol
_atom_site_label
_atom_site_fract_x
_atom_site_fract_y
_atom_site_fract_z
Si Si1 0.850320 0.389126 0.581298
Si Si2 0.512013 0.545371 0.921189
Si Si3 0.512585 0.707156 0.919836
Si Si4 0.103847 0.132924 0.080806
Si Si5 0.238067 0.064175 0.585577
Si Si6 0.104035 0.982102 0.914270
Si Si7 0.630821 0.373763 0.077436
Si Si8 0.772710 0.707539 0.920284
O O1 0.815553 0.388415 0.750000
O O2 0.856361 0.437299 0.518896
O O3 0.753511 0.365564 0.490611
O O4 0.970013 0.366595 0.555918
O O5 0.501675 0.536327 0.750000
O O6 0.631534 0.567505 0.958099
O O7 0.420343 0.580469 0.974091
O O8 0.500000 0.500000 0.000000
O O9 0.492879 0.714894 0.750000
O O10 0.445808 0.665703 0.976756
O O11 0.642788 0.698002 0.955332
O O12 0.470069 0.750000 0.000000
O O13 0.133840 0.139645 0.250000
O O14 0.158861 0.088649 0.028024
O O15 0.153432 0.169638 0.981790
O O16 0.218636 0.082128 0.750000
O O17 0.208421 0.014197 0.578694
O O18 0.062008 0.973984 0.750000
O O19 0.000000 0.000000 0.000000
O O20 0.640065 0.373112 0.250000
O O21 0.795170 0.712656 0.750000
O O22 0.813992 0.750000 0.000000
#
# Coordination Sequence:
#
# PCOD8231358 Si02
#       8
#     8   8   8   8   8   8   8   8
#     4  10  22  38  54  77 111 148 187 234 276 322
#     4  10  21  37  55  79 112 148 187 231 280 337
#     4   9  19  37  61  88 114 141 178 226 278 334
#     4  11  22  36  55  81 111 142 183 228 272 323
#     4  10  20  34  55  79 107 144 183 226 280 331
#     4  10  19  33  52  75 105 143 184 228 275 321
#     4  10  21  37  57  81 111 149 189 229 278 338
#     4  10  20  37  61  87 116 144 174 219 275 333
#
# _framework density 18.762321
#
# number of rings (size 3 to 8) (size 9 to 14) (size 15 to 20)
#    0.000    2.000    1.250    2.250    0.000    6.500 
#    0.000    1.875    0.000    1.500    0.000    0.000 
#    0.000    0.000    0.000    0.000    0.000    0.000 
#
# Total GULP energy -793697.413902 kJ/mol
# GULP energy per Si atom -12401.522092 kJ/mol
# Density = 1.871962 g / cm^3
# Si number density = 18.762321 Si / 1000 Ang^3
#
#
#
# Elastic Constant Matrix: (Units=GPa)
#
#
# Indices 1 2 3 4 5 6 
#
# 1 95.0433 42.9621 40.1779 0.0000 0.0000 0.0000
# 2 42.9621 122.4893 44.3204 0.0000 0.0000 0.0000
# 3 40.1779 44.3204 64.3121 0.0000 0.0000 0.0000
# 4 0.0000 0.0000 0.0000 34.7436 0.0000 0.0000
# 5 0.0000 0.0000 0.0000 0.0000 30.4323 0.0000
# 6 0.0000 0.0000 0.0000 0.0000 0.0000 27.6347
#
#
#
# Elastic Compliance Matrix: (Units=1/GPa)
#
#
# Indices 1 2 3 4 5 6 
#
# 1 0.014836 -0.002464 -0.007570 0.000000 0.000000 0.000000
# 2 -0.002464 0.011285 -0.006238 0.000000 0.000000 0.000000
# 3 -0.007570 -0.006238 0.024577 0.000000 0.000000 0.000000
# 4 0.000000 0.000000 0.000000 0.028782 0.000000 0.000000
# 5 0.000000 0.000000 0.000000 0.000000 0.032860 0.000000
# 6 0.000000 0.000000 0.000000 0.000000 0.000000 0.036186
#
#
# Mechanical properties :
#
#
# Convention : Reuss Voigt Hill
#
# Bulk Modulus (GPa) = 55.08451 59.64063 57.36257
# Shear Modulus (GPa) = 26.72060 28.85441 27.78751
#
# Velocity S-wave (km/s) = 3.77790 3.92585 3.85259
# Velocity P-wave (km/s) = 6.96081 7.23921 7.10138
#
# Compressibility (1/GPa) = 0.01815393
#
# Stress axis : x y z
#
# Youngs Moduli (GPa) = 67.40562 88.61073 40.68849
#
# Poissons Ratio (x) = 0.21837 0.30801
# Poissons Ratio (y) = 0.16612 0.25380
# Poissons Ratio (z) = 0.51026 0.55272
#
# Static dielectric constant tensor:
#      x y z
#    x 3.436210 0.000000 0.000000 
#    y 0.000000 3.714070 0.000000 
#    z 0.000000 0.000000 3.432290 
# 
# 
# High freq. dielectric constant tensor:
#      x y z
#    x 1.727790 0.000000 0.000000 
#    y 0.000000 1.729080 0.000000 
#    z 0.000000 0.000000 1.724470 
# 
# From -- ./inp_files/3762.got.cif
#   From: 2010.03.12/outbox.cif.g09.slc.cpg/sg57_2_cif.got.tgz:3762.got - 2010.04.16 15:48:40.
