data_PCOD8231920
_publ_section_title
;
Structure prediction by ZEFSAII (Michael W. Deem and Ramdas Pophale) SiO2 
 PCOD8231920
Probable space group: P B C M
;
_chemical_formula_sum "Si O2"
_cell_formula_units_Z 60
_cell_length_a 17.486959
_cell_length_b 5.525732
_cell_length_c 27.653453
_cell_angle_alpha 90.000000
_cell_angle_beta 90.000000
_cell_angle_gamma 90.000000
_cell_volume 2672.104740
_symmetry_space_group_name_H-M "P B C M"
_symmetry_group_IT_number 57
_symmetry_cell_setting 'orthorhombic'
loop_
_space_group_symop_operation_xyz
x,y,z
-x,-y,1/2+z
x,1/2-y,-z
-x,1/2+y,1/2-z
-x,-y,-z
x,y,1/2-z
-x,1/2+y,z
x,1/2-y,1/2+z
loop_
_atom_site_type_symbol
_atom_site_label
_atom_site_fract_x
_atom_site_fract_y
_atom_site_fract_z
Si Si1 0.704574 0.183562 0.304628
Si Si2 0.914518 0.750000 0.500000
Si Si3 0.515818 0.677570 0.572508
Si Si4 0.684713 0.831272 0.108590
Si Si5 0.806218 0.044409 0.872108
Si Si6 0.960673 0.870542 0.898687
Si Si7 0.796096 0.104684 0.453974
Si Si8 0.540124 0.336444 0.175846
O O1 0.720245 0.096752 0.250000
O O2 0.780601 0.330934 0.321817
O O3 0.627804 0.347117 0.306302
O O4 0.693135 0.950776 0.338644
O O5 0.961716 0.890627 0.541809
O O6 0.862102 0.578967 0.532422
O O7 0.505003 0.424128 0.542402
O O8 0.597725 0.712771 0.596356
O O9 0.457062 0.669057 0.617537
O O10 0.729681 0.580350 0.107925
O O11 0.718413 0.990885 0.065568
O O12 0.834488 0.235410 0.912237
O O13 0.878209 0.862189 0.870648
O O14 0.998417 0.618476 0.881099
O O15 0.767771 0.250000 0.500000
O O16 0.499328 0.584428 0.194987
#
# Coordination Sequence:
#
# PCOD8231920 Si02
#       8
#     8   4   8   8   8   8   8   8
#     4  11  25  40  63  95 128 177 229 283 338 395
#     4  12  22  42  62 108 142 174 204 268 334 420
#     4  10  19  35  59  89 122 173 221 273 337 392
#     4  11  22  39  65  89 131 184 222 276 333 402
#     4  11  24  42  66  93 136 174 227 268 328 405
#     4  12  26  42  69 104 141 178 206 266 335 412
#     4  11  21  38  65  96 136 180 220 266 322 397
#     4  10  19  37  57  91 132 168 211 272 344 404
#
# _framework density 22.454208000000001
#
# number of rings (size 3 to 8) (size 9 to 14) (size 15 to 20)
#    0.000    1.067    5.333    2.800    3.733    1.067 
#    0.000    0.000    0.000    1.600    0.000    0.000 
#    0.000    0.000    0.000    0.000    0.000    0.000 
#
# Total GULP energy -743561.976289 kJ/mol
# GULP energy per Si atom -12392.699605 kJ/mol
# Density = 2.240310 g / cm^3
# Si number density = 22.454208 Si / 1000 Ang^3
#
#
#
# Elastic Constant Matrix: (Units=GPa)
#
#
# Indices 1 2 3 4 5 6 
#
# 1 74.6737 42.8332 9.9614 0.0000 0.0000 0.0000
# 2 42.8332 164.6795 13.1662 0.0000 0.0000 0.0000
# 3 9.9614 13.1662 43.0952 0.0000 0.0000 0.0000
# 4 0.0000 0.0000 0.0000 11.2586 0.0000 0.0000
# 5 0.0000 0.0000 0.0000 0.0000 11.0243 0.0000
# 6 0.0000 0.0000 0.0000 0.0000 0.0000 31.3975
#
#
#
# Elastic Compliance Matrix: (Units=1/GPa)
#
#
# Indices 1 2 3 4 5 6 
#
# 1 0.015996 -0.003962 -0.002487 0.000000 0.000000 0.000000
# 2 -0.003962 0.007206 -0.001286 0.000000 0.000000 0.000000
# 3 -0.002487 -0.001286 0.024172 0.000000 0.000000 0.000000
# 4 0.000000 0.000000 0.000000 0.088821 0.000000 0.000000
# 5 0.000000 0.000000 0.000000 0.000000 0.090708 0.000000
# 6 0.000000 0.000000 0.000000 0.000000 0.000000 0.031850
#
#
# Mechanical properties :
#
#
# Convention : Reuss Voigt Hill
#
# Bulk Modulus (GPa) = 31.34336 46.04113 38.69224
# Shear Modulus (GPa) = 17.55271 25.16859 21.36065
#
# Velocity S-wave (km/s) = 2.79894 3.35159 3.08766
# Velocity P-wave (km/s) = 4.94313 5.96042 5.47545
#
# Compressibility (1/GPa) = 0.03190469
#
# Stress axis : x y z
#
# Youngs Moduli (GPa) = 62.51642 138.78050 41.36998
#
# Poissons Ratio (x) = 0.54980 0.10289
# Poissons Ratio (y) = 0.24767 0.05319
# Poissons Ratio (z) = 0.15548 0.17843
#
# Static dielectric constant tensor:
#      x y z
#    x 4.064370 0.000000 0.000000 
#    y 0.000000 4.602350 0.000000 
#    z 0.000000 0.000000 3.651510 
# 
# 
# High freq. dielectric constant tensor:
#      x y z
#    x 1.883630 0.000000 0.000000 
#    y 0.000000 1.907790 0.000000 
#    z 0.000000 0.000000 1.837630 
# 
# From -- ./inp_files/29942.got.cif
#   From: 2010.03.12/outbox.cif.g09.slc.cpg/sg57_15_cif.got.tgz:29942.got - 2010.04.16 15:48:40.
