data_PCOD8231172
_publ_section_title
;
Structure prediction by ZEFSAII (Michael W. Deem and Ramdas Pophale) SiO2 
 PCOD8231172
Probable space group: P B C M
;
_chemical_formula_sum "Si O2"
_cell_formula_units_Z 56
_cell_length_a 9.523886
_cell_length_b 18.911317
_cell_length_c 17.773102
_cell_angle_alpha 90.000000
_cell_angle_beta 90.000000
_cell_angle_gamma 90.000000
_cell_volume 3201.099666
_symmetry_space_group_name_H-M "P B C M"
_symmetry_group_IT_number 57
_symmetry_cell_setting 'orthorhombic'
loop_
_space_group_symop_operation_xyz
x,y,z
-x,-y,1/2+z
x,1/2-y,-z
-x,1/2+y,1/2-z
-x,-y,-z
x,y,1/2-z
-x,1/2+y,z
x,1/2-y,1/2+z
loop_
_atom_site_type_symbol
_atom_site_label
_atom_site_fract_x
_atom_site_fract_y
_atom_site_fract_z
Si Si1 0.878252 0.135287 0.439664
Si Si2 0.130402 0.182915 0.544709
Si Si3 0.061408 0.763344 0.335544
Si Si4 0.664342 0.436919 0.041156
Si Si5 0.645005 0.565034 0.934161
Si Si6 0.868555 0.082083 0.832584
Si Si7 0.138607 0.503138 0.336694
O O1 0.862146 0.204181 0.386724
O O2 0.732263 0.120801 0.484039
O O3 0.914461 0.068988 0.386466
O O4 0.998751 0.145513 0.502340
O O5 0.186191 0.250000 0.500000
O O6 0.262540 0.132771 0.549220
O O7 0.085051 0.212485 0.626709
O O8 0.035371 0.735983 0.250000
O O9 0.156951 0.833530 0.334535
O O10 0.516091 0.409715 0.075023
O O11 0.765488 0.454829 0.110040
O O12 0.648645 0.513246 0.004717
O O13 0.706993 0.524022 0.861313
O O14 0.833206 0.052090 0.750000
O O15 0.030190 0.061356 0.851801
O O16 0.145429 0.526456 0.250000
#
# Coordination Sequence:
#
# PCOD8231172 Si02
#       7
#     8   8   8   8   8   8   8
#     4  10  19  33  53  76 104 133 174 214 256 309
#     4  10  19  33  52  77 100 136 171 213 264 307
#     4  10  19  32  52  77 104 129 166 217 261 304
#     4  10  20  34  52  75 103 138 173 213 255 304
#     4  10  20  34  51  75 105 135 173 214 255 304
#     4  10  19  32  51  75 101 132 171 214 258 302
#     4  10  19  32  54  79 102 137 174 212 259 307
#
# _framework density 17.493988999999999
#
# number of rings (size 3 to 8) (size 9 to 14) (size 15 to 20)
#    0.000    2.000    2.857    1.286    0.000    2.857 
#    2.571    0.000    0.000    0.000    0.000    0.000 
#    0.000    0.000    0.000    0.000    0.000    0.000 
#
# Total GULP energy -694122.131652 kJ/mol
# GULP energy per Si atom -12395.038065 kJ/mol
# Density = 1.745417 g / cm^3
# Si number density = 17.493989 Si / 1000 Ang^3
#
#
#
# Elastic Constant Matrix: (Units=GPa)
#
#
# Indices 1 2 3 4 5 6 
#
# 1 102.1237 27.3662 47.5523 0.0000 0.0000 0.0000
# 2 27.3662 72.0001 22.3375 0.0000 0.0000 0.0000
# 3 47.5523 22.3375 108.9449 0.0000 0.0000 0.0000
# 4 0.0000 0.0000 0.0000 21.8597 0.0000 0.0000
# 5 0.0000 0.0000 0.0000 0.0000 17.1599 0.0000
# 6 0.0000 0.0000 0.0000 0.0000 0.0000 24.2894
#
#
#
# Elastic Compliance Matrix: (Units=1/GPa)
#
#
# Indices 1 2 3 4 5 6 
#
# 1 0.013027 -0.003404 -0.004988 0.000000 0.000000 0.000000
# 2 -0.003404 0.015722 -0.001738 0.000000 0.000000 0.000000
# 3 -0.004988 -0.001738 0.011712 0.000000 0.000000 0.000000
# 4 0.000000 0.000000 0.000000 0.045746 0.000000 0.000000
# 5 0.000000 0.000000 0.000000 0.000000 0.058275 0.000000
# 6 0.000000 0.000000 0.000000 0.000000 0.000000 0.041170
#
#
# Mechanical properties :
#
#
# Convention : Reuss Voigt Hill
#
# Bulk Modulus (GPa) = 49.50082 53.06451 51.28266
# Shear Modulus (GPa) = 23.51327 25.04932 24.28129
#
# Velocity S-wave (km/s) = 3.67014 3.78813 3.72960
# Velocity P-wave (km/s) = 6.80568 7.03790 6.92276
#
# Compressibility (1/GPa) = 0.02020168
#
# Stress axis : x y z
#
# Youngs Moduli (GPa) = 76.76510 63.60616 85.37934
#
# Poissons Ratio (x) = 0.21650 0.42587
# Poissons Ratio (y) = 0.26129 0.14837
# Poissons Ratio (z) = 0.38291 0.11054
#
# Static dielectric constant tensor:
#      x y z
#    x 3.150550 0.000000 0.000000 
#    y 0.000000 3.271550 0.000000 
#    z 0.000000 0.000000 3.463280 
# 
# 
# High freq. dielectric constant tensor:
#      x y z
#    x 1.646340 0.000000 0.000000 
#    y 0.000000 1.678100 0.000000 
#    z 0.000000 0.000000 1.689340 
# 
# From -- ./inp_files/21353.got.cif
#   From: 2010.03.12/outbox.cif.g09.slc.cpg/sg57_11_cif.got.tgz:21353.got - 2010.04.16 15:48:40.
