data_PCOD8231369
_publ_section_title
;
Structure prediction by ZEFSAII (Michael W. Deem and Ramdas Pophale) SiO2 
 PCOD8231369
Probable space group: P B C M
;
_chemical_formula_sum "Si O2"
_cell_formula_units_Z 64
_cell_length_a 21.584922
_cell_length_b 18.563148
_cell_length_c 8.884363
_cell_angle_alpha 90.000000
_cell_angle_beta 90.000000
_cell_angle_gamma 90.000000
_cell_volume 3559.823007
_symmetry_space_group_name_H-M "P B C M"
_symmetry_group_IT_number 57
_symmetry_cell_setting 'orthorhombic'
loop_
_space_group_symop_operation_xyz
x,y,z
-x,-y,1/2+z
x,1/2-y,-z
-x,1/2+y,1/2-z
-x,-y,-z
x,y,1/2-z
-x,1/2+y,z
x,1/2-y,1/2+z
loop_
_atom_site_type_symbol
_atom_site_label
_atom_site_fract_x
_atom_site_fract_y
_atom_site_fract_z
Si Si1 0.172528 0.532512 0.574304
Si Si2 0.056749 0.458584 0.071618
Si Si3 0.137664 0.826595 0.575518
Si Si4 0.586343 0.044342 0.081817
Si Si5 0.521169 0.890810 0.418921
Si Si6 0.005571 0.174427 0.424174
Si Si7 0.306564 0.028216 0.423644
Si Si8 0.366202 0.323660 0.927494
O O1 0.155209 0.536253 0.750000
O O2 0.121296 0.490026 0.482173
O O3 0.178473 0.613460 0.509605
O O4 0.235253 0.488681 0.546120
O O5 0.052438 0.463882 0.250000
O O6 0.051597 0.377119 0.014801
O O7 0.000000 0.500000 0.000000
O O8 0.151134 0.750000 0.500000
O O9 0.156615 0.822413 0.750000
O O10 0.065877 0.849569 0.557772
O O11 0.595640 0.073597 0.250000
O O12 0.550165 0.969620 0.081286
O O13 0.547364 0.104400 0.990892
O O14 0.653471 0.032031 0.009161
O O15 0.515768 0.860186 0.250000
O O16 0.563859 0.837371 0.515708
O O17 0.016466 0.250000 0.500000
O O18 0.024736 0.176626 0.250000
O O19 0.324761 0.021296 0.250000
O O20 0.322003 0.109755 0.478212
O O21 0.366958 0.314213 0.750000
O O22 0.340050 0.250000 0.000000
#
# Coordination Sequence:
#
# PCOD8231369 Si02
#       8
#     8   8   8   8   8   8   8   8
#     4  11  22  37  57  80 109 144 185 230 275 328
#     4  12  23  36  55  80 109 142 179 226 281 333
#     4  10  20  34  55  81 108 135 168 212 266 327
#     4   9  16  27  47  74 102 131 165 211 259 306
#     4   9  16  27  46  73 102 132 167 208 258 309
#     4  10  20  35  55  80 109 139 172 215 270 332
#     4   9  20  36  53  75 105 145 186 227 273 326
#     4  10  19  33  52  76 107 142 186 231 273 320
#
# _framework density 17.978421999999998
#
# number of rings (size 3 to 8) (size 9 to 14) (size 15 to 20)
#    0.000    2.000    1.250    3.375    0.000    5.500 
#    0.000    0.625    0.000    2.250    0.000    1.750 
#    0.000    0.000    0.000    0.000    0.000    0.000 
#
# Total GULP energy -793668.081780 kJ/mol
# GULP energy per Si atom -12401.063778 kJ/mol
# Density = 1.793750 g / cm^3
# Si number density = 17.978422 Si / 1000 Ang^3
#
#
#
# Elastic Constant Matrix: (Units=GPa)
#
#
# Indices 1 2 3 4 5 6 
#
# 1 82.4327 45.5524 55.2636 0.0000 0.0000 0.0000
# 2 45.5524 90.3777 54.5223 0.0000 0.0000 0.0000
# 3 55.2636 54.5223 141.5566 0.0000 0.0000 0.0000
# 4 0.0000 0.0000 0.0000 32.7408 0.0000 0.0000
# 5 0.0000 0.0000 0.0000 0.0000 27.1149 0.0000
# 6 0.0000 0.0000 0.0000 0.0000 0.0000 21.1744
#
#
#
# Elastic Compliance Matrix: (Units=1/GPa)
#
#
# Indices 1 2 3 4 5 6 
#
# 1 0.019095 -0.006679 -0.004882 0.000000 0.000000 0.000000
# 2 -0.006679 0.016750 -0.003844 0.000000 0.000000 0.000000
# 3 -0.004882 -0.003844 0.010451 0.000000 0.000000 0.000000
# 4 0.000000 0.000000 0.000000 0.030543 0.000000 0.000000
# 5 0.000000 0.000000 0.000000 0.000000 0.036880 0.000000
# 6 0.000000 0.000000 0.000000 0.000000 0.000000 0.047227
#
#
# Mechanical properties :
#
#
# Convention : Reuss Voigt Hill
#
# Bulk Modulus (GPa) = 64.57649 69.44929 67.01289
# Shear Modulus (GPa) = 25.39127 26.80793 26.09960
#
# Velocity S-wave (km/s) = 3.76216 3.86569 3.81428
# Velocity P-wave (km/s) = 7.40734 7.65753 7.53348
#
# Compressibility (1/GPa) = 0.01548551
#
# Stress axis : x y z
#
# Youngs Moduli (GPa) = 52.36975 59.70138 95.68582
#
# Poissons Ratio (x) = 0.39875 0.46715
# Poissons Ratio (y) = 0.34978 0.36782
# Poissons Ratio (z) = 0.25568 0.22949
#
# Static dielectric constant tensor:
#      x y z
#    x 3.218270 0.000000 0.000000 
#    y 0.000000 3.328890 0.000000 
#    z 0.000000 0.000000 3.140290 
# 
# 
# High freq. dielectric constant tensor:
#      x y z
#    x 1.670340 0.000000 0.000000 
#    y 0.000000 1.685820 0.000000 
#    z 0.000000 0.000000 1.714580 
# 
# From -- ./inp_files/8629.got.cif
#   From: 2010.03.12/outbox.cif.g09.slc.cpg/sg57_5_cif.got.tgz:8629.got - 2010.04.16 15:48:40.
