data_PCOD8231634
_publ_section_title
;
Structure prediction by ZEFSAII (Michael W. Deem and Ramdas Pophale) SiO2 
 PCOD8231634
Probable space group: P B C M
;
_chemical_formula_sum "Si O2"
_cell_formula_units_Z 48
_cell_length_a 9.687344
_cell_length_b 30.755815
_cell_length_c 8.668098
_cell_angle_alpha 90.000000
_cell_angle_beta 90.000000
_cell_angle_gamma 90.000000
_cell_volume 2582.591840
_symmetry_space_group_name_H-M "P B C M"
_symmetry_group_IT_number 57
_symmetry_cell_setting 'orthorhombic'
loop_
_space_group_symop_operation_xyz
x,y,z
-x,-y,1/2+z
x,1/2-y,-z
-x,1/2+y,1/2-z
-x,-y,-z
x,y,1/2-z
-x,1/2+y,z
x,1/2-y,1/2+z
loop_
_atom_site_type_symbol
_atom_site_label
_atom_site_fract_x
_atom_site_fract_y
_atom_site_fract_z
Si Si1 0.354514 0.013266 0.568839
Si Si2 0.209736 0.702657 0.932840
Si Si3 0.580054 0.361994 0.932166
Si Si4 0.002160 0.130679 0.568011
Si Si5 0.304532 0.387787 0.067311
Si Si6 0.228185 0.933327 0.432993
O O1 0.361929 0.007729 0.750000
O O2 0.315447 0.061844 0.520497
O O3 0.500000 0.000000 0.500000
O O4 0.235831 0.981542 0.502779
O O5 0.227979 0.704020 0.750000
O O6 0.075028 0.674848 0.982198
O O7 0.187530 0.750000 0.000000
O O8 0.346168 0.681272 0.005134
O O9 0.597057 0.364559 0.750000
O O10 0.419760 0.359573 0.979882
O O11 0.641921 0.405184 0.009388
O O12 0.009867 0.127322 0.750000
O O13 0.157230 0.129363 0.502724
O O14 0.913182 0.089295 0.508935
O O15 0.320579 0.381127 0.250000
O O16 0.237613 0.935520 0.250000
#
# Coordination Sequence:
#
# PCOD8231634 Si02
#       6
#     8   8   8   8   8   8
#     4  11  21  31  50  77 109 147 194 238 277 322
#     4  10  20  38  63  87 110 138 175 219 269 328
#     4  11  21  34  55  82 110 141 182 225 269 321
#     4   8  18  36  57  79 107 145 183 222 275 331
#     4  10  20  36  55  77 109 150 188 227 278 327
#     4  10  19  34  54  76 106 146 188 231 275 321
#
# _framework density 18.585978000000001
#
# number of rings (size 3 to 8) (size 9 to 14) (size 15 to 20)
#    0.000    2.000    1.667    4.000    0.000    1.333 
#    0.000    5.833    0.000    2.000    0.000    0.000 
#    0.000    0.000    0.000    0.000    0.000    0.000 
#
# Total GULP energy -595236.604272 kJ/mol
# GULP energy per Si atom -12400.762589 kJ/mol
# Density = 1.854368 g / cm^3
# Si number density = 18.585978 Si / 1000 Ang^3
#
#
#
# Elastic Constant Matrix: (Units=GPa)
#
#
# Indices 1 2 3 4 5 6 
#
# 1 148.0999 60.7081 32.1528 0.0000 0.0000 0.0000
# 2 60.7081 115.6144 39.2380 0.0000 0.0000 0.0000
# 3 32.1528 39.2380 69.7227 0.0000 0.0000 0.0000
# 4 0.0000 0.0000 0.0000 30.5537 0.0000 0.0000
# 5 0.0000 0.0000 0.0000 0.0000 18.2810 0.0000
# 6 0.0000 0.0000 0.0000 0.0000 0.0000 21.6930
#
#
#
# Elastic Compliance Matrix: (Units=1/GPa)
#
#
# Indices 1 2 3 4 5 6 
#
# 1 0.008783 -0.004001 -0.001798 0.000000 0.000000 0.000000
# 2 -0.004001 0.012515 -0.005198 0.000000 0.000000 0.000000
# 3 -0.001798 -0.005198 0.018097 0.000000 0.000000 0.000000
# 4 0.000000 0.000000 0.000000 0.032729 0.000000 0.000000
# 5 0.000000 0.000000 0.000000 0.000000 0.054702 0.000000
# 6 0.000000 0.000000 0.000000 0.000000 0.000000 0.046098
#
#
# Mechanical properties :
#
#
# Convention : Reuss Voigt Hill
#
# Bulk Modulus (GPa) = 57.47261 66.40386 61.93824
# Shear Modulus (GPa) = 24.91059 27.52806 26.21932
#
# Velocity S-wave (km/s) = 3.66497 3.85271 3.76001
# Velocity P-wave (km/s) = 6.99278 7.45631 7.22827
#
# Compressibility (1/GPa) = 0.01739959
#
# Stress axis : x y z
#
# Youngs Moduli (GPa) = 113.85783 79.90686 55.25816
#
# Poissons Ratio (x) = 0.31975 0.09937
# Poissons Ratio (y) = 0.45560 0.28721
# Poissons Ratio (z) = 0.20475 0.41532
#
# Static dielectric constant tensor:
#      x y z
#    x 3.682110 0.000000 0.000000 
#    y 0.000000 3.360160 0.000000 
#    z 0.000000 0.000000 3.321780 
# 
# 
# High freq. dielectric constant tensor:
#      x y z
#    x 1.722210 0.000000 0.000000 
#    y 0.000000 1.711250 0.000000 
#    z 0.000000 0.000000 1.715850 
# 
# From -- ./inp_files/1989.got.cif
#   From: 2010.03.12/outbox.cif.g09.slc.cpg/sg57_1_cif.got.tgz:1989.got - 2010.04.16 15:48:40.
