data_PCOD8231125
_publ_section_title
;
Structure prediction by ZEFSAII (Michael W. Deem and Ramdas Pophale) SiO2 
 PCOD8231125
Probable space group: P B C M
;
_chemical_formula_sum "Si O2"
_cell_formula_units_Z 64
_cell_length_a 22.443815
_cell_length_b 17.715634
_cell_length_c 8.956071
_cell_angle_alpha 90.000000
_cell_angle_beta 90.000000
_cell_angle_gamma 90.000000
_cell_volume 3560.991257
_symmetry_space_group_name_H-M "P B C M"
_symmetry_group_IT_number 57
_symmetry_cell_setting 'orthorhombic'
loop_
_space_group_symop_operation_xyz
x,y,z
-x,-y,1/2+z
x,1/2-y,-z
-x,1/2+y,1/2-z
-x,-y,-z
x,y,1/2-z
-x,1/2+y,z
x,1/2-y,1/2+z
loop_
_atom_site_type_symbol
_atom_site_label
_atom_site_fract_x
_atom_site_fract_y
_atom_site_fract_z
Si Si1 0.753718 0.523840 0.925197
Si Si2 0.884544 0.027679 0.422780
Si Si3 0.951650 0.174749 0.425819
Si Si4 0.077512 0.382415 0.574558
Si Si5 0.794036 0.827407 0.572707
Si Si6 0.536576 0.562884 0.420883
Si Si7 0.360144 0.962857 0.426389
Si Si8 0.561871 0.330776 0.926959
O O1 0.742286 0.535962 0.750000
O O2 0.814715 0.479422 0.957315
O O3 0.754653 0.605007 0.005802
O O4 0.703559 0.470981 0.996612
O O5 0.898372 0.015307 0.250000
O O6 0.907154 0.108843 0.477397
O O7 0.922851 0.965943 0.508884
O O8 0.926488 0.250000 0.500000
O O9 0.951259 0.184909 0.250000
O O10 0.018906 0.160082 0.485019
O O11 0.075050 0.391432 0.750000
O O12 0.136907 0.337913 0.524680
O O13 0.770780 0.750000 0.500000
O O14 0.785582 0.825182 0.750000
O O15 0.500000 0.500000 0.500000
O O16 0.523802 0.548448 0.250000
O O17 0.605862 0.544048 0.456112
O O18 0.507611 0.644496 0.462595
O O19 0.353399 0.947302 0.250000
O O20 0.393641 0.892058 0.501196
O O21 0.573799 0.325702 0.750000
O O22 0.573660 0.250000 0.000000
#
# Coordination Sequence:
#
# PCOD8231125 Si02
#       8
#     8   8   8   8   8   8   8   8
#     4  10  20  35  53  73  99 136 176 215 255 298
#     4   9  19  34  51  70  96 129 168 209 251 299
#     4  10  20  33  48  71  99 127 159 202 253 307
#     4   9  18  31  50  74  98 123 158 201 251 310
#     4  10  19  32  50  74 101 129 162 205 254 308
#     4   8  16  30  50  74 101 130 161 198 243 292
#     4  10  19  34  55  78 103 136 176 215 252 298
#     4  10  19  33  53  80 110 138 168 207 252 298
#
# _framework density 17.972522999999999
#
# number of rings (size 3 to 8) (size 9 to 14) (size 15 to 20)
#    0.000    2.500    0.000    2.250    0.000    3.000 
#    0.000    1.250    0.000    3.000    0.000    0.000 
#    0.000    0.000    0.000    0.000    0.000    0.000 
#
# Total GULP energy -793190.910256 kJ/mol
# GULP energy per Si atom -12393.607973 kJ/mol
# Density = 1.793162 g / cm^3
# Si number density = 17.972523 Si / 1000 Ang^3
#
#
#
# Elastic Constant Matrix: (Units=GPa)
#
#
# Indices 1 2 3 4 5 6 
#
# 1 63.4740 44.6811 29.9907 0.0000 0.0000 0.0000
# 2 44.6811 127.6881 43.1602 0.0000 0.0000 0.0000
# 3 29.9907 43.1602 61.1701 0.0000 0.0000 0.0000
# 4 0.0000 0.0000 0.0000 32.8555 0.0000 0.0000
# 5 0.0000 0.0000 0.0000 0.0000 24.4653 0.0000
# 6 0.0000 0.0000 0.0000 0.0000 0.0000 22.4547
#
#
#
# Elastic Compliance Matrix: (Units=1/GPa)
#
#
# Indices 1 2 3 4 5 6 
#
# 1 0.023212 -0.005615 -0.007419 0.000000 0.000000 0.000000
# 2 -0.005615 0.011643 -0.005462 0.000000 0.000000 0.000000
# 3 -0.007419 -0.005462 0.023839 0.000000 0.000000 0.000000
# 4 0.000000 0.000000 0.000000 0.030436 0.000000 0.000000
# 5 0.000000 0.000000 0.000000 0.000000 0.040874 0.000000
# 6 0.000000 0.000000 0.000000 0.000000 0.000000 0.044534
#
#
# Mechanical properties :
#
#
# Convention : Reuss Voigt Hill
#
# Bulk Modulus (GPa) = 46.07743 54.22181 50.14962
# Shear Modulus (GPa) = 22.85571 24.92177 23.88874
#
# Velocity S-wave (km/s) = 3.56996 3.72783 3.64975
# Velocity P-wave (km/s) = 6.53347 6.98310 6.76202
#
# Compressibility (1/GPa) = 0.02170260
#
# Stress axis : x y z
#
# Youngs Moduli (GPa) = 43.08069 85.89217 41.94818
#
# Poissons Ratio (x) = 0.48227 0.31121
# Poissons Ratio (y) = 0.24189 0.22911
# Poissons Ratio (z) = 0.31961 0.46913
#
# Static dielectric constant tensor:
#      x y z
#    x 3.561410 0.000000 0.000000 
#    y 0.000000 3.389630 0.000000 
#    z 0.000000 0.000000 3.337950 
# 
# 
# High freq. dielectric constant tensor:
#      x y z
#    x 1.685060 0.000000 0.000000 
#    y 0.000000 1.688940 0.000000 
#    z 0.000000 0.000000 1.703350 
# 
# From -- ./inp_files/9309.got.cif
#   From: 2010.03.12/outbox.cif.g09.slc.cpg/sg57_5_cif.got.tgz:9309.got - 2010.04.16 15:48:40.
