data_PCOD8231635
_publ_section_title
;
Structure prediction by ZEFSAII (Michael W. Deem and Ramdas Pophale) SiO2 
 PCOD8231635
Probable space group: P B C M
;
_chemical_formula_sum "Si O2"
_cell_formula_units_Z 64
_cell_length_a 23.286459
_cell_length_b 15.988284
_cell_length_c 8.816194
_cell_angle_alpha 90.000000
_cell_angle_beta 90.000000
_cell_angle_gamma 90.000000
_cell_volume 3282.361771
_symmetry_space_group_name_H-M "P B C M"
_symmetry_group_IT_number 57
_symmetry_cell_setting 'orthorhombic'
loop_
_space_group_symop_operation_xyz
x,y,z
-x,-y,1/2+z
x,1/2-y,-z
-x,1/2+y,1/2-z
-x,-y,-z
x,y,1/2-z
-x,1/2+y,z
x,1/2-y,1/2+z
loop_
_atom_site_type_symbol
_atom_site_label
_atom_site_fract_x
_atom_site_fract_y
_atom_site_fract_z
Si Si1 0.941598 0.335955 0.928143
Si Si2 0.581384 0.600760 0.419128
Si Si3 0.364379 0.579371 0.916318
Si Si4 0.692505 0.665224 0.570365
Si Si5 0.526121 0.337243 0.068541
Si Si6 0.926115 0.664217 0.427888
Si Si7 0.124892 0.511007 0.573001
Si Si8 0.744376 0.506196 0.071108
O O1 0.933442 0.329193 0.750000
O O2 0.007736 0.347251 0.975641
O O3 0.916997 0.250000 0.000000
O O4 0.908504 0.417087 0.985773
O O5 0.574025 0.639292 0.250000
O O6 0.602209 0.507043 0.404999
O O7 0.627671 0.654483 0.511657
O O8 0.521172 0.598002 0.508316
O O9 0.351897 0.616294 0.750000
O O10 0.409670 0.641508 0.998230
O O11 0.301882 0.562815 0.993579
O O12 0.718133 0.750000 0.500000
O O13 0.692530 0.669509 0.750000
O O14 0.735073 0.592445 0.515898
O O15 0.526946 0.338642 0.250000
O O16 0.506394 0.250000 0.000000
O O17 0.901114 0.750000 0.500000
O O18 0.918235 0.673667 0.250000
O O19 0.892731 0.581519 0.486876
O O20 0.109885 0.518151 0.750000
O O21 0.191941 0.526572 0.540704
O O22 0.732644 0.521607 0.250000
#
# Coordination Sequence:
#
# PCOD8231635 Si02
#       8
#     8   8   8   8   8   8   8   8
#     4  10  20  35  56  81 112 146 186 230 275 325
#     4  10  19  34  54  76  99 126 162 205 254 309
#     4   8  17  34  54  71  94 129 166 202 247 298
#     4  11  21  34  52  75 104 138 173 212 257 310
#     4  11  21  33  49  73 100 126 158 200 250 305
#     4   9  19  34  53  82 116 151 184 221 269 325
#     4  10  20  35  57  83 113 146 183 227 278 326
#     4   9  19  37  56  75 101 136 176 219 262 310
#
# _framework density 19.498155000000001
#
# number of rings (size 3 to 8) (size 9 to 14) (size 15 to 20)
#    0.000    2.250    0.000    4.125    0.000    2.000 
#    0.000    7.500    0.000    1.500    0.000    0.000 
#    0.000    0.000    0.000    0.000    0.000    0.000 
#
# Total GULP energy -793259.049255 kJ/mol
# GULP energy per Si atom -12394.672645 kJ/mol
# Density = 1.945378 g / cm^3
# Si number density = 19.498155 Si / 1000 Ang^3
#
#
#
# Elastic Constant Matrix: (Units=GPa)
#
#
# Indices 1 2 3 4 5 6 
#
# 1 97.8543 35.0455 29.8467 0.0000 0.0000 0.0000
# 2 35.0455 74.4799 24.8284 0.0000 0.0000 0.0000
# 3 29.8467 24.8284 81.6419 0.0000 0.0000 0.0000
# 4 0.0000 0.0000 0.0000 28.4679 0.0000 0.0000
# 5 0.0000 0.0000 0.0000 0.0000 20.8809 0.0000
# 6 0.0000 0.0000 0.0000 0.0000 0.0000 15.0961
#
#
#
# Elastic Compliance Matrix: (Units=1/GPa)
#
#
# Indices 1 2 3 4 5 6 
#
# 1 0.013009 -0.005048 -0.003221 0.000000 0.000000 0.000000
# 2 -0.005048 0.016900 -0.003294 0.000000 0.000000 0.000000
# 3 -0.003221 -0.003294 0.014428 0.000000 0.000000 0.000000
# 4 0.000000 0.000000 0.000000 0.035127 0.000000 0.000000
# 5 0.000000 0.000000 0.000000 0.000000 0.047891 0.000000
# 6 0.000000 0.000000 0.000000 0.000000 0.000000 0.066242
#
#
# Mechanical properties :
#
#
# Convention : Reuss Voigt Hill
#
# Bulk Modulus (GPa) = 47.14398 48.15747 47.65073
# Shear Modulus (GPa) = 22.34207 23.83936 23.09071
#
# Velocity S-wave (km/s) = 3.38872 3.50043 3.44503
# Velocity P-wave (km/s) = 6.28828 6.41010 6.34948
#
# Compressibility (1/GPa) = 0.02121161
#
# Stress axis : x y z
#
# Youngs Moduli (GPa) = 76.86698 59.17270 69.31017
#
# Poissons Ratio (x) = 0.29869 0.22324
# Poissons Ratio (y) = 0.38800 0.22831
# Poissons Ratio (z) = 0.24758 0.19492
#
# Static dielectric constant tensor:
#      x y z
#    x 3.706260 0.000000 0.000000 
#    y 0.000000 3.621880 0.000000 
#    z 0.000000 0.000000 3.458540 
# 
# 
# High freq. dielectric constant tensor:
#      x y z
#    x 1.758030 0.000000 0.000000 
#    y 0.000000 1.753020 0.000000 
#    z 0.000000 0.000000 1.745890 
# 
# From -- ./inp_files/9493.got.cif
#   From: 2010.03.12/outbox.cif.g09.slc.cpg/sg57_5_cif.got.tgz:9493.got - 2010.04.16 15:48:40.
