data_PCOD8231367
_publ_section_title
;
Structure prediction by ZEFSAII (Michael W. Deem and Ramdas Pophale) SiO2 
 PCOD8231367
Probable space group: P B C M
;
_chemical_formula_sum "Si O2"
_cell_formula_units_Z 64
_cell_length_a 19.481244
_cell_length_b 19.898007
_cell_length_c 8.840350
_cell_angle_alpha 90.000000
_cell_angle_beta 90.000000
_cell_angle_gamma 90.000000
_cell_volume 3426.854970
_symmetry_space_group_name_H-M "P B C M"
_symmetry_group_IT_number 57
_symmetry_cell_setting 'orthorhombic'
loop_
_space_group_symop_operation_xyz
x,y,z
-x,-y,1/2+z
x,1/2-y,-z
-x,1/2+y,1/2-z
-x,-y,-z
x,y,1/2-z
-x,1/2+y,z
x,1/2-y,1/2+z
loop_
_atom_site_type_symbol
_atom_site_label
_atom_site_fract_x
_atom_site_fract_y
_atom_site_fract_z
Si Si1 0.341845 0.915566 0.571513
Si Si2 0.108989 0.881325 0.574631
Si Si3 0.016476 0.070296 0.925889
Si Si4 0.616471 0.681107 0.428144
Si Si5 0.538560 0.181542 0.427342
Si Si6 0.162260 0.031477 0.921677
Si Si7 0.766079 0.181218 0.570950
Si Si8 0.303275 0.449942 0.572378
O O1 0.328771 0.912172 0.750000
O O2 0.413153 0.880370 0.524031
O O3 0.278602 0.880517 0.488532
O O4 0.344095 0.992182 0.516720
O O5 0.108876 0.861623 0.750000
O O6 0.155883 0.829036 0.483644
O O7 0.031205 0.874541 0.509387
O O8 0.137401 0.956014 0.546208
O O9 0.997006 0.067696 0.750000
O O10 0.098288 0.082946 0.947097
O O11 0.000000 0.000000 0.000000
O O12 0.644482 0.750000 0.500000
O O13 0.618967 0.689645 0.250000
O O14 0.538632 0.666372 0.483943
O O15 0.664352 0.620271 0.482301
O O16 0.567248 0.250000 0.500000
O O17 0.540816 0.192369 0.250000
O O18 0.189705 0.036839 0.750000
O O19 0.222647 0.051198 0.035157
O O20 0.736938 0.250000 0.500000
O O21 0.762054 0.185175 0.750000
O O22 0.313702 0.461293 0.750000
#
# Coordination Sequence:
#
# PCOD8231367 Si02
#       8
#     8   8   8   8   8   8   8   8
#     4  11  22  36  54  79 111 145 184 227 274 327
#     4  10  19  33  52  76 106 139 180 228 270 322
#     4   9  17  29  48  74 103 137 176 221 269 319
#     4   9  20  39  59  82 107 137 180 225 275 334
#     4   9  19  36  57  78 106 143 183 228 271 322
#     4   9  18  32  51  76 109 142 177 219 269 323
#     4  12  24  37  54  76 108 150 190 230 276 329
#     4  11  22  34  54  82 113 144 179 227 278 329
#
# _framework density 18.676017000000002
#
# number of rings (size 3 to 8) (size 9 to 14) (size 15 to 20)
#    0.000    2.000    1.250    3.750    0.000    6.000 
#    0.000    0.000    0.000    0.750    0.000    1.750 
#    0.000    0.000    0.000    0.000    0.000    0.000 
#
# Total GULP energy -793607.375391 kJ/mol
# GULP energy per Si atom -12400.115240 kJ/mol
# Density = 1.863351 g / cm^3
# Si number density = 18.676017 Si / 1000 Ang^3
#
#
#
# Elastic Constant Matrix: (Units=GPa)
#
#
# Indices 1 2 3 4 5 6 
#
# 1 88.8228 47.4090 36.5879 0.0000 0.0000 0.0000
# 2 47.4090 99.6430 41.2104 0.0000 0.0000 0.0000
# 3 36.5879 41.2104 93.5052 0.0000 0.0000 0.0000
# 4 0.0000 0.0000 0.0000 29.1579 0.0000 0.0000
# 5 0.0000 0.0000 0.0000 0.0000 29.1797 0.0000
# 6 0.0000 0.0000 0.0000 0.0000 0.0000 20.8530
#
#
#
# Elastic Compliance Matrix: (Units=1/GPa)
#
#
# Indices 1 2 3 4 5 6 
#
# 1 0.016001 -0.006144 -0.003554 0.000000 0.000000 0.000000
# 2 -0.006144 0.014632 -0.004045 0.000000 0.000000 0.000000
# 3 -0.003554 -0.004045 0.013868 0.000000 0.000000 0.000000
# 4 0.000000 0.000000 0.000000 0.034296 0.000000 0.000000
# 5 0.000000 0.000000 0.000000 0.000000 0.034270 0.000000
# 6 0.000000 0.000000 0.000000 0.000000 0.000000 0.047955
#
#
# Mechanical properties :
#
#
# Convention : Reuss Voigt Hill
#
# Bulk Modulus (GPa) = 58.76448 59.15395 58.95922
# Shear Modulus (GPa) = 25.74964 26.28904 26.01934
#
# Velocity S-wave (km/s) = 3.71719 3.75592 3.73660
# Velocity P-wave (km/s) = 7.06801 7.10997 7.08903
#
# Compressibility (1/GPa) = 0.01701708
#
# Stress axis : x y z
#
# Youngs Moduli (GPa) = 62.49507 68.34505 72.11020
#
# Poissons Ratio (x) = 0.41988 0.25625
# Poissons Ratio (y) = 0.38394 0.29166
# Poissons Ratio (z) = 0.22208 0.27643
#
# Static dielectric constant tensor:
#      x y z
#    x 3.781710 0.000000 0.000000 
#    y 0.000000 3.299510 0.000000 
#    z 0.000000 0.000000 3.478570 
# 
# 
# High freq. dielectric constant tensor:
#      x y z
#    x 1.729660 0.000000 0.000000 
#    y 0.000000 1.696890 0.000000 
#    z 0.000000 0.000000 1.731750 
# 
# From -- ./inp_files/7124.got.cif
#   From: 2010.03.12/outbox.cif.g09.slc.cpg/sg57_4_cif.got.tgz:7124.got - 2010.04.16 15:48:40.
