data_PCOD8231851
_publ_section_title
;
Structure prediction by ZEFSAII (Michael W. Deem and Ramdas Pophale) SiO2 
 PCOD8231851
Probable space group: P B C M
;
_chemical_formula_sum "Si O2"
_cell_formula_units_Z 48
_cell_length_a 9.176848
_cell_length_b 30.913444
_cell_length_c 8.625341
_cell_angle_alpha 90.000000
_cell_angle_beta 90.000000
_cell_angle_gamma 90.000000
_cell_volume 2446.905537
_symmetry_space_group_name_H-M "P B C M"
_symmetry_group_IT_number 57
_symmetry_cell_setting 'orthorhombic'
loop_
_space_group_symop_operation_xyz
x,y,z
-x,-y,1/2+z
x,1/2-y,-z
-x,1/2+y,1/2-z
-x,-y,-z
x,y,1/2-z
-x,1/2+y,z
x,1/2-y,1/2+z
loop_
_atom_site_type_symbol
_atom_site_label
_atom_site_fract_x
_atom_site_fract_y
_atom_site_fract_z
Si Si1 0.586910 0.876557 0.933569
Si Si2 0.405118 0.795757 0.565971
Si Si3 0.909028 0.204306 0.566997
Si Si4 0.584142 0.040572 0.065704
Si Si5 0.915244 0.040489 0.066805
Si Si6 0.081751 0.126257 0.433732
O O1 0.578451 0.877588 0.750000
O O2 0.517929 0.831812 0.994466
O O3 0.494117 0.916565 0.000503
O O4 0.752748 0.880766 0.989271
O O5 0.458969 0.750000 0.500000
O O6 0.398540 0.793316 0.750000
O O7 0.246138 0.808401 0.504913
O O8 0.964222 0.250000 0.500000
O O9 0.893322 0.208226 0.750000
O O10 0.025076 0.168256 0.521662
O O11 0.579212 0.039347 0.250000
O O12 0.749937 0.040180 0.004789
O O13 0.500000 0.000000 0.000000
O O14 0.920709 0.037352 0.250000
O O15 0.990775 0.084684 0.010738
O O16 0.000000 0.000000 0.000000
O O17 0.069400 0.133586 0.250000
#
# Coordination Sequence:
#
# PCOD8231851 Si02
#       6
#     8   8   8   8   8   8
#     4   9  19  35  57  80 107 142 181 220 270 327
#     4  10  19  35  57  81 108 141 179 222 267 321
#     4  11  22  37  57  82 110 144 183 226 271 324
#     4  10  20  36  56  81 108 142 183 224 269 321
#     4  10  21  36  58  83 112 146 184 226 272 324
#     4  10  20  37  58  81 109 145 183 226 275 325
#
# _framework density 19.616613999999998
#
# number of rings (size 3 to 8) (size 9 to 14) (size 15 to 20)
#    0.000    2.000    0.000    5.000    0.000    6.000 
#    0.000    7.500    0.000    0.000    0.000    0.000 
#    0.000    0.000    0.000    0.000    0.000    0.000 
#
# Total GULP energy -595338.455545 kJ/mol
# GULP energy per Si atom -12402.884491 kJ/mol
# Density = 1.957197 g / cm^3
# Si number density = 19.616614 Si / 1000 Ang^3
#
#
#
# Elastic Constant Matrix: (Units=GPa)
#
#
# Indices 1 2 3 4 5 6 
#
# 1 177.3097 111.9350 30.7805 0.0000 0.0000 0.0000
# 2 111.9350 177.6889 36.5990 0.0000 0.0000 0.0000
# 3 30.7805 36.5990 57.0615 0.0000 0.0000 0.0000
# 4 0.0000 0.0000 0.0000 34.5836 0.0000 0.0000
# 5 0.0000 0.0000 0.0000 0.0000 25.3418 0.0000
# 6 0.0000 0.0000 0.0000 0.0000 0.0000 46.3029
#
#
#
# Elastic Compliance Matrix: (Units=1/GPa)
#
#
# Indices 1 2 3 4 5 6 
#
# 1 0.009470 -0.005662 -0.001477 0.000000 0.000000 0.000000
# 2 -0.005662 0.009869 -0.003276 0.000000 0.000000 0.000000
# 3 -0.001477 -0.003276 0.020423 0.000000 0.000000 0.000000
# 4 0.000000 0.000000 0.000000 0.028915 0.000000 0.000000
# 5 0.000000 0.000000 0.000000 0.000000 0.039460 0.000000
# 6 0.000000 0.000000 0.000000 0.000000 0.000000 0.021597
#
#
# Mechanical properties :
#
#
# Convention : Reuss Voigt Hill
#
# Bulk Modulus (GPa) = 52.81822 85.63213 69.22517
# Shear Modulus (GPa) = 31.87226 36.76204 34.31715
#
# Velocity S-wave (km/s) = 4.03520 4.33370 4.18711
# Velocity P-wave (km/s) = 6.97812 8.29391 7.66430
#
# Compressibility (1/GPa) = 0.01893286
#
# Stress axis : x y z
#
# Youngs Moduli (GPa) = 105.59133 101.32611 48.96429
#
# Poissons Ratio (x) = 0.57367 0.07233
# Poissons Ratio (y) = 0.59782 0.16041
# Poissons Ratio (z) = 0.15599 0.33194
#
# Static dielectric constant tensor:
#      x y z
#    x 3.797710 0.000000 0.000000 
#    y 0.000000 3.736270 0.000000 
#    z 0.000000 0.000000 3.339680 
# 
# 
# High freq. dielectric constant tensor:
#      x y z
#    x 1.773380 0.000000 0.000000 
#    y 0.000000 1.782040 0.000000 
#    z 0.000000 0.000000 1.743180 
# 
# From -- ./inp_files/2021.got.cif
#   From: 2010.03.12/outbox.cif.g09.slc.cpg/sg57_2_cif.got.tgz:2021.got - 2010.04.16 15:48:40.
