data_PCOD8231393
_publ_section_title
;
Structure prediction by ZEFSAII (Michael W. Deem and Ramdas Pophale) SiO2 
 PCOD8231393
Probable space group: P B C M
;
_chemical_formula_sum "Si O2"
_cell_formula_units_Z 64
_cell_length_a 19.539815
_cell_length_b 20.317602
_cell_length_c 8.936825
_cell_angle_alpha 90.000000
_cell_angle_beta 90.000000
_cell_angle_gamma 90.000000
_cell_volume 3547.939046
_symmetry_space_group_name_H-M "P B C M"
_symmetry_group_IT_number 57
_symmetry_cell_setting 'orthorhombic'
loop_
_space_group_symop_operation_xyz
x,y,z
-x,-y,1/2+z
x,1/2-y,-z
-x,1/2+y,1/2-z
-x,-y,-z
x,y,1/2-z
-x,1/2+y,z
x,1/2-y,1/2+z
loop_
_atom_site_type_symbol
_atom_site_label
_atom_site_fract_x
_atom_site_fract_y
_atom_site_fract_z
Si Si1 0.316549 0.900616 0.925569
Si Si2 0.528632 0.934259 0.425769
Si Si3 0.942662 0.182733 0.426084
Si Si4 0.185233 0.060077 0.074343
Si Si5 0.161840 0.925972 0.923998
Si Si6 0.575061 0.182414 0.926176
Si Si7 0.901166 0.682710 0.073826
Si Si8 0.661050 0.537016 0.426621
O O1 0.332558 0.906004 0.750000
O O2 0.235838 0.894469 0.957234
O O3 0.352969 0.837160 0.996821
O O4 0.347048 0.963873 0.008943
O O5 0.535008 0.945887 0.250000
O O6 0.481193 0.872482 0.463950
O O7 0.603228 0.918133 0.495853
O O8 0.500000 0.000000 0.500000
O O9 0.916944 0.250000 0.500000
O O10 0.934253 0.190783 0.250000
O O11 0.895460 0.123674 0.486744
O O12 0.020707 0.167406 0.472403
O O13 0.175321 0.053714 0.250000
O O14 0.145888 0.123796 0.011608
O O15 0.265042 0.066827 0.031141
O O16 0.151791 0.995383 0.004423
O O17 0.151465 0.939333 0.750000
O O18 0.586032 0.191490 0.750000
O O19 0.549347 0.250000 0.000000
O O20 0.893346 0.690542 0.250000
O O21 0.875153 0.750000 0.000000
O O22 0.649088 0.534035 0.250000
#
# Coordination Sequence:
#
# PCOD8231393 Si02
#       8
#     8   8   8   8   8   8   8   8
#     4  10  19  33  53  75 104 139 175 214 260 313
#     4  11  22  36  58  83 106 137 177 218 262 315
#     4   9  18  33  51  72 102 137 177 220 262 315
#     4   9  19  34  52  77 107 137 173 218 265 313
#     4   9  19  33  50  77 108 138 173 216 263 310
#     4  11  24  39  55  78 108 140 177 218 264 314
#     4   9  18  34  54  75 101 137 178 220 267 318
#     4  10  19  33  54  79 106 136 174 216 259 312
#
# _framework density 18.038641999999999
#
# number of rings (size 3 to 8) (size 9 to 14) (size 15 to 20)
#    0.000    2.250    1.250    1.500    0.000    4.500 
#    0.000    1.875    0.000    3.000    0.000    0.000 
#    0.000    0.000    0.000    0.000    0.000    0.000 
#
# Total GULP energy -793758.504885 kJ/mol
# GULP energy per Si atom -12402.476639 kJ/mol
# Density = 1.799758 g / cm^3
# Si number density = 18.038642 Si / 1000 Ang^3
#
#
#
# Elastic Constant Matrix: (Units=GPa)
#
#
# Indices 1 2 3 4 5 6 
#
# 1 107.3203 86.2636 42.7807 0.0000 0.0000 0.0000
# 2 86.2636 149.6354 55.9153 0.0000 0.0000 0.0000
# 3 42.7807 55.9153 62.1175 0.0000 0.0000 0.0000
# 4 0.0000 0.0000 0.0000 32.5458 0.0000 0.0000
# 5 0.0000 0.0000 0.0000 0.0000 25.9956 0.0000
# 6 0.0000 0.0000 0.0000 0.0000 0.0000 30.8348
#
#
#
# Elastic Compliance Matrix: (Units=1/GPa)
#
#
# Indices 1 2 3 4 5 6 
#
# 1 0.018218 -0.008761 -0.004661 0.000000 0.000000 0.000000
# 2 -0.008761 0.014283 -0.006823 0.000000 0.000000 0.000000
# 3 -0.004661 -0.006823 0.025450 0.000000 0.000000 0.000000
# 4 0.000000 0.000000 0.000000 0.030726 0.000000 0.000000
# 5 0.000000 0.000000 0.000000 0.000000 0.038468 0.000000
# 6 0.000000 0.000000 0.000000 0.000000 0.000000 0.032431
#
#
# Mechanical properties :
#
#
# Convention : Reuss Voigt Hill
#
# Bulk Modulus (GPa) = 57.26831 76.55469 66.91150
# Shear Modulus (GPa) = 24.28528 26.81616 25.55072
#
# Velocity S-wave (km/s) = 3.67317 3.85982 3.76765
# Velocity P-wave (km/s) = 7.05734 7.89910 7.49005
#
# Compressibility (1/GPa) = 0.01746166
#
# Stress axis : x y z
#
# Youngs Moduli (GPa) = 54.89211 70.01242 39.29210
#
# Poissons Ratio (x) = 0.61336 0.18312
# Poissons Ratio (y) = 0.48090 0.26811
# Poissons Ratio (z) = 0.25583 0.47773
#
# Static dielectric constant tensor:
#      x y z
#    x 3.606930 0.000000 0.000000 
#    y 0.000000 3.312520 0.000000 
#    z 0.000000 0.000000 3.328630 
# 
# 
# High freq. dielectric constant tensor:
#      x y z
#    x 1.703730 0.000000 0.000000 
#    y 0.000000 1.687280 0.000000 
#    z 0.000000 0.000000 1.702290 
# 
# From -- ./inp_files/8477.got.cif
#   From: 2010.03.12/outbox.cif.g09.slc.cpg/sg57_5_cif.got.tgz:8477.got - 2010.04.16 15:48:40.
