data_PCOD8231146
_publ_section_title
;
Structure prediction by ZEFSAII (Michael W. Deem and Ramdas Pophale) SiO2 
 PCOD8231146
Probable space group: P B C M
;
_chemical_formula_sum "Si O2"
_cell_formula_units_Z 64
_cell_length_a 15.679990
_cell_length_b 23.163618
_cell_length_c 9.042963
_cell_angle_alpha 90.000000
_cell_angle_beta 90.000000
_cell_angle_gamma 90.000000
_cell_volume 3284.452077
_symmetry_space_group_name_H-M "P B C M"
_symmetry_group_IT_number 57
_symmetry_cell_setting 'orthorhombic'
loop_
_space_group_symop_operation_xyz
x,y,z
-x,-y,1/2+z
x,1/2-y,-z
-x,1/2+y,1/2-z
-x,-y,-z
x,y,1/2-z
-x,1/2+y,z
x,1/2-y,1/2+z
loop_
_atom_site_type_symbol
_atom_site_label
_atom_site_fract_x
_atom_site_fract_y
_atom_site_fract_z
Si Si1 0.546085 0.091538 0.575300
Si Si2 0.911955 0.003654 0.083916
Si Si3 0.664284 0.185952 0.427329
Si Si4 0.169837 0.304410 0.418390
Si Si5 0.840058 0.376735 0.920901
Si Si6 0.021371 0.807299 0.075678
Si Si7 0.394174 0.464717 0.921454
Si Si8 0.762866 0.924592 0.417181
O O1 0.544902 0.104594 0.750000
O O2 0.588124 0.146130 0.491728
O O3 0.450349 0.080447 0.516579
O O4 0.593849 0.031787 0.536141
O O5 0.943137 0.010190 0.250000
O O6 0.859656 0.945194 0.056783
O O7 0.843279 0.054599 0.048486
O O8 0.000000 0.000000 0.000000
O O9 0.662114 0.250000 0.500000
O O10 0.654426 0.191452 0.250000
O O11 0.751648 0.152926 0.472140
O O12 0.211001 0.250000 0.500000
O O13 0.159442 0.286727 0.250000
O O14 0.075172 0.319002 0.479541
O O15 0.235634 0.356161 0.440771
O O16 0.855967 0.361326 0.750000
O O17 0.919021 0.358033 0.020499
O O18 0.029148 0.801920 0.250000
O O19 0.058057 0.750000 0.000000
O O20 0.414035 0.454214 0.750000
O O21 0.296857 0.451994 0.959644
O O22 0.732823 0.940715 0.250000
#
# Coordination Sequence:
#
# PCOD8231146 Si02
#       8
#     8   8   8   8   8   8   8   8
#     4  10  21  39  62  87 115 146 182 225 277 337
#     4  10  21  36  54  79 113 151 191 237 288 339
#     4  11  23  39  59  84 117 155 194 238 289 346
#     4   9  19  34  52  74 101 136 176 219 267 316
#     4  10  21  35  52  77 109 146 187 231 280 334
#     4  10  19  32  51  73 100 137 182 228 269 314
#     4  10  21  37  61  91 116 142 181 229 279 333
#     4  10  20  36  56  79 109 143 180 223 274 330
#
# _framework density 19.485745000000001
#
# number of rings (size 3 to 8) (size 9 to 14) (size 15 to 20)
#    0.000    2.000    0.000    3.375    0.000    7.500 
#    0.000    0.625    0.000    1.500    0.000    0.000 
#    0.000    0.000    0.000    0.000    0.000    0.000 
#
# Total GULP energy -793360.017371 kJ/mol
# GULP energy per Si atom -12396.250271 kJ/mol
# Density = 1.944139 g / cm^3
# Si number density = 19.485745 Si / 1000 Ang^3
#
#
#
# Elastic Constant Matrix: (Units=GPa)
#
#
# Indices 1 2 3 4 5 6 
#
# 1 70.1014 40.1353 31.2353 0.0000 0.0000 0.0000
# 2 40.1353 108.5730 47.7187 0.0000 0.0000 0.0000
# 3 31.2353 47.7187 70.8835 0.0000 0.0000 0.0000
# 4 0.0000 0.0000 0.0000 33.4791 0.0000 0.0000
# 5 0.0000 0.0000 0.0000 0.0000 34.3935 0.0000
# 6 0.0000 0.0000 0.0000 0.0000 0.0000 29.9038
#
#
#
# Elastic Compliance Matrix: (Units=1/GPa)
#
#
# Indices 1 2 3 4 5 6 
#
# 1 0.019394 -0.004847 -0.005283 0.000000 0.000000 0.000000
# 2 -0.004847 0.014292 -0.007485 0.000000 0.000000 0.000000
# 3 -0.005283 -0.007485 0.021475 0.000000 0.000000 0.000000
# 4 0.000000 0.000000 0.000000 0.029869 0.000000 0.000000
# 5 0.000000 0.000000 0.000000 0.000000 0.029075 0.000000
# 6 0.000000 0.000000 0.000000 0.000000 0.000000 0.033441
#
#
# Mechanical properties :
#
#
# Convention : Reuss Voigt Hill
#
# Bulk Modulus (GPa) = 50.17644 54.19296 52.18470
# Shear Modulus (GPa) = 26.39616 28.25318 27.32467
#
# Velocity S-wave (km/s) = 3.68454 3.81194 3.74878
# Velocity P-wave (km/s) = 6.62626 6.87361 6.75107
#
# Compressibility (1/GPa) = 0.01992967
#
# Stress axis : x y z
#
# Youngs Moduli (GPa) = 51.56156 69.96806 46.56620
#
# Poissons Ratio (x) = 0.33917 0.24601
# Poissons Ratio (y) = 0.24994 0.34857
# Poissons Ratio (z) = 0.27240 0.52374
#
# Static dielectric constant tensor:
#      x y z
#    x 3.376200 0.000000 0.000000 
#    y 0.000000 3.730450 0.000000 
#    z 0.000000 0.000000 3.538370 
# 
# 
# High freq. dielectric constant tensor:
#      x y z
#    x 1.746670 0.000000 0.000000 
#    y 0.000000 1.764400 0.000000 
#    z 0.000000 0.000000 1.759440 
# 
# From -- ./inp_files/5629.got.cif
#   From: 2010.03.12/outbox.cif.g09.slc.cpg/sg57_3_cif.got.tgz:5629.got - 2010.04.16 15:48:40.
