data_PCOD8231739
_publ_section_title
;
Structure prediction by ZEFSAII (Michael W. Deem and Ramdas Pophale) SiO2 
 PCOD8231739
Probable space group: P B C M
;
_chemical_formula_sum "Si O2"
_cell_formula_units_Z 48
_cell_length_a 10.011646
_cell_length_b 28.024688
_cell_length_c 9.104510
_cell_angle_alpha 90.000000
_cell_angle_beta 90.000000
_cell_angle_gamma 90.000000
_cell_volume 2554.482011
_symmetry_space_group_name_H-M "P B C M"
_symmetry_group_IT_number 57
_symmetry_cell_setting 'orthorhombic'
loop_
_space_group_symop_operation_xyz
x,y,z
-x,-y,1/2+z
x,1/2-y,-z
-x,1/2+y,1/2-z
-x,-y,-z
x,y,1/2-z
-x,1/2+y,z
x,1/2-y,1/2+z
loop_
_atom_site_type_symbol
_atom_site_label
_atom_site_fract_x
_atom_site_fract_y
_atom_site_fract_z
Si Si1 0.909750 0.702107 0.077650
Si Si2 0.490408 0.603563 0.079737
Si Si3 0.975282 0.608097 0.923309
Si Si4 0.788198 0.442598 0.579615
Si Si5 0.401344 0.203019 0.079536
Si Si6 0.715541 0.548980 0.921460
O O1 0.940312 0.704847 0.250000
O O2 0.753834 0.695200 0.043368
O O3 0.962727 0.750000 0.000000
O O4 0.989309 0.658107 0.007524
O O5 0.528871 0.600905 0.250000
O O6 0.336069 0.592406 0.051895
O O7 0.519728 0.656819 0.019515
O O8 0.580375 0.564428 0.000312
O O9 0.987040 0.616485 0.750000
O O10 0.835402 0.583957 0.966545
O O11 0.092058 0.573544 0.976347
O O12 0.832711 0.441681 0.750000
O O13 0.750430 0.495632 0.528747
O O14 0.426676 0.211058 0.250000
O O15 0.457539 0.250000 0.000000
O O16 0.686914 0.550717 0.750000
#
# Coordination Sequence:
#
# PCOD8231739 Si02
#       6
#     8   8   8   8   8   8
#     4  10  19  34  57  83 111 141 179 227 276 325
#     4  10  20  36  57  82 110 143 183 226 279 336
#     4  11  22  36  55  82 113 146 188 230 274 328
#     4  10  22  38  55  78 113 151 186 228 279 332
#     4   9  18  32  53  81 107 136 174 219 269 321
#     4  10  21  36  56  82 109 144 189 233 276 327
#
# _framework density 18.790502
#
# number of rings (size 3 to 8) (size 9 to 14) (size 15 to 20)
#    0.000    2.000    1.667    2.000    0.000    3.333 
#    0.000    0.833    0.000    2.000    0.000    0.000 
#    0.000    0.000    0.000    0.000    0.000    0.000 
#
# Total GULP energy -595420.208888 kJ/mol
# GULP energy per Si atom -12404.587685 kJ/mol
# Density = 1.874773 g / cm^3
# Si number density = 18.790502 Si / 1000 Ang^3
#
#
#
# Elastic Constant Matrix: (Units=GPa)
#
#
# Indices 1 2 3 4 5 6 
#
# 1 30.0466 4.0473 22.6042 0.0000 0.0000 0.0000
# 2 4.0473 114.3279 35.2502 0.0000 0.0000 0.0000
# 3 22.6042 35.2502 59.7836 0.0000 0.0000 0.0000
# 4 0.0000 0.0000 0.0000 36.1756 0.0000 0.0000
# 5 0.0000 0.0000 0.0000 0.0000 23.0486 0.0000
# 6 0.0000 0.0000 0.0000 0.0000 0.0000 13.8217
#
#
#
# Elastic Compliance Matrix: (Units=1/GPa)
#
#
# Indices 1 2 3 4 5 6 
#
# 1 0.048593 0.004821 -0.021216 0.000000 0.000000 0.000000
# 2 0.004821 0.011169 -0.008408 0.000000 0.000000 0.000000
# 3 -0.021216 -0.008408 0.029706 0.000000 0.000000 0.000000
# 4 0.000000 0.000000 0.000000 0.027643 0.000000 0.000000
# 5 0.000000 0.000000 0.000000 0.000000 0.043387 0.000000
# 6 0.000000 0.000000 0.000000 0.000000 0.000000 0.072350
#
#
# Mechanical properties :
#
#
# Convention : Reuss Voigt Hill
#
# Bulk Modulus (GPa) = 25.08635 36.44017 30.76326
# Shear Modulus (GPa) = 16.90674 24.09293 20.49984
#
# Velocity S-wave (km/s) = 3.00284 3.58465 3.30656
# Velocity P-wave (km/s) = 5.04006 6.04714 5.56642
#
# Compressibility (1/GPa) = 0.03986232
#
# Stress axis : x y z
#
# Youngs Moduli (GPa) = 20.57918 89.53703 33.66287
#
# Poissons Ratio (x) = -0.43167 0.71418
# Poissons Ratio (y) = -0.09921 0.28304
# Poissons Ratio (z) = 0.43660 0.75284
#
# Static dielectric constant tensor:
#      x y z
#    x 3.216640 0.000000 0.000000 
#    y 0.000000 3.683890 0.000000 
#    z 0.000000 0.000000 3.359220 
# 
# 
# High freq. dielectric constant tensor:
#      x y z
#    x 1.709600 0.000000 0.000000 
#    y 0.000000 1.747190 0.000000 
#    z 0.000000 0.000000 1.727740 
# 
# From -- ./inp_files/2065.got.cif
#   From: 2010.03.12/outbox.cif.g09.slc.cpg/sg57_2_cif.got.tgz:2065.got - 2010.04.16 15:48:40.
