data_PCOD8231964
_publ_section_title
;
Structure prediction by ZEFSAII (Michael W. Deem and Ramdas Pophale) SiO2 
 PCOD8231964
Probable space group: P B C M
;
_chemical_formula_sum "Si O2"
_cell_formula_units_Z 64
_cell_length_a 15.295989
_cell_length_b 9.158071
_cell_length_c 24.211144
_cell_angle_alpha 90.000000
_cell_angle_beta 90.000000
_cell_angle_gamma 90.000000
_cell_volume 3391.539500
_symmetry_space_group_name_H-M "P B C M"
_symmetry_group_IT_number 57
_symmetry_cell_setting 'orthorhombic'
loop_
_space_group_symop_operation_xyz
x,y,z
-x,-y,1/2+z
x,1/2-y,-z
-x,1/2+y,1/2-z
-x,-y,-z
x,y,1/2-z
-x,1/2+y,z
x,1/2-y,1/2+z
loop_
_atom_site_type_symbol
_atom_site_label
_atom_site_fract_x
_atom_site_fract_y
_atom_site_fract_z
Si Si1 0.907239 0.042801 0.313845
Si Si2 0.752249 0.102662 0.877621
Si Si3 0.282016 0.910462 0.003635
Si Si4 0.587801 0.902695 0.311906
Si Si5 0.921037 0.117104 0.686398
Si Si6 0.563484 0.602675 0.030893
Si Si7 0.578174 0.575710 0.152012
Si Si8 0.262240 0.938162 0.622115
O O1 0.888533 0.006656 0.250000
O O2 0.990023 0.953397 0.336671
O O3 0.928199 0.211439 0.323305
O O4 0.822525 0.994014 0.348374
O O5 0.782236 0.099183 0.942883
O O6 0.837632 0.050304 0.844864
O O7 0.671602 0.002109 0.857834
O O8 0.725580 0.268755 0.861745
O O9 0.341880 0.036260 0.026683
O O10 0.328278 0.750000 0.000000
O O11 0.245373 0.957396 0.943949
O O12 0.619006 0.944984 0.250000
O O13 0.489210 0.964132 0.319242
O O14 0.588832 0.726447 0.314763
O O15 0.652630 0.972818 0.357496
O O16 0.908963 0.074792 0.750000
O O17 0.535117 0.622634 0.093903
O O18 0.561214 0.750000 0.000000
O O19 0.500000 0.500000 0.000000
#
# Coordination Sequence:
#
# PCOD8231964 Si02
#       8
#     8   8   8   8   8   8   8   8
#     4   9  18  33  53  78 104 136 176 219 264 312
#     4   9  20  36  57  81 108 140 177 218 267 318
#     4   9  18  33  53  77 104 135 172 214 262 316
#     4  12  25  39  54  76 107 144 183 222 265 317
#     4   9  18  33  54  77 104 136 174 218 264 313
#     4  11  20  32  52  76 101 132 173 219 263 312
#     4  11  23  38  54  77 108 142 178 220 266 315
#     4  10  19  36  58  80 107 141 177 220 267 315
#
# _framework density 18.870484999999999
#
# number of rings (size 3 to 8) (size 9 to 14) (size 15 to 20)
#    0.000    2.000    0.000    4.125    0.000    4.500 
#    0.000    1.875    0.000    0.000    0.000    0.000 
#    0.000    0.000    0.000    0.000    0.000    0.000 
#
# Total GULP energy -793106.368002 kJ/mol
# GULP energy per Si atom -12392.287000 kJ/mol
# Density = 1.882754 g / cm^3
# Si number density = 18.870485 Si / 1000 Ang^3
#
#
#
# Elastic Constant Matrix: (Units=GPa)
#
#
# Indices 1 2 3 4 5 6 
#
# 1 105.7963 31.4855 44.6679 0.0000 0.0000 0.0000
# 2 31.4855 72.6737 24.8046 0.0000 0.0000 0.0000
# 3 44.6679 24.8046 102.2260 0.0000 0.0000 0.0000
# 4 0.0000 0.0000 0.0000 25.4235 0.0000 0.0000
# 5 0.0000 0.0000 0.0000 0.0000 36.4563 0.0000
# 6 0.0000 0.0000 0.0000 0.0000 0.0000 30.6461
#
#
#
# Elastic Compliance Matrix: (Units=1/GPa)
#
#
# Indices 1 2 3 4 5 6 
#
# 1 0.012518 -0.003878 -0.004529 0.000000 0.000000 0.000000
# 2 -0.003878 0.016204 -0.002237 0.000000 0.000000 0.000000
# 3 -0.004529 -0.002237 0.012304 0.000000 0.000000 0.000000
# 4 0.000000 0.000000 0.000000 0.039334 0.000000 0.000000
# 5 0.000000 0.000000 0.000000 0.000000 0.027430 0.000000
# 6 0.000000 0.000000 0.000000 0.000000 0.000000 0.032631
#
#
# Mechanical properties :
#
#
# Convention : Reuss Voigt Hill
#
# Bulk Modulus (GPa) = 50.66365 53.62357 52.14361
# Shear Modulus (GPa) = 29.71097 30.48772 30.09934
#
# Velocity S-wave (km/s) = 3.97226 4.02385 3.99814
# Velocity P-wave (km/s) = 6.92422 7.07579 7.00042
#
# Compressibility (1/GPa) = 0.01973802
#
# Stress axis : x y z
#
# Youngs Moduli (GPa) = 79.88290 61.71400 81.27374
#
# Poissons Ratio (x) = 0.23931 0.36809
# Poissons Ratio (y) = 0.30976 0.18184
# Poissons Ratio (z) = 0.36179 0.13808
#
# Static dielectric constant tensor:
#      x y z
#    x 3.360890 0.000000 0.000000 
#    y 0.000000 3.464710 0.000000 
#    z 0.000000 0.000000 3.774820 
# 
# 
# High freq. dielectric constant tensor:
#      x y z
#    x 1.712790 0.000000 0.000000 
#    y 0.000000 1.735390 0.000000 
#    z 0.000000 0.000000 1.744490 
# 
# From -- ./inp_files/27476.got.cif
#   From: 2010.03.12/outbox.cif.g09.slc.cpg/sg57_14_cif.got.tgz:27476.got - 2010.04.16 15:48:40.
