data_PCOD8231740
_publ_section_title
;
Structure prediction by ZEFSAII (Michael W. Deem and Ramdas Pophale) SiO2 
 PCOD8231740
Probable space group: P B C M
;
_chemical_formula_sum "Si O2"
_cell_formula_units_Z 56
_cell_length_a 20.791895
_cell_length_b 8.924971
_cell_length_c 15.017841
_cell_angle_alpha 90.000000
_cell_angle_beta 90.000000
_cell_angle_gamma 90.000000
_cell_volume 2786.816601
_symmetry_space_group_name_H-M "P B C M"
_symmetry_group_IT_number 57
_symmetry_cell_setting 'orthorhombic'
loop_
_space_group_symop_operation_xyz
x,y,z
-x,-y,1/2+z
x,1/2-y,-z
-x,1/2+y,1/2-z
-x,-y,-z
x,y,1/2-z
-x,1/2+y,z
x,1/2-y,1/2+z
loop_
_atom_site_type_symbol
_atom_site_label
_atom_site_fract_x
_atom_site_fract_y
_atom_site_fract_z
Si Si1 0.353243 0.426757 0.511763
Si Si2 0.144643 0.492668 0.346917
Si Si3 0.209180 0.425553 0.516578
Si Si4 0.421064 0.933115 0.647853
Si Si5 0.109867 0.347834 0.847646
Si Si6 0.023972 0.875120 0.564724
Si Si7 0.554936 0.087934 0.648007
O O1 0.363043 0.250000 0.500000
O O2 0.281383 0.467671 0.545422
O O3 0.365158 0.508870 0.417261
O O4 0.400265 0.486735 0.587056
O O5 0.169609 0.551274 0.250000
O O6 0.193344 0.524895 0.428417
O O7 0.140475 0.314733 0.341814
O O8 0.076334 0.569770 0.364941
O O9 0.205444 0.250000 0.500000
O O10 0.154482 0.457599 0.591446
O O11 0.397251 0.946111 0.750000
O O12 0.439021 0.762525 0.623635
O O13 0.481979 0.039317 0.630693
O O14 0.107611 0.423369 0.750000
O O15 0.038260 0.319084 0.882470
O O16 0.054007 0.750000 0.500000
O O17 0.000000 0.000000 0.500000
O O18 0.574543 0.057047 0.750000
#
# Coordination Sequence:
#
# PCOD8231740 Si02
#       7
#     8   8   8   8   8   8   8
#     4  11  22  35  58  86 115 151 196 237 284 338
#     4  10  20  36  58  82 109 145 187 232 283 334
#     4   9  19  36  54  79 110 149 191 234 275 327
#     4  10  21  38  60  86 117 151 188 234 287 340
#     4  10  19  34  57  83 111 145 187 231 280 334
#     4  12  20  35  58  82 114 144 179 231 286 337
#     4  10  21  38  60  86 117 151 189 236 287 341
#
# _framework density 20.094614
#
# number of rings (size 3 to 8) (size 9 to 14) (size 15 to 20)
#    0.000    1.714    2.857    2.571    0.000    2.857 
#    0.000    4.286    0.000    0.000    0.000    0.000 
#    0.000    0.000    0.000    0.000    0.000    0.000 
#
# Total GULP energy -694145.180879 kJ/mol
# GULP energy per Si atom -12395.449659 kJ/mol
# Density = 2.004888 g / cm^3
# Si number density = 20.094614 Si / 1000 Ang^3
#
#
#
# Elastic Constant Matrix: (Units=GPa)
#
#
# Indices 1 2 3 4 5 6 
#
# 1 78.1453 13.0426 38.4467 0.0000 0.0000 0.0000
# 2 13.0426 70.5714 25.7707 0.0000 0.0000 0.0000
# 3 38.4467 25.7707 129.2103 0.0000 0.0000 0.0000
# 4 0.0000 0.0000 0.0000 23.6227 0.0000 0.0000
# 5 0.0000 0.0000 0.0000 0.0000 19.7471 0.0000
# 6 0.0000 0.0000 0.0000 0.0000 0.0000 18.8869
#
#
#
# Elastic Compliance Matrix: (Units=1/GPa)
#
#
# Indices 1 2 3 4 5 6 
#
# 1 0.015091 -0.001240 -0.004243 0.000000 0.000000 0.000000
# 2 -0.001240 0.015385 -0.002700 0.000000 0.000000 0.000000
# 3 -0.004243 -0.002700 0.009540 0.000000 0.000000 0.000000
# 4 0.000000 0.000000 0.000000 0.042332 0.000000 0.000000
# 5 0.000000 0.000000 0.000000 0.000000 0.050640 0.000000
# 6 0.000000 0.000000 0.000000 0.000000 0.000000 0.052947
#
#
# Mechanical properties :
#
#
# Convention : Reuss Voigt Hill
#
# Bulk Modulus (GPa) = 42.28033 48.04966 45.16500
# Shear Modulus (GPa) = 23.78865 25.82916 24.80891
#
# Velocity S-wave (km/s) = 3.44442 3.58911 3.51751
# Velocity P-wave (km/s) = 6.07495 6.41398 6.24677
#
# Compressibility (1/GPa) = 0.02365166
#
# Stress axis : x y z
#
# Youngs Moduli (GPa) = 66.26397 64.99850 104.81827
#
# Poissons Ratio (x) = 0.08057 0.44476
# Poissons Ratio (y) = 0.08214 0.28297
# Poissons Ratio (z) = 0.28117 0.17547
#
# Static dielectric constant tensor:
#      x y z
#    x 3.357440 0.000000 0.000000 
#    y 0.000000 3.453590 0.000000 
#    z 0.000000 0.000000 4.093020 
# 
# 
# High freq. dielectric constant tensor:
#      x y z
#    x 1.772300 0.000000 0.000000 
#    y 0.000000 1.765080 0.000000 
#    z 0.000000 0.000000 1.799280 
# 
# From -- ./inp_files/19352.got.cif
#   From: 2010.03.12/outbox.cif.g09.slc.cpg/sg57_10_cif.got.tgz:19352.got - 2010.04.16 15:48:40.
