data_PCOD8231329
_publ_section_title
;
Structure prediction by ZEFSAII (Michael W. Deem and Ramdas Pophale) SiO2 
 PCOD8231329
Probable space group: P B C M
;
_chemical_formula_sum "Si O2"
_cell_formula_units_Z 64
_cell_length_a 18.844190
_cell_length_b 23.140099
_cell_length_c 8.918356
_cell_angle_alpha 90.000000
_cell_angle_beta 90.000000
_cell_angle_gamma 90.000000
_cell_volume 3888.906409
_symmetry_space_group_name_H-M "P B C M"
_symmetry_group_IT_number 57
_symmetry_cell_setting 'orthorhombic'
loop_
_space_group_symop_operation_xyz
x,y,z
-x,-y,1/2+z
x,1/2-y,-z
-x,1/2+y,1/2-z
-x,-y,-z
x,y,1/2-z
-x,1/2+y,z
x,1/2-y,1/2+z
loop_
_atom_site_type_symbol
_atom_site_label
_atom_site_fract_x
_atom_site_fract_y
_atom_site_fract_z
Si Si1 0.603930 0.188457 0.925555
Si Si2 0.394080 0.483423 0.575945
Si Si3 0.255715 0.997588 0.924693
Si Si4 0.250579 0.874454 0.075209
Si Si5 0.471285 0.911757 0.924314
Si Si6 0.979761 0.090466 0.425037
Si Si7 0.893652 0.188257 0.573566
Si Si8 0.098736 0.473929 0.423175
O O1 0.592692 0.194801 0.750000
O O2 0.680530 0.162701 0.966130
O O3 0.595738 0.250000 0.000000
O O4 0.541808 0.147954 0.990501
O O5 0.390152 0.499990 0.750000
O O6 0.316471 0.467109 0.513710
O O7 0.447073 0.430075 0.547753
O O8 0.418880 0.539965 0.488032
O O9 0.273859 0.997549 0.750000
O O10 0.182172 0.030523 0.956965
O O11 0.250996 0.931970 0.978387
O O12 0.248902 0.891318 0.250000
O O13 0.182933 0.836715 0.027804
O O14 0.454503 0.904066 0.750000
O O15 0.979419 0.104497 0.250000
O O16 0.955443 0.146768 0.514093
O O17 0.059238 0.073720 0.476300
O O18 0.926990 0.038156 0.467170
O O19 0.903959 0.250000 0.500000
O O20 0.901319 0.194676 0.750000
O O21 0.080871 0.461797 0.250000
#
# Coordination Sequence:
#
# PCOD8231329 Si02
#       8
#     8   8   8   8   8   8   8   8
#     4  11  22  35  51  72 100 136 175 213 250 296
#     4  10  20  33  50  73 102 131 166 208 254 305
#     4  11  20  31  51  76 103 135 168 205 250 302
#     4  10  21  34  48  70 101 137 174 209 246 290
#     4  10  20  34  51  72  98 132 170 211 253 295
#     4  10  19  33  51  72  98 131 169 209 252 297
#     4  11  22  35  51  71 100 137 175 213 250 295
#     4   9  19  33  49  73 101 130 165 206 252 301
#
# _framework density 16.457068
#
# number of rings (size 3 to 8) (size 9 to 14) (size 15 to 20)
#    0.000    1.750    2.500    2.625    0.000    4.000 
#    0.000    0.000    0.000    0.000    0.000    0.875 
#    0.000    2.000    0.000    0.000    0.000    0.000 
#
# Total GULP energy -793856.640045 kJ/mol
# GULP energy per Si atom -12404.010001 kJ/mol
# Density = 1.641961 g / cm^3
# Si number density = 16.457068 Si / 1000 Ang^3
#
#
#
# Elastic Constant Matrix: (Units=GPa)
#
#
# Indices 1 2 3 4 5 6 
#
# 1 105.2519 54.4365 49.4968 0.0000 0.0000 0.0000
# 2 54.4365 89.9910 51.0885 0.0000 0.0000 0.0000
# 3 49.4968 51.0885 84.4410 0.0000 0.0000 0.0000
# 4 0.0000 0.0000 0.0000 29.4964 0.0000 0.0000
# 5 0.0000 0.0000 0.0000 0.0000 28.8389 0.0000
# 6 0.0000 0.0000 0.0000 0.0000 0.0000 20.1667
#
#
#
# Elastic Compliance Matrix: (Units=1/GPa)
#
#
# Indices 1 2 3 4 5 6 
#
# 1 0.015132 -0.006272 -0.005075 0.000000 0.000000 0.000000
# 2 -0.006272 0.019526 -0.008137 0.000000 0.000000 0.000000
# 3 -0.005075 -0.008137 0.019740 0.000000 0.000000 0.000000
# 4 0.000000 0.000000 0.000000 0.033902 0.000000 0.000000
# 5 0.000000 0.000000 0.000000 0.000000 0.034675 0.000000
# 6 0.000000 0.000000 0.000000 0.000000 0.000000 0.049587
#
#
# Mechanical properties :
#
#
# Convention : Reuss Voigt Hill
#
# Bulk Modulus (GPa) = 64.81010 65.52528 65.16769
# Shear Modulus (GPa) = 23.07622 24.01120 23.54371
#
# Velocity S-wave (km/s) = 3.74867 3.82386 3.78645
# Velocity P-wave (km/s) = 7.62912 7.70702 7.66817
#
# Compressibility (1/GPa) = 0.01542969
#
# Stress axis : x y z
#
# Youngs Moduli (GPa) = 66.08697 51.21455 50.65783
#
# Poissons Ratio (x) = 0.32123 0.25708
# Poissons Ratio (y) = 0.41451 0.41220
# Poissons Ratio (z) = 0.33538 0.41672
#
# Static dielectric constant tensor:
#      x y z
#    x 3.310170 0.000000 0.000000 
#    y 0.000000 2.921110 0.000000 
#    z 0.000000 0.000000 3.234780 
# 
# 
# High freq. dielectric constant tensor:
#      x y z
#    x 1.631680 0.000000 0.000000 
#    y 0.000000 1.605030 0.000000 
#    z 0.000000 0.000000 1.650360 
# 
# From -- ./inp_files/8714.got.cif
#   From: 2010.03.12/outbox.cif.g09.slc.cpg/sg57_5_cif.got.tgz:8714.got - 2010.04.16 15:48:40.
