data_PCOD8231152
_publ_section_title
;
Structure prediction by ZEFSAII (Michael W. Deem and Ramdas Pophale) SiO2 
 PCOD8231152
Probable space group: P B C M
;
_chemical_formula_sum "Si O2"
_cell_formula_units_Z 40
_cell_length_a 18.527846
_cell_length_b 13.331881
_cell_length_c 9.133256
_cell_angle_alpha 90.000000
_cell_angle_beta 90.000000
_cell_angle_gamma 90.000000
_cell_volume 2256.015045
_symmetry_space_group_name_H-M "P B C M"
_symmetry_group_IT_number 57
_symmetry_cell_setting 'orthorhombic'
loop_
_space_group_symop_operation_xyz
x,y,z
-x,-y,1/2+z
x,1/2-y,-z
-x,1/2+y,1/2-z
-x,-y,-z
x,y,1/2-z
-x,1/2+y,z
x,1/2-y,1/2+z
loop_
_atom_site_type_symbol
_atom_site_label
_atom_site_fract_x
_atom_site_fract_y
_atom_site_fract_z
Si Si1 0.749234 0.645728 0.079735
Si Si2 0.028337 0.651607 0.579463
Si Si3 0.099543 0.445546 0.581457
Si Si4 0.605502 0.963552 0.579501
Si Si5 0.541585 0.353915 0.579202
O O1 0.741426 0.669543 0.250000
O O2 0.817112 0.574432 0.045768
O O3 0.678141 0.589174 0.022593
O O4 0.759929 0.750000 0.000000
O O5 0.059346 0.750000 0.500000
O O6 0.020890 0.673903 0.750000
O O7 0.083816 0.561730 0.545602
O O8 0.949077 0.874009 0.481485
O O9 0.080732 0.421498 0.750000
O O10 0.609664 0.992974 0.750000
O O11 0.596009 0.064153 0.486275
O O12 0.540516 0.886724 0.548924
O O13 0.556871 0.250000 0.500000
O O14 0.557618 0.341728 0.750000
#
# Coordination Sequence:
#
# PCOD8231152 Si02
#       5
#     8   8   8   8   8
#     4  10  20  34  52  74 101 130 160 199 246 292
#     4  10  19  32  51  73  98 129 165 204 244 287
#     4   9  19  34  51  73 100 130 164 201 242 290
#     4   9  19  34  51  73 101 131 164 202 243 291
#     4  10  19  32  52  75  99 130 166 204 245 289
#
# _framework density 17.730378999999999
#
# number of rings (size 3 to 8) (size 9 to 14) (size 15 to 20)
#    0.000    2.400    0.000    2.400    0.000    4.800 
#    0.000    1.000    0.000    2.400    0.000    0.000 
#    0.000    0.000    0.000    0.000    0.000    0.000 
#
# Total GULP energy -496154.407972 kJ/mol
# GULP energy per Si atom -12403.860199 kJ/mol
# Density = 1.769002 g / cm^3
# Si number density = 17.730379 Si / 1000 Ang^3
#
#
#
# Elastic Constant Matrix: (Units=GPa)
#
#
# Indices 1 2 3 4 5 6 
#
# 1 104.5772 51.5746 34.3620 0.0000 0.0000 0.0000
# 2 51.5746 133.7711 62.8649 0.0000 0.0000 0.0000
# 3 34.3620 62.8649 78.7723 0.0000 0.0000 0.0000
# 4 0.0000 0.0000 0.0000 35.0070 0.0000 0.0000
# 5 0.0000 0.0000 0.0000 0.0000 23.2351 0.0000
# 6 0.0000 0.0000 0.0000 0.0000 0.0000 20.7791
#
#
#
# Elastic Compliance Matrix: (Units=1/GPa)
#
#
# Indices 1 2 3 4 5 6 
#
# 1 0.012105 -0.003497 -0.002490 0.000000 0.000000 0.000000
# 2 -0.003497 0.012972 -0.008827 0.000000 0.000000 0.000000
# 3 -0.002490 -0.008827 0.020825 0.000000 0.000000 0.000000
# 4 0.000000 0.000000 0.000000 0.028566 0.000000 0.000000
# 5 0.000000 0.000000 0.000000 0.000000 0.043038 0.000000
# 6 0.000000 0.000000 0.000000 0.000000 0.000000 0.048125
#
#
# Mechanical properties :
#
#
# Convention : Reuss Voigt Hill
#
# Bulk Modulus (GPa) = 61.44358 68.30260 64.87309
# Shear Modulus (GPa) = 24.91490 27.02550 25.97020
#
# Velocity S-wave (km/s) = 3.75268 3.90840 3.83133
# Velocity P-wave (km/s) = 7.31481 7.67945 7.49935
#
# Compressibility (1/GPa) = 0.01627509
#
# Stress axis : x y z
#
# Youngs Moduli (GPa) = 82.61058 77.09022 48.01891
#
# Poissons Ratio (x) = 0.26959 0.11955
# Poissons Ratio (y) = 0.28889 0.42385
# Poissons Ratio (z) = 0.20567 0.68046
#
# Static dielectric constant tensor:
#      x y z
#    x 3.250340 0.000000 0.000000 
#    y 0.000000 3.328130 0.000000 
#    z 0.000000 0.000000 3.336800 
# 
# 
# High freq. dielectric constant tensor:
#      x y z
#    x 1.673180 0.000000 0.000000 
#    y 0.000000 1.691910 0.000000 
#    z 0.000000 0.000000 1.690620 
# 
# From -- ./inp_files/13564.got.cif
#   From: 2010.03.12/outbox.cif.g09.slc.cpg/sg57_7_cif.got.tgz:13564.got - 2010.04.16 15:48:40.
