data_PCOD8231474
_publ_section_title
;
Structure prediction by ZEFSAII (Michael W. Deem and Ramdas Pophale) SiO2 
 PCOD8231474
Probable space group: P B C M
;
_chemical_formula_sum "Si O2"
_cell_formula_units_Z 64
_cell_length_a 20.377098
_cell_length_b 18.229296
_cell_length_c 8.960032
_cell_angle_alpha 90.000000
_cell_angle_beta 90.000000
_cell_angle_gamma 90.000000
_cell_volume 3328.294840
_symmetry_space_group_name_H-M "P B C M"
_symmetry_group_IT_number 57
_symmetry_cell_setting 'orthorhombic'
loop_
_space_group_symop_operation_xyz
x,y,z
-x,-y,1/2+z
x,1/2-y,-z
-x,1/2+y,1/2-z
-x,-y,-z
x,y,1/2-z
-x,1/2+y,z
x,1/2-y,1/2+z
loop_
_atom_site_type_symbol
_atom_site_label
_atom_site_fract_x
_atom_site_fract_y
_atom_site_fract_z
Si Si1 0.068482 0.584137 0.917362
Si Si2 0.680438 0.173474 0.426268
Si Si3 0.199259 0.928721 0.575874
Si Si4 0.430833 0.074406 0.077387
Si Si5 0.059314 0.409890 0.917885
Si Si6 0.690282 0.824887 0.574992
Si Si7 0.191230 0.402908 0.425546
Si Si8 0.437649 0.905964 0.424365
O O1 0.066408 0.615709 0.750000
O O2 0.060509 0.497243 0.916783
O O3 0.137572 0.606757 0.990600
O O4 0.008586 0.619136 0.010800
O O5 0.700630 0.250000 0.500000
O O6 0.675297 0.183332 0.250000
O O7 0.735442 0.114220 0.471474
O O8 0.610668 0.147497 0.488016
O O9 0.184020 0.921696 0.750000
O O10 0.208736 0.013508 0.530329
O O11 0.450490 0.083480 0.250000
O O12 0.363817 0.114479 0.036610
O O13 0.419447 0.989597 0.036442
O O14 0.488438 0.109811 0.978541
O O15 0.065283 0.379025 0.750000
O O16 0.119155 0.380616 0.017704
O O17 0.666600 0.750000 0.500000
O O18 0.698907 0.813245 0.750000
O O19 0.758892 0.849220 0.506484
O O20 0.195067 0.390130 0.250000
O O21 0.432058 0.888774 0.250000
#
# Coordination Sequence:
#
# PCOD8231474 Si02
#       8
#     8   8   8   8   8   8   8   8
#     4   9  16  26  45  74 105 136 172 217 266 315
#     4  11  23  38  55  77 108 144 181 221 266 317
#     4   9  19  34  53  77 105 139 177 219 267 319
#     4   9  20  38  59  83 111 142 177 218 263 315
#     4   9  16  27  45  72 106 139 172 214 264 316
#     4  11  23  38  55  77 107 142 179 218 262 312
#     4  10  19  33  54  79 106 137 176 220 267 318
#     4  10  20  36  60  86 110 139 176 219 267 316
#
# _framework density 19.229066
#
# number of rings (size 3 to 8) (size 9 to 14) (size 15 to 20)
#    0.000    2.250    0.000    3.000    0.000    6.500 
#    0.000    1.250    0.000    0.750    0.000    3.500 
#    0.000    0.000    0.000    0.000    0.000    0.000 
#
# Total GULP energy -793832.480379 kJ/mol
# GULP energy per Si atom -12403.632506 kJ/mol
# Density = 1.918530 g / cm^3
# Si number density = 19.229066 Si / 1000 Ang^3
#
#
#
# Elastic Constant Matrix: (Units=GPa)
#
#
# Indices 1 2 3 4 5 6 
#
# 1 96.0119 17.3061 44.6175 0.0000 0.0000 0.0000
# 2 17.3061 39.4426 24.0543 0.0000 0.0000 0.0000
# 3 44.6175 24.0543 96.2281 0.0000 0.0000 0.0000
# 4 0.0000 0.0000 0.0000 26.1274 0.0000 0.0000
# 5 0.0000 0.0000 0.0000 0.0000 38.4707 0.0000
# 6 0.0000 0.0000 0.0000 0.0000 0.0000 6.4853
#
#
#
# Elastic Compliance Matrix: (Units=1/GPa)
#
#
# Indices 1 2 3 4 5 6 
#
# 1 0.013479 -0.002481 -0.005629 0.000000 0.000000 0.000000
# 2 -0.002481 0.030370 -0.006441 0.000000 0.000000 0.000000
# 3 -0.005629 -0.006441 0.014612 0.000000 0.000000 0.000000
# 4 0.000000 0.000000 0.000000 0.038274 0.000000 0.000000
# 5 0.000000 0.000000 0.000000 0.000000 0.025994 0.000000
# 6 0.000000 0.000000 0.000000 0.000000 0.000000 0.154194
#
#
# Mechanical properties :
#
#
# Convention : Reuss Voigt Hill
#
# Bulk Modulus (GPa) = 34.06254 44.84871 39.45562
# Shear Modulus (GPa) = 15.83222 23.93033 19.88127
#
# Velocity S-wave (km/s) = 2.87252 3.53156 3.21895
# Velocity P-wave (km/s) = 5.36231 6.32481 5.86334
#
# Compressibility (1/GPa) = 0.02935776
#
# Stress axis : x y z
#
# Youngs Moduli (GPa) = 74.19180 32.92706 68.43552
#
# Poissons Ratio (x) = 0.08169 0.38525
# Poissons Ratio (y) = 0.18406 0.44082
# Poissons Ratio (z) = 0.41766 0.21210
#
# Static dielectric constant tensor:
#      x y z
#    x 3.582980 0.000000 0.000000 
#    y 0.000000 3.302350 0.000000 
#    z 0.000000 0.000000 3.606960 
# 
# 
# High freq. dielectric constant tensor:
#      x y z
#    x 1.759800 0.000000 0.000000 
#    y 0.000000 1.712270 0.000000 
#    z 0.000000 0.000000 1.759820 
# 
# From -- ./inp_files/7180.got.cif
#   From: 2010.03.12/outbox.cif.g09.slc.cpg/sg57_4_cif.got.tgz:7180.got - 2010.04.16 15:48:40.
