data_PCOD8231475
_publ_section_title
;
Structure prediction by ZEFSAII (Michael W. Deem and Ramdas Pophale) SiO2 
 PCOD8231475
Probable space group: P B C M
;
_chemical_formula_sum "Si O2"
_cell_formula_units_Z 40
_cell_length_a 11.321161
_cell_length_b 21.918671
_cell_length_c 8.661119
_cell_angle_alpha 90.000000
_cell_angle_beta 90.000000
_cell_angle_gamma 90.000000
_cell_volume 2149.211671
_symmetry_space_group_name_H-M "P B C M"
_symmetry_group_IT_number 57
_symmetry_cell_setting 'orthorhombic'
loop_
_space_group_symop_operation_xyz
x,y,z
-x,-y,1/2+z
x,1/2-y,-z
-x,1/2+y,1/2-z
-x,-y,-z
x,y,1/2-z
-x,1/2+y,z
x,1/2-y,1/2+z
loop_
_atom_site_type_symbol
_atom_site_label
_atom_site_fract_x
_atom_site_fract_y
_atom_site_fract_z
Si Si1 0.683723 0.465278 0.926804
Si Si2 0.432174 0.422265 0.927169
Si Si3 0.032778 0.185375 0.571883
Si Si4 0.691925 0.686747 0.929530
Si Si5 0.069738 0.557818 0.931056
O O1 0.726292 0.461683 0.750000
O O2 0.572490 0.421479 0.961607
O O3 0.639912 0.533358 0.960689
O O4 0.791654 0.447161 0.035621
O O5 0.408977 0.441133 0.750000
O O6 0.384947 0.356375 0.963776
O O7 0.989174 0.250000 0.500000
O O8 0.000815 0.191039 0.750000
O O9 0.170502 0.174980 0.542287
O O10 0.972028 0.124016 0.501680
O O11 0.658462 0.681171 0.750000
O O12 0.653251 0.750000 0.000000
O O13 0.045286 0.556357 0.750000
O O14 0.000000 0.500000 0.000000
#
# Coordination Sequence:
#
# PCOD8231475 Si02
#       5
#     8   8   8   8   8
#     4  10  21  36  54  78 107 139 176 218 267 321
#     4  10  20  35  55  78 105 138 176 219 268 319
#     4   9  20  36  54  78 107 140 177 218 266 319
#     4  10  19  33  54  79 107 137 174 219 265 317
#     4  11  22  36  56  83 112 143 182 225 271 324
#
# _framework density 18.611477000000001
#
# number of rings (size 3 to 8) (size 9 to 14) (size 15 to 20)
#    0.000    2.000    0.000    3.600    0.000    6.400 
#    0.000    1.000    0.000    2.400    0.000    0.000 
#    0.000    0.000    0.000    0.000    0.000    0.000 
#
# Total GULP energy -495907.883674 kJ/mol
# GULP energy per Si atom -12397.697092 kJ/mol
# Density = 1.856912 g / cm^3
# Si number density = 18.611477 Si / 1000 Ang^3
#
#
#
# Elastic Constant Matrix: (Units=GPa)
#
#
# Indices 1 2 3 4 5 6 
#
# 1 78.2605 55.1386 25.3824 0.0000 0.0000 0.0000
# 2 55.1386 125.8595 32.9831 0.0000 0.0000 0.0000
# 3 25.3824 32.9831 49.0856 0.0000 0.0000 0.0000
# 4 0.0000 0.0000 0.0000 32.5077 0.0000 0.0000
# 5 0.0000 0.0000 0.0000 0.0000 23.9817 0.0000
# 6 0.0000 0.0000 0.0000 0.0000 0.0000 28.9924
#
#
#
# Elastic Compliance Matrix: (Units=1/GPa)
#
#
# Indices 1 2 3 4 5 6 
#
# 1 0.019551 -0.007180 -0.005285 0.000000 0.000000 0.000000
# 2 -0.007180 0.012280 -0.004539 0.000000 0.000000 0.000000
# 3 -0.005285 -0.004539 0.026156 0.000000 0.000000 0.000000
# 4 0.000000 0.000000 0.000000 0.030762 0.000000 0.000000
# 5 0.000000 0.000000 0.000000 0.000000 0.041698 0.000000
# 6 0.000000 0.000000 0.000000 0.000000 0.000000 0.034492
#
#
# Mechanical properties :
#
#
# Convention : Reuss Voigt Hill
#
# Bulk Modulus (GPa) = 41.70441 53.35710 47.53076
# Shear Modulus (GPa) = 24.16161 26.40980 25.28570
#
# Velocity S-wave (km/s) = 3.60698 3.77106 3.68993
# Velocity P-wave (km/s) = 6.30901 6.90596 6.61422
#
# Compressibility (1/GPa) = 0.02397828
#
# Stress axis : x y z
#
# Youngs Moduli (GPa) = 51.14914 81.43047 38.23285
#
# Poissons Ratio (x) = 0.58467 0.20207
# Poissons Ratio (y) = 0.36725 0.17354
# Poissons Ratio (z) = 0.27033 0.36961
#
# Static dielectric constant tensor:
#      x y z
#    x 3.383650 0.000000 0.000000 
#    y 0.000000 3.481760 0.000000 
#    z 0.000000 0.000000 3.451470 
# 
# 
# High freq. dielectric constant tensor:
#      x y z
#    x 1.714380 0.000000 0.000000 
#    y 0.000000 1.727380 0.000000 
#    z 0.000000 0.000000 1.728420 
# 
# From -- ./inp_files/2691.got.cif
#   From: 2010.03.12/outbox.cif.g09.slc.cpg/sg57_2_cif.got.tgz:2691.got - 2010.04.16 15:48:40.
