data_PCOD8231296
_publ_section_title
;
Structure prediction by ZEFSAII (Michael W. Deem and Ramdas Pophale) SiO2 
 PCOD8231296
Probable space group: P B C M
;
_chemical_formula_sum "Si O2"
_cell_formula_units_Z 56
_cell_length_a 14.244218
_cell_length_b 20.590301
_cell_length_c 9.304061
_cell_angle_alpha 90.000000
_cell_angle_beta 90.000000
_cell_angle_gamma 90.000000
_cell_volume 2728.813508
_symmetry_space_group_name_H-M "P B C M"
_symmetry_group_IT_number 57
_symmetry_cell_setting 'orthorhombic'
loop_
_space_group_symop_operation_xyz
x,y,z
-x,-y,1/2+z
x,1/2-y,-z
-x,1/2+y,1/2-z
-x,-y,-z
x,y,1/2-z
-x,1/2+y,z
x,1/2-y,1/2+z
loop_
_atom_site_type_symbol
_atom_site_label
_atom_site_fract_x
_atom_site_fract_y
_atom_site_fract_z
Si Si1 0.801031 0.301621 0.596175
Si Si2 0.496900 0.428948 0.421487
Si Si3 0.653125 0.682836 0.582655
Si Si4 0.670866 0.077951 0.090598
Si Si5 0.055492 0.865861 0.410283
Si Si6 0.176661 0.511306 0.917456
Si Si7 0.156363 0.113761 0.912008
O O1 0.743597 0.250000 0.500000
O O2 0.824459 0.270784 0.750000
O O3 0.741102 0.364546 0.616312
O O4 0.899331 0.314727 0.517817
O O5 0.500000 0.500000 0.500000
O O6 0.505909 0.437823 0.250000
O O7 0.410305 0.380544 0.460344
O O8 0.587120 0.394545 0.491804
O O9 0.626628 0.750000 0.500000
O O10 0.638411 0.698166 0.750000
O O11 0.761047 0.664136 0.546939
O O12 0.638327 0.052019 0.250000
O O13 0.726601 0.022701 0.004725
O O14 0.092566 0.852458 0.250000
O O15 0.092430 0.938328 0.452413
O O16 0.944835 0.852710 0.418081
O O17 0.201625 0.509788 0.750000
O O18 0.144210 0.441540 0.969800
O O19 0.174916 0.086256 0.750000
#
# Coordination Sequence:
#
# PCOD8231296 Si02
#       7
#     8   8   8   8   8   8   8
#     4  10  21  36  55  78 108 145 185 231 284 341
#     4  11  23  40  64  93 121 153 194 243 298 358
#     4  10  24  43  61  84 117 156 199 245 297 356
#     4  10  21  37  57  82 111 145 182 226 283 342
#     4   9  19  34  53  80 115 151 191 239 289 341
#     4  10  19  32  54  86 118 149 187 234 287 347
#     4  10  20  36  57  81 113 153 192 236 287 341
#
# _framework density 20.521739
#
# number of rings (size 3 to 8) (size 9 to 14) (size 15 to 20)
#    0.000    2.000    0.000    3.000    0.000    6.857 
#    0.000    4.286    0.000    0.000    0.000    0.000 
#    0.000    0.000    0.000    0.000    0.000    0.000 
#
# Total GULP energy -693796.631805 kJ/mol
# GULP energy per Si atom -12389.225568 kJ/mol
# Density = 2.047503 g / cm^3
# Si number density = 20.521739 Si / 1000 Ang^3
#
#
#
# Elastic Constant Matrix: (Units=GPa)
#
#
# Indices 1 2 3 4 5 6 
#
# 1 110.2468 24.2048 43.2608 0.0000 0.0000 0.0000
# 2 24.2048 87.7892 46.8077 0.0000 0.0000 0.0000
# 3 43.2608 46.8077 134.2187 0.0000 0.0000 0.0000
# 4 0.0000 0.0000 0.0000 34.8854 0.0000 0.0000
# 5 0.0000 0.0000 0.0000 0.0000 20.3538 0.0000
# 6 0.0000 0.0000 0.0000 0.0000 0.0000 13.0478
#
#
#
# Elastic Compliance Matrix: (Units=1/GPa)
#
#
# Indices 1 2 3 4 5 6 
#
# 1 0.010511 -0.001341 -0.002920 0.000000 0.000000 0.000000
# 2 -0.001341 0.014164 -0.004507 0.000000 0.000000 0.000000
# 3 -0.002920 -0.004507 0.009964 0.000000 0.000000 0.000000
# 4 0.000000 0.000000 0.000000 0.028665 0.000000 0.000000
# 5 0.000000 0.000000 0.000000 0.000000 0.049131 0.000000
# 6 0.000000 0.000000 0.000000 0.000000 0.000000 0.076641
#
#
# Mechanical properties :
#
#
# Convention : Reuss Voigt Hill
#
# Bulk Modulus (GPa) = 58.47476 62.31127 60.39302
# Shear Modulus (GPa) = 23.55008 28.18948 25.86978
#
# Velocity S-wave (km/s) = 3.39125 3.71029 3.55435
# Velocity P-wave (km/s) = 6.62496 6.98458 6.80715
#
# Compressibility (1/GPa) = 0.01710140
#
# Stress axis : x y z
#
# Youngs Moduli (GPa) = 95.13981 70.60210 100.36515
#
# Poissons Ratio (x) = 0.09468 0.29308
# Poissons Ratio (y) = 0.12759 0.45238
# Poissons Ratio (z) = 0.27782 0.31823
#
# Static dielectric constant tensor:
#      x y z
#    x 3.898320 0.000000 0.000000 
#    y 0.000000 3.704860 0.000000 
#    z 0.000000 0.000000 4.363050 
# 
# 
# High freq. dielectric constant tensor:
#      x y z
#    x 1.800040 0.000000 0.000000 
#    y 0.000000 1.792270 0.000000 
#    z 0.000000 0.000000 1.814650 
# 
# From -- ./inp_files/5217.got.cif
#   From: 2010.03.12/outbox.cif.g09.slc.cpg/sg57_3_cif.got.tgz:5217.got - 2010.04.16 15:48:40.
