data_PCOD8231608
_publ_section_title
;
Structure prediction by ZEFSAII (Michael W. Deem and Ramdas Pophale) SiO2 
 PCOD8231608
Probable space group: P B C M
;
_chemical_formula_sum "Si O2"
_cell_formula_units_Z 40
_cell_length_a 7.826506
_cell_length_b 21.963028
_cell_length_c 11.151030
_cell_angle_alpha 90.000000
_cell_angle_beta 90.000000
_cell_angle_gamma 90.000000
_cell_volume 1916.792591
_symmetry_space_group_name_H-M "P B C M"
_symmetry_group_IT_number 57
_symmetry_cell_setting 'orthorhombic'
loop_
_space_group_symop_operation_xyz
x,y,z
-x,-y,1/2+z
x,1/2-y,-z
-x,1/2+y,1/2-z
-x,-y,-z
x,y,1/2-z
-x,1/2+y,z
x,1/2-y,1/2+z
loop_
_atom_site_type_symbol
_atom_site_label
_atom_site_fract_x
_atom_site_fract_y
_atom_site_fract_z
Si Si1 0.856547 0.582550 0.964713
Si Si2 0.475358 0.406693 0.884672
Si Si3 0.194893 0.285113 0.382334
Si Si4 0.167795 0.951179 0.615455
Si Si5 0.559310 0.266980 0.621030
O O1 0.688409 0.572005 0.043119
O O2 0.024470 0.586813 0.046383
O O3 0.849032 0.643587 0.887381
O O4 0.871529 0.523151 0.881329
O O5 0.451683 0.431466 0.750000
O O6 0.647104 0.435696 0.942224
O O7 0.485355 0.334191 0.886263
O O8 0.116343 0.250000 0.500000
O O9 0.128007 0.261370 0.250000
O O10 0.399285 0.278923 0.383832
O O11 0.167133 0.925439 0.750000
O O12 0.670530 0.250000 0.500000
O O13 0.657358 0.257668 0.750000
#
# Coordination Sequence:
#
# PCOD8231608 Si02
#       5
#     8   8   8   8   8
#     4  11  20  37  60  81 117 157 195 246 298 352
#     4  10  19  35  58  83 113 152 195 240 297 357
#     4  10  19  33  59  89 115 154 200 241 295 355
#     4  10  23  37  55  87 118 152 200 250 300 357
#     4   9  16  30  54  81 110 146 188 234 285 341
#
# _framework density 20.868193000000002
#
# number of rings (size 3 to 8) (size 9 to 14) (size 15 to 20)
#    0.000    2.000    4.000    1.800    0.000    0.800 
#    0.000    1.000    0.000   12.000    0.000    0.000 
#    0.000    0.000    0.000    0.000    0.000    0.000 
#
# Total GULP energy -495573.149684 kJ/mol
# GULP energy per Si atom -12389.328742 kJ/mol
# Density = 2.082070 g / cm^3
# Si number density = 20.868193 Si / 1000 Ang^3
#
#
#
# Elastic Constant Matrix: (Units=GPa)
#
#
# Indices 1 2 3 4 5 6 
#
# 1 88.7965 7.7363 26.8060 0.0000 0.0000 0.0000
# 2 7.7363 78.2931 22.4775 0.0000 0.0000 0.0000
# 3 26.8060 22.4775 160.1616 0.0000 0.0000 0.0000
# 4 0.0000 0.0000 0.0000 55.5430 0.0000 0.0000
# 5 0.0000 0.0000 0.0000 0.0000 10.8882 0.0000
# 6 0.0000 0.0000 0.0000 0.0000 0.0000 13.9085
#
#
#
# Elastic Compliance Matrix: (Units=1/GPa)
#
#
# Indices 1 2 3 4 5 6 
#
# 1 0.011891 -0.000629 -0.001902 0.000000 0.000000 0.000000
# 2 -0.000629 0.013342 -0.001767 0.000000 0.000000 0.000000
# 3 -0.001902 -0.001767 0.006810 0.000000 0.000000 0.000000
# 4 0.000000 0.000000 0.000000 0.018004 0.000000 0.000000
# 5 0.000000 0.000000 0.000000 0.000000 0.091842 0.000000
# 6 0.000000 0.000000 0.000000 0.000000 0.000000 0.071899
#
#
# Mechanical properties :
#
#
# Convention : Reuss Voigt Hill
#
# Bulk Modulus (GPa) = 42.64986 49.03230 45.84108
# Shear Modulus (GPa) = 21.72033 34.08338 27.90185
#
# Velocity S-wave (km/s) = 3.22970 4.04576 3.66054
# Velocity P-wave (km/s) = 5.86430 6.73583 6.31512
#
# Compressibility (1/GPa) = 0.02344673
#
# Stress axis : x y z
#
# Youngs Moduli (GPa) = 84.09979 74.95118 146.84252
#
# Poissons Ratio (x) = 0.04714 0.27927
# Poissons Ratio (y) = 0.05289 0.25950
# Poissons Ratio (z) = 0.15995 0.13245
#
# Static dielectric constant tensor:
#      x y z
#    x 3.454890 0.000000 0.000000 
#    y 0.000000 3.611000 0.000000 
#    z 0.000000 0.000000 4.341670 
# 
# 
# High freq. dielectric constant tensor:
#      x y z
#    x 1.778670 0.000000 0.000000 
#    y 0.000000 1.813590 0.000000 
#    z 0.000000 0.000000 1.829750 
# 
# From -- ./inp_files/11550.got.cif
#   From: 2010.03.12/outbox.cif.g09.slc.cpg/sg57_6_cif.got.tgz:11550.got - 2010.04.16 15:48:40.
