data_PCOD8231130
_publ_section_title
;
Structure prediction by ZEFSAII (Michael W. Deem and Ramdas Pophale) SiO2 
 PCOD8231130
Probable space group: P B C M
;
_chemical_formula_sum "Si O2"
_cell_formula_units_Z 64
_cell_length_a 22.800387
_cell_length_b 16.367641
_cell_length_c 8.768379
_cell_angle_alpha 90.000000
_cell_angle_beta 90.000000
_cell_angle_gamma 90.000000
_cell_volume 3272.258637
_symmetry_space_group_name_H-M "P B C M"
_symmetry_group_IT_number 57
_symmetry_cell_setting 'orthorhombic'
loop_
_space_group_symop_operation_xyz
x,y,z
-x,-y,1/2+z
x,1/2-y,-z
-x,1/2+y,1/2-z
-x,-y,-z
x,y,1/2-z
-x,1/2+y,z
x,1/2-y,1/2+z
loop_
_atom_site_type_symbol
_atom_site_label
_atom_site_fract_x
_atom_site_fract_y
_atom_site_fract_z
Si Si1 0.037221 0.331655 0.930113
Si Si2 0.910139 0.117187 0.421899
Si Si3 0.127995 0.041518 0.427432
Si Si4 0.443945 0.165136 0.928517
Si Si5 0.252431 0.996436 0.430636
Si Si6 0.783785 0.169445 0.423227
Si Si7 0.579815 0.163924 0.929833
Si Si8 0.626139 0.505055 0.569704
O O1 0.040885 0.330196 0.750000
O O2 0.081701 0.397212 0.004263
O O3 0.969884 0.342424 0.982720
O O4 0.062255 0.250000 0.000000
O O5 0.919124 0.082567 0.250000
O O6 0.854681 0.177830 0.424110
O O7 0.896462 0.047227 0.540769
O O8 0.128396 0.057276 0.250000
O O9 0.195518 0.049488 0.484949
O O10 0.433626 0.172941 0.750000
O O11 0.511722 0.155741 0.972909
O O12 0.413032 0.081799 0.989428
O O13 0.418810 0.250000 0.000000
O O14 0.263070 0.002329 0.250000
O O15 0.240464 0.903160 0.474320
O O16 0.308145 0.029849 0.521817
O O17 0.757062 0.250000 0.500000
O O18 0.760750 0.159475 0.250000
O O19 0.590764 0.166476 0.750000
O O20 0.604039 0.250000 0.000000
O O21 0.610562 0.082484 0.995160
O O22 0.620250 0.495048 0.750000
#
# Coordination Sequence:
#
# PCOD8231130 Si02
#       8
#     8   8   8   8   8   8   8   8
#     4  10  20  33  49  74 102 128 160 203 252 307
#     4   9  18  31  50  75 101 127 161 202 251 310
#     4   9  19  35  53  71  96 129 168 209 252 301
#     4   9  20  37  59  86 116 147 183 225 271 320
#     4  10  21  37  54  73  99 137 180 221 262 309
#     4  10  19  32  50  74 103 135 169 211 260 315
#     4  10  20  36  58  87 120 153 183 217 264 321
#     4  11  22  37  57  84 114 146 185 230 272 317
#
# _framework density 19.558357000000001
#
# number of rings (size 3 to 8) (size 9 to 14) (size 15 to 20)
#    0.000    2.250    0.000    2.625    0.000    4.000 
#    0.000    3.125    0.000    3.000    0.000    0.000 
#    0.000    0.000    0.000    0.000    0.000    0.000 
#
# Total GULP energy -793154.639108 kJ/mol
# GULP energy per Si atom -12393.041236 kJ/mol
# Density = 1.951384 g / cm^3
# Si number density = 19.558357 Si / 1000 Ang^3
#
#
#
# Elastic Constant Matrix: (Units=GPa)
#
#
# Indices 1 2 3 4 5 6 
#
# 1 74.7591 29.7312 24.0612 0.0000 0.0000 0.0000
# 2 29.7312 86.3110 23.0051 0.0000 0.0000 0.0000
# 3 24.0612 23.0051 39.4305 0.0000 0.0000 0.0000
# 4 0.0000 0.0000 0.0000 29.9955 0.0000 0.0000
# 5 0.0000 0.0000 0.0000 0.0000 24.9556 0.0000
# 6 0.0000 0.0000 0.0000 0.0000 0.0000 10.1328
#
#
#
# Elastic Compliance Matrix: (Units=1/GPa)
#
#
# Indices 1 2 3 4 5 6 
#
# 1 0.017637 -0.003797 -0.008547 0.000000 0.000000 0.000000
# 2 -0.003797 0.014537 -0.006164 0.000000 0.000000 0.000000
# 3 -0.008547 -0.006164 0.034173 0.000000 0.000000 0.000000
# 4 0.000000 0.000000 0.000000 0.033338 0.000000 0.000000
# 5 0.000000 0.000000 0.000000 0.000000 0.040071 0.000000
# 6 0.000000 0.000000 0.000000 0.000000 0.000000 0.098690
#
#
# Mechanical properties :
#
#
# Convention : Reuss Voigt Hill
#
# Bulk Modulus (GPa) = 34.09460 39.34395 36.71928
# Shear Modulus (GPa) = 17.52904 21.26365 19.39634
#
# Velocity S-wave (km/s) = 2.99698 3.30083 3.15257
# Velocity P-wave (km/s) = 5.42641 5.88958 5.66273
#
# Compressibility (1/GPa) = 0.02933015
#
# Stress axis : x y z
#
# Youngs Moduli (GPa) = 56.69776 68.78973 29.26275
#
# Poissons Ratio (x) = 0.26122 0.25011
# Poissons Ratio (y) = 0.21530 0.18038
# Poissons Ratio (z) = 0.48461 0.42403
#
# Static dielectric constant tensor:
#      x y z
#    x 3.868170 0.000000 0.000000 
#    y 0.000000 3.727080 0.000000 
#    z 0.000000 0.000000 3.430890 
# 
# 
# High freq. dielectric constant tensor:
#      x y z
#    x 1.764490 0.000000 0.000000 
#    y 0.000000 1.751990 0.000000 
#    z 0.000000 0.000000 1.758080 
# 
# From -- ./inp_files/8551.got.cif
#   From: 2010.03.12/outbox.cif.g09.slc.cpg/sg57_5_cif.got.tgz:8551.got - 2010.04.16 15:48:40.
