data_PCOD8231859
_publ_section_title
;
Structure prediction by ZEFSAII (Michael W. Deem and Ramdas Pophale) SiO2 
 PCOD8231859
Probable space group: P B C M
;
_chemical_formula_sum "Si O2"
_cell_formula_units_Z 48
_cell_length_a 14.707211
_cell_length_b 18.508123
_cell_length_c 8.980630
_cell_angle_alpha 90.000000
_cell_angle_beta 90.000000
_cell_angle_gamma 90.000000
_cell_volume 2444.553262
_symmetry_space_group_name_H-M "P B C M"
_symmetry_group_IT_number 57
_symmetry_cell_setting 'orthorhombic'
loop_
_space_group_symop_operation_xyz
x,y,z
-x,-y,1/2+z
x,1/2-y,-z
-x,1/2+y,1/2-z
-x,-y,-z
x,y,1/2-z
-x,1/2+y,z
x,1/2-y,1/2+z
loop_
_atom_site_type_symbol
_atom_site_label
_atom_site_fract_x
_atom_site_fract_y
_atom_site_fract_z
Si Si1 0.115605 0.559261 0.921666
Si Si2 0.057938 0.396867 0.922093
Si Si3 0.216296 0.323270 0.074150
Si Si4 0.360476 0.080778 0.422128
Si Si5 0.465418 0.825213 0.576565
Si Si6 0.677660 0.081113 0.922595
O O1 0.096278 0.577474 0.750000
O O2 0.102959 0.474503 0.950896
O O3 0.216906 0.580675 0.969694
O O4 0.045942 0.604743 0.022089
O O5 0.060536 0.374733 0.750000
O O6 0.114723 0.338754 0.015886
O O7 0.215762 0.314699 0.250000
O O8 0.253322 0.250000 0.000000
O O9 0.282794 0.387479 0.027006
O O10 0.331823 0.093003 0.250000
O O11 0.455979 0.117489 0.460572
O O12 0.368465 0.995999 0.457620
O O13 0.490415 0.750000 0.500000
O O14 0.455625 0.810653 0.750000
O O15 0.370791 0.856704 0.516745
O O16 0.666947 0.100456 0.750000
#
# Coordination Sequence:
#
# PCOD8231859 Si02
#       6
#     8   8   8   8   8   8
#     4   9  18  34  58  86 116 151 189 236 288 342
#     4  10  19  35  57  83 118 153 191 238 287 344
#     4  12  24  37  57  85 120 159 200 245 298 359
#     4  10  21  40  62  88 119 153 194 245 299 353
#     4  11  24  40  60  85 118 157 200 244 295 355
#     4  10  20  38  63  89 121 154 192 245 296 347
#
# _framework density 19.635489
#
# number of rings (size 3 to 8) (size 9 to 14) (size 15 to 20)
#    0.000    1.667    1.667    3.500    0.000    4.667 
#    0.000    0.833    0.000    4.000    0.000    0.000 
#    0.000    0.000    0.000    0.000    0.000    0.000 
#
# Total GULP energy -595471.958954 kJ/mol
# GULP energy per Si atom -12405.665812 kJ/mol
# Density = 1.959080 g / cm^3
# Si number density = 19.635489 Si / 1000 Ang^3
#
#
#
# Elastic Constant Matrix: (Units=GPa)
#
#
# Indices 1 2 3 4 5 6 
#
# 1 104.1647 21.5193 46.5048 0.0000 0.0000 0.0000
# 2 21.5193 48.5529 31.5278 0.0000 0.0000 0.0000
# 3 46.5048 31.5278 104.2796 0.0000 0.0000 0.0000
# 4 0.0000 0.0000 0.0000 31.2893 0.0000 0.0000
# 5 0.0000 0.0000 0.0000 0.0000 35.8874 0.0000
# 6 0.0000 0.0000 0.0000 0.0000 0.0000 17.1895
#
#
#
# Elastic Compliance Matrix: (Units=1/GPa)
#
#
# Indices 1 2 3 4 5 6 
#
# 1 0.012195 -0.002331 -0.004734 0.000000 0.000000 0.000000
# 2 -0.002331 0.026073 -0.006843 0.000000 0.000000 0.000000
# 3 -0.004734 -0.006843 0.013770 0.000000 0.000000 0.000000
# 4 0.000000 0.000000 0.000000 0.031960 0.000000 0.000000
# 5 0.000000 0.000000 0.000000 0.000000 0.027865 0.000000
# 6 0.000000 0.000000 0.000000 0.000000 0.000000 0.058175
#
#
# Mechanical properties :
#
#
# Convention : Reuss Voigt Hill
#
# Bulk Modulus (GPa) = 41.28583 50.67788 45.98185
# Shear Modulus (GPa) = 24.28035 27.36959 25.82497
#
# Velocity S-wave (km/s) = 3.52028 3.73753 3.63053
# Velocity P-wave (km/s) = 6.13147 6.67014 6.40647
#
# Compressibility (1/GPa) = 0.02422139
#
# Stress axis : x y z
#
# Youngs Moduli (GPa) = 81.99949 38.35384 72.62331
#
# Poissons Ratio (x) = 0.08941 0.34378
# Poissons Ratio (y) = 0.19116 0.49698
# Poissons Ratio (z) = 0.38817 0.26247
#
# Static dielectric constant tensor:
#      x y z
#    x 3.634190 0.000000 0.000000 
#    y 0.000000 3.437620 0.000000 
#    z 0.000000 0.000000 3.529580 
# 
# 
# High freq. dielectric constant tensor:
#      x y z
#    x 1.772380 0.000000 0.000000 
#    y 0.000000 1.751640 0.000000 
#    z 0.000000 0.000000 1.765590 
# 
# From -- ./inp_files/4580.got.cif
#   From: 2010.03.12/outbox.cif.g09.slc.cpg/sg57_3_cif.got.tgz:4580.got - 2010.04.16 15:48:40.
