data_PCOD8231244
_publ_section_title
;
Structure prediction by ZEFSAII (Michael W. Deem and Ramdas Pophale) SiO2 
 PCOD8231244
Probable space group: P B C M
;
_chemical_formula_sum "Si O2"
_cell_formula_units_Z 48
_cell_length_a 14.937105
_cell_length_b 20.614534
_cell_length_c 8.631825
_cell_angle_alpha 90.000000
_cell_angle_beta 90.000000
_cell_angle_gamma 90.000000
_cell_volume 2657.924147
_symmetry_space_group_name_H-M "P B C M"
_symmetry_group_IT_number 57
_symmetry_cell_setting 'orthorhombic'
loop_
_space_group_symop_operation_xyz
x,y,z
-x,-y,1/2+z
x,1/2-y,-z
-x,1/2+y,1/2-z
-x,-y,-z
x,y,1/2-z
-x,1/2+y,z
x,1/2-y,1/2+z
loop_
_atom_site_type_symbol
_atom_site_label
_atom_site_fract_x
_atom_site_fract_y
_atom_site_fract_z
Si Si1 0.109308 0.683109 0.064816
Si Si2 0.739650 0.011374 0.074559
Si Si3 0.925775 0.452833 0.067070
Si Si4 0.494951 0.684978 0.433912
Si Si5 0.303617 0.843437 0.923828
Si Si6 0.572257 0.549577 0.433368
O O1 0.105733 0.681048 0.250000
O O2 0.211252 0.679889 0.996456
O O3 0.065712 0.750000 0.000000
O O4 0.058481 0.619417 0.002468
O O5 0.762627 0.989782 0.250000
O O6 0.688129 0.079259 0.074711
O O7 0.830547 0.016681 0.977928
O O8 0.672450 0.960835 0.995851
O O9 0.934393 0.448476 0.250000
O O10 0.000000 0.500000 0.000000
O O11 0.541740 0.750000 0.500000
O O12 0.491667 0.686433 0.250000
O O13 0.393569 0.682782 0.505439
O O14 0.548751 0.622120 0.489684
O O15 0.300361 0.816916 0.750000
O O16 0.500000 0.500000 0.500000
O O17 0.571092 0.542493 0.250000
#
# Coordination Sequence:
#
# PCOD8231244 Si02
#       6
#     8   8   8   8   8   8
#     4  10  19  32  52  79 113 149 183 223 273 330
#     4  10  19  35  56  80 109 140 179 228 276 325
#     4  11  22  38  59  85 113 145 184 227 282 337
#     4  10  20  33  47  70 104 143 184 227 270 317
#     4   8  15  29  47  71 105 140 173 215 263 316
#     4  11  21  34  53  77 107 144 186 228 270 323
#
# _framework density 18.059206
#
# number of rings (size 3 to 8) (size 9 to 14) (size 15 to 20)
#    0.000    2.000    1.667    4.500    0.000    1.333 
#    0.000    0.833    0.000    1.000    0.000    4.667 
#    0.000    0.000    0.000    0.000    0.000    0.000 
#
# Total GULP energy -594981.357191 kJ/mol
# GULP energy per Si atom -12395.444941 kJ/mol
# Density = 1.801810 g / cm^3
# Si number density = 18.059206 Si / 1000 Ang^3
#
#
#
# Elastic Constant Matrix: (Units=GPa)
#
#
# Indices 1 2 3 4 5 6 
#
# 1 72.8049 61.2129 32.5376 0.0000 0.0000 0.0000
# 2 61.2129 154.3713 52.8407 0.0000 0.0000 0.0000
# 3 32.5376 52.8407 97.0995 0.0000 0.0000 0.0000
# 4 0.0000 0.0000 0.0000 30.8693 0.0000 0.0000
# 5 0.0000 0.0000 0.0000 0.0000 25.9788 0.0000
# 6 0.0000 0.0000 0.0000 0.0000 0.0000 21.5351
#
#
#
# Elastic Compliance Matrix: (Units=1/GPa)
#
#
# Indices 1 2 3 4 5 6 
#
# 1 0.021352 -0.007395 -0.003131 0.000000 0.000000 0.000000
# 2 -0.007395 0.010522 -0.003248 0.000000 0.000000 0.000000
# 3 -0.003131 -0.003248 0.013115 0.000000 0.000000 0.000000
# 4 0.000000 0.000000 0.000000 0.032395 0.000000 0.000000
# 5 0.000000 0.000000 0.000000 0.000000 0.038493 0.000000
# 6 0.000000 0.000000 0.000000 0.000000 0.000000 0.046436
#
#
# Mechanical properties :
#
#
# Convention : Reuss Voigt Hill
#
# Bulk Modulus (GPa) = 57.33272 68.60645 62.96959
# Shear Modulus (GPa) = 25.55266 27.52228 26.53747
#
# Velocity S-wave (km/s) = 3.76565 3.90808 3.83753
# Velocity P-wave (km/s) = 7.12199 7.64437 7.38780
#
# Compressibility (1/GPa) = 0.01744205
#
# Stress axis : x y z
#
# Youngs Moduli (GPa) = 46.83362 95.03840 76.24708
#
# Poissons Ratio (x) = 0.70283 0.23870
# Poissons Ratio (y) = 0.34634 0.24764
# Poissons Ratio (z) = 0.14662 0.30868
#
# Static dielectric constant tensor:
#      x y z
#    x 3.212870 0.000000 0.000000 
#    y 0.000000 3.513530 0.000000 
#    z 0.000000 0.000000 3.254880 
# 
# 
# High freq. dielectric constant tensor:
#      x y z
#    x 1.670540 0.000000 0.000000 
#    y 0.000000 1.701780 0.000000 
#    z 0.000000 0.000000 1.697480 
# 
# From -- ./inp_files/4905.got.cif
#   From: 2010.03.12/outbox.cif.g09.slc.cpg/sg57_3_cif.got.tgz:4905.got - 2010.04.16 15:48:40.
