data_PCOD8231207
_publ_section_title
;
Structure prediction by ZEFSAII (Michael W. Deem and Ramdas Pophale) SiO2 
 PCOD8231207
Probable space group: P B C M
;
_chemical_formula_sum "Si O2"
_cell_formula_units_Z 64
_cell_length_a 12.481240
_cell_length_b 28.416462
_cell_length_c 9.272152
_cell_angle_alpha 90.000000
_cell_angle_beta 90.000000
_cell_angle_gamma 90.000000
_cell_volume 3288.579019
_symmetry_space_group_name_H-M "P B C M"
_symmetry_group_IT_number 57
_symmetry_cell_setting 'orthorhombic'
loop_
_space_group_symop_operation_xyz
x,y,z
-x,-y,1/2+z
x,1/2-y,-z
-x,1/2+y,1/2-z
-x,-y,-z
x,y,1/2-z
-x,1/2+y,z
x,1/2-y,1/2+z
loop_
_atom_site_type_symbol
_atom_site_label
_atom_site_fract_x
_atom_site_fract_y
_atom_site_fract_z
Si Si1 0.478844 0.299299 0.919522
Si Si2 0.804603 0.549353 0.416015
Si Si3 0.006374 0.566296 0.588489
Si Si4 0.330688 0.865830 0.583779
Si Si5 0.255914 0.347562 0.918804
Si Si6 0.754813 0.051405 0.582864
Si Si7 0.946443 0.674494 0.586516
Si Si8 0.852170 0.293488 0.581735
O O1 0.489970 0.289420 0.750000
O O2 0.574450 0.332768 0.975262
O O3 0.370016 0.326150 0.958780
O O4 0.484546 0.250000 0.000000
O O5 0.835967 0.553132 0.250000
O O6 0.917483 0.539396 0.494841
O O7 0.744857 0.597133 0.465274
O O8 0.727727 0.504015 0.443226
O O9 0.002658 0.545574 0.750000
O O10 0.977683 0.620613 0.587146
O O11 0.124923 0.560037 0.523779
O O12 0.351366 0.877274 0.750000
O O13 0.328978 0.915711 0.501527
O O14 0.217754 0.840032 0.557895
O O15 0.229518 0.342000 0.750000
O O16 0.168665 0.318811 0.010723
O O17 0.747072 0.065347 0.750000
O O18 0.942286 0.694497 0.750000
O O19 0.032165 0.702199 0.491608
O O20 0.793818 0.250000 0.500000
O O21 0.864844 0.281904 0.750000
#
# Coordination Sequence:
#
# PCOD8231207 Si02
#       8
#     8   8   8   8   8   8   8   8
#     4  10  22  41  63  84 106 138 184 235 283 331
#     4   9  18  31  51  79 110 148 188 225 269 323
#     4   9  17  29  47  74 109 146 182 222 265 313
#     4  10  22  38  56  80 108 142 183 227 277 331
#     4   9  19  37  58  80 112 147 184 230 278 328
#     4  10  19  32  51  78 112 148 186 224 271 324
#     4  10  19  33  53  79 112 144 177 219 270 327
#     4  11  22  35  53  77 106 139 177 220 275 338
#
# _framework density 19.461292
#
# number of rings (size 3 to 8) (size 9 to 14) (size 15 to 20)
#    0.000    2.250    1.250    1.500    0.000    3.500 
#    0.000    1.875    0.000    0.000    0.000    0.000 
#    0.000    0.000    0.000    0.000    0.000    0.000 
#
# Total GULP energy -793533.238433 kJ/mol
# GULP energy per Si atom -12398.956851 kJ/mol
# Density = 1.941700 g / cm^3
# Si number density = 19.461292 Si / 1000 Ang^3
#
#
#
# Elastic Constant Matrix: (Units=GPa)
#
#
# Indices 1 2 3 4 5 6 
#
# 1 93.6083 31.2271 33.5280 0.0000 0.0000 0.0000
# 2 31.2271 49.6225 17.1224 0.0000 0.0000 0.0000
# 3 33.5280 17.1224 63.5331 0.0000 0.0000 0.0000
# 4 0.0000 0.0000 0.0000 31.6551 0.0000 0.0000
# 5 0.0000 0.0000 0.0000 0.0000 23.3380 0.0000
# 6 0.0000 0.0000 0.0000 0.0000 0.0000 25.6866
#
#
#
# Elastic Compliance Matrix: (Units=1/GPa)
#
#
# Indices 1 2 3 4 5 6 
#
# 1 0.015391 -0.007588 -0.006077 0.000000 0.000000 0.000000
# 2 -0.007588 0.025960 -0.002992 0.000000 0.000000 0.000000
# 3 -0.006077 -0.002992 0.019753 0.000000 0.000000 0.000000
# 4 0.000000 0.000000 0.000000 0.031591 0.000000 0.000000
# 5 0.000000 0.000000 0.000000 0.000000 0.042849 0.000000
# 6 0.000000 0.000000 0.000000 0.000000 0.000000 0.038931
#
#
# Mechanical properties :
#
#
# Convention : Reuss Voigt Hill
#
# Bulk Modulus (GPa) = 35.98482 41.16876 38.57679
# Shear Modulus (GPa) = 23.03604 24.46169 23.74887
#
# Velocity S-wave (km/s) = 3.44420 3.54918 3.49709
# Velocity P-wave (km/s) = 5.86066 6.16406 6.01428
#
# Compressibility (1/GPa) = 0.02778949
#
# Stress axis : x y z
#
# Youngs Moduli (GPa) = 64.97341 38.52108 50.62500
#
# Poissons Ratio (x) = 0.29232 0.30765
# Poissons Ratio (y) = 0.49305 0.15145
# Poissons Ratio (z) = 0.39485 0.11524
#
# Static dielectric constant tensor:
#      x y z
#    x 3.400580 0.000000 0.000000 
#    y 0.000000 3.706210 0.000000 
#    z 0.000000 0.000000 3.589140 
# 
# 
# High freq. dielectric constant tensor:
#      x y z
#    x 1.734850 0.000000 0.000000 
#    y 0.000000 1.768240 0.000000 
#    z 0.000000 0.000000 1.752030 
# 
# From -- ./inp_files/3837.got.cif
#   From: 2010.03.12/outbox.cif.g09.slc.cpg/sg57_2_cif.got.tgz:3837.got - 2010.04.16 15:48:40.
