data_PCOD8231169
_publ_section_title
;
Structure prediction by ZEFSAII (Michael W. Deem and Ramdas Pophale) SiO2 
 PCOD8231169
Probable space group: P B C M
;
_chemical_formula_sum "Si O2"
_cell_formula_units_Z 64
_cell_length_a 18.833664
_cell_length_b 23.272870
_cell_length_c 8.821548
_cell_angle_alpha 90.000000
_cell_angle_beta 90.000000
_cell_angle_gamma 90.000000
_cell_volume 3866.602820
_symmetry_space_group_name_H-M "P B C M"
_symmetry_group_IT_number 57
_symmetry_cell_setting 'orthorhombic'
loop_
_space_group_symop_operation_xyz
x,y,z
-x,-y,1/2+z
x,1/2-y,-z
-x,1/2+y,1/2-z
-x,-y,-z
x,y,1/2-z
-x,1/2+y,z
x,1/2-y,1/2+z
loop_
_atom_site_type_symbol
_atom_site_label
_atom_site_fract_x
_atom_site_fract_y
_atom_site_fract_z
Si Si1 0.608204 0.025314 0.926391
Si Si2 0.102416 0.311914 0.070975
Si Si3 0.252647 0.135931 0.928291
Si Si4 0.249598 0.496039 0.428608
Si Si5 0.484391 0.415365 0.573859
Si Si6 0.610897 0.690253 0.428354
Si Si7 0.017137 0.089254 0.427997
Si Si8 0.895302 0.022764 0.928025
O O1 0.626097 0.031031 0.750000
O O2 0.571908 0.964782 0.966502
O O3 0.680100 0.030053 0.022238
O O4 0.555896 0.076679 0.976651
O O5 0.096535 0.307625 0.250000
O O6 0.178057 0.337401 0.020249
O O7 0.091320 0.250000 0.000000
O O8 0.040384 0.352667 0.010020
O O9 0.265020 0.141265 0.750000
O O10 0.255533 0.070001 0.981893
O O11 0.312669 0.171900 0.011585
O O12 0.237703 0.500534 0.250000
O O13 0.184636 0.526387 0.512934
O O14 0.504720 0.417640 0.750000
O O15 0.449280 0.355459 0.525749
O O16 0.586643 0.750000 0.500000
O O17 0.617180 0.696686 0.250000
O O18 0.013444 0.099941 0.250000
O O19 0.939573 0.072395 0.488554
O O20 0.072858 0.039336 0.471096
O O21 0.898316 0.034101 0.750000
#
# Coordination Sequence:
#
# PCOD8231169 Si02
#       8
#     8   8   8   8   8   8   8   8
#     4  10  19  32  51  74  99 129 167 208 254 304
#     4  11  22  36  51  72 101 137 179 216 254 299
#     4  10  21  34  49  71 101 138 177 212 247 293
#     4  11  20  32  51  76 105 136 169 207 253 305
#     4   9  19  34  49  70  98 131 167 209 254 298
#     4  11  22  35  51  71 100 135 175 213 251 298
#     4  10  20  34  52  74 100 133 170 212 258 301
#     4  10  20  33  52  75 102 133 168 210 255 305
#
# _framework density 16.551998000000001
#
# number of rings (size 3 to 8) (size 9 to 14) (size 15 to 20)
#    0.000    1.750    2.500    2.625    0.000    5.000 
#    0.000    0.000    0.000    0.000    0.000    0.875 
#    0.000    2.000    0.000    0.000    0.000    0.000 
#
# Total GULP energy -793950.242594 kJ/mol
# GULP energy per Si atom -12405.472541 kJ/mol
# Density = 1.651432 g / cm^3
# Si number density = 16.551998 Si / 1000 Ang^3
#
#
#
# Elastic Constant Matrix: (Units=GPa)
#
#
# Indices 1 2 3 4 5 6 
#
# 1 100.3188 55.4361 31.9526 0.0000 0.0000 0.0000
# 2 55.4361 94.4746 35.2561 0.0000 0.0000 0.0000
# 3 31.9526 35.2561 53.9814 0.0000 0.0000 0.0000
# 4 0.0000 0.0000 0.0000 25.9868 0.0000 0.0000
# 5 0.0000 0.0000 0.0000 0.0000 31.6220 0.0000
# 6 0.0000 0.0000 0.0000 0.0000 0.0000 21.4050
#
#
#
# Elastic Compliance Matrix: (Units=1/GPa)
#
#
# Indices 1 2 3 4 5 6 
#
# 1 0.015460 -0.007480 -0.004266 0.000000 0.000000 0.000000
# 2 -0.007480 0.017615 -0.007077 0.000000 0.000000 0.000000
# 3 -0.004266 -0.007077 0.025672 0.000000 0.000000 0.000000
# 4 0.000000 0.000000 0.000000 0.038481 0.000000 0.000000
# 5 0.000000 0.000000 0.000000 0.000000 0.031624 0.000000
# 6 0.000000 0.000000 0.000000 0.000000 0.000000 0.046718
#
#
# Mechanical properties :
#
#
# Convention : Reuss Voigt Hill
#
# Bulk Modulus (GPa) = 47.39011 54.89605 51.14308
# Shear Modulus (GPa) = 22.70147 24.21145 23.45646
#
# Velocity S-wave (km/s) = 3.70743 3.82874 3.76857
# Velocity P-wave (km/s) = 6.85711 7.26523 7.06411
#
# Compressibility (1/GPa) = 0.02110145
#
# Stress axis : x y z
#
# Youngs Moduli (GPa) = 64.68142 56.76991 38.95264
#
# Poissons Ratio (x) = 0.42463 0.16617
# Poissons Ratio (y) = 0.48381 0.27567
# Poissons Ratio (z) = 0.27593 0.40177
#
# Static dielectric constant tensor:
#      x y z
#    x 3.069280 0.000000 0.000000 
#    y 0.000000 3.020210 0.000000 
#    z 0.000000 0.000000 3.138540 
# 
# 
# High freq. dielectric constant tensor:
#      x y z
#    x 1.632480 0.000000 0.000000 
#    y 0.000000 1.612910 0.000000 
#    z 0.000000 0.000000 1.651390 
# 
# From -- ./inp_files/7170.got.cif
#   From: 2010.03.12/outbox.cif.g09.slc.cpg/sg57_4_cif.got.tgz:7170.got - 2010.04.16 15:48:40.
