data_PCOD8231271
_publ_section_title
;
Structure prediction by ZEFSAII (Michael W. Deem and Ramdas Pophale) SiO2 
 PCOD8231271
Probable space group: P B C M
;
_chemical_formula_sum "Si O2"
_cell_formula_units_Z 64
_cell_length_a 17.404262
_cell_length_b 22.569782
_cell_length_c 9.123280
_cell_angle_alpha 90.000000
_cell_angle_beta 90.000000
_cell_angle_gamma 90.000000
_cell_volume 3583.719259
_symmetry_space_group_name_H-M "P B C M"
_symmetry_group_IT_number 57
_symmetry_cell_setting 'orthorhombic'
loop_
_space_group_symop_operation_xyz
x,y,z
-x,-y,1/2+z
x,1/2-y,-z
-x,1/2+y,1/2-z
-x,-y,-z
x,y,1/2-z
-x,1/2+y,z
x,1/2-y,1/2+z
loop_
_atom_site_type_symbol
_atom_site_label
_atom_site_fract_x
_atom_site_fract_y
_atom_site_fract_z
Si Si1 0.091051 0.640393 0.919213
Si Si2 0.928886 0.690302 0.577844
Si Si3 0.481202 0.439478 0.420847
Si Si4 0.648313 0.417672 0.419238
Si Si5 0.745801 0.190732 0.919882
Si Si6 0.074654 0.977765 0.917961
Si Si7 0.666244 0.551725 0.424156
Si Si8 0.185407 0.413617 0.417500
O O1 0.081410 0.621435 0.750000
O O2 0.163066 0.683474 0.942680
O O3 0.014350 0.672896 0.975709
O O4 0.106609 0.582072 0.012687
O O5 0.901925 0.750000 0.500000
O O6 0.928158 0.700972 0.750000
O O7 0.870389 0.638939 0.530789
O O8 0.500000 0.500000 0.500000
O O9 0.463380 0.449907 0.250000
O O10 0.558285 0.399787 0.440494
O O11 0.405936 0.413342 0.501748
O O12 0.670531 0.421565 0.250000
O O13 0.700736 0.365882 0.489912
O O14 0.667133 0.483356 0.483125
O O15 0.724456 0.197491 0.750000
O O16 0.718035 0.250000 0.000000
O O17 0.052203 0.967181 0.750000
O O18 0.141825 0.024873 0.934700
O O19 0.000000 0.000000 0.000000
O O20 0.657750 0.555135 0.250000
O O21 0.741917 0.585999 0.475507
O O22 0.212163 0.404034 0.250000
#
# Coordination Sequence:
#
# PCOD8231271 Si02
#       8
#     8   8   8   8   8   8   8   8
#     4  10  20  36  54  74 105 139 172 217 265 308
#     4  10  21  37  53  71  98 133 176 219 260 305
#     4   9  16  29  50  76 107 137 167 203 252 309
#     4   8  16  31  50  74 104 138 168 202 252 310
#     4  10  20  34  52  73 103 140 179 220 259 304
#     4  11  21  34  53  77 106 136 171 212 262 319
#     4  10  19  32  53  81 106 132 172 212 262 324
#     4  10  21  36  51  73 107 138 167 212 265 309
#
# _framework density 17.858540999999999
#
# number of rings (size 3 to 8) (size 9 to 14) (size 15 to 20)
#    0.000    2.250    1.250    3.000    0.000    3.500 
#    0.000    3.750    0.000    0.750    0.000    1.750 
#    0.000    0.000    0.000    0.000    0.000    0.000 
#
# Total GULP energy -793470.789875 kJ/mol
# GULP energy per Si atom -12397.981092 kJ/mol
# Density = 1.781789 g / cm^3
# Si number density = 17.858541 Si / 1000 Ang^3
#
#
#
# Elastic Constant Matrix: (Units=GPa)
#
#
# Indices 1 2 3 4 5 6 
#
# 1 117.9302 34.1069 41.0989 0.0000 0.0000 0.0000
# 2 34.1069 86.4905 29.0451 0.0000 0.0000 0.0000
# 3 41.0989 29.0451 69.8870 0.0000 0.0000 0.0000
# 4 0.0000 0.0000 0.0000 28.3107 0.0000 0.0000
# 5 0.0000 0.0000 0.0000 0.0000 28.6434 0.0000
# 6 0.0000 0.0000 0.0000 0.0000 0.0000 16.8309
#
#
#
# Elastic Compliance Matrix: (Units=1/GPa)
#
#
# Indices 1 2 3 4 5 6 
#
# 1 0.011128 -0.002546 -0.005486 0.000000 0.000000 0.000000
# 2 -0.002546 0.014020 -0.004329 0.000000 0.000000 0.000000
# 3 -0.005486 -0.004329 0.019334 0.000000 0.000000 0.000000
# 4 0.000000 0.000000 0.000000 0.035322 0.000000 0.000000
# 5 0.000000 0.000000 0.000000 0.000000 0.034912 0.000000
# 6 0.000000 0.000000 0.000000 0.000000 0.000000 0.059414
#
#
# Mechanical properties :
#
#
# Convention : Reuss Voigt Hill
#
# Bulk Modulus (GPa) = 50.60900 53.64552 52.12726
# Shear Modulus (GPa) = 24.33805 26.09412 25.21608
#
# Velocity S-wave (km/s) = 3.69565 3.82665 3.76172
# Velocity P-wave (km/s) = 6.82721 7.04477 6.93684
#
# Compressibility (1/GPa) = 0.01975933
#
# Stress axis : x y z
#
# Youngs Moduli (GPa) = 89.86547 71.32752 51.72162
#
# Poissons Ratio (x) = 0.18159 0.28374
# Poissons Ratio (y) = 0.22879 0.22393
# Poissons Ratio (z) = 0.49299 0.30881
#
# Static dielectric constant tensor:
#      x y z
#    x 3.335770 0.000000 0.000000 
#    y 0.000000 3.120540 0.000000 
#    z 0.000000 0.000000 3.211840 
# 
# 
# High freq. dielectric constant tensor:
#      x y z
#    x 1.698620 0.000000 0.000000 
#    y 0.000000 1.664400 0.000000 
#    z 0.000000 0.000000 1.683760 
# 
# From -- ./inp_files/7118.got.cif
#   From: 2010.03.12/outbox.cif.g09.slc.cpg/sg57_4_cif.got.tgz:7118.got - 2010.04.16 15:48:40.
