data_PCOD8231654
_publ_section_title
;
Structure prediction by ZEFSAII (Michael W. Deem and Ramdas Pophale) SiO2 
 PCOD8231654
Probable space group: P B C M
;
_chemical_formula_sum "Si O2"
_cell_formula_units_Z 56
_cell_length_a 12.475851
_cell_length_b 15.469391
_cell_length_c 14.714242
_cell_angle_alpha 90.000000
_cell_angle_beta 90.000000
_cell_angle_gamma 90.000000
_cell_volume 2839.757730
_symmetry_space_group_name_H-M "P B C M"
_symmetry_group_IT_number 57
_symmetry_cell_setting 'orthorhombic'
loop_
_space_group_symop_operation_xyz
x,y,z
-x,-y,1/2+z
x,1/2-y,-z
-x,1/2+y,1/2-z
-x,-y,-z
x,y,1/2-z
-x,1/2+y,z
x,1/2-y,1/2+z
loop_
_atom_site_type_symbol
_atom_site_label
_atom_site_fract_x
_atom_site_fract_y
_atom_site_fract_z
Si Si1 0.683789 0.444362 0.032229
Si Si2 0.923028 0.481733 0.080146
Si Si3 0.594062 0.117042 0.148828
Si Si4 0.133700 0.335051 0.853360
Si Si5 0.356789 0.393982 0.645246
Si Si6 0.273950 0.788645 0.353200
Si Si7 0.963131 0.202032 0.854469
O O1 0.810629 0.458136 0.034457
O O2 0.626348 0.518518 0.089232
O O3 0.659925 0.353495 0.082246
O O4 0.635202 0.447349 0.930111
O O5 0.914762 0.567906 0.141286
O O6 0.976296 0.401447 0.134371
O O7 0.000000 0.500000 0.000000
O O8 0.603550 0.073390 0.250000
O O9 0.472098 0.151933 0.134923
O O10 0.669051 0.198537 0.144149
O O11 0.143892 0.306602 0.750000
O O12 0.256338 0.336928 0.893832
O O13 0.056560 0.262326 0.901821
O O14 0.330493 0.417501 0.750000
O O15 0.268180 0.826608 0.250000
O O16 0.154107 0.772576 0.392516
O O17 0.967118 0.227201 0.750000
#
# Coordination Sequence:
#
# PCOD8231654 Si02
#       7
#     8   8   8   8   8   8   8
#     4  10  19  34  55  77 106 141 183 219 274 324
#     4  10  21  33  51  81 112 142 179 224 269 325
#     4  10  20  33  52  79 108 139 179 229 274 319
#     4   9  18  34  57  79 105 144 181 221 274 328
#     4   9  18  34  57  79 105 141 183 225 270 331
#     4   9  18  32  54  82 106 132 176 226 271 321
#     4   9  18  34  57  81 107 141 180 222 273 331
#
# _framework density 19.719991
#
# number of rings (size 3 to 8) (size 9 to 14) (size 15 to 20)
#    0.000    2.571    0.000    1.714    2.000    4.000 
#    0.000    0.714   15.714    0.000    0.000    0.000 
#    0.000    0.000    0.000    0.000    0.000    0.000 
#
# Total GULP energy -693740.695850 kJ/mol
# GULP energy per Si atom -12388.226712 kJ/mol
# Density = 1.967511 g / cm^3
# Si number density = 19.719991 Si / 1000 Ang^3
#
#
#
# Elastic Constant Matrix: (Units=GPa)
#
#
# Indices 1 2 3 4 5 6 
#
# 1 72.6353 26.4979 20.4229 0.0000 0.0000 0.0000
# 2 26.4979 58.4427 2.0770 0.0000 0.0000 0.0000
# 3 20.4229 2.0770 64.7905 0.0000 0.0000 0.0000
# 4 0.0000 0.0000 0.0000 18.6100 0.0000 0.0000
# 5 0.0000 0.0000 0.0000 0.0000 23.9192 0.0000
# 6 0.0000 0.0000 0.0000 0.0000 0.0000 8.7644
#
#
#
# Elastic Compliance Matrix: (Units=1/GPa)
#
#
# Indices 1 2 3 4 5 6 
#
# 1 0.018263 -0.008085 -0.005497 0.000000 0.000000 0.000000
# 2 -0.008085 0.020709 0.001885 0.000000 0.000000 0.000000
# 3 -0.005497 0.001885 0.017107 0.000000 0.000000 0.000000
# 4 0.000000 0.000000 0.000000 0.053735 0.000000 0.000000
# 5 0.000000 0.000000 0.000000 0.000000 0.041807 0.000000
# 6 0.000000 0.000000 0.000000 0.000000 0.000000 0.114098
#
#
# Mechanical properties :
#
#
# Convention : Reuss Voigt Hill
#
# Bulk Modulus (GPa) = 30.59657 32.65156 31.62407
# Shear Modulus (GPa) = 16.66616 20.05008 18.35812
#
# Velocity S-wave (km/s) = 2.91028 3.19209 3.05444
# Velocity P-wave (km/s) = 5.18095 5.49359 5.33955
#
# Compressibility (1/GPa) = 0.03268340
#
# Stress axis : x y z
#
# Youngs Moduli (GPa) = 54.75695 48.28707 58.45622
#
# Poissons Ratio (x) = 0.39039 0.32136
# Poissons Ratio (y) = 0.44270 -0.11016
# Poissons Ratio (z) = 0.30102 -0.09100
#
# Static dielectric constant tensor:
#      x y z
#    x 3.775330 0.000000 0.000000 
#    y 0.000000 3.313260 0.000000 
#    z 0.000000 0.000000 3.695500 
# 
# 
# High freq. dielectric constant tensor:
#      x y z
#    x 1.776250 0.000000 0.000000 
#    y 0.000000 1.746800 0.000000 
#    z 0.000000 0.000000 1.760720 
# 
# From -- ./inp_files/17693.got.cif
#   From: 2010.03.12/outbox.cif.g09.slc.cpg/sg57_9_cif.got.tgz:17693.got - 2010.04.16 15:48:40.
