data_PCOD8231839
_publ_section_title
;
Structure prediction by ZEFSAII (Michael W. Deem and Ramdas Pophale) SiO2 
 PCOD8231839
Probable space group: P B C M
;
_chemical_formula_sum "Si O2"
_cell_formula_units_Z 64
_cell_length_a 9.861697
_cell_length_b 21.038029
_cell_length_c 17.334039
_cell_angle_alpha 90.000000
_cell_angle_beta 90.000000
_cell_angle_gamma 90.000000
_cell_volume 3596.304641
_symmetry_space_group_name_H-M "P B C M"
_symmetry_group_IT_number 57
_symmetry_cell_setting 'orthorhombic'
loop_
_space_group_symop_operation_xyz
x,y,z
-x,-y,1/2+z
x,1/2-y,-z
-x,1/2+y,1/2-z
-x,-y,-z
x,y,1/2-z
-x,1/2+y,z
x,1/2-y,1/2+z
loop_
_atom_site_type_symbol
_atom_site_label
_atom_site_fract_x
_atom_site_fract_y
_atom_site_fract_z
Si Si1 0.080694 0.589288 0.337150
Si Si2 0.298392 0.808062 0.838617
Si Si3 0.196581 0.798995 0.065276
Si Si4 0.235094 0.459065 0.164890
Si Si5 0.538504 0.178108 0.480171
Si Si6 0.047247 0.598735 0.839771
Si Si7 0.892989 0.519652 0.434883
Si Si8 0.386722 0.052510 0.984002
O O1 0.026769 0.593656 0.250000
O O2 0.167142 0.650226 0.359996
O O3 0.176680 0.528802 0.349016
O O4 0.951061 0.583190 0.393403
O O5 0.340888 0.814634 0.750000
O O6 0.255970 0.736924 0.860126
O O7 0.428362 0.828078 0.889151
O O8 0.083982 0.845440 0.100084
O O9 0.137866 0.750000 0.000000
O O10 0.322256 0.836793 0.026677
O O11 0.298252 0.453098 0.250000
O O12 0.357160 0.446644 0.106794
O O13 0.114741 0.408012 0.154017
O O14 0.486447 0.250000 0.500000
O O15 0.428662 0.124462 0.496809
O O16 0.089693 0.611009 0.750000
O O17 0.121168 0.534972 0.869803
O O18 0.747178 0.534666 0.469043
O O19 0.000000 0.500000 0.500000
O O20 0.500000 0.000000 0.000000
#
# Coordination Sequence:
#
# PCOD8231839 Si02
#       8
#     8   8   8   8   8   8   8   8
#     4   9  17  32  53  79 108 137 175 225 283 337
#     4   9  17  32  56  79 105 145 184 224 277 337
#     4   9  19  32  55  81 110 141 192 235 274 327
#     4   9  19  35  53  76 107 144 178 223 288 343
#     4   9  21  37  51  76 114 149 184 229 279 339
#     4  10  19  35  56  82 113 144 180 234 292 340
#     4  11  21  33  57  80 111 143 181 228 291 334
#     4  12  22  35  57  84 109 144 195 235 275 339
#
# _framework density 17.796044999999999
#
# number of rings (size 3 to 8) (size 9 to 14) (size 15 to 20)
#    0.000    2.500    2.500    3.000    3.500    0.000 
#    0.000    8.750    0.000    0.000    0.000    0.000 
#    0.000    0.000    0.000    0.000    0.000    0.000 
#
# Total GULP energy -793187.381408 kJ/mol
# GULP energy per Si atom -12393.552834 kJ/mol
# Density = 1.775554 g / cm^3
# Si number density = 17.796045 Si / 1000 Ang^3
#
#
#
# Elastic Constant Matrix: (Units=GPa)
#
#
# Indices 1 2 3 4 5 6 
#
# 1 87.7003 41.5974 67.9254 0.0000 0.0000 0.0000
# 2 41.5974 64.2667 56.1531 0.0000 0.0000 0.0000
# 3 67.9254 56.1531 120.9284 0.0000 0.0000 0.0000
# 4 0.0000 0.0000 0.0000 28.0777 0.0000 0.0000
# 5 0.0000 0.0000 0.0000 0.0000 32.6320 0.0000
# 6 0.0000 0.0000 0.0000 0.0000 0.0000 15.0523
#
#
#
# Elastic Compliance Matrix: (Units=1/GPa)
#
#
# Indices 1 2 3 4 5 6 
#
# 1 0.021322 -0.005614 -0.009370 0.000000 0.000000 0.000000
# 2 -0.005614 0.027662 -0.009691 0.000000 0.000000 0.000000
# 3 -0.009370 -0.009691 0.018032 0.000000 0.000000 0.000000
# 4 0.000000 0.000000 0.000000 0.035615 0.000000 0.000000
# 5 0.000000 0.000000 0.000000 0.000000 0.030645 0.000000
# 6 0.000000 0.000000 0.000000 0.000000 0.000000 0.066435
#
#
# Mechanical properties :
#
#
# Convention : Reuss Voigt Hill
#
# Bulk Modulus (GPa) = 56.60568 67.13859 61.87214
# Shear Modulus (GPa) = 19.61158 22.30038 20.95598
#
# Velocity S-wave (km/s) = 3.32327 3.54377 3.43529
# Velocity P-wave (km/s) = 6.82661 7.38600 7.11180
#
# Compressibility (1/GPa) = 0.01766607
#
# Stress axis : x y z
#
# Youngs Moduli (GPa) = 46.89883 36.15093 55.45564
#
# Poissons Ratio (x) = 0.20297 0.51961
# Poissons Ratio (y) = 0.26331 0.53743
# Poissons Ratio (z) = 0.43943 0.35034
#
# Static dielectric constant tensor:
#      x y z
#    x 3.097080 0.000000 0.000000 
#    y 0.000000 3.309100 0.000000 
#    z 0.000000 0.000000 3.600870 
# 
# 
# High freq. dielectric constant tensor:
#      x y z
#    x 1.653370 0.000000 0.000000 
#    y 0.000000 1.682590 0.000000 
#    z 0.000000 0.000000 1.709470 
# 
# From -- ./inp_files/21450.got.cif
#   From: 2010.03.12/outbox.cif.g09.slc.cpg/sg57_11_cif.got.tgz:21450.got - 2010.04.16 15:48:40.
