data_PCOD8231020
_publ_section_title
;
Structure prediction by ZEFSAII (Michael W. Deem and Ramdas Pophale) SiO2 
 PCOD8231020
Probable space group: P B C M
;
_chemical_formula_sum "Si O2"
_cell_formula_units_Z 60
_cell_length_a 34.845141
_cell_length_b 5.235597
_cell_length_c 15.248413
_cell_angle_alpha 90.000000
_cell_angle_beta 90.000000
_cell_angle_gamma 90.000000
_cell_volume 2781.845990
_symmetry_space_group_name_H-M "P B C M"
_symmetry_group_IT_number 57
_symmetry_cell_setting 'orthorhombic'
loop_
_space_group_symop_operation_xyz
x,y,z
-x,-y,1/2+z
x,1/2-y,-z
-x,1/2+y,1/2-z
-x,-y,-z
x,y,1/2-z
-x,1/2+y,z
x,1/2-y,1/2+z
loop_
_atom_site_type_symbol
_atom_site_label
_atom_site_fract_x
_atom_site_fract_y
_atom_site_fract_z
Si Si1 0.088237 0.731447 0.354128
Si Si2 0.262480 0.744348 0.352982
Si Si3 0.351177 0.751139 0.897397
Si Si4 0.779564 0.755957 0.854952
Si Si5 0.865540 0.736830 0.147088
Si Si6 0.392427 0.251093 0.604100
Si Si7 0.480824 0.255839 0.648324
Si Si8 0.025611 0.750000 0.500000
O O1 0.078419 0.724694 0.250000
O O2 0.110026 0.477294 0.387216
O O3 0.049718 0.751958 0.410116
O O4 0.114447 0.972776 0.378953
O O5 0.256840 0.743953 0.250000
O O6 0.306665 0.743668 0.376864
O O7 0.242157 0.493017 0.392380
O O8 0.242356 0.995939 0.392626
O O9 0.370541 0.497908 0.856588
O O10 0.371540 0.000822 0.856486
O O11 0.358206 0.750000 0.000000
O O12 0.779520 0.758250 0.750000
O O13 0.822807 0.756736 0.892979
O O14 0.861889 0.764186 0.250000
O O15 0.390467 0.250000 0.500000
O O16 0.435694 0.255609 0.635684
O O17 0.491516 0.256087 0.750000
O O18 0.499941 0.506047 0.603815
O O19 0.000000 0.500000 0.500000
#
# Coordination Sequence:
#
# PCOD8231020 Si02
#       8
#     8   8   8   8   8   8   8   4
#     4  10  21  38  62  87 115 155 197 236 291 351
#     4  10  19  31  51  78 105 138 179 220 263 315
#     4  10  21  36  52  70 103 139 173 217 257 302
#     4   9  17  30  52  81 109 138 178 223 269 321
#     4   9  17  33  59  86 112 149 190 233 284 338
#     4  10  21  36  54  75  95 133 178 208 250 306
#     4  10  21  36  54  78 106 129 153 201 264 314
#     4  12  26  42  62  88 122 158 192 246 298 338
#
# _framework density 21.56841
#
# number of rings (size 3 to 8) (size 9 to 14) (size 15 to 20)
#    0.000    2.133    0.000    3.200    0.000    5.333 
#    0.000    0.000    8.800    0.000    0.000    0.000 
#    0.000    0.000    0.000    0.000    0.000    0.000 
#
# Total GULP energy -743994.783830 kJ/mol
# GULP energy per Si atom -12399.913064 kJ/mol
# Density = 2.151932 g / cm^3
# Si number density = 21.568410 Si / 1000 Ang^3
#
#
#
# Elastic Constant Matrix: (Units=GPa)
#
#
# Indices 1 2 3 4 5 6 
#
# 1 178.4840 85.0286 19.9422 0.0000 0.0000 0.0000
# 2 85.0286 202.3380 21.9420 0.0000 0.0000 0.0000
# 3 19.9422 21.9420 33.1196 0.0000 0.0000 0.0000
# 4 0.0000 0.0000 0.0000 3.4283 0.0000 0.0000
# 5 0.0000 0.0000 0.0000 0.0000 44.7539 0.0000
# 6 0.0000 0.0000 0.0000 0.0000 0.0000 53.5100
#
#
#
# Elastic Compliance Matrix: (Units=1/GPa)
#
#
# Indices 1 2 3 4 5 6 
#
# 1 0.007194 -0.002751 -0.002509 0.000000 0.000000 0.000000
# 2 -0.002751 0.006377 -0.002568 0.000000 0.000000 0.000000
# 3 -0.002509 -0.002568 0.033406 0.000000 0.000000 0.000000
# 4 0.000000 0.000000 0.000000 0.291691 0.000000 0.000000
# 5 0.000000 0.000000 0.000000 0.000000 0.022344 0.000000
# 6 0.000000 0.000000 0.000000 0.000000 0.000000 0.018688
#
#
# Mechanical properties :
#
#
# Convention : Reuss Voigt Hill
#
# Bulk Modulus (GPa) = 31.92857 74.19635 53.06246
# Shear Modulus (GPa) = 12.32146 39.47370 25.89758
#
# Velocity S-wave (km/s) = 2.39273 4.28268 3.46890
# Velocity P-wave (km/s) = 4.74015 7.67661 6.37963
#
# Compressibility (1/GPa) = 0.03131991
#
# Stress axis : x y z
#
# Youngs Moduli (GPa) = 139.01300 156.82002 29.93491
#
# Poissons Ratio (x) = 0.43139 0.07511
# Poissons Ratio (y) = 0.38241 0.07688
# Poissons Ratio (z) = 0.34878 0.40275
#
# Static dielectric constant tensor:
#      x y z
#    x 3.872330 0.000000 0.000000 
#    y 0.000000 4.614930 0.000000 
#    z 0.000000 0.000000 3.588220 
# 
# 
# High freq. dielectric constant tensor:
#      x y z
#    x 1.853440 0.000000 0.000000 
#    y 0.000000 1.872600 0.000000 
#    z 0.000000 0.000000 1.818820 
# 
# From -- ./inp_files/23167.got.cif
#   From: 2010.03.12/outbox.cif.g09.slc.cpg/sg57_12_cif.got.tgz:23167.got - 2010.04.16 15:48:40.
