data_PCOD8231973
_publ_section_title
;
Structure prediction by ZEFSAII (Michael W. Deem and Ramdas Pophale) SiO2 
 PCOD8231973
Probable space group: P B C M
;
_chemical_formula_sum "Si O2"
_cell_formula_units_Z 48
_cell_length_a 14.775737
_cell_length_b 18.709224
_cell_length_c 9.332368
_cell_angle_alpha 90.000000
_cell_angle_beta 90.000000
_cell_angle_gamma 90.000000
_cell_volume 2579.863825
_symmetry_space_group_name_H-M "P B C M"
_symmetry_group_IT_number 57
_symmetry_cell_setting 'orthorhombic'
loop_
_space_group_symop_operation_xyz
x,y,z
-x,-y,1/2+z
x,1/2-y,-z
-x,1/2+y,1/2-z
-x,-y,-z
x,y,1/2-z
-x,1/2+y,z
x,1/2-y,1/2+z
loop_
_atom_site_type_symbol
_atom_site_label
_atom_site_fract_x
_atom_site_fract_y
_atom_site_fract_z
Si Si1 0.528096 0.175259 0.081220
Si Si2 0.318297 0.931968 0.916850
Si Si3 0.385421 0.081777 0.915105
Si Si4 0.882540 0.440313 0.583221
Si Si5 0.781109 0.817461 0.087579
Si Si6 0.048173 0.402090 0.083739
O O1 0.510211 0.187100 0.250000
O O2 0.626451 0.140449 0.053205
O O3 0.454176 0.378439 0.980742
O O4 0.523032 0.250000 0.000000
O O5 0.305279 0.947857 0.750000
O O6 0.217396 0.924271 0.982007
O O7 0.373650 0.000889 0.975138
O O8 0.420365 0.084490 0.750000
O O9 0.287535 0.117391 0.928479
O O10 0.887743 0.421424 0.750000
O O11 0.906066 0.522052 0.550736
O O12 0.955552 0.390383 0.503368
O O13 0.787093 0.791836 0.250000
O O14 0.879818 0.842540 0.033496
O O15 0.745284 0.750000 0.000000
O O16 0.024900 0.394862 0.250000
#
# Coordination Sequence:
#
# PCOD8231973 Si02
#       6
#     8   8   8   8   8   8
#     4  11  23  38  55  78 108 143 181 220 267 322
#     4   9  18  35  59  82 105 139 180 220 268 323
#     4  10  19  36  59  81 106 138 176 223 273 321
#     4   9  16  31  55  78 101 133 173 214 259 309
#     4  10  20  33  51  75 108 144 176 214 266 322
#     4   9  17  31  50  75 105 136 170 212 260 308
#
# _framework density 18.605633000000001
#
# number of rings (size 3 to 8) (size 9 to 14) (size 15 to 20)
#    0.000    2.333    1.667    1.500    0.000    2.667 
#    0.000    4.167    0.000    4.000    0.000    0.000 
#    0.000    0.000    0.000    0.000    0.000    0.000 
#
# Total GULP energy -595141.688437 kJ/mol
# GULP energy per Si atom -12398.785176 kJ/mol
# Density = 1.856329 g / cm^3
# Si number density = 18.605633 Si / 1000 Ang^3
#
#
#
# Elastic Constant Matrix: (Units=GPa)
#
#
# Indices 1 2 3 4 5 6 
#
# 1 114.7345 17.9993 40.4046 0.0000 0.0000 0.0000
# 2 17.9993 41.8124 20.8616 0.0000 0.0000 0.0000
# 3 40.4046 20.8616 60.2675 0.0000 0.0000 0.0000
# 4 0.0000 0.0000 0.0000 19.7627 0.0000 0.0000
# 5 0.0000 0.0000 0.0000 0.0000 25.7917 0.0000
# 6 0.0000 0.0000 0.0000 0.0000 0.0000 20.0355
#
#
#
# Elastic Compliance Matrix: (Units=1/GPa)
#
#
# Indices 1 2 3 4 5 6 
#
# 1 0.011470 -0.001331 -0.007229 0.000000 0.000000 0.000000
# 2 -0.001331 0.029063 -0.009168 0.000000 0.000000 0.000000
# 3 -0.007229 -0.009168 0.024613 0.000000 0.000000 0.000000
# 4 0.000000 0.000000 0.000000 0.050600 0.000000 0.000000
# 5 0.000000 0.000000 0.000000 0.000000 0.038772 0.000000
# 6 0.000000 0.000000 0.000000 0.000000 0.000000 0.049911
#
#
# Mechanical properties :
#
#
# Convention : Reuss Voigt Hill
#
# Bulk Modulus (GPa) = 33.68104 41.70506 37.69305
# Shear Modulus (GPa) = 20.01730 22.28792 21.15261
#
# Velocity S-wave (km/s) = 3.28361 3.46484 3.37544
# Velocity P-wave (km/s) = 5.70246 6.20248 5.95772
#
# Compressibility (1/GPa) = 0.02969029
#
# Stress axis : x y z
#
# Youngs Moduli (GPa) = 87.18083 34.40746 40.62907
#
# Poissons Ratio (x) = 0.04579 0.29372
# Poissons Ratio (y) = 0.11602 0.37249
# Poissons Ratio (z) = 0.63026 0.31545
#
# Static dielectric constant tensor:
#      x y z
#    x 3.638860 0.000000 0.000000 
#    y 0.000000 3.273210 0.000000 
#    z 0.000000 0.000000 3.285610 
# 
# 
# High freq. dielectric constant tensor:
#      x y z
#    x 1.733240 0.000000 0.000000 
#    y 0.000000 1.708830 0.000000 
#    z 0.000000 0.000000 1.701350 
# 
# From -- ./inp_files/13728.got.cif
#   From: 2010.03.12/outbox.cif.g09.slc.cpg/sg57_7_cif.got.tgz:13728.got - 2010.04.16 15:48:40.
