data_PCOD8231666
_publ_section_title
;
Structure prediction by ZEFSAII (Michael W. Deem and Ramdas Pophale) SiO2 
 PCOD8231666
Probable space group: P B C M
;
_chemical_formula_sum "Si O2"
_cell_formula_units_Z 64
_cell_length_a 18.668008
_cell_length_b 19.073245
_cell_length_c 9.323477
_cell_angle_alpha 90.000000
_cell_angle_beta 90.000000
_cell_angle_gamma 90.000000
_cell_volume 3319.712468
_symmetry_space_group_name_H-M "P B C M"
_symmetry_group_IT_number 57
_symmetry_cell_setting 'orthorhombic'
loop_
_space_group_symop_operation_xyz
x,y,z
-x,-y,1/2+z
x,1/2-y,-z
-x,1/2+y,1/2-z
-x,-y,-z
x,y,1/2-z
-x,1/2+y,z
x,1/2-y,1/2+z
loop_
_atom_site_type_symbol
_atom_site_label
_atom_site_fract_x
_atom_site_fract_y
_atom_site_fract_z
Si Si1 0.947178 0.949620 0.413663
Si Si2 0.788485 0.523412 0.914916
Si Si3 0.039710 0.818441 0.087275
Si Si4 0.543171 0.823449 0.584424
Si Si5 0.646245 0.555077 0.082514
Si Si6 0.317218 0.687714 0.090711
Si Si7 0.580847 0.430488 0.917770
Si Si8 0.830440 0.367665 0.908828
O O1 0.947546 0.977274 0.250000
O O2 0.865820 0.949262 0.471971
O O3 0.972828 0.869983 0.424270
O O4 0.000000 0.000000 0.500000
O O5 0.774907 0.546072 0.750000
O O6 0.790142 0.440391 0.931181
O O7 0.724519 0.553691 0.010776
O O8 0.056429 0.797022 0.250000
O O9 0.019079 0.750000 0.000000
O O10 0.109776 0.856505 0.027263
O O11 0.543157 0.750000 0.500000
O O12 0.530168 0.804416 0.750000
O O13 0.617816 0.865309 0.562934
O O14 0.482413 0.878413 0.531791
O O15 0.652254 0.535383 0.250000
O O16 0.588356 0.501662 0.010323
O O17 0.343043 0.704413 0.250000
O O18 0.345981 0.611299 0.048392
O O19 0.231256 0.690414 0.075261
O O20 0.352272 0.750000 0.000000
O O21 0.572702 0.450996 0.750000
O O22 0.865593 0.363888 0.750000
#
# Coordination Sequence:
#
# PCOD8231666 Si02
#       8
#     8   8   8   8   8   8   8   8
#     4  10  21  37  60  86 112 146 193 238 286 343
#     4  10  20  38  61  85 115 154 193 237 293 349
#     4  11  23  37  55  83 115 150 189 233 287 346
#     4  10  23  41  62  88 119 154 197 245 295 351
#     4  11  23  38  59  91 121 150 196 247 290 343
#     4  10  20  32  48  75 110 149 189 224 270 331
#     4  10  20  38  60  84 116 154 193 235 286 349
#     4  10  19  34  55  79 111 151 191 231 279 341
#
# _framework density 19.278779
#
# number of rings (size 3 to 8) (size 9 to 14) (size 15 to 20)
#    0.000    1.750    2.500    1.875    0.000    5.000 
#    0.000    0.625    0.000    3.000    0.000    0.000 
#    0.000    0.000    0.000    0.000    0.000    0.000 
#
# Total GULP energy -793364.107885 kJ/mol
# GULP energy per Si atom -12396.314186 kJ/mol
# Density = 1.923490 g / cm^3
# Si number density = 19.278779 Si / 1000 Ang^3
#
#
#
# Elastic Constant Matrix: (Units=GPa)
#
#
# Indices 1 2 3 4 5 6 
#
# 1 113.9992 51.2070 56.3920 0.0000 0.0000 0.0000
# 2 51.2070 87.1414 52.6994 0.0000 0.0000 0.0000
# 3 56.3920 52.6994 104.2698 0.0000 0.0000 0.0000
# 4 0.0000 0.0000 0.0000 32.3857 0.0000 0.0000
# 5 0.0000 0.0000 0.0000 0.0000 27.4440 0.0000
# 6 0.0000 0.0000 0.0000 0.0000 0.0000 19.3626
#
#
#
# Elastic Compliance Matrix: (Units=1/GPa)
#
#
# Indices 1 2 3 4 5 6 
#
# 1 0.013337 -0.005005 -0.004683 0.000000 0.000000 0.000000
# 2 -0.005005 0.018405 -0.006596 0.000000 0.000000 0.000000
# 3 -0.004683 -0.006596 0.015457 0.000000 0.000000 0.000000
# 4 0.000000 0.000000 0.000000 0.030878 0.000000 0.000000
# 5 0.000000 0.000000 0.000000 0.000000 0.036438 0.000000
# 6 0.000000 0.000000 0.000000 0.000000 0.000000 0.051646
#
#
# Mechanical properties :
#
#
# Convention : Reuss Voigt Hill
#
# Bulk Modulus (GPa) = 68.34583 69.55635 68.95109
# Shear Modulus (GPa) = 24.55730 25.51259 25.03494
#
# Velocity S-wave (km/s) = 3.57290 3.64174 3.60748
# Velocity P-wave (km/s) = 7.24908 7.33761 7.29348
#
# Compressibility (1/GPa) = 0.01463147
#
# Stress axis : x y z
#
# Youngs Moduli (GPa) = 74.98030 54.33221 64.69597
#
# Poissons Ratio (x) = 0.27192 0.30300
# Poissons Ratio (y) = 0.37526 0.42671
# Poissons Ratio (z) = 0.35117 0.35835
#
# Static dielectric constant tensor:
#      x y z
#    x 3.592440 0.000000 0.000000 
#    y 0.000000 3.464330 0.000000 
#    z 0.000000 0.000000 3.509980 
# 
# 
# High freq. dielectric constant tensor:
#      x y z
#    x 1.754550 0.000000 0.000000 
#    y 0.000000 1.744120 0.000000 
#    z 0.000000 0.000000 1.745240 
# 
# From -- ./inp_files/8399.got.cif
#   From: 2010.03.12/outbox.cif.g09.slc.cpg/sg57_5_cif.got.tgz:8399.got - 2010.04.16 15:48:40.
