data_PCOD8231809
_publ_section_title
;
Structure prediction by ZEFSAII (Michael W. Deem and Ramdas Pophale) SiO2 
 PCOD8231809
Probable space group: P B C M
;
_chemical_formula_sum "Si O2"
_cell_formula_units_Z 56
_cell_length_a 9.089357
_cell_length_b 14.951293
_cell_length_c 19.809677
_cell_angle_alpha 90.000000
_cell_angle_beta 90.000000
_cell_angle_gamma 90.000000
_cell_volume 2692.088347
_symmetry_space_group_name_H-M "P B C M"
_symmetry_group_IT_number 57
_symmetry_cell_setting 'orthorhombic'
loop_
_space_group_symop_operation_xyz
x,y,z
-x,-y,1/2+z
x,1/2-y,-z
-x,1/2+y,1/2-z
-x,-y,-z
x,y,1/2-z
-x,1/2+y,z
x,1/2-y,1/2+z
loop_
_atom_site_type_symbol
_atom_site_label
_atom_site_fract_x
_atom_site_fract_y
_atom_site_fract_z
Si Si1 0.286366 0.175508 0.050644
Si Si2 0.316868 0.799008 0.433136
Si Si3 0.822283 0.873204 0.324162
Si Si4 0.445220 0.248883 0.671368
Si Si5 0.937124 0.036680 0.100030
Si Si6 0.011086 0.773294 0.891763
Si Si7 0.220934 0.517212 0.963997
O O1 0.362187 0.177411 0.124919
O O2 0.112506 0.197504 0.053847
O O3 0.307524 0.075731 0.020346
O O4 0.357237 0.250000 0.000000
O O5 0.381117 0.750000 0.500000
O O6 0.398761 0.770209 0.364198
O O7 0.144453 0.777742 0.427044
O O8 0.335195 0.906145 0.441418
O O9 0.858483 0.906487 0.250000
O O10 0.654939 0.839796 0.331168
O O11 0.936404 0.793182 0.338659
O O12 0.835467 0.960499 0.369159
O O13 0.465994 0.280418 0.750000
O O14 0.932163 0.131792 0.140455
O O15 0.869036 0.056416 0.026860
O O16 0.105093 0.002278 0.096308
#
# Coordination Sequence:
#
# PCOD8231809 Si02
#       7
#     8   8   8   8   8   8   8
#     4  10  20  39  66  93 116 160 206 249 299 368
#     4  12  22  39  61  96 123 156 200 254 313 370
#     4  10  21  40  61  82 118 167 209 243 296 373
#     4  10  24  44  60  80 124 170 204 248 302 361
#     4  10  19  34  60  96 121 149 193 255 310 356
#     4  10  20  35  62  93 122 149 194 257 313 355
#     4  10  20  34  63  93 125 151 192 255 315 363
#
# _framework density 20.801696
#
# number of rings (size 3 to 8) (size 9 to 14) (size 15 to 20)
#    0.000    1.714    2.857    2.571    2.000    1.143 
#    2.571    5.000    0.000    0.000    0.000    0.000 
#    0.000    0.000    0.000    0.000    0.000    0.000 
#
# Total GULP energy -694015.692339 kJ/mol
# GULP energy per Si atom -12393.137363 kJ/mol
# Density = 2.075435 g / cm^3
# Si number density = 20.801696 Si / 1000 Ang^3
#
#
#
# Elastic Constant Matrix: (Units=GPa)
#
#
# Indices 1 2 3 4 5 6 
#
# 1 73.6508 29.3692 34.6466 0.0000 0.0000 0.0000
# 2 29.3692 130.7554 29.6446 0.0000 0.0000 0.0000
# 3 34.6466 29.6446 99.0199 0.0000 0.0000 0.0000
# 4 0.0000 0.0000 0.0000 22.0523 0.0000 0.0000
# 5 0.0000 0.0000 0.0000 0.0000 21.4189 0.0000
# 6 0.0000 0.0000 0.0000 0.0000 0.0000 15.6997
#
#
#
# Elastic Compliance Matrix: (Units=1/GPa)
#
#
# Indices 1 2 3 4 5 6 
#
# 1 0.017074 -0.002661 -0.005178 0.000000 0.000000 0.000000
# 2 -0.002661 0.008620 -0.001649 0.000000 0.000000 0.000000
# 3 -0.005178 -0.001649 0.012404 0.000000 0.000000 0.000000
# 4 0.000000 0.000000 0.000000 0.045347 0.000000 0.000000
# 5 0.000000 0.000000 0.000000 0.000000 0.046688 0.000000
# 6 0.000000 0.000000 0.000000 0.000000 0.000000 0.063696
#
#
# Mechanical properties :
#
#
# Convention : Reuss Voigt Hill
#
# Bulk Modulus (GPa) = 52.29578 54.52745 53.41162
# Shear Modulus (GPa) = 22.81243 25.81855 24.31549
#
# Velocity S-wave (km/s) = 3.31518 3.52685 3.42265
# Velocity P-wave (km/s) = 6.31258 6.54636 6.43053
#
# Compressibility (1/GPa) = 0.01912200
#
# Stress axis : x y z
#
# Youngs Moduli (GPa) = 58.56723 116.01522 80.61688
#
# Poissons Ratio (x) = 0.30875 0.41740
# Poissons Ratio (y) = 0.15586 0.13297
# Poissons Ratio (z) = 0.30323 0.19135
#
# Static dielectric constant tensor:
#      x y z
#    x 3.598900 0.000000 0.000000 
#    y 0.000000 3.903460 0.000000 
#    z 0.000000 0.000000 3.607640 
# 
# 
# High freq. dielectric constant tensor:
#      x y z
#    x 1.805800 0.000000 0.000000 
#    y 0.000000 1.819880 0.000000 
#    z 0.000000 0.000000 1.784800 
# 
# From -- ./inp_files/24418.got.cif
#   From: 2010.03.12/outbox.cif.g09.slc.cpg/sg57_13_cif.got.tgz:24418.got - 2010.04.16 15:48:40.
