data_PCOD8231589
_publ_section_title
;
Structure prediction by ZEFSAII (Michael W. Deem and Ramdas Pophale) SiO2 
 PCOD8231589
Probable space group: P B C M
;
_chemical_formula_sum "Si O2"
_cell_formula_units_Z 48
_cell_length_a 20.527818
_cell_length_b 13.562947
_cell_length_c 9.040742
_cell_angle_alpha 90.000000
_cell_angle_beta 90.000000
_cell_angle_gamma 90.000000
_cell_volume 2517.102662
_symmetry_space_group_name_H-M "P B C M"
_symmetry_group_IT_number 57
_symmetry_cell_setting 'orthorhombic'
loop_
_space_group_symop_operation_xyz
x,y,z
-x,-y,1/2+z
x,1/2-y,-z
-x,1/2+y,1/2-z
-x,-y,-z
x,y,1/2-z
-x,1/2+y,z
x,1/2-y,1/2+z
loop_
_atom_site_type_symbol
_atom_site_label
_atom_site_fract_x
_atom_site_fract_y
_atom_site_fract_z
Si Si1 0.965743 0.853167 0.423126
Si Si2 0.776222 0.353084 0.423437
Si Si3 0.907028 0.030093 0.579954
Si Si4 0.649470 0.061106 0.073706
Si Si5 0.526291 0.405303 0.081366
Si Si6 0.387373 0.342792 0.084308
O O1 0.951957 0.750000 0.500000
O O2 0.956075 0.839185 0.250000
O O3 0.913364 0.932674 0.480666
O O4 0.038243 0.889896 0.464617
O O5 0.792027 0.250000 0.500000
O O6 0.761839 0.337159 0.250000
O O7 0.837063 0.423805 0.450386
O O8 0.715960 0.403448 0.503569
O O9 0.916257 0.999124 0.750000
O O10 0.650238 0.072747 0.250000
O O11 0.636895 0.948123 0.021390
O O12 0.590919 0.129514 0.007706
O O13 0.545860 0.429714 0.250000
O O14 0.466081 0.329278 0.077342
O O15 0.500000 0.500000 0.000000
O O16 0.361643 0.335316 0.250000
O O17 0.355561 0.250000 0.000000
#
# Coordination Sequence:
#
# PCOD8231589 Si02
#       6
#     8   8   8   8   8   8
#     4  10  19  33  57  86 116 148 182 225 272 319
#     4  11  23  39  59  81 107 142 180 221 270 325
#     4   9  20  37  56  82 114 147 185 225 269 322
#     4  10  21  37  54  77 108 141 181 226 269 321
#     4   9  17  31  50  74 102 134 173 220 273 322
#     4   9  19  33  52  77 104 135 173 218 268 321
#
# _framework density 19.069544
#
# number of rings (size 3 to 8) (size 9 to 14) (size 15 to 20)
#    0.000    2.333    0.000    3.500    0.000    6.667 
#    0.000    2.500    0.000    2.000    0.000    0.000 
#    0.000    0.000    0.000    0.000    0.000    0.000 
#
# Total GULP energy -595030.219557 kJ/mol
# GULP energy per Si atom -12396.462907 kJ/mol
# Density = 1.902614 g / cm^3
# Si number density = 19.069544 Si / 1000 Ang^3
#
#
#
# Elastic Constant Matrix: (Units=GPa)
#
#
# Indices 1 2 3 4 5 6 
#
# 1 89.6383 25.2208 43.3268 0.0000 0.0000 0.0000
# 2 25.2208 95.9974 55.0373 0.0000 0.0000 0.0000
# 3 43.3268 55.0373 116.2821 0.0000 0.0000 0.0000
# 4 0.0000 0.0000 0.0000 34.6336 0.0000 0.0000
# 5 0.0000 0.0000 0.0000 0.0000 29.8841 0.0000
# 6 0.0000 0.0000 0.0000 0.0000 0.0000 16.0279
#
#
#
# Elastic Compliance Matrix: (Units=1/GPa)
#
#
# Indices 1 2 3 4 5 6 
#
# 1 0.013665 -0.000921 -0.004656 0.000000 0.000000 0.000000
# 2 -0.000921 0.014358 -0.006453 0.000000 0.000000 0.000000
# 3 -0.004656 -0.006453 0.013389 0.000000 0.000000 0.000000
# 4 0.000000 0.000000 0.000000 0.028874 0.000000 0.000000
# 5 0.000000 0.000000 0.000000 0.000000 0.033463 0.000000
# 6 0.000000 0.000000 0.000000 0.000000 0.000000 0.062391
#
#
# Mechanical properties :
#
#
# Convention : Reuss Voigt Hill
#
# Bulk Modulus (GPa) = 57.62569 61.00974 59.31771
# Shear Modulus (GPa) = 25.51230 27.99798 26.75514
#
# Velocity S-wave (km/s) = 3.66164 3.83587 3.74977
# Velocity P-wave (km/s) = 6.93982 7.18897 7.06549
#
# Compressibility (1/GPa) = 0.01735337
#
# Stress axis : x y z
#
# Youngs Moduli (GPa) = 73.17699 69.64543 74.68963
#
# Poissons Ratio (x) = 0.06414 0.34775
# Poissons Ratio (y) = 0.06739 0.48196
# Poissons Ratio (z) = 0.34070 0.44941
#
# Static dielectric constant tensor:
#      x y z
#    x 3.493050 0.000000 0.000000 
#    y 0.000000 3.392780 0.000000 
#    z 0.000000 0.000000 3.886640 
# 
# 
# High freq. dielectric constant tensor:
#      x y z
#    x 1.727600 0.000000 0.000000 
#    y 0.000000 1.735630 0.000000 
#    z 0.000000 0.000000 1.753500 
# 
# From -- ./inp_files/7861.got.cif
#   From: 2010.03.12/outbox.cif.g09.slc.cpg/sg57_4_cif.got.tgz:7861.got - 2010.04.16 15:48:40.
