data_PCOD8231914
_publ_section_title
;
Structure prediction by ZEFSAII (Michael W. Deem and Ramdas Pophale) SiO2 
 PCOD8231914
Probable space group: P B C M
;
_chemical_formula_sum "Si O2"
_cell_formula_units_Z 64
_cell_length_a 15.313221
_cell_length_b 11.697421
_cell_length_c 17.322628
_cell_angle_alpha 90.000000
_cell_angle_beta 90.000000
_cell_angle_gamma 90.000000
_cell_volume 3102.919082
_symmetry_space_group_name_H-M "P B C M"
_symmetry_group_IT_number 57
_symmetry_cell_setting 'orthorhombic'
loop_
_space_group_symop_operation_xyz
x,y,z
-x,-y,1/2+z
x,1/2-y,-z
-x,1/2+y,1/2-z
-x,-y,-z
x,y,1/2-z
-x,1/2+y,z
x,1/2-y,1/2+z
loop_
_atom_site_type_symbol
_atom_site_label
_atom_site_fract_x
_atom_site_fract_y
_atom_site_fract_z
Si Si1 0.182053 0.572478 0.161838
Si Si2 0.244411 0.966069 0.336413
Si Si3 0.094828 0.159661 0.837548
Si Si4 0.265956 0.217205 0.341989
Si Si5 0.384464 0.682276 0.604113
Si Si6 0.095623 0.692074 0.658159
Si Si7 0.342840 0.578162 0.056910
Si Si8 0.578297 0.836049 0.428488
O O1 0.219966 0.580578 0.250000
O O2 0.108749 0.475613 0.158693
O O3 0.136958 0.688100 0.134365
O O4 0.253858 0.539985 0.098141
O O5 0.217416 0.998295 0.250000
O O6 0.269048 0.087575 0.375799
O O7 0.326602 0.878781 0.330484
O O8 0.159616 0.906664 0.376012
O O9 0.088419 0.203639 0.750000
O O10 0.176622 0.226886 0.875356
O O11 0.001567 0.184305 0.878571
O O12 0.271175 0.226267 0.250000
O O13 0.348830 0.286769 0.372166
O O14 0.335586 0.632520 0.527838
O O15 0.381712 0.820208 0.610420
O O16 0.485448 0.650540 0.613761
O O17 0.091007 0.679452 0.750000
O O18 0.401527 0.465713 0.047261
O O19 0.566032 0.750000 0.500000
#
# Coordination Sequence:
#
# PCOD8231914 Si02
#       8
#     8   8   8   8   8   8   8   8
#     4  10  19  35  59  88 119 151 193 240 284 338
#     4  10  21  38  58  86 120 152 191 238 290 345
#     4   9  18  33  54  85 118 150 189 234 281 334
#     4  10  22  38  57  85 120 152 186 236 293 340
#     4  11  24  39  61  84 112 151 195 240 291 343
#     4   9  18  31  55  85 115 153 190 229 281 336
#     4  11  22  39  60  85 114 150 197 240 289 337
#     4  12  24  40  63  83 113 151 197 238 285 352
#
# _framework density 20.625738999999999
#
# number of rings (size 3 to 8) (size 9 to 14) (size 15 to 20)
#    0.000    1.750    3.750    1.125    3.500    0.500 
#    0.000    0.000    0.000    2.250    0.000    0.000 
#    0.000    0.000    0.000    0.000    0.000    0.000 
#
# Total GULP energy -793096.256430 kJ/mol
# GULP energy per Si atom -12392.129007 kJ/mol
# Density = 2.057879 g / cm^3
# Si number density = 20.625739 Si / 1000 Ang^3
#
#
#
# Elastic Constant Matrix: (Units=GPa)
#
#
# Indices 1 2 3 4 5 6 
#
# 1 155.3412 36.0895 21.2696 0.0000 0.0000 0.0000
# 2 36.0895 131.7315 7.9857 0.0000 0.0000 0.0000
# 3 21.2696 7.9857 19.1083 0.0000 0.0000 0.0000
# 4 0.0000 0.0000 0.0000 21.9381 0.0000 0.0000
# 5 0.0000 0.0000 0.0000 0.0000 17.4853 0.0000
# 6 0.0000 0.0000 0.0000 0.0000 0.0000 28.9430
#
#
#
# Elastic Compliance Matrix: (Units=1/GPa)
#
#
# Indices 1 2 3 4 5 6 
#
# 1 0.007943 -0.001683 -0.008138 0.000000 0.000000 0.000000
# 2 -0.001683 0.008145 -0.001531 0.000000 0.000000 0.000000
# 3 -0.008138 -0.001531 0.062031 0.000000 0.000000 0.000000
# 4 0.000000 0.000000 0.000000 0.045583 0.000000 0.000000
# 5 0.000000 0.000000 0.000000 0.000000 0.057191 0.000000
# 6 0.000000 0.000000 0.000000 0.000000 0.000000 0.034551
#
#
# Mechanical properties :
#
#
# Convention : Reuss Voigt Hill
#
# Bulk Modulus (GPa) = 18.04529 48.54116 33.29323
# Shear Modulus (GPa) = 19.48423 29.72904 24.60664
#
# Velocity S-wave (km/s) = 3.07686 3.80064 3.45774
# Velocity P-wave (km/s) = 4.62500 6.54562 5.66727
#
# Compressibility (1/GPa) = 0.05541613
#
# Stress axis : x y z
#
# Youngs Moduli (GPa) = 125.90349 122.77479 16.12091
#
# Poissons Ratio (x) = 0.20659 0.13119
# Poissons Ratio (y) = 0.21185 0.02468
# Poissons Ratio (z) = 1.02457 0.18796
#
# Static dielectric constant tensor:
#      x y z
#    x 3.906960 0.000000 0.000000 
#    y 0.000000 4.060560 0.000000 
#    z 0.000000 0.000000 3.322980 
# 
# 
# High freq. dielectric constant tensor:
#      x y z
#    x 1.811680 0.000000 0.000000 
#    y 0.000000 1.829900 0.000000 
#    z 0.000000 0.000000 1.755790 
# 
# From -- ./inp_files/22659.got.cif
#   From: 2010.03.12/outbox.cif.g09.slc.cpg/sg57_12_cif.got.tgz:22659.got - 2010.04.16 15:48:40.
