data_PCOD8231779
_publ_section_title
;
Structure prediction by ZEFSAII (Michael W. Deem and Ramdas Pophale) SiO2 
 PCOD8231779
Probable space group: P B C M
;
_chemical_formula_sum "Si O2"
_cell_formula_units_Z 64
_cell_length_a 23.359852
_cell_length_b 14.684324
_cell_length_c 9.158362
_cell_angle_alpha 90.000000
_cell_angle_beta 90.000000
_cell_angle_gamma 90.000000
_cell_volume 3141.534627
_symmetry_space_group_name_H-M "P B C M"
_symmetry_group_IT_number 57
_symmetry_cell_setting 'orthorhombic'
loop_
_space_group_symop_operation_xyz
x,y,z
-x,-y,1/2+z
x,1/2-y,-z
-x,1/2+y,1/2-z
-x,-y,-z
x,y,1/2-z
-x,1/2+y,z
x,1/2-y,1/2+z
loop_
_atom_site_type_symbol
_atom_site_label
_atom_site_fract_x
_atom_site_fract_y
_atom_site_fract_z
Si Si1 0.601693 0.167304 0.911119
Si Si2 0.256609 0.035040 0.419759
Si Si3 0.872820 0.969556 0.584336
Si Si4 0.650130 0.845452 0.079779
Si Si5 0.045207 0.340656 0.078596
Si Si6 0.560263 0.500699 0.920058
Si Si7 0.084619 0.837293 0.417175
Si Si8 0.266548 0.667459 0.909302
O O1 0.572538 0.156398 0.750000
O O2 0.667351 0.192154 0.887961
O O3 0.571300 0.250000 0.000000
O O4 0.598846 0.075580 0.004354
O O5 0.276402 0.036317 0.250000
O O6 0.295801 0.102183 0.512572
O O7 0.191267 0.068301 0.436787
O O8 0.260747 0.932058 0.483246
O O9 0.894115 0.951870 0.750000
O O10 0.873682 0.077834 0.552048
O O11 0.915485 0.923422 0.471867
O O12 0.662819 0.828540 0.250000
O O13 0.592036 0.903112 0.058189
O O14 0.640957 0.750000 0.000000
O O15 0.052323 0.327950 0.250000
O O16 0.979974 0.361574 0.031157
O O17 0.067747 0.250000 0.000000
O O18 0.552096 0.477721 0.750000
O O19 0.500000 0.500000 0.000000
O O20 0.109548 0.750000 0.500000
O O21 0.082836 0.809449 0.250000
O O22 0.236134 0.664602 0.750000
O O23 0.237438 0.750000 0.000000
#
# Coordination Sequence:
#
# PCOD8231779 Si02
#       8
#     8   8   8   8   8   8   8   8
#     4  10  19  34  58  86 118 152 187 231 281 337
#     4  10  21  39  60  84 117 157 196 240 292 345
#     4  10  21  36  56  83 116 151 193 243 294 347
#     4  11  25  44  67  91 118 156 201 244 291 345
#     4  10  20  35  56  80 110 148 193 243 297 352
#     4  11  24  41  63  92 123 156 195 242 292 346
#     4   9  19  35  55  82 115 152 192 238 293 354
#     4   9  18  32  54  82 111 146 184 225 277 335
#
# _framework density 20.372209000000002
#
# number of rings (size 3 to 8) (size 9 to 14) (size 15 to 20)
#    0.000    2.000    1.250    1.875    0.000    5.500 
#    0.000    1.250    0.000    0.000    0.000    0.000 
#    0.000    0.000    0.000    0.000    0.000    0.000 
#
# Total GULP energy -793605.136825 kJ/mol
# GULP energy per Si atom -12400.080263 kJ/mol
# Density = 2.032584 g / cm^3
# Si number density = 20.372209 Si / 1000 Ang^3
#
#
#
# Elastic Constant Matrix: (Units=GPa)
#
#
# Indices 1 2 3 4 5 6 
#
# 1 72.5939 25.0032 38.5898 0.0000 0.0000 0.0000
# 2 25.0032 120.8088 66.2240 0.0000 0.0000 0.0000
# 3 38.5898 66.2240 124.9957 0.0000 0.0000 0.0000
# 4 0.0000 0.0000 0.0000 41.8248 0.0000 0.0000
# 5 0.0000 0.0000 0.0000 0.0000 18.0868 0.0000
# 6 0.0000 0.0000 0.0000 0.0000 0.0000 10.8361
#
#
#
# Elastic Compliance Matrix: (Units=1/GPa)
#
#
# Indices 1 2 3 4 5 6 
#
# 1 0.016546 -0.000880 -0.004642 0.000000 0.000000 0.000000
# 2 -0.000880 0.011712 -0.005934 0.000000 0.000000 0.000000
# 3 -0.004642 -0.005934 0.012577 0.000000 0.000000 0.000000
# 4 0.000000 0.000000 0.000000 0.023909 0.000000 0.000000
# 5 0.000000 0.000000 0.000000 0.000000 0.055289 0.000000
# 6 0.000000 0.000000 0.000000 0.000000 0.000000 0.092284
#
#
# Mechanical properties :
#
#
# Convention : Reuss Voigt Hill
#
# Bulk Modulus (GPa) = 55.79023 64.22583 60.00803
# Shear Modulus (GPa) = 20.72939 26.72164 23.72551
#
# Velocity S-wave (km/s) = 3.19334 3.62563 3.41633
# Velocity P-wave (km/s) = 6.40636 7.00868 6.71428
#
# Compressibility (1/GPa) = 0.01792428
#
# Stress axis : x y z
#
# Youngs Moduli (GPa) = 60.43777 85.38033 79.50919
#
# Poissons Ratio (x) = 0.07511 0.36909
# Poissons Ratio (y) = 0.05317 0.47178
# Poissons Ratio (z) = 0.28056 0.50662
#
# Static dielectric constant tensor:
#      x y z
#    x 3.509540 0.000000 0.000000 
#    y 0.000000 3.736170 0.000000 
#    z 0.000000 0.000000 3.893630 
# 
# 
# High freq. dielectric constant tensor:
#      x y z
#    x 1.785990 0.000000 0.000000 
#    y 0.000000 1.797520 0.000000 
#    z 0.000000 0.000000 1.797920 
# 
# From -- ./inp_files/9290.got.cif
#   From: 2010.03.12/outbox.cif.g09.slc.cpg/sg57_5_cif.got.tgz:9290.got - 2010.04.16 15:48:40.
