data_PCOD8231953
_publ_section_title
;
Structure prediction by ZEFSAII (Michael W. Deem and Ramdas Pophale) SiO2 
 PCOD8231953
Probable space group: P B C M
;
_chemical_formula_sum "Si O2"
_cell_formula_units_Z 48
_cell_length_a 9.638785
_cell_length_b 30.608332
_cell_length_c 8.719538
_cell_angle_alpha 90.000000
_cell_angle_beta 90.000000
_cell_angle_gamma 90.000000
_cell_volume 2572.500283
_symmetry_space_group_name_H-M "P B C M"
_symmetry_group_IT_number 57
_symmetry_cell_setting 'orthorhombic'
loop_
_space_group_symop_operation_xyz
x,y,z
-x,-y,1/2+z
x,1/2-y,-z
-x,1/2+y,1/2-z
-x,-y,-z
x,y,1/2-z
-x,1/2+y,z
x,1/2-y,1/2+z
loop_
_atom_site_type_symbol
_atom_site_label
_atom_site_fract_x
_atom_site_fract_y
_atom_site_fract_z
Si Si1 0.086493 0.138115 0.430186
Si Si2 0.682767 0.702465 0.431061
Si Si3 0.208113 0.888359 0.570649
Si Si4 0.702137 0.934124 0.567778
Si Si5 0.505596 0.129020 0.930368
Si Si6 0.147596 0.511198 0.071208
O O1 0.080382 0.131461 0.250000
O O2 0.165369 0.182932 0.474600
O O3 0.174105 0.097068 0.493823
O O4 0.928991 0.137295 0.490991
O O5 0.669114 0.750000 0.500000
O O6 0.662412 0.704188 0.250000
O O7 0.563484 0.672074 0.499197
O O8 0.236461 0.879679 0.750000
O O9 0.332695 0.869415 0.470898
O O10 0.186700 0.939206 0.537135
O O11 0.690913 0.935214 0.750000
O O12 0.558279 0.915236 0.502065
O O13 0.730573 0.982357 0.504289
O O14 0.483076 0.129087 0.750000
O O15 0.139472 0.501289 0.250000
O O16 0.000000 0.500000 0.000000
#
# Coordination Sequence:
#
# PCOD8231953 Si02
#       6
#     8   8   8   8   8   8
#     4   8  16  33  57  81 107 142 183 225 274 328
#     4  10  20  38  64  89 113 144 181 227 279 342
#     4  10  20  37  56  79 113 155 192 231 282 336
#     4  10  19  36  57  79 109 151 194 237 284 333
#     4  11  23  38  56  84 115 149 191 236 286 342
#     4  11  21  33  54  82 113 151 198 243 283 331
#
# _framework density 18.658891000000001
#
# number of rings (size 3 to 8) (size 9 to 14) (size 15 to 20)
#    0.000    2.000    1.667    4.000    0.000    2.000 
#    0.000    2.500    0.000    2.000    0.000    0.000 
#    0.000    0.000    0.000    0.000    0.000    0.000 
#
# Total GULP energy -595206.521411 kJ/mol
# GULP energy per Si atom -12400.135863 kJ/mol
# Density = 1.861642 g / cm^3
# Si number density = 18.658891 Si / 1000 Ang^3
#
#
#
# Elastic Constant Matrix: (Units=GPa)
#
#
# Indices 1 2 3 4 5 6 
#
# 1 132.9257 47.9932 48.1790 0.0000 0.0000 0.0000
# 2 47.9932 93.6618 55.8890 0.0000 0.0000 0.0000
# 3 48.1790 55.8890 105.6886 0.0000 0.0000 0.0000
# 4 0.0000 0.0000 0.0000 28.9919 0.0000 0.0000
# 5 0.0000 0.0000 0.0000 0.0000 27.8128 0.0000
# 6 0.0000 0.0000 0.0000 0.0000 0.0000 22.5274
#
#
#
# Elastic Compliance Matrix: (Units=1/GPa)
#
#
# Indices 1 2 3 4 5 6 
#
# 1 0.009704 -0.003408 -0.002621 0.000000 0.000000 0.000000
# 2 -0.003408 0.016796 -0.007328 0.000000 0.000000 0.000000
# 3 -0.002621 -0.007328 0.014532 0.000000 0.000000 0.000000
# 4 0.000000 0.000000 0.000000 0.034492 0.000000 0.000000
# 5 0.000000 0.000000 0.000000 0.000000 0.035955 0.000000
# 6 0.000000 0.000000 0.000000 0.000000 0.000000 0.044390
#
#
# Mechanical properties :
#
#
# Convention : Reuss Voigt Hill
#
# Bulk Modulus (GPa) = 69.85045 70.71094 70.28070
# Shear Modulus (GPa) = 26.68720 27.88076 27.28398
#
# Velocity S-wave (km/s) = 3.78599 3.86973 3.82809
# Velocity P-wave (km/s) = 7.52518 7.61218 7.56881
#
# Compressibility (1/GPa) = 0.01431630
#
# Stress axis : x y z
#
# Youngs Moduli (GPa) = 103.05502 59.53853 68.81429
#
# Poissons Ratio (x) = 0.20291 0.18038
# Poissons Ratio (y) = 0.35122 0.50428
# Poissons Ratio (z) = 0.27013 0.43631
#
# Static dielectric constant tensor:
#      x y z
#    x 3.656960 0.000000 0.000000 
#    y 0.000000 3.400070 0.000000 
#    z 0.000000 0.000000 3.346810 
# 
# 
# High freq. dielectric constant tensor:
#      x y z
#    x 1.728180 0.000000 0.000000 
#    y 0.000000 1.712070 0.000000 
#    z 0.000000 0.000000 1.719990 
# 
# From -- ./inp_files/2042.got.cif
#   From: 2010.03.12/outbox.cif.g09.slc.cpg/sg57_2_cif.got.tgz:2042.got - 2010.04.16 15:48:40.
