data_PCOD8231665
_publ_section_title
;
Structure prediction by ZEFSAII (Michael W. Deem and Ramdas Pophale) SiO2 
 PCOD8231665
Probable space group: P B C M
;
_chemical_formula_sum "Si O2"
_cell_formula_units_Z 64
_cell_length_a 11.151464
_cell_length_b 33.558117
_cell_length_c 8.850036
_cell_angle_alpha 90.000000
_cell_angle_beta 90.000000
_cell_angle_gamma 90.000000
_cell_volume 3311.879355
_symmetry_space_group_name_H-M "P B C M"
_symmetry_group_IT_number 57
_symmetry_cell_setting 'orthorhombic'
loop_
_space_group_symop_operation_xyz
x,y,z
-x,-y,1/2+z
x,1/2-y,-z
-x,1/2+y,1/2-z
-x,-y,-z
x,y,1/2-z
-x,1/2+y,z
x,1/2-y,1/2+z
loop_
_atom_site_type_symbol
_atom_site_label
_atom_site_fract_x
_atom_site_fract_y
_atom_site_fract_z
Si Si1 0.794562 0.789770 0.072349
Si Si2 0.311620 0.370632 0.079225
Si Si3 0.552180 0.564241 0.425825
Si Si4 0.141327 0.871950 0.928148
Si Si5 0.213697 0.017023 0.076107
Si Si6 0.930874 0.580434 0.920559
Si Si7 0.068160 0.708745 0.929583
Si Si8 0.305064 0.932595 0.424917
O O1 0.794951 0.785153 0.250000
O O2 0.708762 0.825713 0.021162
O O3 0.930684 0.797062 0.017080
O O4 0.740274 0.750000 0.000000
O O5 0.362538 0.371682 0.250000
O O6 0.183676 0.391605 0.074145
O O7 0.406364 0.390952 0.967557
O O8 0.521975 0.561460 0.250000
O O9 0.657026 0.534035 0.476079
O O10 0.435030 0.553016 0.520353
O O11 0.140436 0.865898 0.750000
O O12 0.141565 0.828760 0.006565
O O13 0.262130 0.894668 0.978899
O O14 0.030652 0.899449 0.976547
O O15 0.193468 0.028695 0.250000
O O16 0.212969 0.969510 0.050972
O O17 0.105945 0.036577 0.980360
O O18 0.981029 0.576287 0.750000
O O19 0.082008 0.710015 0.750000
O O20 0.118654 0.750000 0.000000
O O21 0.311547 0.920730 0.250000
#
# Coordination Sequence:
#
# PCOD8231665 Si02
#       8
#     8   8   8   8   8   8   8   8
#     4   9  17  29  48  77 111 140 173 213 260 319
#     4   9  17  32  52  76 107 142 176 215 266 324
#     4  10  20  35  56  82 107 134 178 231 275 325
#     4  12  24  37  55  80 113 149 186 230 274 325
#     4   9  20  37  57  82 109 139 180 228 278 331
#     4  10  19  34  55  79 109 145 182 222 274 330
#     4  10  19  35  56  83 114 146 183 222 268 321
#     4  11  23  39  57  77 106 146 187 228 274 327
#
# _framework density 19.324373999999999
#
# number of rings (size 3 to 8) (size 9 to 14) (size 15 to 20)
#    0.000    2.000    1.250    3.000    0.000    3.500 
#    0.000    0.000    0.000    0.750    0.000    3.500 
#    0.000    0.000    0.000    0.000    0.000    0.000 
#
# Total GULP energy -793719.558257 kJ/mol
# GULP energy per Si atom -12401.868098 kJ/mol
# Density = 1.928039 g / cm^3
# Si number density = 19.324374 Si / 1000 Ang^3
#
#
#
# Elastic Constant Matrix: (Units=GPa)
#
#
# Indices 1 2 3 4 5 6 
#
# 1 26.8013 11.7080 18.4714 0.0000 0.0000 0.0000
# 2 11.7080 112.9863 37.2526 0.0000 0.0000 0.0000
# 3 18.4714 37.2526 87.6515 0.0000 0.0000 0.0000
# 4 0.0000 0.0000 0.0000 34.9173 0.0000 0.0000
# 5 0.0000 0.0000 0.0000 0.0000 28.8313 0.0000
# 6 0.0000 0.0000 0.0000 0.0000 0.0000 15.3464
#
#
#
# Elastic Compliance Matrix: (Units=1/GPa)
#
#
# Indices 1 2 3 4 5 6 
#
# 1 0.043945 -0.001745 -0.008519 0.000000 0.000000 0.000000
# 2 -0.001745 0.010362 -0.004036 0.000000 0.000000 0.000000
# 3 -0.008519 -0.004036 0.014920 0.000000 0.000000 0.000000
# 4 0.000000 0.000000 0.000000 0.028639 0.000000 0.000000
# 5 0.000000 0.000000 0.000000 0.000000 0.034685 0.000000
# 6 0.000000 0.000000 0.000000 0.000000 0.000000 0.065162
#
#
# Mechanical properties :
#
#
# Convention : Reuss Voigt Hill
#
# Bulk Modulus (GPa) = 24.61467 40.25590 32.43529
# Shear Modulus (GPa) = 20.84584 26.48613 23.66599
#
# Velocity S-wave (km/s) = 3.28797 3.70619 3.50333
# Velocity P-wave (km/s) = 5.21341 6.26030 5.76068
#
# Compressibility (1/GPa) = 0.04062618
#
# Stress axis : x y z
#
# Youngs Moduli (GPa) = 22.75555 96.50406 67.02574
#
# Poissons Ratio (x) = 0.16839 0.57101
# Poissons Ratio (y) = 0.03971 0.27054
# Poissons Ratio (z) = 0.19386 0.38952
#
# Static dielectric constant tensor:
#      x y z
#    x 3.287930 0.000000 0.000000 
#    y 0.000000 3.736090 0.000000 
#    z 0.000000 0.000000 3.528400 
# 
# 
# High freq. dielectric constant tensor:
#      x y z
#    x 1.721350 0.000000 0.000000 
#    y 0.000000 1.758070 0.000000 
#    z 0.000000 0.000000 1.754870 
# 
# From -- ./inp_files/3789.got.cif
#   From: 2010.03.12/outbox.cif.g09.slc.cpg/sg57_2_cif.got.tgz:3789.got - 2010.04.16 15:48:40.
