data_PCOD8231507
_publ_section_title
;
Structure prediction by ZEFSAII (Michael W. Deem and Ramdas Pophale) SiO2 
 PCOD8231507
Probable space group: P B C M
;
_chemical_formula_sum "Si O2"
_cell_formula_units_Z 48
_cell_length_a 16.210041
_cell_length_b 18.634624
_cell_length_c 8.571286
_cell_angle_alpha 90.000000
_cell_angle_beta 90.000000
_cell_angle_gamma 90.000000
_cell_volume 2589.111383
_symmetry_space_group_name_H-M "P B C M"
_symmetry_group_IT_number 57
_symmetry_cell_setting 'orthorhombic'
loop_
_space_group_symop_operation_xyz
x,y,z
-x,-y,1/2+z
x,1/2-y,-z
-x,1/2+y,1/2-z
-x,-y,-z
x,y,1/2-z
-x,1/2+y,z
x,1/2-y,1/2+z
loop_
_atom_site_type_symbol
_atom_site_label
_atom_site_fract_x
_atom_site_fract_y
_atom_site_fract_z
Si Si1 0.485835 0.826796 0.065487
Si Si2 0.837733 0.327912 0.064859
Si Si3 0.236490 0.458630 0.566786
Si Si4 0.329636 0.327829 0.435031
Si Si5 0.917983 0.465536 0.933431
Si Si6 0.326612 0.902216 0.433376
O O1 0.483535 0.822595 0.250000
O O2 0.577530 0.849955 0.011580
O O3 0.416388 0.881153 0.997562
O O4 0.461847 0.750000 0.000000
O O5 0.840593 0.326235 0.250000
O O6 0.746843 0.351150 0.002024
O O7 0.861506 0.250000 0.000000
O O8 0.903573 0.386846 0.007156
O O9 0.216932 0.460365 0.750000
O O10 0.265097 0.380797 0.514018
O O11 0.154745 0.479427 0.474555
O O12 0.308362 0.515437 0.522491
O O13 0.307638 0.250000 0.500000
O O14 0.319717 0.329275 0.250000
O O15 0.925443 0.456251 0.750000
O O16 0.000000 0.500000 0.000000
O O17 0.329096 0.891645 0.250000
#
# Coordination Sequence:
#
# PCOD8231507 Si02
#       6
#     8   8   8   8   8   8
#     4   9  17  30  47  70 102 140 181 222 262 305
#     4  10  19  33  54  82 114 147 181 218 263 313
#     4  10  20  36  56  78 105 137 173 215 266 319
#     4  10  20  34  52  74 102 139 182 225 267 311
#     4  11  22  39  61  84 110 140 174 214 264 320
#     4   8  16  30  49  74 106 141 176 216 261 310
#
# _framework density 18.539179000000001
#
# number of rings (size 3 to 8) (size 9 to 14) (size 15 to 20)
#    0.000    2.333    0.000    4.500    0.000    1.333 
#    0.000    5.000    0.000    0.000    0.000    0.000 
#    0.000    0.000    0.000    0.000    0.000    0.000 
#
# Total GULP energy -595100.766150 kJ/mol
# GULP energy per Si atom -12397.932628 kJ/mol
# Density = 1.849698 g / cm^3
# Si number density = 18.539179 Si / 1000 Ang^3
#
#
#
# Elastic Constant Matrix: (Units=GPa)
#
#
# Indices 1 2 3 4 5 6 
#
# 1 84.7872 67.3611 20.5933 0.0000 0.0000 0.0000
# 2 67.3611 132.5947 32.5094 0.0000 0.0000 0.0000
# 3 20.5933 32.5094 69.4899 0.0000 0.0000 0.0000
# 4 0.0000 0.0000 0.0000 31.6280 0.0000 0.0000
# 5 0.0000 0.0000 0.0000 0.0000 23.7588 0.0000
# 6 0.0000 0.0000 0.0000 0.0000 0.0000 29.7275
#
#
#
# Elastic Compliance Matrix: (Units=1/GPa)
#
#
# Indices 1 2 3 4 5 6 
#
# 1 0.019882 -0.009778 -0.001318 0.000000 0.000000 0.000000
# 2 -0.009778 0.013327 -0.003337 0.000000 0.000000 0.000000
# 3 -0.001318 -0.003337 0.016342 0.000000 0.000000 0.000000
# 4 0.000000 0.000000 0.000000 0.031618 0.000000 0.000000
# 5 0.000000 0.000000 0.000000 0.000000 0.042090 0.000000
# 6 0.000000 0.000000 0.000000 0.000000 0.000000 0.033639
#
#
# Mechanical properties :
#
#
# Convention : Reuss Voigt Hill
#
# Bulk Modulus (GPa) = 48.34073 58.64438 53.49256
# Shear Modulus (GPa) = 25.95259 28.11673 27.03466
#
# Velocity S-wave (km/s) = 3.74555 3.89859 3.82284
# Velocity P-wave (km/s) = 6.69605 7.20880 6.95715
#
# Compressibility (1/GPa) = 0.02068649
#
# Stress axis : x y z
#
# Youngs Moduli (GPa) = 50.29594 75.03436 61.19047
#
# Poissons Ratio (x) = 0.73365 0.08064
# Poissons Ratio (y) = 0.49177 0.20421
# Poissons Ratio (z) = 0.06628 0.25041
#
# Static dielectric constant tensor:
#      x y z
#    x 3.524990 0.000000 0.000000 
#    y 0.000000 3.307440 0.000000 
#    z 0.000000 0.000000 3.329540 
# 
# 
# High freq. dielectric constant tensor:
#      x y z
#    x 1.712580 0.000000 0.000000 
#    y 0.000000 1.718880 0.000000 
#    z 0.000000 0.000000 1.716150 
# 
# From -- ./inp_files/4637.got.cif
#   From: 2010.03.12/outbox.cif.g09.slc.cpg/sg57_3_cif.got.tgz:4637.got - 2010.04.16 15:48:40.
