data_PCOD8231430
_publ_section_title
;
Structure prediction by ZEFSAII (Michael W. Deem and Ramdas Pophale) SiO2 
 PCOD8231430
Probable space group: P B C M
;
_chemical_formula_sum "Si O2"
_cell_formula_units_Z 40
_cell_length_a 13.726959
_cell_length_b 18.158505
_cell_length_c 8.427810
_cell_angle_alpha 90.000000
_cell_angle_beta 90.000000
_cell_angle_gamma 90.000000
_cell_volume 2100.724800
_symmetry_space_group_name_H-M "P B C M"
_symmetry_group_IT_number 57
_symmetry_cell_setting 'orthorhombic'
loop_
_space_group_symop_operation_xyz
x,y,z
-x,-y,1/2+z
x,1/2-y,-z
-x,1/2+y,1/2-z
-x,-y,-z
x,y,1/2-z
-x,1/2+y,z
x,1/2-y,1/2+z
loop_
_atom_site_type_symbol
_atom_site_label
_atom_site_fract_x
_atom_site_fract_y
_atom_site_fract_z
Si Si1 0.118127 0.604517 0.063301
Si Si2 0.786511 0.964176 0.935615
Si Si3 0.307174 0.673550 0.563996
Si Si4 0.598796 0.032900 0.064588
Si Si5 0.916296 0.830068 0.563257
O O1 0.112292 0.588780 0.250000
O O2 0.019478 0.641038 0.995715
O O3 0.134756 0.527474 0.973502
O O4 0.206016 0.660016 0.027188
O O5 0.762046 0.966393 0.750000
O O6 0.830903 0.885946 0.988506
O O7 0.687159 0.976497 0.032277
O O8 0.351423 0.750000 0.500000
O O9 0.287251 0.676565 0.750000
O O10 0.383890 0.609544 0.525815
O O11 0.591011 0.048607 0.250000
O O12 0.500000 0.000000 0.000000
O O13 0.889249 0.750000 0.500000
O O14 0.924808 0.826152 0.750000
#
# Coordination Sequence:
#
# PCOD8231430 Si02
#       5
#     8   8   8   8   8
#     4  10  19  33  53  80 109 144 183 221 265 318
#     4  10  20  36  55  79 107 140 180 225 270 321
#     4  11  21  35  55  83 114 144 177 223 273 320
#     4  11  22  39  61  84 107 139 179 223 273 329
#     4  10  22  35  51  76 110 147 185 222 263 312
#
# _framework density 19.041046000000001
#
# number of rings (size 3 to 8) (size 9 to 14) (size 15 to 20)
#    0.000    1.600    0.000    8.400    0.000    4.800 
#    0.000    1.000    0.000    2.400    0.000    0.000 
#    0.000    0.000    0.000    0.000    0.000    0.000 
#
# Total GULP energy -496148.703114 kJ/mol
# GULP energy per Si atom -12403.717578 kJ/mol
# Density = 1.899771 g / cm^3
# Si number density = 19.041046 Si / 1000 Ang^3
#
#
#
# Elastic Constant Matrix: (Units=GPa)
#
#
# Indices 1 2 3 4 5 6 
#
# 1 99.0512 69.1804 12.7802 0.0000 0.0000 0.0000
# 2 69.1804 149.3487 17.7122 0.0000 0.0000 0.0000
# 3 12.7802 17.7122 56.4456 0.0000 0.0000 0.0000
# 4 0.0000 0.0000 0.0000 34.8609 0.0000 0.0000
# 5 0.0000 0.0000 0.0000 0.0000 29.7679 0.0000
# 6 0.0000 0.0000 0.0000 0.0000 0.0000 18.9323
#
#
#
# Elastic Compliance Matrix: (Units=1/GPa)
#
#
# Indices 1 2 3 4 5 6 
#
# 1 0.015010 -0.006803 -0.001264 0.000000 0.000000 0.000000
# 2 -0.006803 0.010038 -0.001609 0.000000 0.000000 0.000000
# 3 -0.001264 -0.001609 0.018507 0.000000 0.000000 0.000000
# 4 0.000000 0.000000 0.000000 0.028685 0.000000 0.000000
# 5 0.000000 0.000000 0.000000 0.000000 0.033593 0.000000
# 6 0.000000 0.000000 0.000000 0.000000 0.000000 0.052820
#
#
# Mechanical properties :
#
#
# Convention : Reuss Voigt Hill
#
# Bulk Modulus (GPa) = 41.31753 56.02123 48.66938
# Shear Modulus (GPa) = 26.87096 30.39041 28.63069
#
# Velocity S-wave (km/s) = 3.76069 3.99939 3.88187
# Velocity P-wave (km/s) = 6.37207 7.12825 6.76074
#
# Compressibility (1/GPa) = 0.02420280
#
# Stress axis : x y z
#
# Youngs Moduli (GPa) = 66.62065 99.62219 54.03251
#
# Poissons Ratio (x) = 0.67774 0.06829
# Poissons Ratio (y) = 0.45323 0.08697
# Poissons Ratio (z) = 0.08420 0.16034
#
# Static dielectric constant tensor:
#      x y z
#    x 3.370900 0.000000 0.000000 
#    y 0.000000 4.006630 0.000000 
#    z 0.000000 0.000000 3.545070 
# 
# 
# High freq. dielectric constant tensor:
#      x y z
#    x 1.725190 0.000000 0.000000 
#    y 0.000000 1.744540 0.000000 
#    z 0.000000 0.000000 1.750960 
# 
# From -- ./inp_files/4395.got.cif
#   From: 2010.03.12/outbox.cif.g09.slc.cpg/sg57_3_cif.got.tgz:4395.got - 2010.04.16 15:48:40.
