data_PCOD8231511
_publ_section_title
;
Structure prediction by ZEFSAII (Michael W. Deem and Ramdas Pophale) SiO2 
 PCOD8231511
Probable space group: P B C M
;
_chemical_formula_sum "Si O2"
_cell_formula_units_Z 56
_cell_length_a 21.183325
_cell_length_b 14.207034
_cell_length_c 9.173454
_cell_angle_alpha 90.000000
_cell_angle_beta 90.000000
_cell_angle_gamma 90.000000
_cell_volume 2760.771333
_symmetry_space_group_name_H-M "P B C M"
_symmetry_group_IT_number 57
_symmetry_cell_setting 'orthorhombic'
loop_
_space_group_symop_operation_xyz
x,y,z
-x,-y,1/2+z
x,1/2-y,-z
-x,1/2+y,1/2-z
-x,-y,-z
x,y,1/2-z
-x,1/2+y,z
x,1/2-y,1/2+z
loop_
_atom_site_type_symbol
_atom_site_label
_atom_site_fract_x
_atom_site_fract_y
_atom_site_fract_z
Si Si1 0.565795 0.977468 0.924767
Si Si2 0.339337 0.347559 0.423406
Si Si3 0.771249 0.334563 0.409332
Si Si4 0.081667 0.456582 0.414888
Si Si5 0.623945 0.332605 0.092659
Si Si6 0.977777 0.152057 0.421187
Si Si7 0.777410 0.521354 0.914095
O O1 0.559684 0.962095 0.750000
O O2 0.611124 0.064104 0.970140
O O3 0.597298 0.887712 0.001638
O O4 0.500000 0.000000 0.000000
O O5 0.324674 0.250000 0.500000
O O6 0.349337 0.337038 0.250000
O O7 0.278455 0.410083 0.462539
O O8 0.803646 0.250000 0.500000
O O9 0.802922 0.335604 0.250000
O O10 0.697541 0.313378 0.395181
O O11 0.781422 0.433795 0.481008
O O12 0.056574 0.441445 0.250000
O O13 0.072413 0.567965 0.455669
O O14 0.155024 0.427387 0.426065
O O15 0.045128 0.386110 0.521636
O O16 0.591029 0.326338 0.250000
O O17 0.591169 0.250000 0.000000
O O18 0.958445 0.250000 0.500000
O O19 0.982917 0.172928 0.250000
O O20 0.765225 0.484963 0.750000
#
# Coordination Sequence:
#
# PCOD8231511 Si02
#       7
#     8   8   8   8   8   8   8
#     4  11  23  41  62  88 119 153 197 244 294 349
#     4  11  24  42  64  88 118 158 200 245 298 354
#     4  10  19  33  54  82 114 149 187 231 285 346
#     4   9  20  38  58  85 119 154 199 248 294 350
#     4   9  19  34  55  81 110 142 180 226 277 336
#     4  10  20  36  59  84 116 157 199 246 297 349
#     4  10  21  38  60  87 120 156 196 244 297 353
#
# _framework density 20.284185000000001
#
# number of rings (size 3 to 8) (size 9 to 14) (size 15 to 20)
#    0.000    2.000    1.429    1.714    0.000    5.143 
#    0.000    4.286    0.000    0.000    0.000    0.000 
#    0.000    0.000    0.000    0.000    0.000    0.000 
#
# Total GULP energy -694208.808992 kJ/mol
# GULP energy per Si atom -12396.585875 kJ/mol
# Density = 2.023802 g / cm^3
# Si number density = 20.284185 Si / 1000 Ang^3
#
#
#
# Elastic Constant Matrix: (Units=GPa)
#
#
# Indices 1 2 3 4 5 6 
#
# 1 78.7590 15.9315 32.5663 0.0000 0.0000 0.0000
# 2 15.9315 90.3829 46.5198 0.0000 0.0000 0.0000
# 3 32.5663 46.5198 110.5071 0.0000 0.0000 0.0000
# 4 0.0000 0.0000 0.0000 43.0575 0.0000 0.0000
# 5 0.0000 0.0000 0.0000 0.0000 24.6429 0.0000
# 6 0.0000 0.0000 0.0000 0.0000 0.0000 10.9846
#
#
#
# Elastic Compliance Matrix: (Units=1/GPa)
#
#
# Indices 1 2 3 4 5 6 
#
# 1 0.014473 -0.000454 -0.004074 0.000000 0.000000 0.000000
# 2 -0.000454 0.014139 -0.005818 0.000000 0.000000 0.000000
# 3 -0.004074 -0.005818 0.012699 0.000000 0.000000 0.000000
# 4 0.000000 0.000000 0.000000 0.023225 0.000000 0.000000
# 5 0.000000 0.000000 0.000000 0.000000 0.040580 0.000000
# 6 0.000000 0.000000 0.000000 0.000000 0.000000 0.091037
#
#
# Mechanical properties :
#
#
# Convention : Reuss Voigt Hill
#
# Bulk Modulus (GPa) = 48.50048 52.18715 50.34381
# Shear Modulus (GPa) = 22.34958 28.04575 25.19767
#
# Velocity S-wave (km/s) = 3.32297 3.72242 3.52836
# Velocity P-wave (km/s) = 6.21975 6.65275 6.43989
#
# Compressibility (1/GPa) = 0.02061835
#
# Stress axis : x y z
#
# Youngs Moduli (GPa) = 69.09201 70.72823 78.74629
#
# Poissons Ratio (x) = 0.03213 0.32082
# Poissons Ratio (y) = 0.03139 0.45815
# Poissons Ratio (z) = 0.28149 0.41150
#
# Static dielectric constant tensor:
#      x y z
#    x 3.541930 0.000000 0.000000 
#    y 0.000000 3.703330 0.000000 
#    z 0.000000 0.000000 3.969830 
# 
# 
# High freq. dielectric constant tensor:
#      x y z
#    x 1.779070 0.000000 0.000000 
#    y 0.000000 1.790760 0.000000 
#    z 0.000000 0.000000 1.803150 
# 
# From -- ./inp_files/8013.got.cif
#   From: 2010.03.12/outbox.cif.g09.slc.cpg/sg57_5_cif.got.tgz:8013.got - 2010.04.16 15:48:40.
