data_PCOD8231534
_publ_section_title
;
Structure prediction by ZEFSAII (Michael W. Deem and Ramdas Pophale) SiO2 
 PCOD8231534
Probable space group: P B C M
;
_chemical_formula_sum "Si O2"
_cell_formula_units_Z 48
_cell_length_a 15.462033
_cell_length_b 9.067694
_cell_length_c 17.048152
_cell_angle_alpha 90.000000
_cell_angle_beta 90.000000
_cell_angle_gamma 90.000000
_cell_volume 2390.235876
_symmetry_space_group_name_H-M "P B C M"
_symmetry_group_IT_number 57
_symmetry_cell_setting 'orthorhombic'
loop_
_space_group_symop_operation_xyz
x,y,z
-x,-y,1/2+z
x,1/2-y,-z
-x,1/2+y,1/2-z
-x,-y,-z
x,y,1/2-z
-x,1/2+y,z
x,1/2-y,1/2+z
loop_
_atom_site_type_symbol
_atom_site_label
_atom_site_fract_x
_atom_site_fract_y
_atom_site_fract_z
Si Si1 0.067735 0.794279 0.156834
Si Si2 0.437034 0.333851 0.418135
Si Si3 0.401694 0.676660 0.417138
Si Si4 0.751291 0.786048 0.091348
Si Si5 0.772077 0.403009 0.657889
Si Si6 0.094644 0.117754 0.157555
O O1 0.062981 0.800646 0.250000
O O2 0.149948 0.700043 0.130393
O O3 0.978755 0.726148 0.122753
O O4 0.078447 0.956848 0.120932
O O5 0.447769 0.250000 0.500000
O O6 0.436111 0.509626 0.429450
O O7 0.523514 0.275526 0.373332
O O8 0.348030 0.278876 0.377340
O O9 0.374809 0.750000 0.500000
O O10 0.318213 0.677296 0.361285
O O11 0.808974 0.668612 0.136868
O O12 0.786147 0.949416 0.107707
O O13 0.754685 0.750000 0.000000
O O14 0.775973 0.440924 0.750000
O O15 0.085639 0.110241 0.250000
#
# Coordination Sequence:
#
# PCOD8231534 Si02
#       6
#     8   8   8   8   8   8
#     4   9  19  34  56  80 104 141 183 220 277 346
#     4   9  18  32  52  77 106 141 180 218 265 327
#     4  10  19  33  55  79 105 143 184 222 265 321
#     4  10  21  36  55  81 110 146 188 228 275 332
#     4  10  21  38  56  80 113 147 182 230 285 335
#     4  10  19  35  57  79 105 142 185 230 277 335
#
# _framework density 20.081699
#
# number of rings (size 3 to 8) (size 9 to 14) (size 15 to 20)
#    0.000    2.333    0.000    3.500    0.000    8.000 
#    0.000    8.333    0.000    0.000    0.000    0.000 
#    0.000    0.000    0.000    0.000    0.000    0.000 
#
# Total GULP energy -594936.923165 kJ/mol
# GULP energy per Si atom -12394.519233 kJ/mol
# Density = 2.003599 g / cm^3
# Si number density = 20.081699 Si / 1000 Ang^3
#
#
#
# Elastic Constant Matrix: (Units=GPa)
#
#
# Indices 1 2 3 4 5 6 
#
# 1 110.6257 50.6992 29.7814 0.0000 0.0000 0.0000
# 2 50.6992 126.8750 33.1334 0.0000 0.0000 0.0000
# 3 29.7814 33.1334 26.0408 0.0000 0.0000 0.0000
# 4 0.0000 0.0000 0.0000 27.2180 0.0000 0.0000
# 5 0.0000 0.0000 0.0000 0.0000 22.0319 0.0000
# 6 0.0000 0.0000 0.0000 0.0000 0.0000 27.5880
#
#
#
# Elastic Compliance Matrix: (Units=1/GPa)
#
#
# Indices 1 2 3 4 5 6 
#
# 1 0.013399 -0.002026 -0.012747 0.000000 0.000000 0.000000
# 2 -0.002026 0.012110 -0.013092 0.000000 0.000000 0.000000
# 3 -0.012747 -0.013092 0.069637 0.000000 0.000000 0.000000
# 4 0.000000 0.000000 0.000000 0.036740 0.000000 0.000000
# 5 0.000000 0.000000 0.000000 0.000000 0.045389 0.000000
# 6 0.000000 0.000000 0.000000 0.000000 0.000000 0.036248
#
#
# Mechanical properties :
#
#
# Convention : Reuss Voigt Hill
#
# Bulk Modulus (GPa) = 25.36938 54.52995 39.94966
# Shear Modulus (GPa) = 17.70592 25.36274 21.53433
#
# Velocity S-wave (km/s) = 2.97256 3.55770 3.27821
# Velocity P-wave (km/s) = 4.94388 6.63997 5.85368
#
# Compressibility (1/GPa) = 0.03941760
#
# Stress axis : x y z
#
# Youngs Moduli (GPa) = 74.63044 82.57534 14.36018
#
# Poissons Ratio (x) = 0.16726 0.18305
# Poissons Ratio (y) = 0.15117 0.18800
# Poissons Ratio (z) = 0.95131 1.08108
#
# Static dielectric constant tensor:
#      x y z
#    x 4.180700 0.000000 0.000000 
#    y 0.000000 3.892590 0.000000 
#    z 0.000000 0.000000 3.150040 
# 
# 
# High freq. dielectric constant tensor:
#      x y z
#    x 1.808150 0.000000 0.000000 
#    y 0.000000 1.796740 0.000000 
#    z 0.000000 0.000000 1.731490 
# 
# From -- ./inp_files/22427.got.cif
#   From: 2010.03.12/outbox.cif.g09.slc.cpg/sg57_12_cif.got.tgz:22427.got - 2010.04.16 15:48:40.
