data_PCOD8231040
_publ_section_title
;
Structure prediction by ZEFSAII (Michael W. Deem and Ramdas Pophale) SiO2 
 PCOD8231040
Probable space group: P B C M
;
_chemical_formula_sum "Si O2"
_cell_formula_units_Z 56
_cell_length_a 22.640875
_cell_length_b 14.194689
_cell_length_c 8.970128
_cell_angle_alpha 90.000000
_cell_angle_beta 90.000000
_cell_angle_gamma 90.000000
_cell_volume 2882.821345
_symmetry_space_group_name_H-M "P B C M"
_symmetry_group_IT_number 57
_symmetry_cell_setting 'orthorhombic'
loop_
_space_group_symop_operation_xyz
x,y,z
-x,-y,1/2+z
x,1/2-y,-z
-x,1/2+y,1/2-z
-x,-y,-z
x,y,1/2-z
-x,1/2+y,z
x,1/2-y,1/2+z
loop_
_atom_site_type_symbol
_atom_site_label
_atom_site_fract_x
_atom_site_fract_y
_atom_site_fract_z
Si Si1 0.093991 0.655017 0.575811
Si Si2 0.517052 0.907187 0.420286
Si Si3 0.755157 0.648524 0.925730
Si Si4 0.640304 0.961636 0.425351
Si Si5 0.971501 0.844472 0.923414
Si Si6 0.605442 0.157231 0.575274
Si Si7 0.856924 0.960091 0.919473
O O1 0.119085 0.750000 0.500000
O O2 0.083062 0.672786 0.750000
O O3 0.141893 0.572326 0.550855
O O4 0.032166 0.624935 0.501712
O O5 0.513479 0.933401 0.250000
O O6 0.585950 0.887762 0.461802
O O7 0.465748 0.832017 0.457603
O O8 0.500000 0.000000 0.500000
O O9 0.752779 0.663169 0.750000
O O10 0.698633 0.590233 0.984470
O O11 0.756959 0.750000 0.000000
O O12 0.812872 0.589255 0.966887
O O13 0.644640 0.983013 0.250000
O O14 0.632637 0.061782 0.507380
O O15 0.983808 0.825403 0.750000
O O16 0.923310 0.924977 0.947634
O O17 0.946553 0.750000 0.000000
O O18 0.634467 0.250000 0.500000
O O19 0.619719 0.157794 0.750000
O O20 0.837080 0.937485 0.750000
#
# Coordination Sequence:
#
# PCOD8231040 Si02
#       7
#     8   8   8   8   8   8   8
#     4  10  20  35  55  81 111 142 176 218 268 322
#     4   8  15  29  49  73 103 136 173 215 261 310
#     4  11  24  40  60  82 106 139 179 222 269 317
#     4   9  19  37  56  77 107 143 183 226 268 317
#     4  10  19  32  52  80 111 143 178 218 266 319
#     4  10  19  31  52  82 112 145 179 218 269 323
#     4  10  22  38  56  79 109 144 183 225 267 312
#
# _framework density 19.425414
#
# number of rings (size 3 to 8) (size 9 to 14) (size 15 to 20)
#    0.000    2.286    0.000    3.429    0.000    5.714 
#    0.000    0.714    0.000    1.714    0.000    0.000 
#    0.000    0.000    0.000    0.000    0.000    0.000 
#
# Total GULP energy -693883.162154 kJ/mol
# GULP energy per Si atom -12390.770753 kJ/mol
# Density = 1.938120 g / cm^3
# Si number density = 19.425414 Si / 1000 Ang^3
#
#
#
# Elastic Constant Matrix: (Units=GPa)
#
#
# Indices 1 2 3 4 5 6 
#
# 1 79.2907 55.8766 40.8509 0.0000 0.0000 0.0000
# 2 55.8766 119.0106 52.6566 0.0000 0.0000 0.0000
# 3 40.8509 52.6566 87.4682 0.0000 0.0000 0.0000
# 4 0.0000 0.0000 0.0000 25.0442 0.0000 0.0000
# 5 0.0000 0.0000 0.0000 0.0000 23.8279 0.0000
# 6 0.0000 0.0000 0.0000 0.0000 0.0000 23.2088
#
#
#
# Elastic Compliance Matrix: (Units=1/GPa)
#
#
# Indices 1 2 3 4 5 6 
#
# 1 0.020407 -0.007312 -0.005129 0.000000 0.000000 0.000000
# 2 -0.007312 0.014073 -0.005057 0.000000 0.000000 0.000000
# 3 -0.005129 -0.005057 0.016873 0.000000 0.000000 0.000000
# 4 0.000000 0.000000 0.000000 0.039929 0.000000 0.000000
# 5 0.000000 0.000000 0.000000 0.000000 0.041968 0.000000
# 6 0.000000 0.000000 0.000000 0.000000 0.000000 0.043087
#
#
# Mechanical properties :
#
#
# Convention : Reuss Voigt Hill
#
# Bulk Modulus (GPa) = 61.13757 64.94863 63.04310
# Shear Modulus (GPa) = 23.06425 23.50854 23.28639
#
# Velocity S-wave (km/s) = 3.44949 3.48256 3.46607
# Velocity P-wave (km/s) = 6.88525 7.04829 6.96725
#
# Compressibility (1/GPa) = 0.01635655
#
# Stress axis : x y z
#
# Youngs Moduli (GPa) = 49.00261 71.05683 59.26743
#
# Poissons Ratio (x) = 0.51957 0.30398
# Poissons Ratio (y) = 0.35831 0.29973
# Poissons Ratio (z) = 0.25133 0.35935
#
# Static dielectric constant tensor:
#      x y z
#    x 3.533020 0.000000 0.000000 
#    y 0.000000 3.493600 0.000000 
#    z 0.000000 0.000000 3.554340 
# 
# 
# High freq. dielectric constant tensor:
#      x y z
#    x 1.741560 0.000000 0.000000 
#    y 0.000000 1.755330 0.000000 
#    z 0.000000 0.000000 1.763840 
# 
# From -- ./inp_files/8125.got.cif
#   From: 2010.03.12/outbox.cif.g09.slc.cpg/sg57_5_cif.got.tgz:8125.got - 2010.04.16 15:48:40.
