data_PCOD8231088
_publ_section_title
;
Structure prediction by ZEFSAII (Michael W. Deem and Ramdas Pophale) SiO2 
 PCOD8231088
Probable space group: P B C M
;
_chemical_formula_sum "Si O2"
_cell_formula_units_Z 48
_cell_length_a 9.123610
_cell_length_b 16.451717
_cell_length_c 17.407626
_cell_angle_alpha 90.000000
_cell_angle_beta 90.000000
_cell_angle_gamma 90.000000
_cell_volume 2612.868121
_symmetry_space_group_name_H-M "P B C M"
_symmetry_group_IT_number 57
_symmetry_cell_setting 'orthorhombic'
loop_
_space_group_symop_operation_xyz
x,y,z
-x,-y,1/2+z
x,1/2-y,-z
-x,1/2+y,1/2-z
-x,-y,-z
x,y,1/2-z
-x,1/2+y,z
x,1/2-y,1/2+z
loop_
_atom_site_type_symbol
_atom_site_label
_atom_site_fract_x
_atom_site_fract_y
_atom_site_fract_z
Si Si1 0.388161 0.711178 0.839471
Si Si2 0.114471 0.107674 0.159098
Si Si3 0.352400 0.288939 0.578186
Si Si4 0.704403 0.460122 0.161344
Si Si5 0.526168 0.051087 0.423821
Si Si6 0.219970 0.624075 0.339685
O O1 0.417013 0.697452 0.750000
O O2 0.549464 0.723648 0.875458
O O3 0.309717 0.630248 0.875733
O O4 0.278930 0.785461 0.854433
O O5 0.135132 0.111478 0.250000
O O6 0.211942 0.180885 0.125613
O O7 0.947916 0.121063 0.134083
O O8 0.166297 0.018428 0.127432
O O9 0.292016 0.250000 0.500000
O O10 0.460779 0.361615 0.557669
O O11 0.735306 0.448343 0.250000
O O12 0.553852 0.508561 0.147794
O O13 0.693714 0.061098 0.395050
O O14 0.500000 0.000000 0.500000
O O15 0.238877 0.599918 0.250000
#
# Coordination Sequence:
#
# PCOD8231088 Si02
#       6
#     8   8   8   8   8   8
#     4   9  17  31  52  75  97 127 171 218 258 300
#     4   9  18  34  54  75 102 136 172 212 262 316
#     4  10  19  32  49  72 101 133 169 208 252 305
#     4   9  17  31  51  74  99 129 169 217 261 303
#     4  10  19  32  50  72  99 131 168 208 252 304
#     4   9  18  34  55  76 100 134 173 211 256 308
#
# _framework density 18.370618
#
# number of rings (size 3 to 8) (size 9 to 14) (size 15 to 20)
#    0.000    2.667    0.000    2.000    0.000    4.000 
#    0.000   11.667    0.000    8.000    0.000    0.000 
#    0.000    0.000    0.000    0.000    0.000    0.000 
#
# Total GULP energy -594814.206329 kJ/mol
# GULP energy per Si atom -12391.962632 kJ/mol
# Density = 1.832881 g / cm^3
# Si number density = 18.370618 Si / 1000 Ang^3
#
#
#
# Elastic Constant Matrix: (Units=GPa)
#
#
# Indices 1 2 3 4 5 6 
#
# 1 153.1004 55.7511 44.4921 0.0000 0.0000 0.0000
# 2 55.7511 100.2730 34.4977 0.0000 0.0000 0.0000
# 3 44.4921 34.4977 50.2480 0.0000 0.0000 0.0000
# 4 0.0000 0.0000 0.0000 31.1321 0.0000 0.0000
# 5 0.0000 0.0000 0.0000 0.0000 19.4115 0.0000
# 6 0.0000 0.0000 0.0000 0.0000 0.0000 17.1105
#
#
#
# Elastic Compliance Matrix: (Units=1/GPa)
#
#
# Indices 1 2 3 4 5 6 
#
# 1 0.009487 -0.003122 -0.006257 0.000000 0.000000 0.000000
# 2 -0.003122 0.014084 -0.006905 0.000000 0.000000 0.000000
# 3 -0.006257 -0.006905 0.030182 0.000000 0.000000 0.000000
# 4 0.000000 0.000000 0.000000 0.032121 0.000000 0.000000
# 5 0.000000 0.000000 0.000000 0.000000 0.051516 0.000000
# 6 0.000000 0.000000 0.000000 0.000000 0.000000 0.058444
#
#
# Mechanical properties :
#
#
# Convention : Reuss Voigt Hill
#
# Bulk Modulus (GPa) = 47.20239 63.67813 55.44026
# Shear Modulus (GPa) = 21.23477 24.78953 23.01215
#
# Velocity S-wave (km/s) = 3.40356 3.67742 3.54313
# Velocity P-wave (km/s) = 6.41840 7.26426 6.85439
#
# Compressibility (1/GPa) = 0.02118537
#
# Stress axis : x y z
#
# Youngs Moduli (GPa) = 105.41000 71.00134 33.13245
#
# Poissons Ratio (x) = 0.22167 0.20730
# Poissons Ratio (y) = 0.32910 0.22878
# Poissons Ratio (z) = 0.65951 0.49027
#
# Static dielectric constant tensor:
#      x y z
#    x 3.372540 0.000000 0.000000 
#    y 0.000000 3.707080 0.000000 
#    z 0.000000 0.000000 3.233260 
# 
# 
# High freq. dielectric constant tensor:
#      x y z
#    x 1.698220 0.000000 0.000000 
#    y 0.000000 1.718280 0.000000 
#    z 0.000000 0.000000 1.700080 
# 
# From -- ./inp_files/20974.got.cif
#   From: 2010.03.12/outbox.cif.g09.slc.cpg/sg57_11_cif.got.tgz:20974.got - 2010.04.16 15:48:40.
