data_PCOD8231345
_publ_section_title
;
Structure prediction by ZEFSAII (Michael W. Deem and Ramdas Pophale) SiO2 
 PCOD8231345
Probable space group: P B C M
;
_chemical_formula_sum "Si O2"
_cell_formula_units_Z 60
_cell_length_a 11.990785
_cell_length_b 18.814751
_cell_length_c 13.092002
_cell_angle_alpha 90.000000
_cell_angle_beta 90.000000
_cell_angle_gamma 90.000000
_cell_volume 2953.603228
_symmetry_space_group_name_H-M "P B C M"
_symmetry_group_IT_number 57
_symmetry_cell_setting 'orthorhombic'
loop_
_space_group_symop_operation_xyz
x,y,z
-x,-y,1/2+z
x,1/2-y,-z
-x,1/2+y,1/2-z
-x,-y,-z
x,y,1/2-z
-x,1/2+y,z
x,1/2-y,1/2+z
loop_
_atom_site_type_symbol
_atom_site_label
_atom_site_fract_x
_atom_site_fract_y
_atom_site_fract_z
Si Si1 0.505948 0.343663 0.864227
Si Si2 0.894376 0.904045 0.536451
Si Si3 0.813546 0.750000 0.000000
Si Si4 0.509141 0.563919 0.871301
Si Si5 0.678004 0.447113 0.872097
Si Si6 0.321938 0.464474 0.864569
Si Si7 0.610996 0.791551 0.372290
Si Si8 0.081245 0.511340 0.132884
O O1 0.532254 0.317226 0.750000
O O2 0.620079 0.374364 0.914261
O O3 0.417572 0.406489 0.861579
O O4 0.453979 0.275823 0.920607
O O5 0.888924 0.817454 0.537234
O O6 0.775656 0.939554 0.561228
O O7 0.983729 0.930576 0.619979
O O8 0.936775 0.937563 0.428918
O O9 0.738359 0.784785 0.089409
O O10 0.513854 0.565982 0.750000
O O11 0.606876 0.513585 0.915400
O O12 0.384086 0.537442 0.903304
O O13 0.542339 0.640898 0.916865
O O14 0.667222 0.447230 0.750000
O O15 0.805508 0.451171 0.907020
O O16 0.273279 0.475166 0.750000
O O17 0.618169 0.793843 0.250000
O O18 0.090595 0.488337 0.250000
#
# Coordination Sequence:
#
# PCOD8231345 Si02
#       8
#     8   8   4   8   8   8   8   8
#     4   8  14  27  51  77 109 146 181 219 271 338
#     4  11  23  38  60  88 115 148 195 249 298 355
#     4  12  24  36  56  92 124 148 186 242 306 362
#     4   8  15  28  52  82 115 149 185 227 275 333
#     4   8  14  29  52  76 101 140 188 230 271 329
#     4   9  16  32  55  84 116 151 187 228 285 344
#     4  10  19  33  51  80 120 156 186 228 287 350
#     4  10  22  41  62  81 108 152 203 249 293 344
#
# _framework density 20.314171000000002
#
# number of rings (size 3 to 8) (size 9 to 14) (size 15 to 20)
#    0.000    2.667    1.333    2.800    0.000    2.133 
#    2.400    2.000    5.867    0.000    0.000    0.000 
#    0.000    0.000    0.000    0.000    0.000    0.000 
#
# Total GULP energy -743483.888502 kJ/mol
# GULP energy per Si atom -12391.398142 kJ/mol
# Density = 2.026793 g / cm^3
# Si number density = 20.314171 Si / 1000 Ang^3
#
#
#
# Elastic Constant Matrix: (Units=GPa)
#
#
# Indices 1 2 3 4 5 6 
#
# 1 83.4994 32.6079 2.0797 0.0000 0.0000 0.0000
# 2 32.6079 120.3587 14.4040 0.0000 0.0000 0.0000
# 3 2.0797 14.4040 40.6847 0.0000 0.0000 0.0000
# 4 0.0000 0.0000 0.0000 25.1418 0.0000 0.0000
# 5 0.0000 0.0000 0.0000 0.0000 18.1410 0.0000
# 6 0.0000 0.0000 0.0000 0.0000 0.0000 31.9839
#
#
#
# Elastic Compliance Matrix: (Units=1/GPa)
#
#
# Indices 1 2 3 4 5 6 
#
# 1 0.013408 -0.003708 0.000627 0.000000 0.000000 0.000000
# 2 -0.003708 0.009701 -0.003245 0.000000 0.000000 0.000000
# 3 0.000627 -0.003245 0.025696 0.000000 0.000000 0.000000
# 4 0.000000 0.000000 0.000000 0.039774 0.000000 0.000000
# 5 0.000000 0.000000 0.000000 0.000000 0.055124 0.000000
# 6 0.000000 0.000000 0.000000 0.000000 0.000000 0.031266
#
#
# Mechanical properties :
#
#
# Convention : Reuss Voigt Hill
#
# Bulk Modulus (GPa) = 27.65888 38.08065 32.86977
# Shear Modulus (GPa) = 25.04098 28.08341 26.56220
#
# Velocity S-wave (km/s) = 3.51477 3.72217 3.61996
# Velocity P-wave (km/s) = 5.48786 6.10404 5.80413
#
# Compressibility (1/GPa) = 0.03615475
#
# Stress axis : x y z
#
# Youngs Moduli (GPa) = 74.57991 103.07826 38.91638
#
# Poissons Ratio (x) = 0.38218 -0.02441
# Poissons Ratio (y) = 0.27652 0.12629
# Poissons Ratio (z) = -0.04678 0.33450
#
# Static dielectric constant tensor:
#      x y z
#    x 3.705110 0.000000 0.000000 
#    y 0.000000 3.929090 0.000000 
#    z 0.000000 0.000000 3.777090 
# 
# 
# High freq. dielectric constant tensor:
#      x y z
#    x 1.768060 0.000000 0.000000 
#    y 0.000000 1.781580 0.000000 
#    z 0.000000 0.000000 1.812930 
# 
# From -- ./inp_files/17908.got.cif
#   From: 2010.03.12/outbox.cif.g09.slc.cpg/sg57_9_cif.got.tgz:17908.got - 2010.04.16 15:48:40.
