data_PCOD8231212
_publ_section_title
;
Structure prediction by ZEFSAII (Michael W. Deem and Ramdas Pophale) SiO2 
 PCOD8231212
Probable space group: P B C M
;
_chemical_formula_sum "Si O2"
_cell_formula_units_Z 64
_cell_length_a 19.851047
_cell_length_b 5.266287
_cell_length_c 32.130018
_cell_angle_alpha 90.000000
_cell_angle_beta 90.000000
_cell_angle_gamma 90.000000
_cell_volume 3358.914196
_symmetry_space_group_name_H-M "P B C M"
_symmetry_group_IT_number 57
_symmetry_cell_setting 'orthorhombic'
loop_
_space_group_symop_operation_xyz
x,y,z
-x,-y,1/2+z
x,1/2-y,-z
-x,1/2+y,1/2-z
-x,-y,-z
x,y,1/2-z
-x,1/2+y,z
x,1/2-y,1/2+z
loop_
_atom_site_type_symbol
_atom_site_label
_atom_site_fract_x
_atom_site_fract_y
_atom_site_fract_z
Si Si1 0.689829 0.003176 0.026405
Si Si2 0.327909 0.517889 0.327578
Si Si3 0.213844 0.508519 0.394029
Si Si4 0.716994 0.982356 0.795543
Si Si5 0.465748 0.595243 0.042866
Si Si6 0.043144 0.026963 0.202836
Si Si7 0.835644 0.509098 0.138921
Si Si8 0.531035 0.408473 0.861692
O O1 0.740535 0.995224 0.065022
O O2 0.612149 0.017489 0.040442
O O3 0.701441 0.750000 0.000000
O O4 0.709147 0.250000 0.000000
O O5 0.260271 0.512837 0.353841
O O6 0.327056 0.760985 0.297289
O O7 0.390080 0.542194 0.358591
O O8 0.332686 0.258025 0.301445
O O9 0.168330 0.764249 0.391792
O O10 0.165579 0.260499 0.390342
O O11 0.750973 0.963906 0.750000
O O12 0.772315 0.984321 0.830901
O O13 0.518661 0.380724 0.024202
O O14 0.488862 0.618947 0.090285
O O15 0.073127 0.009572 0.250000
O O16 0.098997 0.994882 0.167641
O O17 0.989938 0.801698 0.196329
O O18 0.491173 0.643474 0.840273
#
# Coordination Sequence:
#
# PCOD8231212 Si02
#       8
#     8   8   8   8   8   8   8   8
#     4  12  24  37  55  77 112 144 173 229 290 339
#     4  10  19  34  53  70  97 129 167 223 265 310
#     4  10  21  37  53  79 104 140 191 221 264 314
#     4  10  20  32  52  77 100 131 172 215 261 306
#     4  10  21  35  52  74 102 136 175 218 270 348
#     4  10  20  34  55  88 129 162 185 211 256 315
#     4  10  20  35  58  78 113 150 182 222 245 301
#     4  10  19  32  52  71  90 123 171 216 259 324
#
# _framework density 19.053777
#
# number of rings (size 3 to 8) (size 9 to 14) (size 15 to 20)
#    0.000    1.750    1.250    3.750    0.000    1.500 
#    0.000    3.750    0.000    7.500    0.000    0.000 
#    0.000   35.000    0.000    0.000    0.000    0.000 
#
# Total GULP energy -793396.610326 kJ/mol
# GULP energy per Si atom -12396.822036 kJ/mol
# Density = 1.901041 g / cm^3
# Si number density = 19.053777 Si / 1000 Ang^3
#
#
#
# Elastic Constant Matrix: (Units=GPa)
#
#
# Indices 1 2 3 4 5 6 
#
# 1 66.6623 35.6687 24.9528 0.0000 0.0000 0.0000
# 2 35.6687 179.9347 46.0251 0.0000 0.0000 0.0000
# 3 24.9528 46.0251 67.9567 0.0000 0.0000 0.0000
# 4 0.0000 0.0000 0.0000 19.4617 0.0000 0.0000
# 5 0.0000 0.0000 0.0000 0.0000 5.0679 0.0000
# 6 0.0000 0.0000 0.0000 0.0000 0.0000 -17.2699
#
#
#
# Elastic Compliance Matrix: (Units=1/GPa)
#
#
# Indices 1 2 3 4 5 6 
#
# 1 0.018138 -0.002288 -0.005110 0.000000 0.000000 0.000000
# 2 -0.002288 0.007011 -0.003908 0.000000 0.000000 0.000000
# 3 -0.005110 -0.003908 0.019238 0.000000 0.000000 0.000000
# 4 0.000000 0.000000 0.000000 0.051383 0.000000 0.000000
# 5 0.000000 0.000000 0.000000 0.000000 0.197322 0.000000
# 6 0.000000 0.000000 0.000000 0.000000 0.000000 -0.057904
#
#
# Mechanical properties :
#
#
# Convention : Reuss Voigt Hill
#
# Bulk Modulus (GPa) = 45.92577 58.64966 52.28771
# Shear Modulus (GPa) = 18.86372 15.31242 17.08807
#
# Velocity S-wave (km/s) = 3.14988 2.83793 2.99797
# Velocity P-wave (km/s) = 6.11429 6.44875 6.28375
#
# Compressibility (1/GPa) = 0.02177427
#
# Stress axis : x y z
#
# Youngs Moduli (GPa) = 55.13201 142.63678 51.97936
#
# Poissons Ratio (x) = 0.32642 0.26563
# Poissons Ratio (y) = 0.12617 0.20313
# Poissons Ratio (z) = 0.28174 0.55742
#
# Static dielectric constant tensor:
#      x y z
#    x 3.076080 0.000000 0.000000 
#    y 0.000000 4.259550 0.000000 
#    z 0.000000 0.000000 3.337280 
# 
# 
# High freq. dielectric constant tensor:
#      x y z
#    x 1.699480 0.000000 0.000000 
#    y 0.000000 1.780000 0.000000 
#    z 0.000000 0.000000 1.729630 
# 
# From -- ./inp_files/29955.got.cif
#   From: 2010.03.12/outbox.cif.g09.slc.cpg/sg57_15_cif.got.tgz:29955.got - 2010.04.16 15:48:40.
