data_PCOD8231721
_publ_section_title
;
Structure prediction by ZEFSAII (Michael W. Deem and Ramdas Pophale) SiO2 
 PCOD8231721
Probable space group: P B C M
;
_chemical_formula_sum "Si O2"
_cell_formula_units_Z 64
_cell_length_a 24.213781
_cell_length_b 14.670529
_cell_length_c 8.818516
_cell_angle_alpha 90.000000
_cell_angle_beta 90.000000
_cell_angle_gamma 90.000000
_cell_volume 3132.592412
_symmetry_space_group_name_H-M "P B C M"
_symmetry_group_IT_number 57
_symmetry_cell_setting 'orthorhombic'
loop_
_space_group_symop_operation_xyz
x,y,z
-x,-y,1/2+z
x,1/2-y,-z
-x,1/2+y,1/2-z
-x,-y,-z
x,y,1/2-z
-x,1/2+y,z
x,1/2-y,1/2+z
loop_
_atom_site_type_symbol
_atom_site_label
_atom_site_fract_x
_atom_site_fract_y
_atom_site_fract_z
Si Si1 0.533415 0.344058 0.428627
Si Si2 0.416830 0.344073 0.571861
Si Si3 0.255316 0.957937 0.928924
Si Si4 0.880194 0.832001 0.579068
Si Si5 0.365297 0.530789 0.574304
Si Si6 0.235491 0.160201 0.573298
Si Si7 0.152873 0.850531 0.431629
Si Si8 0.943185 0.481124 0.081362
O O1 0.554743 0.250000 0.500000
O O2 0.525555 0.332496 0.250000
O O3 0.475306 0.372749 0.500848
O O4 0.577942 0.420383 0.470374
O O5 0.394473 0.250000 0.500000
O O6 0.425356 0.330713 0.750000
O O7 0.372789 0.423499 0.536195
O O8 0.245635 0.948039 0.750000
O O9 0.257223 0.062931 0.986030
O O10 0.315890 0.922851 0.977557
O O11 0.207683 0.901649 0.012520
O O12 0.915910 0.750000 0.500000
O O13 0.861693 0.806902 0.750000
O O14 0.828567 0.840672 0.468044
O O15 0.913142 0.923640 0.579748
O O16 0.351158 0.545791 0.750000
O O17 0.264762 0.250000 0.500000
O O18 0.245162 0.167836 0.750000
O O19 0.150522 0.750000 0.500000
O O20 0.154516 0.847018 0.250000
O O21 0.098074 0.905101 0.489945
O O22 0.957733 0.449159 0.250000
O O23 0.000000 0.500000 0.000000
#
# Coordination Sequence:
#
# PCOD8231721 Si02
#       8
#     8   8   8   8   8   8   8   8
#     4  10  20  36  58  84 113 150 195 244 300 357
#     4  10  20  36  58  85 117 156 197 242 301 360
#     4  11  24  40  61  89 119 158 204 250 301 357
#     4  10  19  34  56  85 115 149 187 228 284 342
#     4  10  23  39  57  83 118 158 198 246 301 356
#     4  10  20  34  56  85 113 147 189 233 286 347
#     4  11  24  45  68  91 122 162 206 251 301 356
#     4  10  23  40  62  90 123 159 196 243 297 350
#
# _framework density 20.430364000000001
#
# number of rings (size 3 to 8) (size 9 to 14) (size 15 to 20)
#    0.000    1.750    1.250    4.125    0.000    7.000 
#    0.000    6.250    0.000    0.000    0.000    0.000 
#    0.000    0.000    0.000    0.000    0.000    0.000 
#
# Total GULP energy -793275.949574 kJ/mol
# GULP energy per Si atom -12394.936712 kJ/mol
# Density = 2.038386 g / cm^3
# Si number density = 20.430364 Si / 1000 Ang^3
#
#
#
# Elastic Constant Matrix: (Units=GPa)
#
#
# Indices 1 2 3 4 5 6 
#
# 1 106.3456 46.7653 41.1370 0.0000 0.0000 0.0000
# 2 46.7653 108.5034 50.8663 0.0000 0.0000 0.0000
# 3 41.1370 50.8663 82.5041 0.0000 0.0000 0.0000
# 4 0.0000 0.0000 0.0000 34.4220 0.0000 0.0000
# 5 0.0000 0.0000 0.0000 0.0000 26.4024 0.0000
# 6 0.0000 0.0000 0.0000 0.0000 0.0000 3.9931
#
#
#
# Elastic Compliance Matrix: (Units=1/GPa)
#
#
# Indices 1 2 3 4 5 6 
#
# 1 0.012516 -0.003473 -0.004100 0.000000 0.000000 0.000000
# 2 -0.003473 0.013926 -0.006855 0.000000 0.000000 0.000000
# 3 -0.004100 -0.006855 0.018391 0.000000 0.000000 0.000000
# 4 0.000000 0.000000 0.000000 0.029051 0.000000 0.000000
# 5 0.000000 0.000000 0.000000 0.000000 0.037875 0.000000
# 6 0.000000 0.000000 0.000000 0.000000 0.000000 0.250432
#
#
# Mechanical properties :
#
#
# Convention : Reuss Voigt Hill
#
# Bulk Modulus (GPa) = 62.57953 63.87670 63.22811
# Shear Modulus (GPa) = 12.61439 23.53580 18.07509
#
# Velocity S-wave (km/s) = 2.48752 3.39780 2.97765
# Velocity P-wave (km/s) = 6.24079 6.83570 6.54501
#
# Compressibility (1/GPa) = 0.01597967
#
# Stress axis : x y z
#
# Youngs Moduli (GPa) = 79.89618 71.80576 54.37491
#
# Poissons Ratio (x) = 0.24935 0.22292
# Poissons Ratio (y) = 0.27745 0.37272
# Poissons Ratio (z) = 0.32755 0.49220
#
# Static dielectric constant tensor:
#      x y z
#    x 3.345470 0.000000 0.000000 
#    y 0.000000 4.202410 0.000000 
#    z 0.000000 0.000000 3.921940 
# 
# 
# High freq. dielectric constant tensor:
#      x y z
#    x 1.790880 0.000000 0.000000 
#    y 0.000000 1.810480 0.000000 
#    z 0.000000 0.000000 1.803660 
# 
# From -- ./inp_files/9254.got.cif
#   From: 2010.03.12/outbox.cif.g09.slc.cpg/sg57_5_cif.got.tgz:9254.got - 2010.04.16 15:48:40.
