data_PCOD8231881
_publ_section_title
;
Structure prediction by ZEFSAII (Michael W. Deem and Ramdas Pophale) SiO2 
 PCOD8231881
Probable space group: P B C M
;
_chemical_formula_sum "Si O2"
_cell_formula_units_Z 56
_cell_length_a 12.418073
_cell_length_b 14.553983
_cell_length_c 13.976166
_cell_angle_alpha 90.000000
_cell_angle_beta 90.000000
_cell_angle_gamma 90.000000
_cell_volume 2525.946350
_symmetry_space_group_name_H-M "P B C M"
_symmetry_group_IT_number 57
_symmetry_cell_setting 'orthorhombic'
loop_
_space_group_symop_operation_xyz
x,y,z
-x,-y,1/2+z
x,1/2-y,-z
-x,1/2+y,1/2-z
-x,-y,-z
x,y,1/2-z
-x,1/2+y,z
x,1/2-y,1/2+z
loop_
_atom_site_type_symbol
_atom_site_label
_atom_site_fract_x
_atom_site_fract_y
_atom_site_fract_z
Si Si1 0.917055 0.630135 0.637040
Si Si2 0.649570 0.049451 0.956229
Si Si3 0.306783 0.458071 0.358612
Si Si4 0.122089 0.522702 0.863568
Si Si5 0.156617 0.321699 0.862508
Si Si6 0.496337 0.181639 0.859087
Si Si7 0.392723 0.133189 0.137801
O O1 0.928648 0.634398 0.750000
O O2 0.813083 0.570390 0.609450
O O3 0.903084 0.732651 0.592601
O O4 0.024467 0.583528 0.594587
O O5 0.585588 0.141448 0.930179
O O6 0.767297 0.055815 0.910237
O O7 0.580758 0.962143 0.915953
O O8 0.657087 0.040310 0.071232
O O9 0.310562 0.495945 0.250000
O O10 0.381888 0.369005 0.370251
O O11 0.135697 0.532779 0.750000
O O12 0.094946 0.416031 0.889389
O O13 0.162337 0.305338 0.750000
O O14 0.278083 0.330801 0.900974
O O15 0.537158 0.172003 0.750000
O O16 0.480360 0.288746 0.886452
O O17 0.388424 0.111155 0.250000
#
# Coordination Sequence:
#
# PCOD8231881 Si02
#       7
#     8   8   8   8   8   8   8
#     4   9  16  31  54  77 112 152 186 232 284 335
#     4  11  21  34  57  86 117 148 193 245 290 344
#     4  10  21  36  55  80 111 152 196 240 290 341
#     4   9  18  31  53  86 115 145 188 233 286 345
#     4   8  13  27  50  77 108 144 184 225 269 329
#     4  10  19  35  58  83 115 149 186 236 295 348
#     4   9  17  32  56  86 116 147 187 233 284 345
#
# _framework density 22.169910000000002
#
# number of rings (size 3 to 8) (size 9 to 14) (size 15 to 20)
#    0.000    2.571    1.429    2.571    0.000    1.143 
#    0.000    0.000    3.143    0.857    0.000    0.000 
#    0.000    0.000    0.000    0.000    0.000    0.000 
#
# Total GULP energy -694288.864951 kJ/mol
# GULP energy per Si atom -12398.015446 kJ/mol
# Density = 2.211945 g / cm^3
# Si number density = 22.169910 Si / 1000 Ang^3
#
#
#
# Elastic Constant Matrix: (Units=GPa)
#
#
# Indices 1 2 3 4 5 6 
#
# 1 88.9121 44.0353 33.5433 0.0000 0.0000 0.0000
# 2 44.0353 98.6731 30.6085 0.0000 0.0000 0.0000
# 3 33.5433 30.6085 78.3346 0.0000 0.0000 0.0000
# 4 0.0000 0.0000 0.0000 14.0051 0.0000 0.0000
# 5 0.0000 0.0000 0.0000 0.0000 13.8333 0.0000
# 6 0.0000 0.0000 0.0000 0.0000 0.0000 36.4927
#
#
#
# Elastic Compliance Matrix: (Units=1/GPa)
#
#
# Indices 1 2 3 4 5 6 
#
# 1 0.015744 -0.005615 -0.004547 0.000000 0.000000 0.000000
# 2 -0.005615 0.013535 -0.002884 0.000000 0.000000 0.000000
# 3 -0.004547 -0.002884 0.015840 0.000000 0.000000 0.000000
# 4 0.000000 0.000000 0.000000 0.071403 0.000000 0.000000
# 5 0.000000 0.000000 0.000000 0.000000 0.072289 0.000000
# 6 0.000000 0.000000 0.000000 0.000000 0.000000 0.027403
#
#
# Mechanical properties :
#
#
# Convention : Reuss Voigt Hill
#
# Bulk Modulus (GPa) = 52.56280 53.58823 53.07552
# Shear Modulus (GPa) = 20.10866 23.38172 21.74519
#
# Velocity S-wave (km/s) = 3.01495 3.25108 3.13524
# Velocity P-wave (km/s) = 5.99003 6.19005 6.09086
#
# Compressibility (1/GPa) = 0.01902486
#
# Stress axis : x y z
#
# Youngs Moduli (GPa) = 63.51713 73.88153 63.13154
#
# Poissons Ratio (x) = 0.41488 0.28708
# Poissons Ratio (y) = 0.35668 0.18208
# Poissons Ratio (z) = 0.28884 0.21309
#
# Static dielectric constant tensor:
#      x y z
#    x 3.932240 0.000000 0.000000 
#    y 0.000000 4.058790 0.000000 
#    z 0.000000 0.000000 3.969450 
# 
# 
# High freq. dielectric constant tensor:
#      x y z
#    x 1.853900 0.000000 0.000000 
#    y 0.000000 1.854470 0.000000 
#    z 0.000000 0.000000 1.876890 
# 
# From -- ./inp_files/17756.got.cif
#   From: 2010.03.12/outbox.cif.g09.slc.cpg/sg57_9_cif.got.tgz:17756.got - 2010.04.16 15:48:40.
