data_PCOD8231312
_publ_section_title
;
Structure prediction by ZEFSAII (Michael W. Deem and Ramdas Pophale) SiO2 
 PCOD8231312
Probable space group: P B C M
;
_chemical_formula_sum "Si O2"
_cell_formula_units_Z 64
_cell_length_a 23.625189
_cell_length_b 15.559542
_cell_length_c 8.866766
_cell_angle_alpha 90.000000
_cell_angle_beta 90.000000
_cell_angle_gamma 90.000000
_cell_volume 3259.397650
_symmetry_space_group_name_H-M "P B C M"
_symmetry_group_IT_number 57
_symmetry_cell_setting 'orthorhombic'
loop_
_space_group_symop_operation_xyz
x,y,z
-x,-y,1/2+z
x,1/2-y,-z
-x,1/2+y,1/2-z
-x,-y,-z
x,y,1/2-z
-x,1/2+y,z
x,1/2-y,1/2+z
loop_
_atom_site_type_symbol
_atom_site_label
_atom_site_fract_x
_atom_site_fract_y
_atom_site_fract_z
Si Si1 0.056980 0.161661 0.071417
Si Si2 0.670439 0.836183 0.427509
Si Si3 0.063905 0.838269 0.428562
Si Si4 0.136787 0.003440 0.425664
Si Si5 0.742478 0.996901 0.071249
Si Si6 0.561862 0.417683 0.923005
Si Si7 0.564028 0.596621 0.423061
Si Si8 0.322183 0.837110 0.574989
O O1 0.050401 0.172664 0.250000
O O2 0.098414 0.084263 0.028497
O O3 0.081106 0.250000 0.000000
O O4 0.996485 0.139567 0.000261
O O5 0.696049 0.750000 0.500000
O O6 0.674409 0.828333 0.250000
O O7 0.604890 0.845859 0.474889
O O8 0.706837 0.915964 0.490484
O O9 0.088163 0.750000 0.500000
O O10 0.056927 0.827394 0.250000
O O11 0.105943 0.915198 0.470617
O O12 0.151449 0.005159 0.250000
O O13 0.193613 0.010384 0.519259
O O14 0.739909 0.997139 0.250000
O O15 0.713509 0.083369 0.006885
O O16 0.566993 0.451153 0.750000
O O17 0.500907 0.373270 0.950184
O O18 0.611089 0.349547 0.958260
O O19 0.569976 0.497093 0.034202
O O20 0.581985 0.608380 0.250000
O O21 0.300489 0.750000 0.500000
O O22 0.309612 0.828793 0.750000
#
# Coordination Sequence:
#
# PCOD8231312 Si02
#       8
#     8   8   8   8   8   8   8   8
#     4  10  20  36  58  87 120 153 186 229 278 331
#     4  11  23  41  61  83 113 149 190 241 291 347
#     4  10  20  36  58  87 120 154 188 230 278 329
#     4  10  23  39  58  84 116 150 191 237 280 331
#     4  10  23  42  61  79 110 152 192 237 290 336
#     4   9  18  35  56  81 118 150 183 232 285 344
#     4  10  19  32  57  88 113 148 187 228 288 348
#     4  10  21  39  59  82 111 147 188 234 285 339
#
# _framework density 19.635531
#
# number of rings (size 3 to 8) (size 9 to 14) (size 15 to 20)
#    0.000    2.000    1.250    2.625    0.000    6.000 
#    0.000    6.250    0.000    0.000    0.000    0.000 
#    0.000    0.000    0.000    0.000    0.000    0.000 
#
# Total GULP energy -793717.413362 kJ/mol
# GULP energy per Si atom -12401.834584 kJ/mol
# Density = 1.959084 g / cm^3
# Si number density = 19.635531 Si / 1000 Ang^3
#
#
#
# Elastic Constant Matrix: (Units=GPa)
#
#
# Indices 1 2 3 4 5 6 
#
# 1 104.7199 66.8820 35.2219 0.0000 0.0000 0.0000
# 2 66.8820 151.4528 44.2741 0.0000 0.0000 0.0000
# 3 35.2219 44.2741 61.9727 0.0000 0.0000 0.0000
# 4 0.0000 0.0000 0.0000 31.1401 0.0000 0.0000
# 5 0.0000 0.0000 0.0000 0.0000 31.7347 0.0000
# 6 0.0000 0.0000 0.0000 0.0000 0.0000 14.8387
#
#
#
# Elastic Compliance Matrix: (Units=1/GPa)
#
#
# Indices 1 2 3 4 5 6 
#
# 1 0.014250 -0.004961 -0.004554 0.000000 0.000000 0.000000
# 2 -0.004961 0.010073 -0.004377 0.000000 0.000000 0.000000
# 3 -0.004554 -0.004377 0.021851 0.000000 0.000000 0.000000
# 4 0.000000 0.000000 0.000000 0.032113 0.000000 0.000000
# 5 0.000000 0.000000 0.000000 0.000000 0.031511 0.000000
# 6 0.000000 0.000000 0.000000 0.000000 0.000000 0.067391
#
#
# Mechanical properties :
#
#
# Convention : Reuss Voigt Hill
#
# Bulk Modulus (GPa) = 54.37866 67.87794 61.12830
# Shear Modulus (GPa) = 23.68501 26.99386 25.33944
#
# Velocity S-wave (km/s) = 3.47685 3.71178 3.59624
# Velocity P-wave (km/s) = 6.62361 7.28105 6.96010
#
# Compressibility (1/GPa) = 0.01838957
#
# Stress axis : x y z
#
# Youngs Moduli (GPa) = 70.17625 99.27453 45.76401
#
# Poissons Ratio (x) = 0.49254 0.20842
# Poissons Ratio (y) = 0.34817 0.20029
# Poissons Ratio (z) = 0.31961 0.43448
#
# Static dielectric constant tensor:
#      x y z
#    x 3.537770 0.000000 0.000000 
#    y 0.000000 3.727120 0.000000 
#    z 0.000000 0.000000 3.512870 
# 
# 
# High freq. dielectric constant tensor:
#      x y z
#    x 1.761350 0.000000 0.000000 
#    y 0.000000 1.769570 0.000000 
#    z 0.000000 0.000000 1.763940 
# 
# From -- ./inp_files/9409.got.cif
#   From: 2010.03.12/outbox.cif.g09.slc.cpg/sg57_5_cif.got.tgz:9409.got - 2010.04.16 15:48:40.
