data_PCOD8231799
_publ_section_title
;
Structure prediction by ZEFSAII (Michael W. Deem and Ramdas Pophale) SiO2 
 PCOD8231799
Probable space group: P B C M
;
_chemical_formula_sum "Si O2"
_cell_formula_units_Z 56
_cell_length_a 10.842860
_cell_length_b 12.815461
_cell_length_c 19.981661
_cell_angle_alpha 90.000000
_cell_angle_beta 90.000000
_cell_angle_gamma 90.000000
_cell_volume 2776.576671
_symmetry_space_group_name_H-M "P B C M"
_symmetry_group_IT_number 57
_symmetry_cell_setting 'orthorhombic'
loop_
_space_group_symop_operation_xyz
x,y,z
-x,-y,1/2+z
x,1/2-y,-z
-x,1/2+y,1/2-z
-x,-y,-z
x,y,1/2-z
-x,1/2+y,z
x,1/2-y,1/2+z
loop_
_atom_site_type_symbol
_atom_site_label
_atom_site_fract_x
_atom_site_fract_y
_atom_site_fract_z
Si Si1 0.948537 0.593642 0.324952
Si Si2 0.685481 0.106827 0.889169
Si Si3 0.048334 0.448587 0.432840
Si Si4 0.331639 0.108384 0.325663
Si Si5 0.092804 0.743264 0.598112
Si Si6 0.742908 0.085229 0.039353
Si Si7 0.485156 0.785256 0.925156
O O1 0.975277 0.556349 0.250000
O O2 0.810994 0.637764 0.333144
O O3 0.969950 0.493791 0.371339
O O4 0.040084 0.686808 0.342725
O O5 0.806334 0.169912 0.866232
O O6 0.714722 0.059951 0.962511
O O7 0.569107 0.183552 0.889486
O O8 0.652126 0.014894 0.838554
O O9 0.194428 0.481313 0.427172
O O10 0.000000 0.500000 0.500000
O O11 0.020050 0.324721 0.434281
O O12 0.379083 0.131862 0.250000
O O13 0.401159 0.176653 0.381099
O O14 0.158528 0.818686 0.542864
O O15 0.615912 0.120659 0.074537
O O16 0.525611 0.750000 0.000000
#
# Coordination Sequence:
#
# PCOD8231799 Si02
#       7
#     8   8   8   8   8   8   8
#     4  10  23  38  54  83 123 157 194 243 291 361
#     4  10  19  39  63  85 115 157 188 243 309 357
#     4  11  19  33  61  92 118 151 190 243 303 353
#     4  11  23  42  59  84 119 157 207 250 291 358
#     4  10  19  34  59  87 117 156 191 237 302 357
#     4   9  19  35  58  91 123 144 196 254 290 356
#     4   9  21  40  61  85 116 154 202 253 298 344
#
# _framework density 20.168721000000001
#
# number of rings (size 3 to 8) (size 9 to 14) (size 15 to 20)
#    0.000    2.000    2.857    1.286    2.000    4.000 
#    7.714    5.714    0.000    0.000    0.000    0.000 
#    0.000    0.000    0.000    0.000    0.000    0.000 
#
# Total GULP energy -694077.900407 kJ/mol
# GULP energy per Si atom -12394.248222 kJ/mol
# Density = 2.012282 g / cm^3
# Si number density = 20.168721 Si / 1000 Ang^3
#
#
#
# Elastic Constant Matrix: (Units=GPa)
#
#
# Indices 1 2 3 4 5 6 
#
# 1 45.4948 -2.1801 23.2400 0.0000 0.0000 0.0000
# 2 -2.1801 42.0264 4.4616 0.0000 0.0000 0.0000
# 3 23.2400 4.4616 85.3202 0.0000 0.0000 0.0000
# 4 0.0000 0.0000 0.0000 28.3494 0.0000 0.0000
# 5 0.0000 0.0000 0.0000 0.0000 28.8219 0.0000
# 6 0.0000 0.0000 0.0000 0.0000 0.0000 24.6939
#
#
#
# Elastic Compliance Matrix: (Units=1/GPa)
#
#
# Indices 1 2 3 4 5 6 
#
# 1 0.025714 0.002089 -0.007113 0.000000 0.000000 0.000000
# 2 0.002089 0.024097 -0.001829 0.000000 0.000000 0.000000
# 3 -0.007113 -0.001829 0.013754 0.000000 0.000000 0.000000
# 4 0.000000 0.000000 0.000000 0.035274 0.000000 0.000000
# 5 0.000000 0.000000 0.000000 0.000000 0.034696 0.000000
# 6 0.000000 0.000000 0.000000 0.000000 0.000000 0.040496
#
#
# Mechanical properties :
#
#
# Convention : Reuss Voigt Hill
#
# Bulk Modulus (GPa) = 20.05681 24.87603 22.46642
# Shear Modulus (GPa) = 24.46692 26.19438 25.33065
#
# Velocity S-wave (km/s) = 3.48675 3.60774 3.54777
# Velocity P-wave (km/s) = 5.11625 5.45116 5.28636
#
# Compressibility (1/GPa) = 0.04985838
#
# Stress axis : x y z
#
# Youngs Moduli (GPa) = 38.88867 41.49871 72.70710
#
# Poissons Ratio (x) = -0.08670 0.51720
# Poissons Ratio (y) = -0.08124 0.13299
# Poissons Ratio (z) = 0.27663 0.07591
#
# Static dielectric constant tensor:
#      x y z
#    x 3.764890 0.000000 0.000000 
#    y 0.000000 3.810790 0.000000 
#    z 0.000000 0.000000 3.445440 
# 
# 
# High freq. dielectric constant tensor:
#      x y z
#    x 1.779510 0.000000 0.000000 
#    y 0.000000 1.781850 0.000000 
#    z 0.000000 0.000000 1.769350 
# 
# From -- ./inp_files/25029.got.cif
#   From: 2010.03.12/outbox.cif.g09.slc.cpg/sg57_13_cif.got.tgz:25029.got - 2010.04.16 15:48:40.
