data_PCOD8231671
_publ_section_title
;
Structure prediction by ZEFSAII (Michael W. Deem and Ramdas Pophale) SiO2 
 PCOD8231671
Probable space group: P B C M
;
_chemical_formula_sum "Si O2"
_cell_formula_units_Z 64
_cell_length_a 18.367425
_cell_length_b 19.866558
_cell_length_c 8.923201
_cell_angle_alpha 90.000000
_cell_angle_beta 90.000000
_cell_angle_gamma 90.000000
_cell_volume 3256.053862
_symmetry_space_group_name_H-M "P B C M"
_symmetry_group_IT_number 57
_symmetry_cell_setting 'orthorhombic'
loop_
_space_group_symop_operation_xyz
x,y,z
-x,-y,1/2+z
x,1/2-y,-z
-x,1/2+y,1/2-z
-x,-y,-z
x,y,1/2-z
-x,1/2+y,z
x,1/2-y,1/2+z
loop_
_atom_site_type_symbol
_atom_site_label
_atom_site_fract_x
_atom_site_fract_y
_atom_site_fract_z
Si Si1 0.213690 0.460455 0.076388
Si Si2 0.730719 0.681874 0.925847
Si Si3 0.068617 0.535663 0.070899
Si Si4 0.918087 0.313698 0.586418
Si Si5 0.521903 0.431214 0.074922
Si Si6 0.251758 0.812933 0.914305
Si Si7 0.308734 0.561252 0.922203
Si Si8 0.423906 0.319853 0.570415
O O1 0.222960 0.477510 0.250000
O O2 0.212887 0.379713 0.049269
O O3 0.139894 0.494771 0.014755
O O4 0.284755 0.490600 0.994720
O O5 0.716007 0.694518 0.750000
O O6 0.763366 0.750000 0.000000
O O7 0.655499 0.662305 0.006543
O O8 0.064821 0.533995 0.250000
O O9 0.069505 0.612934 0.010614
O O10 0.000000 0.500000 0.000000
O O11 0.953907 0.250000 0.500000
O O12 0.954949 0.314400 0.750000
O O13 0.833140 0.299668 0.603344
O O14 0.500139 0.429697 0.250000
O O15 0.607471 0.422173 0.051875
O O16 0.500000 0.500000 0.000000
O O17 0.482054 0.373813 0.982753
O O18 0.288126 0.818834 0.750000
O O19 0.288728 0.750000 0.000000
O O20 0.260957 0.880922 0.004394
O O21 0.288335 0.557540 0.750000
O O22 0.450740 0.250000 0.500000
O O23 0.421352 0.316737 0.750000
#
# Coordination Sequence:
#
# PCOD8231671 Si02
#       8
#     8   8   8   8   8   8   8   8
#     4  10  21  39  60  82 114 151 187 233 290 345
#     4  10  20  36  61  87 113 149 189 236 292 347
#     4  10  21  39  59  86 119 154 192 235 286 342
#     4   9  18  34  57  82 113 148 187 228 270 325
#     4  11  24  40  56  80 113 149 192 240 290 348
#     4  10  19  34  55  80 112 147 183 228 275 328
#     4  11  23  36  55  83 112 145 189 237 285 339
#     4  11  22  38  60  84 114 152 194 242 291 346
#
# _framework density 19.655694
#
# number of rings (size 3 to 8) (size 9 to 14) (size 15 to 20)
#    0.000    1.750    1.250    4.125    0.000    7.000 
#    0.000    0.625    0.000    3.000    0.000    0.000 
#    0.000    0.000    0.000    0.000    0.000    0.000 
#
# Total GULP energy -793487.550105 kJ/mol
# GULP energy per Si atom -12398.242970 kJ/mol
# Density = 1.961096 g / cm^3
# Si number density = 19.655694 Si / 1000 Ang^3
#
#
#
# Elastic Constant Matrix: (Units=GPa)
#
#
# Indices 1 2 3 4 5 6 
#
# 1 53.8702 52.6267 40.4336 0.0000 0.0000 0.0000
# 2 52.6267 172.2607 66.5379 0.0000 0.0000 0.0000
# 3 40.4336 66.5379 108.8743 0.0000 0.0000 0.0000
# 4 0.0000 0.0000 0.0000 36.9176 0.0000 0.0000
# 5 0.0000 0.0000 0.0000 0.0000 22.6876 0.0000
# 6 0.0000 0.0000 0.0000 0.0000 0.0000 20.8426
#
#
#
# Elastic Compliance Matrix: (Units=1/GPa)
#
#
# Indices 1 2 3 4 5 6 
#
# 1 0.030365 -0.006442 -0.007340 0.000000 0.000000 0.000000
# 2 -0.006442 0.008965 -0.003087 0.000000 0.000000 0.000000
# 3 -0.007340 -0.003087 0.013798 0.000000 0.000000 0.000000
# 4 0.000000 0.000000 0.000000 0.027087 0.000000 0.000000
# 5 0.000000 0.000000 0.000000 0.000000 0.044077 0.000000
# 6 0.000000 0.000000 0.000000 0.000000 0.000000 0.047979
#
#
# Mechanical properties :
#
#
# Convention : Reuss Voigt Hill
#
# Bulk Modulus (GPa) = 51.57099 72.68908 62.13003
# Shear Modulus (GPa) = 23.53244 27.78336 25.65790
#
# Velocity S-wave (km/s) = 3.46386 3.76374 3.61691
# Velocity P-wave (km/s) = 6.50322 7.47991 7.00860
#
# Compressibility (1/GPa) = 0.01939075
#
# Stress axis : x y z
#
# Youngs Moduli (GPa) = 32.93212 111.53937 72.47669
#
# Poissons Ratio (x) = 0.71848 0.53201
# Poissons Ratio (y) = 0.21213 0.22373
# Poissons Ratio (z) = 0.24174 0.34431
#
# Static dielectric constant tensor:
#      x y z
#    x 3.230820 0.000000 0.000000 
#    y 0.000000 3.823900 0.000000 
#    z 0.000000 0.000000 3.915170 
# 
# 
# High freq. dielectric constant tensor:
#      x y z
#    x 1.734800 0.000000 0.000000 
#    y 0.000000 1.785000 0.000000 
#    z 0.000000 0.000000 1.774010 
# 
# From -- ./inp_files/7190.got.cif
#   From: 2010.03.12/outbox.cif.g09.slc.cpg/sg57_4_cif.got.tgz:7190.got - 2010.04.16 15:48:40.
