data_PCOD8231572
_publ_section_title
;
Structure prediction by ZEFSAII (Michael W. Deem and Ramdas Pophale) SiO2 
 PCOD8231572
Probable space group: P B C M
;
_chemical_formula_sum "Si O2"
_cell_formula_units_Z 64
_cell_length_a 10.548895
_cell_length_b 32.723583
_cell_length_c 9.366537
_cell_angle_alpha 90.000000
_cell_angle_beta 90.000000
_cell_angle_gamma 90.000000
_cell_volume 3233.306478
_symmetry_space_group_name_H-M "P B C M"
_symmetry_group_IT_number 57
_symmetry_cell_setting 'orthorhombic'
loop_
_space_group_symop_operation_xyz
x,y,z
-x,-y,1/2+z
x,1/2-y,-z
-x,1/2+y,1/2-z
-x,-y,-z
x,y,1/2-z
-x,1/2+y,z
x,1/2-y,1/2+z
loop_
_atom_site_type_symbol
_atom_site_label
_atom_site_fract_x
_atom_site_fract_y
_atom_site_fract_z
Si Si1 0.845450 0.211291 0.914401
Si Si2 0.185077 0.403110 0.910538
Si Si3 0.795349 0.419700 0.094984
Si Si4 0.411745 0.125307 0.918093
Si Si5 0.545331 0.039529 0.913801
Si Si6 0.083595 0.639957 0.407902
Si Si7 0.550023 0.209572 0.585255
Si Si8 0.053999 0.035815 0.592830
O O1 0.878144 0.217030 0.750000
O O2 0.698110 0.202673 0.943054
O O3 0.892809 0.250000 0.000000
O O4 0.931749 0.175720 0.978325
O O5 0.231983 0.414301 0.750000
O O6 0.049188 0.382538 0.899564
O O7 0.283488 0.373381 0.989318
O O8 0.171106 0.443866 0.007415
O O9 0.753008 0.399968 0.250000
O O10 0.696883 0.456038 0.059536
O O11 0.938587 0.433693 0.115610
O O12 0.799266 0.387787 0.965181
O O13 0.380778 0.125585 0.750000
O O14 0.485574 0.083385 0.960606
O O15 0.485305 0.166837 0.962423
O O16 0.512807 0.030417 0.750000
O O17 0.500000 0.000000 0.000000
O O18 0.122918 0.655376 0.250000
O O19 0.501233 0.250000 0.500000
O O20 0.521457 0.218809 0.750000
O O21 0.102519 0.021314 0.750000
O O22 0.000000 0.000000 0.500000
#
# Coordination Sequence:
#
# PCOD8231572 Si02
#       8
#     8   8   8   8   8   8   8   8
#     4  10  19  33  56  85 116 146 177 222 276 334
#     4  10  22  38  55  78 108 145 190 235 278 332
#     4   9  19  36  55  75 103 139 176 218 273 329
#     4  10  21  38  58  81 113 153 191 233 286 343
#     4  10  22  38  55  80 112 147 187 231 282 340
#     4  10  20  35  55  80 108 138 180 229 275 328
#     4   9  19  36  59  87 117 147 186 231 281 339
#     4  10  20  34  55  80 106 138 179 228 279 331
#
# _framework density 19.793979
#
# number of rings (size 3 to 8) (size 9 to 14) (size 15 to 20)
#    0.000    2.250    0.000    2.250    1.750    6.000 
#    0.000    1.875    0.000    1.500    0.000    0.000 
#    0.000    0.000    0.000    0.000    0.000    0.000 
#
# Total GULP energy -793110.389863 kJ/mol
# GULP energy per Si atom -12392.349842 kJ/mol
# Density = 1.974893 g / cm^3
# Si number density = 19.793979 Si / 1000 Ang^3
#
#
#
# Elastic Constant Matrix: (Units=GPa)
#
#
# Indices 1 2 3 4 5 6 
#
# 1 23.8828 2.5221 16.5967 0.0000 0.0000 0.0000
# 2 2.5221 107.9560 52.0971 0.0000 0.0000 0.0000
# 3 16.5967 52.0971 133.5272 0.0000 0.0000 0.0000
# 4 0.0000 0.0000 0.0000 41.2952 0.0000 0.0000
# 5 0.0000 0.0000 0.0000 0.0000 21.9973 0.0000
# 6 0.0000 0.0000 0.0000 0.0000 0.0000 22.6935
#
#
#
# Elastic Compliance Matrix: (Units=1/GPa)
#
#
# Indices 1 2 3 4 5 6 
#
# 1 0.046207 0.002085 -0.006557 0.000000 0.000000 0.000000
# 2 0.002085 0.011506 -0.004748 0.000000 0.000000 0.000000
# 3 -0.006557 -0.004748 0.010157 0.000000 0.000000 0.000000
# 4 0.000000 0.000000 0.000000 0.024216 0.000000 0.000000
# 5 0.000000 0.000000 0.000000 0.000000 0.045460 0.000000
# 6 0.000000 0.000000 0.000000 0.000000 0.000000 0.044065
#
#
# Mechanical properties :
#
#
# Convention : Reuss Voigt Hill
#
# Bulk Modulus (GPa) = 20.23095 45.31085 32.77090
# Shear Modulus (GPa) = 23.09171 30.14055 26.61613
#
# Velocity S-wave (km/s) = 3.41926 3.90643 3.67094
# Velocity P-wave (km/s) = 5.08246 6.57935 5.87874
#
# Compressibility (1/GPa) = 0.04942922
#
# Stress axis : x y z
#
# Youngs Moduli (GPa) = 21.64157 86.91351 98.45806
#
# Poissons Ratio (x) = -0.18118 0.64555
# Poissons Ratio (y) = -0.04511 0.46750
# Poissons Ratio (z) = 0.14190 0.41268
#
# Static dielectric constant tensor:
#      x y z
#    x 3.038960 0.000000 0.000000 
#    y 0.000000 3.492600 0.000000 
#    z 0.000000 0.000000 4.022660 
# 
# 
# High freq. dielectric constant tensor:
#      x y z
#    x 1.752620 0.000000 0.000000 
#    y 0.000000 1.765650 0.000000 
#    z 0.000000 0.000000 1.783520 
# 
# From -- ./inp_files/3750.got.cif
#   From: 2010.03.12/outbox.cif.g09.slc.cpg/sg57_2_cif.got.tgz:3750.got - 2010.04.16 15:48:40.
