data_PCOD8231677
_publ_section_title
;
Structure prediction by ZEFSAII (Michael W. Deem and Ramdas Pophale) SiO2 
 PCOD8231677
Probable space group: P B C M
;
_chemical_formula_sum "Si O2"
_cell_formula_units_Z 56
_cell_length_a 21.856352
_cell_length_b 13.932047
_cell_length_c 8.931247
_cell_angle_alpha 90.000000
_cell_angle_beta 90.000000
_cell_angle_gamma 90.000000
_cell_volume 2719.597965
_symmetry_space_group_name_H-M "P B C M"
_symmetry_group_IT_number 57
_symmetry_cell_setting 'orthorhombic'
loop_
_space_group_symop_operation_xyz
x,y,z
-x,-y,1/2+z
x,1/2-y,-z
-x,1/2+y,1/2-z
-x,-y,-z
x,y,1/2-z
-x,1/2+y,z
x,1/2-y,1/2+z
loop_
_atom_site_type_symbol
_atom_site_label
_atom_site_fract_x
_atom_site_fract_y
_atom_site_fract_z
Si Si1 0.938795 0.976175 0.085596
Si Si2 0.138853 0.835937 0.915355
Si Si3 0.826316 0.645871 0.930112
Si Si4 0.735140 0.340235 0.080230
Si Si5 0.529079 0.350677 0.573455
Si Si6 0.414309 0.052775 0.926241
Si Si7 0.708946 0.947926 0.923296
O O1 0.957750 0.939840 0.250000
O O2 0.891616 0.898501 0.014733
O O3 0.903922 0.074607 0.094818
O O4 0.000000 0.000000 0.000000
O O5 0.158019 0.802323 0.750000
O O6 0.102853 0.750000 0.000000
O O7 0.199137 0.859289 0.008087
O O8 0.822875 0.647236 0.750000
O O9 0.820558 0.750000 0.000000
O O10 0.770442 0.583042 0.992025
O O11 0.744013 0.310087 0.250000
O O12 0.698050 0.437994 0.064601
O O13 0.701305 0.250000 0.000000
O O14 0.551984 0.250000 0.500000
O O15 0.521703 0.334630 0.750000
O O16 0.575601 0.439017 0.539538
O O17 0.464474 0.380580 0.503673
O O18 0.415587 0.072077 0.750000
O O19 0.350544 0.092874 0.993432
O O20 0.712254 0.914327 0.750000
#
# Coordination Sequence:
#
# PCOD8231677 Si02
#       7
#     8   8   8   8   8   8   8
#     4  10  23  40  61  86 117 154 195 245 299 356
#     4  10  19  34  55  82 111 144 184 229 285 345
#     4  11  24  44  65  89 121 159 203 252 304 361
#     4  10  20  33  54  83 114 150 189 233 288 349
#     4  10  21  39  63  90 123 162 205 253 304 357
#     4  10  22  39  61  90 123 162 205 253 303 356
#     4  11  23  39  61  90 123 161 203 250 302 360
#
# _framework density 20.591280999999999
#
# number of rings (size 3 to 8) (size 9 to 14) (size 15 to 20)
#    0.000    1.714    1.429    3.429    0.000    7.429 
#    0.000    8.571    0.000    0.000    0.000    0.000 
#    0.000    0.000    0.000    0.000    0.000    0.000 
#
# Total GULP energy -694010.818493 kJ/mol
# GULP energy per Si atom -12393.050330 kJ/mol
# Density = 2.054441 g / cm^3
# Si number density = 20.591281 Si / 1000 Ang^3
#
#
#
# Elastic Constant Matrix: (Units=GPa)
#
#
# Indices 1 2 3 4 5 6 
#
# 1 92.8256 6.1269 48.0331 0.0000 0.0000 0.0000
# 2 6.1269 76.3849 30.2544 0.0000 0.0000 0.0000
# 3 48.0331 30.2544 135.0750 0.0000 0.0000 0.0000
# 4 0.0000 0.0000 0.0000 35.2443 0.0000 0.0000
# 5 0.0000 0.0000 0.0000 0.0000 25.1228 0.0000
# 6 0.0000 0.0000 0.0000 0.0000 0.0000 10.5607
#
#
#
# Elastic Compliance Matrix: (Units=1/GPa)
#
#
# Indices 1 2 3 4 5 6 
#
# 1 0.013256 0.000882 -0.004911 0.000000 0.000000 0.000000
# 2 0.000882 0.014425 -0.003545 0.000000 0.000000 0.000000
# 3 -0.004911 -0.003545 0.009944 0.000000 0.000000 0.000000
# 4 0.000000 0.000000 0.000000 0.028373 0.000000 0.000000
# 5 0.000000 0.000000 0.000000 0.000000 0.039804 0.000000
# 6 0.000000 0.000000 0.000000 0.000000 0.000000 0.094691
#
#
# Mechanical properties :
#
#
# Convention : Reuss Voigt Hill
#
# Bulk Modulus (GPa) = 44.49057 52.56826 48.52941
# Shear Modulus (GPa) = 22.40812 28.84363 25.62588
#
# Velocity S-wave (km/s) = 3.30242 3.74675 3.53158
# Velocity P-wave (km/s) = 6.01620 6.65599 6.34417
#
# Compressibility (1/GPa) = 0.02247667
#
# Stress axis : x y z
#
# Youngs Moduli (GPa) = 75.43663 69.32523 100.56559
#
# Poissons Ratio (x) = -0.06115 0.49393
# Poissons Ratio (y) = -0.06654 0.35646
# Poissons Ratio (z) = 0.37051 0.24573
#
# Static dielectric constant tensor:
#      x y z
#    x 3.133480 0.000000 0.000000 
#    y 0.000000 3.869330 0.000000 
#    z 0.000000 0.000000 3.969500 
# 
# 
# High freq. dielectric constant tensor:
#      x y z
#    x 1.796040 0.000000 0.000000 
#    y 0.000000 1.810380 0.000000 
#    z 0.000000 0.000000 1.818520 
# 
# From -- ./inp_files/8066.got.cif
#   From: 2010.03.12/outbox.cif.g09.slc.cpg/sg57_5_cif.got.tgz:8066.got - 2010.04.16 15:48:40.
