data_PCOD8231835
_publ_section_title
;
Structure prediction by ZEFSAII (Michael W. Deem and Ramdas Pophale) SiO2 
 PCOD8231835
Probable space group: P B C M
;
_chemical_formula_sum "Si O2"
_cell_formula_units_Z 56
_cell_length_a 8.264479
_cell_length_b 22.924909
_cell_length_c 15.587463
_cell_angle_alpha 90.000000
_cell_angle_beta 90.000000
_cell_angle_gamma 90.000000
_cell_volume 2953.238602
_symmetry_space_group_name_H-M "P B C M"
_symmetry_group_IT_number 57
_symmetry_cell_setting 'orthorhombic'
loop_
_space_group_symop_operation_xyz
x,y,z
-x,-y,1/2+z
x,1/2-y,-z
-x,1/2+y,1/2-z
-x,-y,-z
x,y,1/2-z
-x,1/2+y,z
x,1/2-y,1/2+z
loop_
_atom_site_type_symbol
_atom_site_label
_atom_site_fract_x
_atom_site_fract_y
_atom_site_fract_z
Si Si1 0.446295 0.620286 0.467513
Si Si2 0.154481 0.686946 0.522389
Si Si3 0.947830 0.892098 0.586500
Si Si4 0.319084 0.186074 0.348179
Si Si5 0.237913 0.960285 0.847548
Si Si6 0.867807 0.802572 0.149959
Si Si7 0.741782 0.916891 0.428500
O O1 0.313049 0.646679 0.532976
O O2 0.531366 0.671655 0.411362
O O3 0.365601 0.573863 0.404686
O O4 0.568593 0.584394 0.526081
O O5 0.221496 0.750000 0.500000
O O6 0.053824 0.663673 0.440928
O O7 0.043216 0.690247 0.606544
O O8 0.054338 0.938802 0.637513
O O9 0.805086 0.868278 0.646983
O O10 0.880032 0.922685 0.500737
O O11 0.379520 0.192896 0.250000
O O12 0.230652 0.245146 0.380976
O O13 0.287220 0.949066 0.750000
O O14 0.245816 0.028787 0.865605
O O15 0.902214 0.798508 0.250000
O O16 0.759118 0.858146 0.126841
#
# Coordination Sequence:
#
# PCOD8231835 Si02
#       7
#     8   8   8   8   8   8   8
#     4  10  23  35  57  83 113 150 190 228 280 347
#     4  10  19  35  56  81 112 147 181 223 281 334
#     4   9  19  34  58  83 106 146 195 231 273 330
#     4  10  19  35  56  85 117 143 183 234 284 330
#     4  11  21  37  56  82 114 146 191 241 285 325
#     4  10  21  37  58  85 114 147 188 235 281 330
#     4  10  21  37  59  79 114 154 193 226 279 340
#
# _framework density 18.962233999999999
#
# number of rings (size 3 to 8) (size 9 to 14) (size 15 to 20)
#    0.000    2.000    1.429    2.143    2.000    0.000 
#    0.000    2.143    0.000    0.000    0.000    0.000 
#    0.000    0.000    0.000    0.000    0.000    0.000 
#
# Total GULP energy -694407.879690 kJ/mol
# GULP energy per Si atom -12400.140709 kJ/mol
# Density = 1.891907 g / cm^3
# Si number density = 18.962234 Si / 1000 Ang^3
#
#
#
# Elastic Constant Matrix: (Units=GPa)
#
#
# Indices 1 2 3 4 5 6 
#
# 1 86.3823 36.9944 16.1789 0.0000 0.0000 0.0000
# 2 36.9944 96.7219 25.5685 0.0000 0.0000 0.0000
# 3 16.1789 25.5685 55.7677 0.0000 0.0000 0.0000
# 4 0.0000 0.0000 0.0000 26.0461 0.0000 0.0000
# 5 0.0000 0.0000 0.0000 0.0000 24.2111 0.0000
# 6 0.0000 0.0000 0.0000 0.0000 0.0000 22.7792
#
#
#
# Elastic Compliance Matrix: (Units=1/GPa)
#
#
# Indices 1 2 3 4 5 6 
#
# 1 0.014006 -0.004874 -0.001829 0.000000 0.000000 0.000000
# 2 -0.004874 0.013461 -0.004758 0.000000 0.000000 0.000000
# 3 -0.001829 -0.004758 0.020643 0.000000 0.000000 0.000000
# 4 0.000000 0.000000 0.000000 0.038394 0.000000 0.000000
# 5 0.000000 0.000000 0.000000 0.000000 0.041303 0.000000
# 6 0.000000 0.000000 0.000000 0.000000 0.000000 0.043900
#
#
# Mechanical properties :
#
#
# Convention : Reuss Voigt Hill
#
# Bulk Modulus (GPa) = 39.69828 44.03951 41.86889
# Shear Modulus (GPa) = 24.62767 25.28262 24.95515
#
# Velocity S-wave (km/s) = 3.60776 3.65542 3.63167
# Velocity P-wave (km/s) = 6.19157 6.41026 6.30186
#
# Compressibility (1/GPa) = 0.02519001
#
# Stress axis : x y z
#
# Youngs Moduli (GPa) = 71.39697 74.29054 48.44177
#
# Poissons Ratio (x) = 0.36207 0.08859
# Poissons Ratio (y) = 0.34796 0.23046
# Poissons Ratio (z) = 0.13058 0.35344
#
# Static dielectric constant tensor:
#      x y z
#    x 3.542060 0.000000 0.000000 
#    y 0.000000 3.461380 0.000000 
#    z 0.000000 0.000000 3.314760 
# 
# 
# High freq. dielectric constant tensor:
#      x y z
#    x 1.737550 0.000000 0.000000 
#    y 0.000000 1.740250 0.000000 
#    z 0.000000 0.000000 1.726890 
# 
# From -- ./inp_files/16685.got.cif
#   From: 2010.03.12/outbox.cif.g09.slc.cpg/sg57_9_cif.got.tgz:16685.got - 2010.04.16 15:48:40.
