data_PCOD8231270
_publ_section_title
;
Structure prediction by ZEFSAII (Michael W. Deem and Ramdas Pophale) SiO2 
 PCOD8231270
Probable space group: P B C M
;
_chemical_formula_sum "Si O2"
_cell_formula_units_Z 64
_cell_length_a 12.301938
_cell_length_b 29.311506
_cell_length_c 9.301438
_cell_angle_alpha 90.000000
_cell_angle_beta 90.000000
_cell_angle_gamma 90.000000
_cell_volume 3353.989990
_symmetry_space_group_name_H-M "P B C M"
_symmetry_group_IT_number 57
_symmetry_cell_setting 'orthorhombic'
loop_
_space_group_symop_operation_xyz
x,y,z
-x,-y,1/2+z
x,1/2-y,-z
-x,1/2+y,1/2-z
-x,-y,-z
x,y,1/2-z
-x,1/2+y,z
x,1/2-y,1/2+z
loop_
_atom_site_type_symbol
_atom_site_label
_atom_site_fract_x
_atom_site_fract_y
_atom_site_fract_z
Si Si1 0.164767 0.321307 0.589167
Si Si2 0.926479 0.205492 0.420231
Si Si3 0.694693 0.066004 0.084380
Si Si4 0.878666 0.594197 0.914083
Si Si5 0.465534 0.391701 0.916223
Si Si6 0.319788 0.462691 0.415243
Si Si7 0.118300 0.885797 0.079172
Si Si8 0.399873 0.292668 0.913475
O O1 0.152922 0.340075 0.750000
O O2 0.184128 0.365457 0.493334
O O3 0.269112 0.288966 0.574001
O O4 0.055467 0.294567 0.546982
O O5 0.878268 0.250000 0.500000
O O6 0.899833 0.206582 0.250000
O O7 0.871048 0.161757 0.493863
O O8 0.735459 0.067269 0.250000
O O9 0.592674 0.099037 0.061915
O O10 0.660392 0.014846 0.040203
O O11 0.788522 0.081001 0.976342
O O12 0.877513 0.609031 0.750000
O O13 0.808583 0.548485 0.941783
O O14 0.004131 0.589621 0.963015
O O15 0.431106 0.393485 0.750000
O O16 0.441249 0.341013 0.977671
O O17 0.396802 0.430362 0.993790
O O18 0.350915 0.454533 0.250000
O O19 0.129675 0.877663 0.250000
O O20 0.439596 0.287794 0.750000
O O21 0.450518 0.250000 0.000000
#
# Coordination Sequence:
#
# PCOD8231270 Si02
#       8
#     8   8   8   8   8   8   8   8
#     4   9  17  30  49  76 110 144 176 212 264 327
#     4  10  19  32  53  80 109 143 183 227 274 327
#     4  10  22  39  57  79 109 147 188 233 282 329
#     4   9  18  32  52  80 113 143 174 220 273 325
#     4  10  21  38  58  80 111 145 182 229 276 329
#     4  10  20  35  58  86 112 141 181 228 283 339
#     4  10  21  37  55  78 110 147 187 229 276 329
#     4  10  20  33  51  78 109 141 177 216 266 324
#
# _framework density 19.081752000000002
#
# number of rings (size 3 to 8) (size 9 to 14) (size 15 to 20)
#    0.000    2.250    1.250    1.500    0.000    3.500 
#    0.000    0.625    0.000    1.500    0.000    0.000 
#    0.000    0.000    0.000    0.000    0.000    0.000 
#
# Total GULP energy -793486.604099 kJ/mol
# GULP energy per Si atom -12398.228189 kJ/mol
# Density = 1.903832 g / cm^3
# Si number density = 19.081752 Si / 1000 Ang^3
#
#
#
# Elastic Constant Matrix: (Units=GPa)
#
#
# Indices 1 2 3 4 5 6 
#
# 1 53.9152 32.8022 27.0045 0.0000 0.0000 0.0000
# 2 32.8022 112.9599 47.2496 0.0000 0.0000 0.0000
# 3 27.0045 47.2496 69.1553 0.0000 0.0000 0.0000
# 4 0.0000 0.0000 0.0000 35.2202 0.0000 0.0000
# 5 0.0000 0.0000 0.0000 0.0000 23.4056 0.0000
# 6 0.0000 0.0000 0.0000 0.0000 0.0000 16.8424
#
#
#
# Elastic Compliance Matrix: (Units=1/GPa)
#
#
# Indices 1 2 3 4 5 6 
#
# 1 0.024499 -0.004358 -0.006589 0.000000 0.000000 0.000000
# 2 -0.004358 0.013170 -0.007297 0.000000 0.000000 0.000000
# 3 -0.006589 -0.007297 0.022019 0.000000 0.000000 0.000000
# 4 0.000000 0.000000 0.000000 0.028393 0.000000 0.000000
# 5 0.000000 0.000000 0.000000 0.000000 0.042725 0.000000
# 6 0.000000 0.000000 0.000000 0.000000 0.000000 0.059374
#
#
# Mechanical properties :
#
#
# Convention : Reuss Voigt Hill
#
# Bulk Modulus (GPa) = 43.10265 50.01589 46.55927
# Shear Modulus (GPa) = 21.33091 23.69191 22.51141
#
# Velocity S-wave (km/s) = 3.34708 3.52746 3.43845
# Velocity P-wave (km/s) = 6.12982 6.54667 6.34167
#
# Compressibility (1/GPa) = 0.02320043
#
# Stress axis : x y z
#
# Youngs Moduli (GPa) = 40.81719 75.92802 45.41624
#
# Poissons Ratio (x) = 0.33091 0.29925
# Poissons Ratio (y) = 0.17789 0.33139
# Poissons Ratio (z) = 0.26895 0.55402
#
# Static dielectric constant tensor:
#      x y z
#    x 3.372810 0.000000 0.000000 
#    y 0.000000 3.454510 0.000000 
#    z 0.000000 0.000000 3.618120 
# 
# 
# High freq. dielectric constant tensor:
#      x y z
#    x 1.726810 0.000000 0.000000 
#    y 0.000000 1.739490 0.000000 
#    z 0.000000 0.000000 1.741250 
# 
# From -- ./inp_files/3901.got.cif
#   From: 2010.03.12/outbox.cif.g09.slc.cpg/sg57_2_cif.got.tgz:3901.got - 2010.04.16 15:48:40.
