data_PCOD8231686
_publ_section_title
;
Structure prediction by ZEFSAII (Michael W. Deem and Ramdas Pophale) SiO2 
 PCOD8231686
Probable space group: P B C M
;
_chemical_formula_sum "Si O2"
_cell_formula_units_Z 64
_cell_length_a 23.127965
_cell_length_b 14.965846
_cell_length_c 9.262182
_cell_angle_alpha 90.000000
_cell_angle_beta 90.000000
_cell_angle_gamma 90.000000
_cell_volume 3205.915003
_symmetry_space_group_name_H-M "P B C M"
_symmetry_group_IT_number 57
_symmetry_cell_setting 'orthorhombic'
loop_
_space_group_symop_operation_xyz
x,y,z
-x,-y,1/2+z
x,1/2-y,-z
-x,1/2+y,1/2-z
-x,-y,-z
x,y,1/2-z
-x,1/2+y,z
x,1/2-y,1/2+z
loop_
_atom_site_type_symbol
_atom_site_label
_atom_site_fract_x
_atom_site_fract_y
_atom_site_fract_z
Si Si1 0.645892 0.132268 0.908238
Si Si2 0.209283 0.025257 0.915263
Si Si3 0.685916 0.563043 0.092950
Si Si4 0.011408 0.652146 0.077765
Si Si5 0.923156 0.526935 0.918004
Si Si6 0.249138 0.828070 0.585035
Si Si7 0.479313 0.915076 0.414156
Si Si8 0.400901 0.335002 0.085673
O O1 0.644209 0.180658 0.750000
O O2 0.580794 0.124881 0.973538
O O3 0.678418 0.040262 0.880192
O O4 0.684329 0.178988 0.029989
O O5 0.223643 0.048970 0.750000
O O6 0.143480 0.046127 0.954247
O O7 0.218207 0.920787 0.944278
O O8 0.252683 0.083245 0.014705
O O9 0.684876 0.612350 0.250000
O O10 0.631577 0.584040 0.990811
O O11 0.004703 0.669306 0.250000
O O12 0.062017 0.577974 0.046999
O O13 0.021699 0.750000 0.000000
O O14 0.955288 0.601086 0.015065
O O15 0.937445 0.545094 0.750000
O O16 0.214210 0.750000 0.500000
O O17 0.249008 0.801165 0.750000
O O18 0.468911 0.946327 0.250000
O O19 0.529833 0.841851 0.425716
O O20 0.500000 0.000000 0.500000
O O21 0.380482 0.329407 0.250000
O O22 0.378340 0.250000 0.000000
#
# Coordination Sequence:
#
# PCOD8231686 Si02
#       8
#     8   8   8   8   8   8   8   8
#     4   9  18  33  52  74 100 131 169 211 259 320
#     4   9  19  36  57  80 108 144 186 227 271 322
#     4  10  19  34  56  78 103 134 171 215 264 319
#     4  10  20  35  58  88 122 160 198 237 284 334
#     4   9  19  37  59  85 119 157 197 241 283 332
#     4  10  20  33  50  74 105 141 179 222 272 326
#     4  10  20  34  54  78 102 131 170 213 264 326
#     4  11  23  37  54  76 104 135 171 217 269 322
#
# _framework density 19.963099
#
# number of rings (size 3 to 8) (size 9 to 14) (size 15 to 20)
#    0.000    2.250    1.250    1.500    0.000    4.000 
#    0.000    1.875    0.000    3.000    0.000    0.000 
#    0.000    0.000    0.000    0.000    0.000    0.000 
#
# Total GULP energy -792866.142548 kJ/mol
# GULP energy per Si atom -12388.533477 kJ/mol
# Density = 1.991766 g / cm^3
# Si number density = 19.963099 Si / 1000 Ang^3
#
#
#
# Elastic Constant Matrix: (Units=GPa)
#
#
# Indices 1 2 3 4 5 6 
#
# 1 86.6584 -3.7037 24.7864 0.0000 0.0000 0.0000
# 2 -3.7037 53.2808 26.5150 0.0000 0.0000 0.0000
# 3 24.7864 26.5150 109.4571 0.0000 0.0000 0.0000
# 4 0.0000 0.0000 0.0000 32.4194 0.0000 0.0000
# 5 0.0000 0.0000 0.0000 0.0000 27.7928 0.0000
# 6 0.0000 0.0000 0.0000 0.0000 0.0000 12.1815
#
#
#
# Elastic Compliance Matrix: (Units=1/GPa)
#
#
# Indices 1 2 3 4 5 6 
#
# 1 0.012653 0.002621 -0.003500 0.000000 0.000000 0.000000
# 2 0.002621 0.021884 -0.005895 0.000000 0.000000 0.000000
# 3 -0.003500 -0.005895 0.011357 0.000000 0.000000 0.000000
# 4 0.000000 0.000000 0.000000 0.030846 0.000000 0.000000
# 5 0.000000 0.000000 0.000000 0.000000 0.035981 0.000000
# 6 0.000000 0.000000 0.000000 0.000000 0.000000 0.082092
#
#
# Mechanical properties :
#
#
# Convention : Reuss Voigt Hill
#
# Bulk Modulus (GPa) = 30.91550 38.28797 34.60173
# Shear Modulus (GPa) = 22.81638 27.93199 25.37418
#
# Velocity S-wave (km/s) = 3.38439 3.74462 3.56905
# Velocity P-wave (km/s) = 5.54906 6.15770 5.86128
#
# Compressibility (1/GPa) = 0.03234623
#
# Stress axis : x y z
#
# Youngs Moduli (GPa) = 79.03428 45.69489 88.05456
#
# Poissons Ratio (x) = -0.11978 0.30821
# Poissons Ratio (y) = -0.20718 0.51907
# Poissons Ratio (z) = 0.27664 0.26937
#
# Static dielectric constant tensor:
#      x y z
#    x 3.616350 0.000000 0.000000 
#    y 0.000000 3.519930 0.000000 
#    z 0.000000 0.000000 4.001430 
# 
# 
# High freq. dielectric constant tensor:
#      x y z
#    x 1.769650 0.000000 0.000000 
#    y 0.000000 1.762270 0.000000 
#    z 0.000000 0.000000 1.788300 
# 
# From -- ./inp_files/9274.got.cif
#   From: 2010.03.12/outbox.cif.g09.slc.cpg/sg57_5_cif.got.tgz:9274.got - 2010.04.16 15:48:40.
