data_PCOD8231844
_publ_section_title
;
Structure prediction by ZEFSAII (Michael W. Deem and Ramdas Pophale) SiO2 
 PCOD8231844
Probable space group: P B C M
;
_chemical_formula_sum "Si O2"
_cell_formula_units_Z 64
_cell_length_a 19.312507
_cell_length_b 10.108545
_cell_length_c 17.838331
_cell_angle_alpha 90.000000
_cell_angle_beta 90.000000
_cell_angle_gamma 90.000000
_cell_volume 3482.422990
_symmetry_space_group_name_H-M "P B C M"
_symmetry_group_IT_number 57
_symmetry_cell_setting 'orthorhombic'
loop_
_space_group_symop_operation_xyz
x,y,z
-x,-y,1/2+z
x,1/2-y,-z
-x,1/2+y,1/2-z
-x,-y,-z
x,y,1/2-z
-x,1/2+y,z
x,1/2-y,1/2+z
loop_
_atom_site_type_symbol
_atom_site_label
_atom_site_fract_x
_atom_site_fract_y
_atom_site_fract_z
Si Si1 0.150660 0.002062 0.094892
Si Si2 0.920559 0.258660 0.336764
Si Si3 0.291654 0.393293 0.907570
Si Si4 0.710078 0.599827 0.585404
Si Si5 0.555515 0.895369 0.909890
Si Si6 0.149924 0.523795 0.078909
Si Si7 0.064519 0.237564 0.914750
Si Si8 0.442980 0.096966 0.911887
O O1 0.230816 0.010950 0.122895
O O2 0.119578 0.148404 0.101812
O O3 0.108170 0.905103 0.148066
O O4 0.147491 0.950632 0.009835
O O5 0.914802 0.224918 0.250000
O O6 0.000141 0.248460 0.359905
O O7 0.874451 0.155974 0.381876
O O8 0.279697 0.244303 0.877621
O O9 0.368012 0.443979 0.883353
O O10 0.286386 0.386974 0.996591
O O11 0.772387 0.503647 0.610011
O O12 0.634266 0.546555 0.610363
O O13 0.542649 0.745356 0.881079
O O14 0.498252 0.995111 0.875854
O O15 0.550607 0.898687 0.999050
O O16 0.100196 0.402714 0.100518
O O17 0.037518 0.250000 0.000000
#
# Coordination Sequence:
#
# PCOD8231844 Si02
#       8
#     8   8   8   8   8   8   8   8
#     4  10  19  35  57  78  99 129 172 215 253 294
#     4  12  26  38  48  72 109 138 162 202 261 312
#     4   8  13  25  46  69  93 127 168 206 241 285
#     4   8  13  25  46  69  93 127 168 206 241 285
#     4   8  13  21  34  57  94 133 161 186 229 289
#     4  10  19  35  57  78  99 129 172 215 253 294
#     4  10  20  36  60  80  95 124 172 216 253 300
#     4   8  13  21  34  57  94 133 161 186 229 289
#
# _framework density 18.378008000000001
#
# number of rings (size 3 to 8) (size 9 to 14) (size 15 to 20)
#    0.000    2.750    1.250    3.375    0.000    4.000 
#    2.250    0.000    0.000    0.000    0.000    0.000 
#    0.000    1.000    0.000    0.000    0.500    0.000 
#
# Total GULP energy -793222.083205 kJ/mol
# GULP energy per Si atom -12394.095050 kJ/mol
# Density = 1.833618 g / cm^3
# Si number density = 18.378008 Si / 1000 Ang^3
#
#
#
# Elastic Constant Matrix: (Units=GPa)
#
#
# Indices 1 2 3 4 5 6 
#
# 1 142.3497 36.9268 21.8205 0.0000 0.0000 0.0000
# 2 36.9268 59.9294 12.3188 0.0000 0.0000 0.0000
# 3 21.8205 12.3188 23.0407 0.0000 0.0000 0.0000
# 4 0.0000 0.0000 0.0000 1.6070 0.0000 0.0000
# 5 0.0000 0.0000 0.0000 0.0000 -0.5722 0.0000
# 6 0.0000 0.0000 0.0000 0.0000 0.0000 19.9501
#
#
#
# Elastic Compliance Matrix: (Units=1/GPa)
#
#
# Indices 1 2 3 4 5 6 
#
# 1 0.009114 -0.004316 -0.006324 0.000000 0.000000 0.000000
# 2 -0.004316 0.020790 -0.007028 0.000000 0.000000 0.000000
# 3 -0.006324 -0.007028 0.053148 0.000000 0.000000 0.000000
# 4 0.000000 0.000000 0.000000 0.622283 0.000000 0.000000
# 5 0.000000 0.000000 0.000000 0.000000 -1.747588 0.000000
# 6 0.000000 0.000000 0.000000 0.000000 0.000000 0.050125
#
#
# Mechanical properties :
#
#
# Convention : Reuss Voigt Hill
#
# Bulk Modulus (GPa) = 20.95721 40.82802 30.89262
# Shear Modulus (GPa) = -5.31414 14.48055 4.58321
#
# Velocity S-wave (km/s) = -1.70231 2.81005 1.58091
# Velocity P-wave (km/s) = 2.75034 5.72647 4.49204
#
# Compressibility (1/GPa) = 0.04771628
#
# Stress axis : x y z
#
# Youngs Moduli (GPa) = 109.72287 48.09934 18.81540
#
# Poissons Ratio (x) = 0.20759 0.11898
# Poissons Ratio (y) = 0.47354 0.13224
# Poissons Ratio (z) = 0.69386 0.33806
#
# Static dielectric constant tensor:
#      x y z
#    x 3.816010 0.000000 0.000000 
#    y 0.000000 3.412300 0.000000 
#    z 0.000000 0.000000 2.814090 
# 
# 
# High freq. dielectric constant tensor:
#      x y z
#    x 1.731910 0.000000 0.000000 
#    y 0.000000 1.705540 0.000000 
#    z 0.000000 0.000000 1.644180 
# 
# From -- ./inp_files/23010.got.cif
#   From: 2010.03.12/outbox.cif.g09.slc.cpg/sg57_12_cif.got.tgz:23010.got - 2010.04.16 15:48:40.
