data_PCOD8231168
_publ_section_title
;
Structure prediction by ZEFSAII (Michael W. Deem and Ramdas Pophale) SiO2 
 PCOD8231168
Probable space group: P B C M
;
_chemical_formula_sum "Si O2"
_cell_formula_units_Z 64
_cell_length_a 11.519803
_cell_length_b 33.028369
_cell_length_c 9.223701
_cell_angle_alpha 90.000000
_cell_angle_beta 90.000000
_cell_angle_gamma 90.000000
_cell_volume 3509.436563
_symmetry_space_group_name_H-M "P B C M"
_symmetry_group_IT_number 57
_symmetry_cell_setting 'orthorhombic'
loop_
_space_group_symop_operation_xyz
x,y,z
-x,-y,1/2+z
x,1/2-y,-z
-x,1/2+y,1/2-z
-x,-y,-z
x,y,1/2-z
-x,1/2+y,z
x,1/2-y,1/2+z
loop_
_atom_site_type_symbol
_atom_site_label
_atom_site_fract_x
_atom_site_fract_y
_atom_site_fract_z
Si Si1 0.720328 0.209703 0.581565
Si Si2 0.772932 0.971408 0.416254
Si Si3 0.345528 0.110381 0.920593
Si Si4 0.978367 0.559075 0.412380
Si Si5 0.760681 0.060955 0.418145
Si Si6 0.859203 0.645370 0.085546
Si Si7 0.391370 0.626466 0.920682
Si Si8 0.989342 0.209510 0.579901
O O1 0.677020 0.250000 0.500000
O O2 0.698581 0.217603 0.750000
O O3 0.647891 0.170949 0.525567
O O4 0.854626 0.200619 0.548166
O O5 0.805100 0.965087 0.250000
O O6 0.685153 0.935929 0.466247
O O7 0.896976 0.970975 0.496743
O O8 0.713041 0.015096 0.442313
O O9 0.325911 0.117696 0.750000
O O10 0.476498 0.119394 0.967205
O O11 0.266617 0.141493 0.010925
O O12 0.986246 0.541526 0.250000
O O13 0.921508 0.602757 0.414315
O O14 0.107471 0.562568 0.477313
O O15 0.755200 0.073636 0.250000
O O16 0.684575 0.091771 0.507921
O O17 0.845657 0.661952 0.250000
O O18 0.936490 0.673922 0.987141
O O19 0.373246 0.622674 0.750000
O O20 0.029527 0.250000 0.500000
O O21 0.014646 0.213397 0.750000
#
# Coordination Sequence:
#
# PCOD8231168 Si02
#       8
#     8   8   8   8   8   8   8   8
#     4   9  19  35  55  79 104 130 161 199 246 299
#     4   9  18  32  50  72  99 134 173 211 254 303
#     4   9  19  36  53  69  97 137 176 214 253 293
#     4   9  18  31  48  72 101 131 164 208 259 308
#     4  10  20  32  48  74 105 133 166 211 259 304
#     4  10  19  32  51  74  99 129 167 206 250 303
#     4  10  21  36  53  74 100 133 174 212 249 300
#     4  10  19  32  52  78 106 131 157 195 246 302
#
# _framework density 18.236545
#
# number of rings (size 3 to 8) (size 9 to 14) (size 15 to 20)
#    0.000    2.500    0.000    1.875    0.000    3.500 
#    0.000    0.625    0.000    1.500    0.000    0.000 
#    0.000    0.000    0.000    0.000    0.000    0.000 
#
# Total GULP energy -793594.431433 kJ/mol
# GULP energy per Si atom -12399.912991 kJ/mol
# Density = 1.819504 g / cm^3
# Si number density = 18.236545 Si / 1000 Ang^3
#
#
#
# Elastic Constant Matrix: (Units=GPa)
#
#
# Indices 1 2 3 4 5 6 
#
# 1 109.8389 56.7866 42.6957 0.0000 0.0000 0.0000
# 2 56.7866 81.0280 34.5057 0.0000 0.0000 0.0000
# 3 42.6957 34.5057 61.0920 0.0000 0.0000 0.0000
# 4 0.0000 0.0000 0.0000 31.4362 0.0000 0.0000
# 5 0.0000 0.0000 0.0000 0.0000 26.4903 0.0000
# 6 0.0000 0.0000 0.0000 0.0000 0.0000 947.9050
#
#
#
# Elastic Compliance Matrix: (Units=1/GPa)
#
#
# Indices 1 2 3 4 5 6 
#
# 1 0.015961 -0.008474 -0.006368 0.000000 0.000000 0.000000
# 2 -0.008474 0.020749 -0.005797 0.000000 0.000000 0.000000
# 3 -0.006368 -0.005797 0.024094 0.000000 0.000000 0.000000
# 4 0.000000 0.000000 0.000000 0.031810 0.000000 0.000000
# 5 0.000000 0.000000 0.000000 0.000000 0.037750 0.000000
# 6 0.000000 0.000000 0.000000 0.000000 0.000000 0.001055
#
#
# Mechanical properties :
#
#
# Convention : Reuss Voigt Hill
#
# Bulk Modulus (GPa) = 51.21731 57.77055 54.49393
# Shear Modulus (GPa) = 27.90103 209.03102 118.46602
#
# Velocity S-wave (km/s) = 3.91570 10.71778 8.06857
# Velocity P-wave (km/s) = 6.97062 13.59810 10.80505
#
# Compressibility (1/GPa) = 0.01952465
#
# Stress axis : x y z
#
# Youngs Moduli (GPa) = 62.65440 48.19586 41.50434
#
# Poissons Ratio (x) = 0.40839 0.26432
# Poissons Ratio (y) = 0.53091 0.24061
# Poissons Ratio (z) = 0.39901 0.27940
#
# Static dielectric constant tensor:
#      x y z
#    x 3.314180 0.000000 0.000000 
#    y 0.000000 3.535660 0.000000 
#    z 0.000000 0.000000 3.481220 
# 
# 
# High freq. dielectric constant tensor:
#      x y z
#    x 1.696360 0.000000 0.000000 
#    y 0.000000 1.710770 0.000000 
#    z 0.000000 0.000000 1.705200 
# 
# From -- ./inp_files/3866.got.cif
#   From: 2010.03.12/outbox.cif.g09.slc.cpg/sg57_2_cif.got.tgz:3866.got - 2010.04.16 15:48:40.
