data_PCOD8231979
_publ_section_title
;
Structure prediction by ZEFSAII (Michael W. Deem and Ramdas Pophale) SiO2 
 PCOD8231979
Probable space group: P B C M
;
_chemical_formula_sum "Si O2"
_cell_formula_units_Z 64
_cell_length_a 18.784221
_cell_length_b 19.781483
_cell_length_c 9.055789
_cell_angle_alpha 90.000000
_cell_angle_beta 90.000000
_cell_angle_gamma 90.000000
_cell_volume 3364.947798
_symmetry_space_group_name_H-M "P B C M"
_symmetry_group_IT_number 57
_symmetry_cell_setting 'orthorhombic'
loop_
_space_group_symop_operation_xyz
x,y,z
-x,-y,1/2+z
x,1/2-y,-z
-x,1/2+y,1/2-z
-x,-y,-z
x,y,1/2-z
-x,1/2+y,z
x,1/2-y,1/2+z
loop_
_atom_site_type_symbol
_atom_site_label
_atom_site_fract_x
_atom_site_fract_y
_atom_site_fract_z
Si Si1 0.206773 0.452582 0.078603
Si Si2 0.743082 0.679078 0.424370
Si Si3 0.066061 0.533550 0.077403
Si Si4 0.906293 0.314693 0.575627
Si Si5 0.479523 0.565391 0.416223
Si Si6 0.245395 0.813359 0.076249
Si Si7 0.311975 0.568818 0.084199
Si Si8 0.420376 0.318093 0.922633
O O1 0.198637 0.433348 0.250000
O O2 0.140180 0.499002 0.024229
O O3 0.279598 0.494738 0.050885
O O4 0.209622 0.382762 0.986981
O O5 0.765899 0.750000 0.500000
O O6 0.756411 0.685543 0.250000
O O7 0.660881 0.662474 0.462302
O O8 0.058957 0.522301 0.250000
O O9 0.059156 0.613062 0.038154
O O10 0.000000 0.500000 0.000000
O O11 0.947156 0.250000 0.500000
O O12 0.901560 0.302476 0.750000
O O13 0.829297 0.317976 0.504788
O O14 0.500000 0.500000 0.500000
O O15 0.505950 0.557071 0.250000
O O16 0.395840 0.573064 0.426799
O O17 0.524101 0.627080 0.486068
O O18 0.236952 0.802549 0.250000
O O19 0.286756 0.750000 0.000000
O O20 0.286410 0.881829 0.043765
O O21 0.286765 0.590603 0.250000
O O22 0.429548 0.307034 0.750000
O O23 0.443780 0.250000 0.000000
#
# Coordination Sequence:
#
# PCOD8231979 Si02
#       8
#     8   8   8   8   8   8   8   8
#     4  10  20  37  58  81 112 146 182 229 280 333
#     4  10  20  35  57  83 110 142 184 233 280 336
#     4  10  22  39  60  86 119 153 188 231 279 335
#     4  10  19  36  59  85 116 150 186 227 271 325
#     4  10  21  35  53  77 108 145 183 231 281 333
#     4  11  21  33  53  80 110 145 184 229 275 326
#     4  10  20  36  55  77 110 148 187 231 284 335
#     4   9  19  35  53  77 108 142 185 230 276 328
#
# _framework density 19.019611000000001
#
# number of rings (size 3 to 8) (size 9 to 14) (size 15 to 20)
#    0.000    2.000    1.250    3.375    0.000    4.000 
#    0.000    1.875    0.000    1.500    0.000    0.000 
#    0.000    0.000    0.000    0.000    0.000    0.000 
#
# Total GULP energy -793306.033820 kJ/mol
# GULP energy per Si atom -12395.406778 kJ/mol
# Density = 1.897632 g / cm^3
# Si number density = 19.019611 Si / 1000 Ang^3
#
#
#
# Elastic Constant Matrix: (Units=GPa)
#
#
# Indices 1 2 3 4 5 6 
#
# 1 64.2066 54.7052 35.1759 0.0000 0.0000 0.0000
# 2 54.7052 170.7361 75.6024 0.0000 0.0000 0.0000
# 3 35.1759 75.6024 80.4287 0.0000 0.0000 0.0000
# 4 0.0000 0.0000 0.0000 40.6439 0.0000 0.0000
# 5 0.0000 0.0000 0.0000 0.0000 24.2943 0.0000
# 6 0.0000 0.0000 0.0000 0.0000 0.0000 30.3291
#
#
#
# Elastic Compliance Matrix: (Units=1/GPa)
#
#
# Indices 1 2 3 4 5 6 
#
# 1 0.022663 -0.004921 -0.005287 0.000000 0.000000 0.000000
# 2 -0.004921 0.011101 -0.008283 0.000000 0.000000 0.000000
# 3 -0.005287 -0.008283 0.022532 0.000000 0.000000 0.000000
# 4 0.000000 0.000000 0.000000 0.024604 0.000000 0.000000
# 5 0.000000 0.000000 0.000000 0.000000 0.041162 0.000000
# 6 0.000000 0.000000 0.000000 0.000000 0.000000 0.032972
#
#
# Mechanical properties :
#
#
# Convention : Reuss Voigt Hill
#
# Bulk Modulus (GPa) = 51.77152 71.81540 61.79346
# Shear Modulus (GPa) = 25.19480 29.04597 27.12038
#
# Velocity S-wave (km/s) = 3.64356 3.91213 3.78023
# Velocity P-wave (km/s) = 6.70670 7.63197 7.18424
#
# Compressibility (1/GPa) = 0.01931564
#
# Stress axis : x y z
#
# Youngs Moduli (GPa) = 44.12382 90.07852 44.38199
#
# Poissons Ratio (x) = 0.44324 0.23463
# Poissons Ratio (y) = 0.21712 0.36762
# Poissons Ratio (z) = 0.23327 0.74614
#
# Static dielectric constant tensor:
#      x y z
#    x 3.171740 0.000000 0.000000 
#    y 0.000000 4.219000 0.000000 
#    z 0.000000 0.000000 3.568160 
# 
# 
# High freq. dielectric constant tensor:
#      x y z
#    x 1.716820 0.000000 0.000000 
#    y 0.000000 1.755470 0.000000 
#    z 0.000000 0.000000 1.739320 
# 
# From -- ./inp_files/7186.got.cif
#   From: 2010.03.12/outbox.cif.g09.slc.cpg/sg57_4_cif.got.tgz:7186.got - 2010.04.16 15:48:40.
