data_PCOD8231731
_publ_section_title
;
Structure prediction by ZEFSAII (Michael W. Deem and Ramdas Pophale) SiO2 
 PCOD8231731
Probable space group: P B C M
;
_chemical_formula_sum "Si O2"
_cell_formula_units_Z 48
_cell_length_a 6.459416
_cell_length_b 23.017094
_cell_length_c 17.326157
_cell_angle_alpha 90.000000
_cell_angle_beta 90.000000
_cell_angle_gamma 90.000000
_cell_volume 2576.000789
_symmetry_space_group_name_H-M "P B C M"
_symmetry_group_IT_number 57
_symmetry_cell_setting 'orthorhombic'
loop_
_space_group_symop_operation_xyz
x,y,z
-x,-y,1/2+z
x,1/2-y,-z
-x,1/2+y,1/2-z
-x,-y,-z
x,y,1/2-z
-x,1/2+y,z
x,1/2-y,1/2+z
loop_
_atom_site_type_symbol
_atom_site_label
_atom_site_fract_x
_atom_site_fract_y
_atom_site_fract_z
Si Si1 0.188661 0.774412 0.838861
Si Si2 0.187941 0.037640 0.470010
Si Si3 0.427627 0.566340 0.564095
Si Si4 0.502996 0.829863 0.338891
Si Si5 0.124877 0.209021 0.566130
Si Si6 0.874002 0.129954 0.042835
O O1 0.174309 0.792131 0.750000
O O2 0.368947 0.727604 0.853339
O O3 0.225915 0.832947 0.887707
O O4 0.971343 0.747555 0.865404
O O5 0.331482 0.058908 0.541390
O O6 0.078201 0.093368 0.429013
O O7 0.327704 0.996750 0.413567
O O8 0.000000 0.000000 0.500000
O O9 0.390707 0.610243 0.635688
O O10 0.309794 0.589292 0.487570
O O11 0.567836 0.835116 0.250000
O O12 0.699628 0.829235 0.394881
O O13 0.224051 0.250000 0.500000
O O14 0.943966 0.170744 0.528155
#
# Coordination Sequence:
#
# PCOD8231731 Si02
#       6
#     8   8   8   8   8   8
#     4  10  22  36  51  80 116 147 180 225 279 336
#     4   9  19  35  57  83 105 138 187 231 274 319
#     4  10  19  34  57  81 109 140 188 233 272 332
#     4  11  22  34  52  81 116 148 179 231 289 334
#     4  10  20  32  54  79 109 145 186 222 272 333
#     4  10  19  34  58  81 105 144 188 230 271 328
#
# _framework density 18.633535999999999
#
# number of rings (size 3 to 8) (size 9 to 14) (size 15 to 20)
#    0.000    2.000    3.333    0.500    2.333    0.000 
#    0.000    0.833    0.000    9.000    0.000    0.000 
#    0.000    0.000    0.000    0.000    0.000    0.000 
#
# Total GULP energy -594850.103181 kJ/mol
# GULP energy per Si atom -12392.710483 kJ/mol
# Density = 1.859112 g / cm^3
# Si number density = 18.633536 Si / 1000 Ang^3
#
#
#
# Elastic Constant Matrix: (Units=GPa)
#
#
# Indices 1 2 3 4 5 6 
#
# 1 71.8954 27.7055 38.8501 0.0000 0.0000 0.0000
# 2 27.7055 94.1894 42.6444 0.0000 0.0000 0.0000
# 3 38.8501 42.6444 99.1560 0.0000 0.0000 0.0000
# 4 0.0000 0.0000 0.0000 17.8771 0.0000 0.0000
# 5 0.0000 0.0000 0.0000 0.0000 19.0286 0.0000
# 6 0.0000 0.0000 0.0000 0.0000 0.0000 34.5275
#
#
#
# Elastic Compliance Matrix: (Units=1/GPa)
#
#
# Indices 1 2 3 4 5 6 
#
# 1 0.018156 -0.002632 -0.005981 0.000000 0.000000 0.000000
# 2 -0.002632 0.013566 -0.004803 0.000000 0.000000 0.000000
# 3 -0.005981 -0.004803 0.014494 0.000000 0.000000 0.000000
# 4 0.000000 0.000000 0.000000 0.055938 0.000000 0.000000
# 5 0.000000 0.000000 0.000000 0.000000 0.052553 0.000000
# 6 0.000000 0.000000 0.000000 0.000000 0.000000 0.028962
#
#
# Mechanical properties :
#
#
# Convention : Reuss Voigt Hill
#
# Bulk Modulus (GPa) = 51.59330 53.73787 52.66559
# Shear Modulus (GPa) = 23.04547 24.68935 23.86741
#
# Velocity S-wave (km/s) = 3.52060 3.64400 3.58283
# Velocity P-wave (km/s) = 6.65392 6.82692 6.74098
#
# Compressibility (1/GPa) = 0.01938236
#
# Stress axis : x y z
#
# Youngs Moduli (GPa) = 55.07920 73.71526 68.99273
#
# Poissons Ratio (x) = 0.19404 0.41268
# Poissons Ratio (y) = 0.14499 0.33136
# Poissons Ratio (z) = 0.32945 0.35405
#
# Static dielectric constant tensor:
#      x y z
#    x 3.449940 0.000000 0.000000 
#    y 0.000000 3.858730 0.000000 
#    z 0.000000 0.000000 3.088970 
# 
# 
# High freq. dielectric constant tensor:
#      x y z
#    x 1.727580 0.000000 0.000000 
#    y 0.000000 1.740340 0.000000 
#    z 0.000000 0.000000 1.680060 
# 
# From -- ./inp_files/20178.got.cif
#   From: 2010.03.12/outbox.cif.g09.slc.cpg/sg57_11_cif.got.tgz:20178.got - 2010.04.16 15:48:40.
