data_PCOD8231685
_publ_section_title
;
Structure prediction by ZEFSAII (Michael W. Deem and Ramdas Pophale) SiO2 
 PCOD8231685
Probable space group: P B C M
;
_chemical_formula_sum "Si O2"
_cell_formula_units_Z 64
_cell_length_a 20.143736
_cell_length_b 19.475363
_cell_length_c 9.181744
_cell_angle_alpha 90.000000
_cell_angle_beta 90.000000
_cell_angle_gamma 90.000000
_cell_volume 3602.058502
_symmetry_space_group_name_H-M "P B C M"
_symmetry_group_IT_number 57
_symmetry_cell_setting 'orthorhombic'
loop_
_space_group_symop_operation_xyz
x,y,z
-x,-y,1/2+z
x,1/2-y,-z
-x,1/2+y,1/2-z
-x,-y,-z
x,y,1/2-z
-x,1/2+y,z
x,1/2-y,1/2+z
loop_
_atom_site_type_symbol
_atom_site_label
_atom_site_fract_x
_atom_site_fract_y
_atom_site_fract_z
Si Si1 0.769642 0.943515 0.576741
Si Si2 0.613853 0.177445 0.079697
Si Si3 0.970138 0.404781 0.916586
Si Si4 0.268574 0.920748 0.921908
Si Si5 0.529808 0.680333 0.083033
Si Si6 0.907488 0.551720 0.581210
Si Si7 0.326261 0.177866 0.420108
Si Si8 0.846585 0.319019 0.918621
O O1 0.774381 0.951781 0.750000
O O2 0.842167 0.933100 0.510344
O O3 0.728029 0.876812 0.528951
O O4 0.732078 0.008734 0.510088
O O5 0.624165 0.192184 0.250000
O O6 0.667321 0.122041 0.026171
O O7 0.540630 0.143065 0.046963
O O8 0.624349 0.250000 0.000000
O O9 0.994914 0.402295 0.750000
O O10 0.927804 0.473283 0.943702
O O11 0.921930 0.341442 0.954096
O O12 0.033432 0.399769 0.022043
O O13 0.269368 0.936980 0.750000
O O14 0.203159 0.878840 0.967452
O O15 0.530063 0.700587 0.250000
O O16 0.600285 0.644133 0.044300
O O17 0.528047 0.750000 0.000000
O O18 0.894538 0.568343 0.750000
O O19 0.314632 0.250000 0.500000
O O20 0.319135 0.193141 0.250000
O O21 0.836777 0.303863 0.750000
O O22 0.827946 0.250000 0.000000
#
# Coordination Sequence:
#
# PCOD8231685 Si02
#       8
#     8   8   8   8   8   8   8   8
#     4  11  22  35  53  78 105 136 172 215 261 310
#     4   9  17  29  50  75 103 138 177 218 259 304
#     4   9  18  34  53  75 102 131 167 211 252 297
#     4  10  20  35  50  72 106 142 178 214 255 307
#     4   8  14  28  49  73  99 131 169 212 259 308
#     4  10  19  34  56  78 101 130 167 210 254 305
#     4   9  19  35  55  78 103 130 168 215 265 317
#     4  10  20  34  51  74 107 141 174 214 255 298
#
# _framework density 17.767617999999999
#
# number of rings (size 3 to 8) (size 9 to 14) (size 15 to 20)
#    0.000    2.500    1.250    1.125    0.000    3.000 
#    0.000    1.250    0.000    0.000    0.000    0.000 
#    0.000    0.000    0.000    0.000    0.000    0.000 
#
# Total GULP energy -793156.940469 kJ/mol
# GULP energy per Si atom -12393.077195 kJ/mol
# Density = 1.772718 g / cm^3
# Si number density = 17.767618 Si / 1000 Ang^3
#
#
#
# Elastic Constant Matrix: (Units=GPa)
#
#
# Indices 1 2 3 4 5 6 
#
# 1 143.5334 61.3042 53.5838 0.0000 0.0000 0.0000
# 2 61.3042 91.3165 43.9761 0.0000 0.0000 0.0000
# 3 53.5838 43.9761 61.1333 0.0000 0.0000 0.0000
# 4 0.0000 0.0000 0.0000 27.2283 0.0000 0.0000
# 5 0.0000 0.0000 0.0000 0.0000 24.5382 0.0000
# 6 0.0000 0.0000 0.0000 0.0000 0.0000 19.8669
#
#
#
# Elastic Compliance Matrix: (Units=1/GPa)
#
#
# Indices 1 2 3 4 5 6 
#
# 1 0.011378 -0.004339 -0.006852 0.000000 0.000000 0.000000
# 2 -0.004339 0.018410 -0.009440 0.000000 0.000000 0.000000
# 3 -0.006852 -0.009440 0.029154 0.000000 0.000000 0.000000
# 4 0.000000 0.000000 0.000000 0.036726 0.000000 0.000000
# 5 0.000000 0.000000 0.000000 0.000000 0.040753 0.000000
# 6 0.000000 0.000000 0.000000 0.000000 0.000000 0.050335
#
#
# Mechanical properties :
#
#
# Convention : Reuss Voigt Hill
#
# Bulk Modulus (GPa) = 56.55937 68.19016 62.37477
# Shear Modulus (GPa) = 21.37561 23.46796 22.42178
#
# Velocity S-wave (km/s) = 3.47229 3.63826 3.55624
# Velocity P-wave (km/s) = 6.92659 7.49076 7.21419
#
# Compressibility (1/GPa) = 0.01768053
#
# Stress axis : x y z
#
# Youngs Moduli (GPa) = 87.88813 54.31868 34.30048
#
# Poissons Ratio (x) = 0.23568 0.23502
# Poissons Ratio (y) = 0.38133 0.32380
# Poissons Ratio (z) = 0.60220 0.51277
#
# Static dielectric constant tensor:
#      x y z
#    x 3.941510 0.000000 0.000000 
#    y 0.000000 2.990660 0.000000 
#    z 0.000000 0.000000 3.264660 
# 
# 
# High freq. dielectric constant tensor:
#      x y z
#    x 1.707820 0.000000 0.000000 
#    y 0.000000 1.653370 0.000000 
#    z 0.000000 0.000000 1.687570 
# 
# From -- ./inp_files/8573.got.cif
#   From: 2010.03.12/outbox.cif.g09.slc.cpg/sg57_5_cif.got.tgz:8573.got - 2010.04.16 15:48:40.
