data_PCOD8231758
_publ_section_title
;
Structure prediction by ZEFSAII (Michael W. Deem and Ramdas Pophale) SiO2 
 PCOD8231758
Probable space group: P B C M
;
_chemical_formula_sum "Si O2"
_cell_formula_units_Z 64
_cell_length_a 13.176001
_cell_length_b 14.656044
_cell_length_c 16.909706
_cell_angle_alpha 90.000000
_cell_angle_beta 90.000000
_cell_angle_gamma 90.000000
_cell_volume 3265.400358
_symmetry_space_group_name_H-M "P B C M"
_symmetry_group_IT_number 57
_symmetry_cell_setting 'orthorhombic'
loop_
_space_group_symop_operation_xyz
x,y,z
-x,-y,1/2+z
x,1/2-y,-z
-x,1/2+y,1/2-z
-x,-y,-z
x,y,1/2-z
-x,1/2+y,z
x,1/2-y,1/2+z
loop_
_atom_site_type_symbol
_atom_site_label
_atom_site_fract_x
_atom_site_fract_y
_atom_site_fract_z
Si Si1 0.620796 0.273642 0.840445
Si Si2 0.845322 0.657793 0.838332
Si Si3 0.426219 0.916824 0.099081
Si Si4 0.110633 0.030331 0.523402
Si Si5 0.367852 0.424403 0.339867
Si Si6 0.702712 0.084505 0.057678
Si Si7 0.785058 0.683814 0.428183
Si Si8 0.587266 0.879592 0.659464
O O1 0.651180 0.294118 0.750000
O O2 0.627746 0.164922 0.853391
O O3 0.702017 0.314814 0.903487
O O4 0.513156 0.321340 0.861622
O O5 0.888467 0.644856 0.750000
O O6 0.899833 0.583653 0.893559
O O7 0.723583 0.646962 0.842580
O O8 0.860061 0.761972 0.867709
O O9 0.545481 0.888685 0.099806
O O10 0.424639 0.012554 0.144971
O O11 0.380404 0.925724 0.011794
O O12 0.155337 0.094343 0.455326
O O13 0.184484 0.942247 0.529011
O O14 0.000000 0.000000 0.500000
O O15 0.409641 0.433795 0.250000
O O16 0.328502 0.521663 0.368764
O O17 0.759650 0.750000 0.500000
O O18 0.678842 0.655298 0.392612
O O19 0.616031 0.862819 0.750000
#
# Coordination Sequence:
#
# PCOD8231758 Si02
#       8
#     8   8   8   8   8   8   8   8
#     4  11  24  38  56  86 125 167 201 233 285 356
#     4   9  19  36  63  93 118 148 198 248 294 351
#     4  12  22  36  56  88 125 163 201 235 284 350
#     4  10  22  42  65  85 113 152 197 252 313 362
#     4  10  19  34  57  85 121 161 195 235 283 341
#     4  11  22  38  58  83 111 154 203 245 290 349
#     4  10  20  37  61  90 118 151 196 253 298 348
#     4  11  22  37  59  85 126 166 197 239 293 348
#
# _framework density 19.599436000000001
#
# number of rings (size 3 to 8) (size 9 to 14) (size 15 to 20)
#    0.000    1.500    2.500    3.375    0.000    3.500 
#    0.000    5.000    0.000    1.500    0.000    0.000 
#    0.000    0.000    0.000    0.000    0.000    0.000 
#
# Total GULP energy -793357.154131 kJ/mol
# GULP energy per Si atom -12396.205533 kJ/mol
# Density = 1.955483 g / cm^3
# Si number density = 19.599436 Si / 1000 Ang^3
#
#
#
# Elastic Constant Matrix: (Units=GPa)
#
#
# Indices 1 2 3 4 5 6 
#
# 1 92.0348 39.0492 51.7557 0.0000 0.0000 0.0000
# 2 39.0492 105.2867 35.5147 0.0000 0.0000 0.0000
# 3 51.7557 35.5147 109.3132 0.0000 0.0000 0.0000
# 4 0.0000 0.0000 0.0000 19.5520 0.0000 0.0000
# 5 0.0000 0.0000 0.0000 0.0000 17.3099 0.0000
# 6 0.0000 0.0000 0.0000 0.0000 0.0000 10.2126
#
#
#
# Elastic Compliance Matrix: (Units=1/GPa)
#
#
# Indices 1 2 3 4 5 6 
#
# 1 0.016062 -0.003810 -0.006367 0.000000 0.000000 0.000000
# 2 -0.003810 0.011570 -0.001955 0.000000 0.000000 0.000000
# 3 -0.006367 -0.001955 0.012798 0.000000 0.000000 0.000000
# 4 0.000000 0.000000 0.000000 0.051146 0.000000 0.000000
# 5 0.000000 0.000000 0.000000 0.000000 0.057770 0.000000
# 6 0.000000 0.000000 0.000000 0.000000 0.000000 0.097918
#
#
# Mechanical properties :
#
#
# Convention : Reuss Voigt Hill
#
# Bulk Modulus (GPa) = 61.85699 62.14153 61.99926
# Shear Modulus (GPa) = 18.05588 21.43591 19.74589
#
# Velocity S-wave (km/s) = 3.03849 3.31070 3.17751
# Velocity P-wave (km/s) = 6.62865 6.81094 6.72042
#
# Compressibility (1/GPa) = 0.01616632
#
# Stress axis : x y z
#
# Youngs Moduli (GPa) = 62.25702 86.42766 78.13725
#
# Poissons Ratio (x) = 0.32925 0.49752
# Poissons Ratio (y) = 0.23717 0.15279
# Poissons Ratio (z) = 0.39641 0.16900
#
# Static dielectric constant tensor:
#      x y z
#    x 3.228930 0.000000 0.000000 
#    y 0.000000 3.941610 0.000000 
#    z 0.000000 0.000000 3.922280 
# 
# 
# High freq. dielectric constant tensor:
#      x y z
#    x 1.715580 0.000000 0.000000 
#    y 0.000000 1.775500 0.000000 
#    z 0.000000 0.000000 1.776620 
# 
# From -- ./inp_files/22017.got.cif
#   From: 2010.03.12/outbox.cif.g09.slc.cpg/sg57_12_cif.got.tgz:22017.got - 2010.04.16 15:48:40.
