data_PCOD8231435
_publ_section_title
;
Structure prediction by ZEFSAII (Michael W. Deem and Ramdas Pophale) SiO2 
 PCOD8231435
Probable space group: P B C M
;
_chemical_formula_sum "Si O2"
_cell_formula_units_Z 64
_cell_length_a 22.667343
_cell_length_b 17.608875
_cell_length_c 8.549121
_cell_angle_alpha 90.000000
_cell_angle_beta 90.000000
_cell_angle_gamma 90.000000
_cell_volume 3412.350951
_symmetry_space_group_name_H-M "P B C M"
_symmetry_group_IT_number 57
_symmetry_cell_setting 'orthorhombic'
loop_
_space_group_symop_operation_xyz
x,y,z
-x,-y,1/2+z
x,1/2-y,-z
-x,1/2+y,1/2-z
-x,-y,-z
x,y,1/2-z
-x,1/2+y,z
x,1/2-y,1/2+z
loop_
_atom_site_type_symbol
_atom_site_label
_atom_site_fract_x
_atom_site_fract_y
_atom_site_fract_z
Si Si1 0.141598 0.966996 0.565216
Si Si2 0.736163 0.509756 0.434263
Si Si3 0.061401 0.832923 0.435232
Si Si4 0.298549 0.172304 0.432144
Si Si5 0.547424 0.330527 0.433314
Si Si6 0.960904 0.934871 0.067581
Si Si7 0.572997 0.621782 0.432425
Si Si8 0.384857 0.969710 0.932395
O O1 0.152593 0.963358 0.750000
O O2 0.203255 0.968644 0.476091
O O3 0.106549 0.891942 0.513082
O O4 0.106340 0.045442 0.515922
O O5 0.724045 0.505799 0.250000
O O6 0.736769 0.597900 0.492402
O O7 0.683758 0.465498 0.520758
O O8 0.074861 0.750000 0.500000
O O9 0.071046 0.834272 0.250000
O O10 0.992685 0.855288 0.479956
O O11 0.271460 0.250000 0.500000
O O12 0.291219 0.177879 0.250000
O O13 0.366972 0.164579 0.480413
O O14 0.567556 0.250000 0.500000
O O15 0.560814 0.336379 0.250000
O O16 0.478058 0.342454 0.462917
O O17 0.585671 0.390154 0.529329
O O18 0.963808 0.944203 0.250000
O O19 0.000000 0.000000 0.000000
O O20 0.557608 0.631842 0.250000
O O21 0.580389 0.532828 0.468167
O O22 0.391275 0.988329 0.750000
#
# Coordination Sequence:
#
# PCOD8231435 Si02
#       8
#     8   8   8   8   8   8   8   8
#     4  10  19  34  56  81 106 140 183 224 264 316
#     4  10  21  38  56  78 107 143 183 224 267 318
#     4  10  19  33  53  80 112 145 178 221 268 312
#     4   9  19  33  52  76 105 136 171 215 265 315
#     4  12  24  38  55  79 109 141 176 221 273 328
#     4   8  16  30  50  75 104 134 168 207 253 304
#     4  10  20  36  56  81 109 139 175 219 270 329
#     4  11  22  38  58  80 105 140 181 223 270 324
#
# _framework density 18.755399000000001
#
# number of rings (size 3 to 8) (size 9 to 14) (size 15 to 20)
#    0.000    2.000    0.000    5.250    0.000    5.000 
#    0.000    1.250    0.000    3.000    0.000    0.000 
#    0.000    0.000    0.000    0.000    0.000    0.000 
#
# Total GULP energy -793242.013046 kJ/mol
# GULP energy per Si atom -12394.406454 kJ/mol
# Density = 1.871271 g / cm^3
# Si number density = 18.755399 Si / 1000 Ang^3
#
#
#
# Elastic Constant Matrix: (Units=GPa)
#
#
# Indices 1 2 3 4 5 6 
#
# 1 59.7428 22.1419 13.6721 0.0000 0.0000 0.0000
# 2 22.1419 87.9908 9.6162 0.0000 0.0000 0.0000
# 3 13.6721 9.6162 52.8653 0.0000 0.0000 0.0000
# 4 0.0000 0.0000 0.0000 29.7616 0.0000 0.0000
# 5 0.0000 0.0000 0.0000 0.0000 24.4028 0.0000
# 6 0.0000 0.0000 0.0000 0.0000 0.0000 17.5894
#
#
#
# Elastic Compliance Matrix: (Units=1/GPa)
#
#
# Indices 1 2 3 4 5 6 
#
# 1 0.019332 -0.004406 -0.004198 0.000000 0.000000 0.000000
# 2 -0.004406 0.012599 -0.001152 0.000000 0.000000 0.000000
# 3 -0.004198 -0.001152 0.020211 0.000000 0.000000 0.000000
# 4 0.000000 0.000000 0.000000 0.033600 0.000000 0.000000
# 5 0.000000 0.000000 0.000000 0.000000 0.040979 0.000000
# 6 0.000000 0.000000 0.000000 0.000000 0.000000 0.056853
#
#
# Mechanical properties :
#
#
# Convention : Reuss Voigt Hill
#
# Bulk Modulus (GPa) = 30.64680 32.38439 31.51560
# Shear Modulus (GPa) = 23.36836 24.69533 24.03185
#
# Velocity S-wave (km/s) = 3.53364 3.63258 3.58345
# Velocity P-wave (km/s) = 5.74670 5.90748 5.82764
#
# Compressibility (1/GPa) = 0.03262983
#
# Stress axis : x y z
#
# Youngs Moduli (GPa) = 51.72738 79.36849 49.47710
#
# Poissons Ratio (x) = 0.34969 0.20772
# Poissons Ratio (y) = 0.22791 0.05702
# Poissons Ratio (z) = 0.21717 0.09146
#
# Static dielectric constant tensor:
#      x y z
#    x 3.512580 0.000000 0.000000 
#    y 0.000000 3.733980 0.000000 
#    z 0.000000 0.000000 3.445290 
# 
# 
# High freq. dielectric constant tensor:
#      x y z
#    x 1.715560 0.000000 0.000000 
#    y 0.000000 1.723460 0.000000 
#    z 0.000000 0.000000 1.738400 
# 
# From -- ./inp_files/9278.got.cif
#   From: 2010.03.12/outbox.cif.g09.slc.cpg/sg57_5_cif.got.tgz:9278.got - 2010.04.16 15:48:40.
