data_PCOD8231013
_publ_section_title
;
Structure prediction by ZEFSAII (Michael W. Deem and Ramdas Pophale) SiO2 
 PCOD8231013
Probable space group: P B C M
;
_chemical_formula_sum "Si O2"
_cell_formula_units_Z 64
_cell_length_a 21.262808
_cell_length_b 19.083808
_cell_length_c 8.856558
_cell_angle_alpha 90.000000
_cell_angle_beta 90.000000
_cell_angle_gamma 90.000000
_cell_volume 3593.772882
_symmetry_space_group_name_H-M "P B C M"
_symmetry_group_IT_number 57
_symmetry_cell_setting 'orthorhombic'
loop_
_space_group_symop_operation_xyz
x,y,z
-x,-y,1/2+z
x,1/2-y,-z
-x,1/2+y,1/2-z
-x,-y,-z
x,y,1/2-z
-x,1/2+y,z
x,1/2-y,1/2+z
loop_
_atom_site_type_symbol
_atom_site_label
_atom_site_fract_x
_atom_site_fract_y
_atom_site_fract_z
Si Si1 0.032092 0.321824 0.926696
Si Si2 0.606275 0.678794 0.070546
Si Si3 0.730365 0.640335 0.582383
Si Si4 0.309558 0.981022 0.916104
Si Si5 0.891083 0.177122 0.427903
Si Si6 0.151610 0.095482 0.073946
Si Si7 0.439889 0.036458 0.929977
Si Si8 0.808744 0.440448 0.425359
O O1 0.031737 0.309230 0.750000
O O2 0.961984 0.342109 0.982557
O O3 0.080684 0.383188 0.972055
O O4 0.055395 0.250000 0.000000
O O5 0.598947 0.678559 0.250000
O O6 0.576936 0.750000 0.000000
O O7 0.679895 0.677349 0.025666
O O8 0.568733 0.613100 0.001908
O O9 0.728445 0.674549 0.750000
O O10 0.714584 0.559446 0.595129
O O11 0.800012 0.646846 0.512403
O O12 0.305611 0.945749 0.750000
O O13 0.381657 0.985019 0.972661
O O14 0.265432 0.938384 0.031801
O O15 0.869119 0.250000 0.500000
O O16 0.887332 0.184854 0.250000
O O17 0.844363 0.117217 0.479374
O O18 0.164815 0.105938 0.250000
O O19 0.160727 0.014641 0.029061
O O20 0.445411 0.045089 0.750000
O O21 0.500000 0.000000 0.000000
O O22 0.815932 0.423783 0.250000
#
# Coordination Sequence:
#
# PCOD8231013 Si02
#       8
#     8   8   8   8   8   8   8   8
#     4   9  19  34  49  66  92 128 167 208 254 306
#     4  11  21  34  52  75 105 141 180 222 262 302
#     4   9  17  30  47  70  99 131 167 205 248 298
#     4   8  16  31  50  73 102 131 162 200 240 287
#     4  10  20  35  53  71  94 125 164 210 261 315
#     4   9  18  32  48  70 101 134 168 206 251 303
#     4  10  20  35  56  83 112 144 180 214 253 304
#     4  10  19  31  51  76 100 128 164 207 254 302
#
# _framework density 17.808582000000001
#
# number of rings (size 3 to 8) (size 9 to 14) (size 15 to 20)
#    0.000    2.500    0.000    3.375    0.000    6.000 
#    0.000    1.250    0.000    0.750    0.000    0.000 
#    0.000    0.000    0.000    0.000    0.000    0.000 
#
# Total GULP energy -793425.878065 kJ/mol
# GULP energy per Si atom -12397.279345 kJ/mol
# Density = 1.776805 g / cm^3
# Si number density = 17.808582 Si / 1000 Ang^3
#
#
#
# Elastic Constant Matrix: (Units=GPa)
#
#
# Indices 1 2 3 4 5 6 
#
# 1 117.4890 61.3203 46.8721 0.0000 0.0000 0.0000
# 2 61.3203 85.0079 46.4303 0.0000 0.0000 0.0000
# 3 46.8721 46.4303 92.3683 0.0000 0.0000 0.0000
# 4 0.0000 0.0000 0.0000 28.5135 0.0000 0.0000
# 5 0.0000 0.0000 0.0000 0.0000 27.8263 0.0000
# 6 0.0000 0.0000 0.0000 0.0000 0.0000 15.2858
#
#
#
# Elastic Compliance Matrix: (Units=1/GPa)
#
#
# Indices 1 2 3 4 5 6 
#
# 1 0.014167 -0.008675 -0.002829 0.000000 0.000000 0.000000
# 2 -0.008675 0.021527 -0.006419 0.000000 0.000000 0.000000
# 3 -0.002829 -0.006419 0.015488 0.000000 0.000000 0.000000
# 4 0.000000 0.000000 0.000000 0.035071 0.000000 0.000000
# 5 0.000000 0.000000 0.000000 0.000000 0.035937 0.000000
# 6 0.000000 0.000000 0.000000 0.000000 0.000000 0.065420
#
#
# Mechanical properties :
#
#
# Convention : Reuss Voigt Hill
#
# Bulk Modulus (GPa) = 65.19768 67.12340 66.16054
# Shear Modulus (GPa) = 21.87525 23.67461 22.77493
#
# Velocity S-wave (km/s) = 3.50859 3.65004 3.58001
# Velocity P-wave (km/s) = 7.28720 7.45233 7.37023
#
# Compressibility (1/GPa) = 0.01533797
#
# Stress axis : x y z
#
# Youngs Moduli (GPa) = 70.58419 46.45333 64.56487
#
# Poissons Ratio (x) = 0.40296 0.18264
# Poissons Ratio (y) = 0.61229 0.41444
# Poissons Ratio (z) = 0.19967 0.29818
#
# Static dielectric constant tensor:
#      x y z
#    x 3.502890 0.000000 0.000000 
#    y 0.000000 3.254160 0.000000 
#    z 0.000000 0.000000 3.442640 
# 
# 
# High freq. dielectric constant tensor:
#      x y z
#    x 1.682130 0.000000 0.000000 
#    y 0.000000 1.665680 0.000000 
#    z 0.000000 0.000000 1.698980 
# 
# From -- ./inp_files/8677.got.cif
#   From: 2010.03.12/outbox.cif.g09.slc.cpg/sg57_5_cif.got.tgz:8677.got - 2010.04.16 15:48:40.
