data_PCOD8231163
_publ_section_title
;
Structure prediction by ZEFSAII (Michael W. Deem and Ramdas Pophale) SiO2 
 PCOD8231163
Probable space group: P B C M
;
_chemical_formula_sum "Si O2"
_cell_formula_units_Z 48
_cell_length_a 31.276565
_cell_length_b 9.557227
_cell_length_c 8.564940
_cell_angle_alpha 90.000000
_cell_angle_beta 90.000000
_cell_angle_gamma 90.000000
_cell_volume 2560.208153
_symmetry_space_group_name_H-M "P B C M"
_symmetry_group_IT_number 57
_symmetry_cell_setting 'orthorhombic'
loop_
_space_group_symop_operation_xyz
x,y,z
-x,-y,1/2+z
x,1/2-y,-z
-x,1/2+y,1/2-z
-x,-y,-z
x,y,1/2-z
-x,1/2+y,z
x,1/2-y,1/2+z
loop_
_atom_site_type_symbol
_atom_site_label
_atom_site_fract_x
_atom_site_fract_y
_atom_site_fract_z
Si Si1 0.298772 0.405555 0.564145
Si Si2 0.627904 0.097896 0.064592
Si Si3 0.463785 0.598957 0.935671
Si Si4 0.221212 0.904740 0.065358
Si Si5 0.128882 0.902271 0.066896
Si Si6 0.963196 0.095323 0.566008
O O1 0.295824 0.250000 0.500000
O O2 0.302421 0.404216 0.750000
O O3 0.339596 0.480576 0.491595
O O4 0.256872 0.488379 0.503900
O O5 0.626581 0.106115 0.250000
O O6 0.641444 0.250000 0.000000
O O7 0.582005 0.050368 0.000212
O O8 0.462725 0.598957 0.750000
O O9 0.475421 0.750000 0.000000
O O10 0.500000 0.500000 0.000000
O O11 0.223915 0.892270 0.250000
O O12 0.174427 0.967966 0.011177
O O13 0.229657 0.750000 0.000000
O O14 0.130334 0.889735 0.250000
O O15 0.083483 0.973399 0.018053
O O16 0.126994 0.750000 0.000000
O O17 0.968465 0.250000 0.500000
O O18 0.967911 0.103745 0.750000
O O19 0.000000 0.000000 0.500000
#
# Coordination Sequence:
#
# PCOD8231163 Si02
#       6
#     8   8   8   8   8   8
#     4  11  23  38  55  79 110 144 179 221 270 321
#     4  11  22  39  61  85 112 146 186 227 268 317
#     4  11  22  39  61  88 118 150 187 228 273 321
#     4   9  18  33  55  79 103 132 172 216 263 316
#     4   8  15  29  49  73  99 130 168 214 259 309
#     4  10  19  32  51  74 103 136 174 216 263 314
#
# _framework density 18.748476
#
# number of rings (size 3 to 8) (size 9 to 14) (size 15 to 20)
#    0.000    2.000    0.000    5.500    0.000    4.000 
#    0.000    4.167    0.000    2.000    0.000    0.000 
#    0.000    0.000    0.000    0.000    0.000    0.000 
#
# Total GULP energy -594758.256577 kJ/mol
# GULP energy per Si atom -12390.797012 kJ/mol
# Density = 1.870580 g / cm^3
# Si number density = 18.748476 Si / 1000 Ang^3
#
#
#
# Elastic Constant Matrix: (Units=GPa)
#
#
# Indices 1 2 3 4 5 6 
#
# 1 199.8197 107.4431 63.6733 0.0000 0.0000 0.0000
# 2 107.4431 111.9435 46.1131 0.0000 0.0000 0.0000
# 3 63.6733 46.1131 103.7523 0.0000 0.0000 0.0000
# 4 0.0000 0.0000 0.0000 31.0745 0.0000 0.0000
# 5 0.0000 0.0000 0.0000 0.0000 22.5194 0.0000
# 6 0.0000 0.0000 0.0000 0.0000 0.0000 31.7538
#
#
#
# Elastic Compliance Matrix: (Units=1/GPa)
#
#
# Indices 1 2 3 4 5 6 
#
# 1 0.010840 -0.009382 -0.002483 0.000000 0.000000 0.000000
# 2 -0.009382 0.019054 -0.002711 0.000000 0.000000 0.000000
# 3 -0.002483 -0.002711 0.012367 0.000000 0.000000 0.000000
# 4 0.000000 0.000000 0.000000 0.032181 0.000000 0.000000
# 5 0.000000 0.000000 0.000000 0.000000 0.044406 0.000000
# 6 0.000000 0.000000 0.000000 0.000000 0.000000 0.031492
#
#
# Mechanical properties :
#
#
# Convention : Reuss Voigt Hill
#
# Bulk Modulus (GPa) = 76.27727 94.44162 85.35945
# Shear Modulus (GPa) = 27.19421 30.28860 28.74140
#
# Velocity S-wave (km/s) = 3.81264 4.02372 3.91960
# Velocity P-wave (km/s) = 7.75593 8.48937 8.13093
#
# Compressibility (1/GPa) = 0.01311007
#
# Stress axis : x y z
#
# Youngs Moduli (GPa) = 92.24931 52.48156 80.85896
#
# Poissons Ratio (x) = 0.49236 0.20077
# Poissons Ratio (y) = 0.86544 0.21923
# Poissons Ratio (z) = 0.22906 0.14229
#
# Static dielectric constant tensor:
#      x y z
#    x 4.274530 0.000000 0.000000 
#    y 0.000000 3.137010 0.000000 
#    z 0.000000 0.000000 3.590650 
# 
# 
# High freq. dielectric constant tensor:
#      x y z
#    x 1.758690 0.000000 0.000000 
#    y 0.000000 1.698420 0.000000 
#    z 0.000000 0.000000 1.739960 
# 
# From -- ./inp_files/10014.got.cif
#   From: 2010.03.12/outbox.cif.g09.slc.cpg/sg57_6_cif.got.tgz:10014.got - 2010.04.16 15:48:40.
