data_PCOD8231216
_publ_section_title
;
Structure prediction by ZEFSAII (Michael W. Deem and Ramdas Pophale) SiO2 
 PCOD8231216
Probable space group: P B C M
;
_chemical_formula_sum "Si O2"
_cell_formula_units_Z 64
_cell_length_a 11.265152
_cell_length_b 33.841740
_cell_length_c 9.064676
_cell_angle_alpha 90.000000
_cell_angle_beta 90.000000
_cell_angle_gamma 90.000000
_cell_volume 3455.747689
_symmetry_space_group_name_H-M "P B C M"
_symmetry_group_IT_number 57
_symmetry_cell_setting 'orthorhombic'
loop_
_space_group_symop_operation_xyz
x,y,z
-x,-y,1/2+z
x,1/2-y,-z
-x,1/2+y,1/2-z
-x,-y,-z
x,y,1/2-z
-x,1/2+y,z
x,1/2-y,1/2+z
loop_
_atom_site_type_symbol
_atom_site_label
_atom_site_fract_x
_atom_site_fract_y
_atom_site_fract_z
Si Si1 0.121704 0.870999 0.424649
Si Si2 0.355992 0.141884 0.081891
Si Si3 0.232114 0.470699 0.922094
Si Si4 0.235372 0.790332 0.077083
Si Si5 0.508776 0.789936 0.422937
Si Si6 0.723900 0.057322 0.578097
Si Si7 0.517740 0.938436 0.914999
Si Si8 0.861750 0.601832 0.924879
O O1 0.136091 0.871721 0.250000
O O2 0.160673 0.827820 0.484178
O O3 0.205458 0.905638 0.492678
O O4 0.987547 0.879792 0.471091
O O5 0.330847 0.155242 0.250000
O O6 0.453999 0.107851 0.078580
O O7 0.405918 0.177001 0.985280
O O8 0.234451 0.128003 0.008057
O O9 0.217734 0.458976 0.750000
O O10 0.202958 0.516739 0.951653
O O11 0.368056 0.462765 0.971605
O O12 0.144408 0.443595 0.019157
O O13 0.215841 0.784388 0.250000
O O14 0.372122 0.799336 0.038673
O O15 0.191287 0.750000 0.000000
O O16 0.549553 0.750000 0.500000
O O17 0.528824 0.786065 0.250000
O O18 0.708928 0.064326 0.750000
O O19 0.592524 0.052495 0.517367
O O20 0.484349 0.951599 0.750000
O O21 0.841155 0.602895 0.750000
#
# Coordination Sequence:
#
# PCOD8231216 Si02
#       8
#     8   8   8   8   8   8   8   8
#     4   9  19  35  53  75 102 133 173 218 256 297
#     4  10  20  35  53  74 103 135 170 214 261 306
#     4   9  19  34  50  72 104 136 167 211 263 308
#     4   9  18  34  55  79 108 136 165 204 251 303
#     4  10  19  32  54  83 111 138 167 202 252 312
#     4  10  19  32  52  75 101 135 171 209 258 313
#     4   9  18  31  47  72 104 132 163 211 263 308
#     4  10  20  35  54  72  96 135 179 217 256 305
#
# _framework density 18.519870999999998
#
# number of rings (size 3 to 8) (size 9 to 14) (size 15 to 20)
#    0.000    2.500    0.000    3.000    0.000    5.000 
#    0.000    3.750    0.000    1.500    0.000    0.000 
#    0.000    0.000    0.000    0.000    0.000    0.000 
#
# Total GULP energy -793551.505318 kJ/mol
# GULP energy per Si atom -12399.242271 kJ/mol
# Density = 1.847772 g / cm^3
# Si number density = 18.519871 Si / 1000 Ang^3
#
#
#
# Elastic Constant Matrix: (Units=GPa)
#
#
# Indices 1 2 3 4 5 6 
#
# 1 62.8989 53.1767 28.2513 0.0000 0.0000 0.0000
# 2 53.1767 137.0532 40.4208 0.0000 0.0000 0.0000
# 3 28.2513 40.4208 60.3880 0.0000 0.0000 0.0000
# 4 0.0000 0.0000 0.0000 31.9780 0.0000 0.0000
# 5 0.0000 0.0000 0.0000 0.0000 20.4362 0.0000
# 6 0.0000 0.0000 0.0000 0.0000 0.0000 24.0632
#
#
#
# Elastic Compliance Matrix: (Units=1/GPa)
#
#
# Indices 1 2 3 4 5 6 
#
# 1 0.025636 -0.007986 -0.006648 0.000000 0.000000 0.000000
# 2 -0.007986 0.011579 -0.004014 0.000000 0.000000 0.000000
# 3 -0.006648 -0.004014 0.022357 0.000000 0.000000 0.000000
# 4 0.000000 0.000000 0.000000 0.031272 0.000000 0.000000
# 5 0.000000 0.000000 0.000000 0.000000 0.048933 0.000000
# 6 0.000000 0.000000 0.000000 0.000000 0.000000 0.041557
#
#
# Mechanical properties :
#
#
# Convention : Reuss Voigt Hill
#
# Bulk Modulus (GPa) = 44.89282 56.00419 50.44850
# Shear Modulus (GPa) = 22.11852 24.52822 23.32337
#
# Velocity S-wave (km/s) = 3.45963 3.64322 3.55261
# Velocity P-wave (km/s) = 6.34442 6.92842 6.64285
#
# Compressibility (1/GPa) = 0.02227528
#
# Stress axis : x y z
#
# Youngs Moduli (GPa) = 39.00735 86.36315 44.72967
#
# Poissons Ratio (x) = 0.68972 0.29735
# Poissons Ratio (y) = 0.31152 0.17956
# Poissons Ratio (z) = 0.25931 0.34668
#
# Static dielectric constant tensor:
#      x y z
#    x 3.243460 0.000000 0.000000 
#    y 0.000000 3.427090 0.000000 
#    z 0.000000 0.000000 3.296420 
# 
# 
# High freq. dielectric constant tensor:
#      x y z
#    x 1.702820 0.000000 0.000000 
#    y 0.000000 1.728690 0.000000 
#    z 0.000000 0.000000 1.708070 
# 
# From -- ./inp_files/3905.got.cif
#   From: 2010.03.12/outbox.cif.g09.slc.cpg/sg57_2_cif.got.tgz:3905.got - 2010.04.16 15:48:40.
