data_PCOD8231254
_publ_section_title
;
Structure prediction by ZEFSAII (Michael W. Deem and Ramdas Pophale) SiO2 
 PCOD8231254
Probable space group: P B C M
;
_chemical_formula_sum "Si O2"
_cell_formula_units_Z 56
_cell_length_a 14.119197
_cell_length_b 24.509298
_cell_length_c 8.486566
_cell_angle_alpha 90.000000
_cell_angle_beta 90.000000
_cell_angle_gamma 90.000000
_cell_volume 2936.789800
_symmetry_space_group_name_H-M "P B C M"
_symmetry_group_IT_number 57
_symmetry_cell_setting 'orthorhombic'
loop_
_space_group_symop_operation_xyz
x,y,z
-x,-y,1/2+z
x,1/2-y,-z
-x,1/2+y,1/2-z
-x,-y,-z
x,y,1/2-z
-x,1/2+y,z
x,1/2-y,1/2+z
loop_
_atom_site_type_symbol
_atom_site_label
_atom_site_fract_x
_atom_site_fract_y
_atom_site_fract_z
Si Si1 0.707220 0.808900 0.064399
Si Si2 0.791904 0.027463 0.063865
Si Si3 0.853277 0.309568 0.065729
Si Si4 0.969290 0.404279 0.934062
Si Si5 0.681569 0.130132 0.434198
Si Si6 0.496915 0.192539 0.065750
Si Si7 0.175177 0.409933 0.065024
O O1 0.716817 0.806441 0.250000
O O2 0.774151 0.856481 0.991004
O O3 0.739084 0.750000 0.000000
O O4 0.600010 0.823640 0.019105
O O5 0.798926 0.024632 0.250000
O O6 0.891772 0.052137 0.002776
O O7 0.704654 0.067389 0.015181
O O8 0.777883 0.966137 0.996341
O O9 0.875821 0.312291 0.250000
O O10 0.866080 0.250000 0.000000
O O11 0.928869 0.344679 0.969087
O O12 0.746471 0.329418 0.034560
O O13 0.990719 0.410704 0.750000
O O14 0.064658 0.412208 0.030332
O O15 0.705533 0.138954 0.250000
O O16 0.572549 0.144707 0.469902
O O17 0.476997 0.199193 0.250000
O O18 0.536098 0.250000 0.000000
O O19 0.191439 0.407675 0.250000
#
# Coordination Sequence:
#
# PCOD8231254 Si02
#       7
#     8   8   8   8   8   8   8
#     4  10  21  36  54  75 101 132 170 214 257 301
#     4   8  16  33  54  76 104 134 168 208 253 305
#     4  11  21  33  50  74 106 139 171 210 254 305
#     4  10  20  34  53  76 103 136 172 213 257 306
#     4   9  18  33  53  78 105 135 168 206 255 307
#     4  10  19  32  53  77 103 134 169 208 252 303
#     4  10  20  35  55  76  99 134 175 215 258 305
#
# _framework density 19.068441
#
# number of rings (size 3 to 8) (size 9 to 14) (size 15 to 20)
#    0.000    2.286    0.000    5.143    0.000    4.000 
#    0.000    5.000    0.000    0.000    0.000    0.000 
#    0.000    0.000    0.000    0.000    0.000    0.000 
#
# Total GULP energy -694213.973017 kJ/mol
# GULP energy per Si atom -12396.678090 kJ/mol
# Density = 1.902504 g / cm^3
# Si number density = 19.068441 Si / 1000 Ang^3
#
#
#
# Elastic Constant Matrix: (Units=GPa)
#
#
# Indices 1 2 3 4 5 6 
#
# 1 84.5441 73.8508 14.3683 0.0000 0.0000 0.0000
# 2 73.8508 175.2368 20.6027 0.0000 0.0000 0.0000
# 3 14.3683 20.6027 30.4973 0.0000 0.0000 0.0000
# 4 0.0000 0.0000 0.0000 19.3551 0.0000 0.0000
# 5 0.0000 0.0000 0.0000 0.0000 26.8900 0.0000
# 6 0.0000 0.0000 0.0000 0.0000 0.0000 30.9184
#
#
#
# Elastic Compliance Matrix: (Units=1/GPa)
#
#
# Indices 1 2 3 4 5 6 
#
# 1 0.019132 -0.007607 -0.003874 0.000000 0.000000 0.000000
# 2 -0.007607 0.009224 -0.002647 0.000000 0.000000 0.000000
# 3 -0.003874 -0.002647 0.036403 0.000000 0.000000 0.000000
# 4 0.000000 0.000000 0.000000 0.051666 0.000000 0.000000
# 5 0.000000 0.000000 0.000000 0.000000 0.037189 0.000000
# 6 0.000000 0.000000 0.000000 0.000000 0.000000 0.032343
#
#
# Mechanical properties :
#
#
# Convention : Reuss Voigt Hill
#
# Bulk Modulus (GPa) = 27.39635 56.43577 41.91606
# Shear Modulus (GPa) = 22.08663 27.52979 24.80821
#
# Velocity S-wave (km/s) = 3.40705 3.80377 3.61086
# Velocity P-wave (km/s) = 5.46588 6.99659 6.27806
#
# Compressibility (1/GPa) = 0.03650121
#
# Stress axis : x y z
#
# Youngs Moduli (GPa) = 52.26945 108.41598 27.46995
#
# Poissons Ratio (x) = 0.82474 0.10643
# Poissons Ratio (y) = 0.39762 0.07272
# Poissons Ratio (z) = 0.20251 0.28699
#
# Static dielectric constant tensor:
#      x y z
#    x 3.398850 0.000000 0.000000 
#    y 0.000000 3.849250 0.000000 
#    z 0.000000 0.000000 3.371390 
# 
# 
# High freq. dielectric constant tensor:
#      x y z
#    x 1.727780 0.000000 0.000000 
#    y 0.000000 1.749380 0.000000 
#    z 0.000000 0.000000 1.730090 
# 
# From -- ./inp_files/5172.got.cif
#   From: 2010.03.12/outbox.cif.g09.slc.cpg/sg57_3_cif.got.tgz:5172.got - 2010.04.16 15:48:40.
