data_PCOD8231646
_publ_section_title
;
Structure prediction by ZEFSAII (Michael W. Deem and Ramdas Pophale) SiO2 
 PCOD8231646
Probable space group: P B C M
;
_chemical_formula_sum "Si O2"
_cell_formula_units_Z 40
_cell_length_a 23.023273
_cell_length_b 8.515549
_cell_length_c 9.899421
_cell_angle_alpha 90.000000
_cell_angle_beta 90.000000
_cell_angle_gamma 90.000000
_cell_volume 1940.838996
_symmetry_space_group_name_H-M "P B C M"
_symmetry_group_IT_number 57
_symmetry_cell_setting 'orthorhombic'
loop_
_space_group_symop_operation_xyz
x,y,z
-x,-y,1/2+z
x,1/2-y,-z
-x,1/2+y,1/2-z
-x,-y,-z
x,y,1/2-z
-x,1/2+y,z
x,1/2-y,1/2+z
loop_
_atom_site_type_symbol
_atom_site_label
_atom_site_fract_x
_atom_site_fract_y
_atom_site_fract_z
Si Si1 0.047733 0.407209 0.914072
Si Si2 0.564438 0.936406 0.003573
Si Si3 0.775497 0.925691 0.250000
Si Si4 0.631603 0.934685 0.750000
Si Si5 0.359407 0.062240 0.750000
Si Si6 0.166445 0.934292 0.487289
Si Si7 0.761232 0.947555 0.750000
O O1 0.033174 0.384900 0.750000
O O2 0.107382 0.499662 0.925364
O O3 0.055410 0.250000 0.000000
O O4 0.000000 0.500000 0.000000
O O5 0.596762 0.003475 0.874643
O O6 0.561715 0.750000 0.000000
O O7 0.604215 0.002991 0.123908
O O8 0.500000 0.000000 0.000000
O O9 0.708732 0.990588 0.250000
O O10 0.774309 0.737634 0.250000
O O11 0.813367 0.985109 0.374946
O O12 0.637513 0.748350 0.750000
O O13 0.695367 0.001630 0.750000
O O14 0.157655 0.750000 0.500000
O O15 0.216393 0.970570 0.382988
#
# Coordination Sequence:
#
# PCOD8231646 Si02
#       7
#     8   8   4   4   4   8   4
#     4  12  27  48  76 107 144 188 239 288 343 412
#     4  10  19  34  54  81 113 152 199 256 320 390
#     4  11  23  40  71  93 124 176 225 282 322 407
#     4   9  19  34  60  79 113 156 203 264 315 385
#     4   9  19  36  56  85 113 154 213 258 323 385
#     4  12  26  43  66  99 141 176 218 274 344 399
#     4  11  21  44  65  95 122 170 231 272 328 399
#
# _framework density 20.609642999999998
#
# number of rings (size 3 to 8) (size 9 to 14) (size 15 to 20)
#    0.000    1.200    1.000    5.400    2.800    3.200 
#    0.000    6.000    0.000    0.000    0.000    0.000 
#    0.000    0.000    0.000    0.000    0.000    0.000 
#
# Total GULP energy -495676.762850 kJ/mol
# GULP energy per Si atom -12391.919071 kJ/mol
# Density = 2.056273 g / cm^3
# Si number density = 20.609643 Si / 1000 Ang^3
#
#
#
# Elastic Constant Matrix: (Units=GPa)
#
#
# Indices 1 2 3 4 5 6 
#
# 1 143.4048 23.1694 64.5162 0.0000 0.0000 0.0000
# 2 23.1694 88.6484 33.2722 0.0000 0.0000 0.0000
# 3 64.5162 33.2722 195.3170 0.0000 0.0000 0.0000
# 4 0.0000 0.0000 0.0000 -13.1766 0.0000 0.0000
# 5 0.0000 0.0000 0.0000 0.0000 48.2761 0.0000
# 6 0.0000 0.0000 0.0000 0.0000 0.0000 36.9487
#
#
#
# Elastic Compliance Matrix: (Units=1/GPa)
#
#
# Indices 1 2 3 4 5 6 
#
# 1 0.008312 -0.001220 -0.002538 0.000000 0.000000 0.000000
# 2 -0.001220 0.012230 -0.001680 0.000000 0.000000 0.000000
# 3 -0.002538 -0.001680 0.006244 0.000000 0.000000 0.000000
# 4 0.000000 0.000000 0.000000 -0.075892 0.000000 0.000000
# 5 0.000000 0.000000 0.000000 0.000000 0.020714 0.000000
# 6 0.000000 0.000000 0.000000 0.000000 0.000000 0.027065
#
#
# Mechanical properties :
#
#
# Convention : Reuss Voigt Hill
#
# Bulk Modulus (GPa) = 62.85264 74.36509 68.60887
# Shear Modulus (GPa) = 336.63080 34.83713 185.73397
#
# Velocity S-wave (km/s) = 12.79418 4.11582 9.50345
# Velocity P-wave (km/s) = 15.77396 7.66470 12.40092
#
# Compressibility (1/GPa) = 0.01591023
#
# Stress axis : x y z
#
# Youngs Moduli (GPa) = 120.30658 81.76564 160.14318
#
# Poissons Ratio (x) = 0.09975 0.40641
# Poissons Ratio (y) = 0.14677 0.26911
# Poissons Ratio (z) = 0.30531 0.13740
#
# Static dielectric constant tensor:
#      x y z
#    x 4.001020 0.000000 0.000000 
#    y 0.000000 3.619550 0.000000 
#    z 0.000000 0.000000 4.215640 
# 
# 
# High freq. dielectric constant tensor:
#      x y z
#    x 1.828590 0.000000 0.000000 
#    y 0.000000 1.789610 0.000000 
#    z 0.000000 0.000000 1.830870 
# 
# From -- ./inp_files/9016.got.cif
#   From: 2010.03.12/outbox.cif.g09.slc.cpg/sg57_5_cif.got.tgz:9016.got - 2010.04.16 15:48:40.
