data_PCOD8231012
_publ_section_title
;
Structure prediction by ZEFSAII (Michael W. Deem and Ramdas Pophale) SiO2 
 PCOD8231012
Probable space group: P B C M
;
_chemical_formula_sum "Si O2"
_cell_formula_units_Z 64
_cell_length_a 23.555352
_cell_length_b 15.808683
_cell_length_c 8.814618
_cell_angle_alpha 90.000000
_cell_angle_beta 90.000000
_cell_angle_gamma 90.000000
_cell_volume 3282.379454
_symmetry_space_group_name_H-M "P B C M"
_symmetry_group_IT_number 57
_symmetry_cell_setting 'orthorhombic'
loop_
_space_group_symop_operation_xyz
x,y,z
-x,-y,1/2+z
x,1/2-y,-z
-x,1/2+y,1/2-z
-x,-y,-z
x,y,1/2-z
-x,1/2+y,z
x,1/2-y,1/2+z
loop_
_atom_site_type_symbol
_atom_site_label
_atom_site_fract_x
_atom_site_fract_y
_atom_site_fract_z
Si Si1 0.566710 0.091356 0.073926
Si Si2 0.665604 0.665388 0.929700
Si Si3 0.029033 0.421255 0.426252
Si Si4 0.437843 0.088798 0.427091
Si Si5 0.137318 0.505669 0.072216
Si Si6 0.078461 0.665242 0.927535
Si Si7 0.265974 0.501255 0.428481
Si Si8 0.326410 0.837578 0.070423
O O1 0.583835 0.095668 0.250000
O O2 0.502102 0.120449 0.045914
O O3 0.608017 0.152233 0.979788
O O4 0.575231 0.995795 0.019855
O O5 0.661043 0.674003 0.750000
O O6 0.701239 0.583176 0.979075
O O7 0.694329 0.750000 0.000000
O O8 0.603343 0.659902 0.005661
O O9 0.022193 0.434665 0.250000
O O10 0.096441 0.423937 0.468897
O O11 0.000000 0.500000 0.500000
O O12 0.989323 0.341787 0.473445
O O13 0.426340 0.071809 0.250000
O O14 0.134562 0.525410 0.250000
O O15 0.201066 0.485060 0.021800
O O16 0.115728 0.587870 0.985878
O O17 0.087177 0.671079 0.750000
O O18 0.103080 0.750000 0.000000
O O19 0.272353 0.517185 0.250000
O O20 0.289698 0.583197 0.513405
O O21 0.322306 0.832074 0.250000
O O22 0.302596 0.750000 0.000000
#
# Coordination Sequence:
#
# PCOD8231012 Si02
#       8
#     8   8   8   8   8   8   8   8
#     4  10  20  36  58  86 119 150 186 232 287 350
#     4  11  23  39  61  85 114 149 191 243 294 350
#     4   8  15  29  50  75 102 134 172 213 258 313
#     4  10  20  35  59  88 116 149 187 232 289 351
#     4   9  18  35  58  79 104 142 186 229 278 332
#     4  10  19  31  50  80 115 147 181 223 272 325
#     4  10  22  41  62  84 113 151 194 244 295 342
#     4  12  25  40  61  85 115 154 196 240 290 350
#
# _framework density 19.498051
#
# number of rings (size 3 to 8) (size 9 to 14) (size 15 to 20)
#    0.000    2.000    1.250    2.625    0.000    4.000 
#    0.000    0.625    0.000    0.000    0.000    0.000 
#    0.000    0.000    0.000    0.000    0.000    0.000 
#
# Total GULP energy -793181.379673 kJ/mol
# GULP energy per Si atom -12393.459057 kJ/mol
# Density = 1.945367 g / cm^3
# Si number density = 19.498051 Si / 1000 Ang^3
#
#
#
# Elastic Constant Matrix: (Units=GPa)
#
#
# Indices 1 2 3 4 5 6 
#
# 1 113.2264 40.4605 42.5949 0.0000 0.0000 0.0000
# 2 40.4605 92.7231 39.5075 0.0000 0.0000 0.0000
# 3 42.5949 39.5075 76.1558 0.0000 0.0000 0.0000
# 4 0.0000 0.0000 0.0000 29.3619 0.0000 0.0000
# 5 0.0000 0.0000 0.0000 0.0000 23.7132 0.0000
# 6 0.0000 0.0000 0.0000 0.0000 0.0000 41.8430
#
#
#
# Elastic Compliance Matrix: (Units=1/GPa)
#
#
# Indices 1 2 3 4 5 6 
#
# 1 0.011802 -0.003001 -0.005044 0.000000 0.000000 0.000000
# 2 -0.003001 0.014608 -0.005900 0.000000 0.000000 0.000000
# 3 -0.005044 -0.005900 0.019013 0.000000 0.000000 0.000000
# 4 0.000000 0.000000 0.000000 0.034058 0.000000 0.000000
# 5 0.000000 0.000000 0.000000 0.000000 0.042171 0.000000
# 6 0.000000 0.000000 0.000000 0.000000 0.000000 0.023899
#
#
# Mechanical properties :
#
#
# Convention : Reuss Voigt Hill
#
# Bulk Modulus (GPa) = 57.03466 58.58124 57.80795
# Shear Modulus (GPa) = 27.88876 29.61979 28.75427
#
# Velocity S-wave (km/s) = 3.78608 3.90181 3.84438
# Velocity P-wave (km/s) = 6.95899 7.09991 7.02980
#
# Compressibility (1/GPa) = 0.01753320
#
# Stress axis : x y z
#
# Youngs Moduli (GPa) = 84.73382 68.45580 52.59554
#
# Poissons Ratio (x) = 0.20540 0.26530
# Poissons Ratio (y) = 0.25424 0.31031
# Poissons Ratio (z) = 0.42742 0.40389
#
# Static dielectric constant tensor:
#      x y z
#    x 3.956180 0.000000 0.000000 
#    y 0.000000 3.528460 0.000000 
#    z 0.000000 0.000000 3.526620 
# 
# 
# High freq. dielectric constant tensor:
#      x y z
#    x 1.760700 0.000000 0.000000 
#    y 0.000000 1.745110 0.000000 
#    z 0.000000 0.000000 1.764790 
# 
# From -- ./inp_files/9502.got.cif
#   From: 2010.03.12/outbox.cif.g09.slc.cpg/sg57_5_cif.got.tgz:9502.got - 2010.04.16 15:48:40.
