data_PCOD8231304
_publ_section_title
;
Structure prediction by ZEFSAII (Michael W. Deem and Ramdas Pophale) SiO2 
 PCOD8231304
Probable space group: P B C M
;
_chemical_formula_sum "Si O2"
_cell_formula_units_Z 56
_cell_length_a 21.336079
_cell_length_b 14.977042
_cell_length_c 8.987469
_cell_angle_alpha 90.000000
_cell_angle_beta 90.000000
_cell_angle_gamma 90.000000
_cell_volume 2871.957864
_symmetry_space_group_name_H-M "P B C M"
_symmetry_group_IT_number 57
_symmetry_cell_setting 'orthorhombic'
loop_
_space_group_symop_operation_xyz
x,y,z
-x,-y,1/2+z
x,1/2-y,-z
-x,1/2+y,1/2-z
-x,-y,-z
x,y,1/2-z
-x,1/2+y,z
x,1/2-y,1/2+z
loop_
_atom_site_type_symbol
_atom_site_label
_atom_site_fract_x
_atom_site_fract_y
_atom_site_fract_z
Si Si1 0.695616 0.663482 0.078551
Si Si2 0.434258 0.413909 0.579736
Si Si3 0.572424 0.097111 0.419692
Si Si4 0.997487 0.349099 0.073503
Si Si5 0.089321 0.990668 0.575320
Si Si6 0.778842 0.999996 0.575866
Si Si7 0.308937 0.664403 0.922354
O O1 0.707837 0.676470 0.250000
O O2 0.621871 0.653527 0.042308
O O3 0.735610 0.580572 0.020884
O O4 0.722829 0.750000 0.000000
O O5 0.426872 0.449927 0.750000
O O6 0.501453 0.364984 0.559760
O O7 0.428298 0.494067 0.464781
O O8 0.594725 0.105001 0.250000
O O9 0.620381 0.151116 0.520465
O O10 0.989211 0.335377 0.250000
O O11 0.056209 0.414395 0.036215
O O12 0.005032 0.250000 0.000000
O O13 0.938238 0.403851 0.009446
O O14 0.084326 0.971163 0.750000
O O15 0.160281 0.000209 0.525061
O O16 0.796870 0.994926 0.750000
O O17 0.737464 0.085321 0.538397
O O18 0.314415 0.682102 0.750000
O O19 0.278578 0.750000 0.000000
#
# Coordination Sequence:
#
# PCOD8231304 Si02
#       7
#     8   8   8   8   8   8   8
#     4  10  21  38  57  80 111 150 193 239 291 347
#     4   9  18  35  55  78 111 147 187 237 297 356
#     4  10  19  32  56  84 108 143 189 239 297 357
#     4  10  21  39  64  94 127 161 196 236 283 333
#     4  10  22  39  62  92 124 158 197 240 285 338
#     4  10  22  41  61  80 116 161 195 238 292 343
#     4  11  23  40  59  81 112 150 194 243 297 354
#
# _framework density 19.498894
#
# number of rings (size 3 to 8) (size 9 to 14) (size 15 to 20)
#    0.000    2.000    1.429    1.714    0.000    6.286 
#    0.000    5.714    0.000    0.000    0.000    0.000 
#    0.000    0.000    0.000    0.000    0.000    0.000 
#
# Total GULP energy -694254.302303 kJ/mol
# GULP energy per Si atom -12397.398255 kJ/mol
# Density = 1.945451 g / cm^3
# Si number density = 19.498894 Si / 1000 Ang^3
#
#
#
# Elastic Constant Matrix: (Units=GPa)
#
#
# Indices 1 2 3 4 5 6 
#
# 1 118.3618 55.9654 62.9824 0.0000 0.0000 0.0000
# 2 55.9654 145.5677 68.9377 0.0000 0.0000 0.0000
# 3 62.9824 68.9377 82.5435 0.0000 0.0000 0.0000
# 4 0.0000 0.0000 0.0000 36.1666 0.0000 0.0000
# 5 0.0000 0.0000 0.0000 0.0000 46.5935 0.0000
# 6 0.0000 0.0000 0.0000 0.0000 0.0000 -34.3469
#
#
#
# Elastic Compliance Matrix: (Units=1/GPa)
#
#
# Indices 1 2 3 4 5 6 
#
# 1 0.014250 -0.000545 -0.010418 0.000000 0.000000 0.000000
# 2 -0.000545 0.011385 -0.009093 0.000000 0.000000 0.000000
# 3 -0.010418 -0.009093 0.027658 0.000000 0.000000 0.000000
# 4 0.000000 0.000000 0.000000 0.027650 0.000000 0.000000
# 5 0.000000 0.000000 0.000000 0.000000 0.021462 0.000000
# 6 0.000000 0.000000 0.000000 0.000000 0.000000 -0.029115
#
#
# Mechanical properties :
#
#
# Convention : Reuss Voigt Hill
#
# Bulk Modulus (GPa) = 75.86189 80.24934 78.05562
# Shear Modulus (GPa) = 42.44635 20.25514 31.35074
#
# Velocity S-wave (km/s) = 4.67074 3.22651 4.01412
# Velocity P-wave (km/s) = 8.25094 7.42467 7.84869
#
# Compressibility (1/GPa) = 0.01318185
#
# Stress axis : x y z
#
# Youngs Moduli (GPa) = 70.17631 87.83214 36.15592
#
# Poissons Ratio (x) = 0.04786 0.37667
# Poissons Ratio (y) = 0.03824 0.32876
# Poissons Ratio (z) = 0.73109 0.79865
#
# Static dielectric constant tensor:
#      x y z
#    x 3.615430 0.000000 0.000000 
#    y 0.000000 3.557540 0.000000 
#    z 0.000000 0.000000 3.556720 
# 
# 
# High freq. dielectric constant tensor:
#      x y z
#    x 1.759340 0.000000 0.000000 
#    y 0.000000 1.756460 0.000000 
#    z 0.000000 0.000000 1.764530 
# 
# From -- ./inp_files/8062.got.cif
#   From: 2010.03.12/outbox.cif.g09.slc.cpg/sg57_5_cif.got.tgz:8062.got - 2010.04.16 15:48:40.
