data_PCOD8231533
_publ_section_title
;
Structure prediction by ZEFSAII (Michael W. Deem and Ramdas Pophale) SiO2 
 PCOD8231533
Probable space group: P B C M
;
_chemical_formula_sum "Si O2"
_cell_formula_units_Z 40
_cell_length_a 18.326723
_cell_length_b 13.468118
_cell_length_c 8.842144
_cell_angle_alpha 90.000000
_cell_angle_beta 90.000000
_cell_angle_gamma 90.000000
_cell_volume 2182.475172
_symmetry_space_group_name_H-M "P B C M"
_symmetry_group_IT_number 57
_symmetry_cell_setting 'orthorhombic'
loop_
_space_group_symop_operation_xyz
x,y,z
-x,-y,1/2+z
x,1/2-y,-z
-x,1/2+y,1/2-z
-x,-y,-z
x,y,1/2-z
-x,1/2+y,z
x,1/2-y,1/2+z
loop_
_atom_site_type_symbol
_atom_site_label
_atom_site_fract_x
_atom_site_fract_y
_atom_site_fract_z
Si Si1 0.395081 0.957442 0.427513
Si Si2 0.964393 0.644599 0.073533
Si Si3 0.887401 0.464516 0.574098
Si Si4 0.544339 0.644743 0.572269
Si Si5 0.245365 0.643297 0.571569
O O1 0.395419 0.979178 0.250000
O O2 0.462783 0.887907 0.475295
O O3 0.322687 0.900970 0.480838
O O4 0.398771 0.062883 0.512100
O O5 0.945380 0.646502 0.250000
O O6 0.047924 0.613720 0.045571
O O7 0.950866 0.750000 0.000000
O O8 0.909604 0.570850 0.990120
O O9 0.868600 0.474303 0.750000
O O10 0.816877 0.430330 0.483821
O O11 0.563431 0.750000 0.500000
O O12 0.553021 0.654232 0.750000
O O13 0.233242 0.750000 0.500000
O O14 0.240915 0.654679 0.750000
#
# Coordination Sequence:
#
# PCOD8231533 Si02
#       5
#     8   8   8   8   8
#     4   9  20  36  53  77 107 139 176 216 259 310
#     4  10  20  35  56  80 107 140 177 218 263 311
#     4  10  21  36  55  80 109 140 177 218 261 312
#     4  10  19  33  55  79 105 138 175 217 262 309
#     4  11  22  36  55  79 109 141 174 215 263 314
#
# _framework density 18.327815000000001
#
# number of rings (size 3 to 8) (size 9 to 14) (size 15 to 20)
#    0.000    2.000    0.000    3.600    0.000    6.400 
#    0.000    1.000    0.000    4.800    0.000    0.000 
#    0.000    0.000    0.000    0.000    0.000    0.000 
#
# Total GULP energy -496206.218559 kJ/mol
# GULP energy per Si atom -12405.155464 kJ/mol
# Density = 1.828610 g / cm^3
# Si number density = 18.327815 Si / 1000 Ang^3
#
#
#
# Elastic Constant Matrix: (Units=GPa)
#
#
# Indices 1 2 3 4 5 6 
#
# 1 80.4967 29.6936 29.4557 0.0000 0.0000 0.0000
# 2 29.6936 120.4500 40.7655 0.0000 0.0000 0.0000
# 3 29.4557 40.7655 62.0090 0.0000 0.0000 0.0000
# 4 0.0000 0.0000 0.0000 37.1630 0.0000 0.0000
# 5 0.0000 0.0000 0.0000 0.0000 29.5484 0.0000
# 6 0.0000 0.0000 0.0000 0.0000 0.0000 21.7526
#
#
#
# Elastic Compliance Matrix: (Units=1/GPa)
#
#
# Indices 1 2 3 4 5 6 
#
# 1 0.015299 -0.001687 -0.006158 0.000000 0.000000 0.000000
# 2 -0.001687 0.010864 -0.006341 0.000000 0.000000 0.000000
# 3 -0.006158 -0.006341 0.023220 0.000000 0.000000 0.000000
# 4 0.000000 0.000000 0.000000 0.026908 0.000000 0.000000
# 5 0.000000 0.000000 0.000000 0.000000 0.033843 0.000000
# 6 0.000000 0.000000 0.000000 0.000000 0.000000 0.045972
#
#
# Mechanical properties :
#
#
# Convention : Reuss Voigt Hill
#
# Bulk Modulus (GPa) = 47.59381 51.42061 49.50721
# Shear Modulus (GPa) = 26.11217 28.56217 27.33717
#
# Velocity S-wave (km/s) = 3.77865 3.95195 3.86627
# Velocity P-wave (km/s) = 6.71283 6.99577 6.85576
#
# Compressibility (1/GPa) = 0.02101114
#
# Stress axis : x y z
#
# Youngs Moduli (GPa) = 65.36532 92.04604 43.06580
#
# Poissons Ratio (x) = 0.15531 0.26520
# Poissons Ratio (y) = 0.11029 0.27307
# Poissons Ratio (z) = 0.40251 0.58363
#
# Static dielectric constant tensor:
#      x y z
#    x 3.361280 0.000000 0.000000 
#    y 0.000000 3.381200 0.000000 
#    z 0.000000 0.000000 3.464170 
# 
# 
# High freq. dielectric constant tensor:
#      x y z
#    x 1.699670 0.000000 0.000000 
#    y 0.000000 1.718960 0.000000 
#    z 0.000000 0.000000 1.724490 
# 
# From -- ./inp_files/4278.got.cif
#   From: 2010.03.12/outbox.cif.g09.slc.cpg/sg57_3_cif.got.tgz:4278.got - 2010.04.16 15:48:40.
