data_PCOD8231200
_publ_section_title
;
Structure prediction by ZEFSAII (Michael W. Deem and Ramdas Pophale) SiO2 
 PCOD8231200
Probable space group: P B C M
;
_chemical_formula_sum "Si O2"
_cell_formula_units_Z 64
_cell_length_a 15.995992
_cell_length_b 23.938863
_cell_length_c 9.127176
_cell_angle_alpha 90.000000
_cell_angle_beta 90.000000
_cell_angle_gamma 90.000000
_cell_volume 3495.031729
_symmetry_space_group_name_H-M "P B C M"
_symmetry_group_IT_number 57
_symmetry_cell_setting 'orthorhombic'
loop_
_space_group_symop_operation_xyz
x,y,z
-x,-y,1/2+z
x,1/2-y,-z
-x,1/2+y,1/2-z
-x,-y,-z
x,y,1/2-z
-x,1/2+y,z
x,1/2-y,1/2+z
loop_
_atom_site_type_symbol
_atom_site_label
_atom_site_fract_x
_atom_site_fract_y
_atom_site_fract_z
Si Si1 0.761546 0.196255 0.412709
Si Si2 0.721438 0.473005 0.423100
Si Si3 0.136663 0.885695 0.417276
Si Si4 0.029212 0.054389 0.918494
Si Si5 0.297054 0.194848 0.918444
Si Si6 0.507374 0.806871 0.421472
Si Si7 0.215242 0.419705 0.423811
Si Si8 0.389600 0.888815 0.916842
O O1 0.731734 0.250000 0.500000
O O2 0.786722 0.214200 0.250000
O O3 0.842345 0.167969 0.485519
O O4 0.685834 0.154000 0.415087
O O5 0.705736 0.477515 0.250000
O O6 0.806164 0.438942 0.460267
O O7 0.730508 0.534085 0.492356
O O8 0.640663 0.444214 0.497992
O O9 0.154915 0.869795 0.250000
O O10 0.039477 0.897832 0.445759
O O11 0.034306 0.037578 0.750000
O O12 0.118645 0.076279 0.973611
O O13 0.000000 0.000000 0.000000
O O14 0.277211 0.205010 0.750000
O O15 0.394663 0.185005 0.946383
O O16 0.247744 0.140650 0.976024
O O17 0.264324 0.250000 0.000000
O O18 0.476350 0.750000 0.500000
O O19 0.483298 0.803417 0.250000
O O20 0.465761 0.860969 0.495374
O O21 0.226891 0.428049 0.250000
O O22 0.416763 0.903611 0.750000
#
# Coordination Sequence:
#
# PCOD8231200 Si02
#       8
#     8   8   8   8   8   8   8   8
#     4  10  20  32  48  70  99 137 173 208 252 307
#     4  10  19  32  51  77 109 141 175 214 259 312
#     4   9  18  32  48  71 103 135 169 212 255 300
#     4  10  19  32  53  79 106 135 171 216 260 309
#     4   9  20  38  58  80 105 137 176 219 267 315
#     4  10  19  33  54  78 104 135 177 223 266 313
#     4  10  20  35  56  80 108 140 173 216 268 319
#     4  10  20  33  51  77 107 138 176 217 264 314
#
# _framework density 18.311709
#
# number of rings (size 3 to 8) (size 9 to 14) (size 15 to 20)
#    0.000    2.250    1.250    1.875    0.000    4.500 
#    0.000    1.250    0.000    1.500    0.000    0.000 
#    0.000    0.000    0.000    0.000    0.000    0.000 
#
# Total GULP energy -793689.091303 kJ/mol
# GULP energy per Si atom -12401.392052 kJ/mol
# Density = 1.827003 g / cm^3
# Si number density = 18.311709 Si / 1000 Ang^3
#
#
#
# Elastic Constant Matrix: (Units=GPa)
#
#
# Indices 1 2 3 4 5 6 
#
# 1 66.4257 46.8656 35.6645 0.0000 0.0000 0.0000
# 2 46.8656 110.5328 54.9007 0.0000 0.0000 0.0000
# 3 35.6645 54.9007 97.1164 0.0000 0.0000 0.0000
# 4 0.0000 0.0000 0.0000 36.0652 0.0000 0.0000
# 5 0.0000 0.0000 0.0000 0.0000 20.7726 0.0000
# 6 0.0000 0.0000 0.0000 0.0000 0.0000 23.0331
#
#
#
# Elastic Compliance Matrix: (Units=1/GPa)
#
#
# Indices 1 2 3 4 5 6 
#
# 1 0.022544 -0.007573 -0.003998 0.000000 0.000000 0.000000
# 2 -0.007573 0.015123 -0.005768 0.000000 0.000000 0.000000
# 3 -0.003998 -0.005768 0.015026 0.000000 0.000000 0.000000
# 4 0.000000 0.000000 0.000000 0.027728 0.000000 0.000000
# 5 0.000000 0.000000 0.000000 0.000000 0.048140 0.000000
# 6 0.000000 0.000000 0.000000 0.000000 0.000000 0.043416
#
#
# Mechanical properties :
#
#
# Convention : Reuss Voigt Hill
#
# Bulk Modulus (GPa) = 55.50947 60.99295 58.25121
# Shear Modulus (GPa) = 23.51184 25.08378 24.29781
#
# Velocity S-wave (km/s) = 3.58715 3.70513 3.64662
# Velocity P-wave (km/s) = 6.89466 7.18919 7.04346
#
# Compressibility (1/GPa) = 0.01801495
#
# Stress axis : x y z
#
# Youngs Moduli (GPa) = 44.35815 66.12482 66.55196
#
# Poissons Ratio (x) = 0.50075 0.26607
# Poissons Ratio (y) = 0.33592 0.38388
# Poissons Ratio (z) = 0.17734 0.38142
#
# Static dielectric constant tensor:
#      x y z
#    x 2.437460 0.000000 0.000000 
#    y 0.000000 2.746670 0.000000 
#    z 0.000000 0.000000 3.207390 
# 
# 
# High freq. dielectric constant tensor:
#      x y z
#    x 1.697450 0.000000 0.000000 
#    y 0.000000 1.701200 0.000000 
#    z 0.000000 0.000000 1.716650 
# 
# From -- ./inp_files/5597.got.cif
#   From: 2010.03.12/outbox.cif.g09.slc.cpg/sg57_3_cif.got.tgz:5597.got - 2010.04.16 15:48:40.
