data_PCOD8231478
_publ_section_title
;
Structure prediction by ZEFSAII (Michael W. Deem and Ramdas Pophale) SiO2 
 PCOD8231478
Probable space group: P B C M
;
_chemical_formula_sum "Si O2"
_cell_formula_units_Z 48
_cell_length_a 11.234281
_cell_length_b 23.618378
_cell_length_c 8.972930
_cell_angle_alpha 90.000000
_cell_angle_beta 90.000000
_cell_angle_gamma 90.000000
_cell_volume 2380.836825
_symmetry_space_group_name_H-M "P B C M"
_symmetry_group_IT_number 57
_symmetry_cell_setting 'orthorhombic'
loop_
_space_group_symop_operation_xyz
x,y,z
-x,-y,1/2+z
x,1/2-y,-z
-x,1/2+y,1/2-z
-x,-y,-z
x,y,1/2-z
-x,1/2+y,z
x,1/2-y,1/2+z
loop_
_atom_site_type_symbol
_atom_site_label
_atom_site_fract_x
_atom_site_fract_y
_atom_site_fract_z
Si Si1 0.720585 0.095203 0.418771
Si Si2 0.242029 0.472463 0.424954
Si Si3 0.859797 0.311282 0.427059
Si Si4 0.552869 0.911108 0.921174
Si Si5 0.099355 0.366904 0.076426
Si Si6 0.659573 0.692212 0.576064
O O1 0.744489 0.115849 0.250000
O O2 0.752469 0.146626 0.528698
O O3 0.585492 0.074388 0.438441
O O4 0.796234 0.037712 0.454377
O O5 0.265378 0.461005 0.250000
O O6 0.365807 0.460225 0.509125
O O7 0.137956 0.429545 0.483077
O O8 0.841875 0.250000 0.500000
O O9 0.863103 0.303377 0.250000
O O10 0.978726 0.341515 0.494511
O O11 0.589821 0.902867 0.750000
O O12 0.570802 0.853435 0.010122
O O13 0.075178 0.371633 0.250000
O O14 0.204250 0.323249 0.038398
O O15 0.624400 0.750000 0.500000
O O16 0.637304 0.697043 0.750000
#
# Coordination Sequence:
#
# PCOD8231478 Si02
#       6
#     8   8   8   8   8   8
#     4  10  22  38  56  80 112 148 181 219 267 320
#     4   9  18  36  60  84 112 142 175 220 274 324
#     4  11  23  39  58  79 107 144 185 225 266 319
#     4  10  20  34  53  80 112 144 182 223 267 321
#     4   8  17  34  56  82 109 138 174 220 273 324
#     4  10  19  33  54  79 108 141 180 228 280 328
#
# _framework density 20.160976999999999
#
# number of rings (size 3 to 8) (size 9 to 14) (size 15 to 20)
#    0.000    2.333    0.000    3.500    0.000    3.333 
#    0.000    7.500    0.000    0.000    0.000    0.000 
#    0.000    0.000    0.000    0.000    0.000    0.000 
#
# Total GULP energy -595029.316862 kJ/mol
# GULP energy per Si atom -12396.444101 kJ/mol
# Density = 2.011509 g / cm^3
# Si number density = 20.160977 Si / 1000 Ang^3
#
#
#
# Elastic Constant Matrix: (Units=GPa)
#
#
# Indices 1 2 3 4 5 6 
#
# 1 49.3130 32.2879 20.6636 0.0000 0.0000 0.0000
# 2 32.2879 147.4890 52.3591 0.0000 0.0000 0.0000
# 3 20.6636 52.3591 68.9644 0.0000 0.0000 0.0000
# 4 0.0000 0.0000 0.0000 26.4618 0.0000 0.0000
# 5 0.0000 0.0000 0.0000 0.0000 24.2435 0.0000
# 6 0.0000 0.0000 0.0000 0.0000 0.0000 21.5355
#
#
#
# Elastic Compliance Matrix: (Units=1/GPa)
#
#
# Indices 1 2 3 4 5 6 
#
# 1 0.024652 -0.003798 -0.004503 0.000000 0.000000 0.000000
# 2 -0.003798 0.009867 -0.006353 0.000000 0.000000 0.000000
# 3 -0.004503 -0.006353 0.020673 0.000000 0.000000 0.000000
# 4 0.000000 0.000000 0.000000 0.037790 0.000000 0.000000
# 5 0.000000 0.000000 0.000000 0.000000 0.041248 0.000000
# 6 0.000000 0.000000 0.000000 0.000000 0.000000 0.046435
#
#
# Mechanical properties :
#
#
# Convention : Reuss Voigt Hill
#
# Bulk Modulus (GPa) = 38.63427 52.93196 45.78311
# Shear Modulus (GPa) = 22.87259 25.14522 24.00891
#
# Velocity S-wave (km/s) = 3.37189 3.53543 3.45463
# Velocity P-wave (km/s) = 5.86208 6.55571 6.21858
#
# Compressibility (1/GPa) = 0.02588376
#
# Stress axis : x y z
#
# Youngs Moduli (GPa) = 40.56397 101.34683 48.37259
#
# Poissons Ratio (x) = 0.38495 0.21781
# Poissons Ratio (y) = 0.15408 0.30732
# Poissons Ratio (z) = 0.18265 0.64388
#
# Static dielectric constant tensor:
#      x y z
#    x 3.588840 0.000000 0.000000 
#    y 0.000000 3.829880 0.000000 
#    z 0.000000 0.000000 3.517700 
# 
# 
# High freq. dielectric constant tensor:
#      x y z
#    x 1.772840 0.000000 0.000000 
#    y 0.000000 1.799990 0.000000 
#    z 0.000000 0.000000 1.773700 
# 
# From -- ./inp_files/3188.got.cif
#   From: 2010.03.12/outbox.cif.g09.slc.cpg/sg57_2_cif.got.tgz:3188.got - 2010.04.16 15:48:40.
