data_PCOD8231824
_publ_section_title
;
Structure prediction by ZEFSAII (Michael W. Deem and Ramdas Pophale) SiO2 
 PCOD8231824
Probable space group: P B C M
;
_chemical_formula_sum "Si O2"
_cell_formula_units_Z 48
_cell_length_a 14.815810
_cell_length_b 10.293388
_cell_length_c 18.463323
_cell_angle_alpha 90.000000
_cell_angle_beta 90.000000
_cell_angle_gamma 90.000000
_cell_volume 2815.746874
_symmetry_space_group_name_H-M "P B C M"
_symmetry_group_IT_number 57
_symmetry_cell_setting 'orthorhombic'
loop_
_space_group_symop_operation_xyz
x,y,z
-x,-y,1/2+z
x,1/2-y,-z
-x,1/2+y,1/2-z
-x,-y,-z
x,y,1/2-z
-x,1/2+y,z
x,1/2-y,1/2+z
loop_
_atom_site_type_symbol
_atom_site_label
_atom_site_fract_x
_atom_site_fract_y
_atom_site_fract_z
Si Si1 0.225671 0.276359 0.332938
Si Si2 0.565818 0.488013 0.335975
Si Si3 0.890943 0.377488 0.456128
Si Si4 0.229732 0.973846 0.166962
Si Si5 0.100446 0.372326 0.048582
Si Si6 0.571301 0.724537 0.663606
O O1 0.216168 0.319580 0.250000
O O2 0.155515 0.363849 0.377029
O O3 0.326761 0.305500 0.361791
O O4 0.202965 0.124401 0.341635
O O5 0.558678 0.487495 0.250000
O O6 0.667367 0.450787 0.358475
O O7 0.541591 0.632578 0.364803
O O8 0.496023 0.383531 0.369500
O O9 0.862811 0.250000 0.500000
O O10 0.833552 0.385000 0.382714
O O11 0.869431 0.498810 0.507264
O O12 0.995029 0.373933 0.432367
O O13 0.216467 0.929453 0.250000
O O14 0.126914 0.250000 0.000000
O O15 0.568846 0.725037 0.750000
#
# Coordination Sequence:
#
# PCOD8231824 Si02
#       6
#     8   8   8   8   8   8
#     4   9  17  31  54  79  99 128 173 212 242 290
#     4   8  14  26  46  70  96 127 161 197 242 294
#     4  10  21  35  52  75 101 132 169 206 249 305
#     4   9  17  32  54  76 100 133 168 205 251 297
#     4  10  19  35  56  72  94 134 171 200 248 305
#     4   8  14  26  45  70  98 127 160 198 242 293
#
# _framework density 17.046987000000001
#
# number of rings (size 3 to 8) (size 9 to 14) (size 15 to 20)
#    0.000    3.000    1.667    2.000    0.000    0.667 
#    3.000    0.833    0.000    2.000    0.000    0.000 
#    0.000    0.000    0.000    0.000    0.000    0.000 
#
# Total GULP energy -595094.206382 kJ/mol
# GULP energy per Si atom -12397.795966 kJ/mol
# Density = 1.700819 g / cm^3
# Si number density = 17.046987 Si / 1000 Ang^3
#
#
#
# Elastic Constant Matrix: (Units=GPa)
#
#
# Indices 1 2 3 4 5 6 
#
# 1 95.6420 62.8106 53.7723 0.0000 0.0000 0.0000
# 2 62.8106 114.2032 46.8505 0.0000 0.0000 0.0000
# 3 53.7723 46.8505 65.1203 0.0000 0.0000 0.0000
# 4 0.0000 0.0000 0.0000 19.9274 0.0000 0.0000
# 5 0.0000 0.0000 0.0000 0.0000 6.7555 0.0000
# 6 0.0000 0.0000 0.0000 0.0000 0.0000 21.4758
#
#
#
# Elastic Compliance Matrix: (Units=1/GPa)
#
#
# Indices 1 2 3 4 5 6 
#
# 1 0.022722 -0.006810 -0.013863 0.000000 0.000000 0.000000
# 2 -0.006810 0.014464 -0.004783 0.000000 0.000000 0.000000
# 3 -0.013863 -0.004783 0.030244 0.000000 0.000000 0.000000
# 4 0.000000 0.000000 0.000000 0.050182 0.000000 0.000000
# 5 0.000000 0.000000 0.000000 0.000000 0.148027 0.000000
# 6 0.000000 0.000000 0.000000 0.000000 0.000000 0.046564
#
#
# Mechanical properties :
#
#
# Convention : Reuss Voigt Hill
#
# Bulk Modulus (GPa) = 60.53708 66.87025 63.70367
# Shear Modulus (GPa) = 13.56406 17.06721 15.31564
#
# Velocity S-wave (km/s) = 2.82385 3.16759 3.00065
# Velocity P-wave (km/s) = 6.79862 7.25881 7.03248
#
# Compressibility (1/GPa) = 0.01651880
#
# Stress axis : x y z
#
# Youngs Moduli (GPa) = 44.01031 69.13882 33.06387
#
# Poissons Ratio (x) = 0.47081 0.45837
# Poissons Ratio (y) = 0.29969 0.15814
# Poissons Ratio (z) = 0.61012 0.33068
#
# Static dielectric constant tensor:
#      x y z
#    x 3.235270 0.000000 0.000000 
#    y 0.000000 3.357850 0.000000 
#    z 0.000000 0.000000 2.823120 
# 
# 
# High freq. dielectric constant tensor:
#      x y z
#    x 1.658850 0.000000 0.000000 
#    y 0.000000 1.653040 0.000000 
#    z 0.000000 0.000000 1.623920 
# 
# From -- ./inp_files/18422.got.cif
#   From: 2010.03.12/outbox.cif.g09.slc.cpg/sg57_10_cif.got.tgz:18422.got - 2010.04.16 15:48:40.
