data_PCOD8231786
_publ_section_title
;
Structure prediction by ZEFSAII (Michael W. Deem and Ramdas Pophale) SiO2 
 PCOD8231786
Probable space group: P B C M
;
_chemical_formula_sum "Si O2"
_cell_formula_units_Z 64
_cell_length_a 15.172278
_cell_length_b 24.261842
_cell_length_c 8.716289
_cell_angle_alpha 90.000000
_cell_angle_beta 90.000000
_cell_angle_gamma 90.000000
_cell_volume 3208.530583
_symmetry_space_group_name_H-M "P B C M"
_symmetry_group_IT_number 57
_symmetry_cell_setting 'orthorhombic'
loop_
_space_group_symop_operation_xyz
x,y,z
-x,-y,1/2+z
x,1/2-y,-z
-x,1/2+y,1/2-z
-x,-y,-z
x,y,1/2-z
-x,1/2+y,z
x,1/2-y,1/2+z
loop_
_atom_site_type_symbol
_atom_site_label
_atom_site_fract_x
_atom_site_fract_y
_atom_site_fract_z
Si Si1 0.133243 0.903757 0.570032
Si Si2 0.628673 0.872925 0.068358
Si Si3 0.950382 0.627814 0.432043
Si Si4 0.671496 0.098935 0.068852
Si Si5 0.136692 0.482931 0.926241
Si Si6 0.467488 0.809074 0.931544
Si Si7 0.214654 0.191574 0.432010
Si Si8 0.656760 0.515641 0.425522
O O1 0.140083 0.897803 0.750000
O O2 0.229636 0.888894 0.501091
O O3 0.052230 0.864572 0.510375
O O4 0.105884 0.965761 0.528079
O O5 0.631208 0.869998 0.250000
O O6 0.556880 0.830480 0.005943
O O7 0.722470 0.855237 0.999560
O O8 0.606330 0.935161 0.014318
O O9 0.947922 0.623860 0.250000
O O10 0.912009 0.570258 0.495261
O O11 0.886156 0.677501 0.483947
O O12 0.674575 0.089696 0.250000
O O13 0.611930 0.150413 0.022039
O O14 0.630921 0.043621 0.995530
O O15 0.112225 0.494776 0.750000
O O16 0.240292 0.473523 0.944398
O O17 0.479987 0.805096 0.750000
O O18 0.442912 0.750000 0.000000
O O19 0.241993 0.250000 0.500000
O O20 0.225321 0.192329 0.250000
O O21 0.625642 0.516846 0.250000
#
# Coordination Sequence:
#
# PCOD8231786 Si02
#       8
#     8   8   8   8   8   8   8   8
#     4   9  17  31  53  81 110 146 186 228 274 324
#     4  12  24  39  61  88 115 146 188 235 287 348
#     4   9  17  31  52  76 110 149 186 225 274 328
#     4   9  20  38  59  86 119 151 191 240 287 337
#     4   9  16  29  48  77 113 150 183 221 272 326
#     4  11  24  43  64  85 112 147 191 241 289 342
#     4  11  22  39  57  79 113 153 193 235 285 342
#     4  10  19  34  58  87 122 157 188 227 283 344
#
# _framework density 19.946826000000001
#
# number of rings (size 3 to 8) (size 9 to 14) (size 15 to 20)
#    0.000    2.000    1.250    3.000    0.000    2.000 
#    0.000    1.875    0.000    0.000    0.000    0.000 
#    0.000    0.000    0.000    0.000    0.000    0.000 
#
# Total GULP energy -793425.224926 kJ/mol
# GULP energy per Si atom -12397.269139 kJ/mol
# Density = 1.990143 g / cm^3
# Si number density = 19.946826 Si / 1000 Ang^3
#
#
#
# Elastic Constant Matrix: (Units=GPa)
#
#
# Indices 1 2 3 4 5 6 
#
# 1 73.2543 54.0791 30.7089 0.0000 0.0000 0.0000
# 2 54.0791 127.5058 45.4531 0.0000 0.0000 0.0000
# 3 30.7089 45.4531 72.4906 0.0000 0.0000 0.0000
# 4 0.0000 0.0000 0.0000 31.0470 0.0000 0.0000
# 5 0.0000 0.0000 0.0000 0.0000 16.4288 0.0000
# 6 0.0000 0.0000 0.0000 0.0000 0.0000 30.9161
#
#
#
# Elastic Compliance Matrix: (Units=1/GPa)
#
#
# Indices 1 2 3 4 5 6 
#
# 1 0.020835 -0.007328 -0.004231 0.000000 0.000000 0.000000
# 2 -0.007328 0.012678 -0.004845 0.000000 0.000000 0.000000
# 3 -0.004231 -0.004845 0.018625 0.000000 0.000000 0.000000
# 4 0.000000 0.000000 0.000000 0.032209 0.000000 0.000000
# 5 0.000000 0.000000 0.000000 0.000000 0.060869 0.000000
# 6 0.000000 0.000000 0.000000 0.000000 0.000000 0.032346
#
#
# Mechanical properties :
#
#
# Convention : Reuss Voigt Hill
#
# Bulk Modulus (GPa) = 51.73509 59.30366 55.51938
# Shear Modulus (GPa) = 23.06127 25.21236 24.13682
#
# Velocity S-wave (km/s) = 3.40389 3.55910 3.48236
# Velocity P-wave (km/s) = 6.43750 6.83265 6.63802
#
# Compressibility (1/GPa) = 0.01932924
#
# Stress axis : x y z
#
# Youngs Moduli (GPa) = 47.99627 78.87616 53.69070
#
# Poissons Ratio (x) = 0.57804 0.22717
# Poissons Ratio (y) = 0.35174 0.26013
# Poissons Ratio (z) = 0.20308 0.38215
#
# Static dielectric constant tensor:
#      x y z
#    x 3.982470 0.000000 0.000000 
#    y 0.000000 3.586680 0.000000 
#    z 0.000000 0.000000 3.469650 
# 
# 
# High freq. dielectric constant tensor:
#      x y z
#    x 1.785270 0.000000 0.000000 
#    y 0.000000 1.765660 0.000000 
#    z 0.000000 0.000000 1.764000 
# 
# From -- ./inp_files/5581.got.cif
#   From: 2010.03.12/outbox.cif.g09.slc.cpg/sg57_3_cif.got.tgz:5581.got - 2010.04.16 15:48:40.
