data_PCOD8231318
_publ_section_title
;
Structure prediction by ZEFSAII (Michael W. Deem and Ramdas Pophale) SiO2 
 PCOD8231318
Probable space group: P B C M
;
_chemical_formula_sum "Si O2"
_cell_formula_units_Z 64
_cell_length_a 15.011695
_cell_length_b 29.247741
_cell_length_c 9.260470
_cell_angle_alpha 90.000000
_cell_angle_beta 90.000000
_cell_angle_gamma 90.000000
_cell_volume 4065.884987
_symmetry_space_group_name_H-M "P B C M"
_symmetry_group_IT_number 57
_symmetry_cell_setting 'orthorhombic'
loop_
_space_group_symop_operation_xyz
x,y,z
-x,-y,1/2+z
x,1/2-y,-z
-x,1/2+y,1/2-z
-x,-y,-z
x,y,1/2-z
-x,1/2+y,z
x,1/2-y,1/2+z
loop_
_atom_site_type_symbol
_atom_site_label
_atom_site_fract_x
_atom_site_fract_y
_atom_site_fract_z
Si Si1 0.015305 0.294539 0.916082
Si Si2 0.776042 0.794806 0.917964
Si Si3 0.179326 0.952615 0.417341
Si Si4 0.960759 0.393880 0.920084
Si Si5 0.280086 0.118309 0.583613
Si Si6 0.563599 0.944450 0.087179
Si Si7 0.373994 0.530183 0.917898
Si Si8 0.857243 0.942685 0.582062
O O1 0.994757 0.285164 0.750000
O O2 0.967679 0.340882 0.970026
O O3 0.119574 0.302298 0.942818
O O4 0.979385 0.250000 0.000000
O O5 0.751659 0.791108 0.750000
O O6 0.742222 0.750000 0.000000
O O7 0.724598 0.836619 0.988611
O O8 0.171893 0.939724 0.250000
O O9 0.124533 0.915389 0.504971
O O10 0.281350 0.948632 0.475098
O O11 0.140722 0.003200 0.445592
O O12 0.947693 0.396921 0.750000
O O13 0.048561 0.421713 0.966440
O O14 0.252421 0.127515 0.750000
O O15 0.383282 0.102883 0.573308
O O16 0.217954 0.078891 0.518680
O O17 0.569619 0.963771 0.250000
O O18 0.458777 0.937007 0.047625
O O19 0.609714 0.980872 0.984906
O O20 0.360481 0.520758 0.750000
O O21 0.836972 0.931075 0.750000
#
# Coordination Sequence:
#
# PCOD8231318 Si02
#       8
#     8   8   8   8   8   8   8   8
#     4   9  18  32  49  68  90 119 152 191 235 278
#     4  10  19  33  50  69  96 125 158 194 237 286
#     4  10  20  31  47  68  92 127 167 200 237 279
#     4  10  20  33  47  65  94 128 159 195 239 278
#     4  11  20  29  46  72  98 126 161 195 235 283
#     4   9  18  30  46  69  94 121 156 194 233 279
#     4   9  17  31  48  66  92 123 156 197 238 275
#     4  10  19  33  46  63  95 132 165 196 231 276
#
# _framework density 15.740731
#
# number of rings (size 3 to 8) (size 9 to 14) (size 15 to 20)
#    0.000    2.250    2.500    1.125    0.000    3.000 
#    0.000    0.000    0.000    0.000    0.000    0.875 
#    0.000    2.000    0.000    0.000    0.000    0.000 
#
# Total GULP energy -793493.457488 kJ/mol
# GULP energy per Si atom -12398.335273 kJ/mol
# Density = 1.570490 g / cm^3
# Si number density = 15.740731 Si / 1000 Ang^3
#
#
#
# Elastic Constant Matrix: (Units=GPa)
#
#
# Indices 1 2 3 4 5 6 
#
# 1 104.0913 57.8126 38.6416 0.0000 0.0000 0.0000
# 2 57.8126 107.8525 45.7165 0.0000 0.0000 0.0000
# 3 38.6416 45.7165 60.5106 0.0000 0.0000 0.0000
# 4 0.0000 0.0000 0.0000 28.6786 0.0000 0.0000
# 5 0.0000 0.0000 0.0000 0.0000 19.5750 0.0000
# 6 0.0000 0.0000 0.0000 0.0000 0.0000 18.5371
#
#
#
# Elastic Compliance Matrix: (Units=1/GPa)
#
#
# Indices 1 2 3 4 5 6 
#
# 1 0.014653 -0.005720 -0.005036 0.000000 0.000000 0.000000
# 2 -0.005720 0.015873 -0.008339 0.000000 0.000000 0.000000
# 3 -0.005036 -0.008339 0.026043 0.000000 0.000000 0.000000
# 4 0.000000 0.000000 0.000000 0.034869 0.000000 0.000000
# 5 0.000000 0.000000 0.000000 0.000000 0.051085 0.000000
# 6 0.000000 0.000000 0.000000 0.000000 0.000000 0.053946
#
#
# Mechanical properties :
#
#
# Convention : Reuss Voigt Hill
#
# Bulk Modulus (GPa) = 54.41305 61.86618 58.13961
# Shear Modulus (GPa) = 20.76529 22.04372 21.40451
#
# Velocity S-wave (km/s) = 3.63603 3.74629 3.69157
# Velocity P-wave (km/s) = 7.22987 7.62243 7.42874
#
# Compressibility (1/GPa) = 0.01837795
#
# Stress axis : x y z
#
# Youngs Moduli (GPa) = 68.24361 63.00006 38.39872
#
# Poissons Ratio (x) = 0.36036 0.19337
# Poissons Ratio (y) = 0.39036 0.32022
# Poissons Ratio (z) = 0.34367 0.52539
#
# Static dielectric constant tensor:
#      x y z
#    x 3.045410 0.000000 0.000000 
#    y 0.000000 2.956000 0.000000 
#    z 0.000000 0.000000 3.043490 
# 
# 
# High freq. dielectric constant tensor:
#      x y z
#    x 1.589190 0.000000 0.000000 
#    y 0.000000 1.589480 0.000000 
#    z 0.000000 0.000000 1.610120 
# 
# From -- ./inp_files/6027.got.cif
#   From: 2010.03.12/outbox.cif.g09.slc.cpg/sg57_4_cif.got.tgz:6027.got - 2010.04.16 15:48:40.
