data_PCOD8231938
_publ_section_title
;
Structure prediction by ZEFSAII (Michael W. Deem and Ramdas Pophale) SiO2 
 PCOD8231938
Probable space group: P B C M
;
_chemical_formula_sum "Si O2"
_cell_formula_units_Z 48
_cell_length_a 9.991760
_cell_length_b 13.943579
_cell_length_c 16.993998
_cell_angle_alpha 90.000000
_cell_angle_beta 90.000000
_cell_angle_gamma 90.000000
_cell_volume 2367.619009
_symmetry_space_group_name_H-M "P B C M"
_symmetry_group_IT_number 57
_symmetry_cell_setting 'orthorhombic'
loop_
_space_group_symop_operation_xyz
x,y,z
-x,-y,1/2+z
x,1/2-y,-z
-x,1/2+y,1/2-z
-x,-y,-z
x,y,1/2-z
-x,1/2+y,z
x,1/2-y,1/2+z
loop_
_atom_site_type_symbol
_atom_site_label
_atom_site_fract_x
_atom_site_fract_y
_atom_site_fract_z
Si Si1 0.737583 0.116837 0.158690
Si Si2 0.080923 0.341520 0.098976
Si Si3 0.629702 0.320121 0.343338
Si Si4 0.858195 0.041197 0.838616
Si Si5 0.353408 0.090867 0.658655
Si Si6 0.981323 0.871471 0.579263
O O1 0.779403 0.129402 0.250000
O O2 0.657984 0.211122 0.127938
O O3 0.870809 0.099430 0.107835
O O4 0.641578 0.024556 0.147732
O O5 0.236903 0.363753 0.106185
O O6 0.998568 0.401436 0.163268
O O7 0.058190 0.230189 0.115377
O O8 0.022917 0.372420 0.014586
O O9 0.632333 0.323264 0.250000
O O10 0.744827 0.390361 0.376461
O O11 0.488485 0.360400 0.374370
O O12 0.821261 0.011182 0.750000
O O13 0.870465 0.945760 0.890083
O O14 0.330658 0.117051 0.750000
#
# Coordination Sequence:
#
# PCOD8231938 Si02
#       6
#     8   8   8   8   8   8
#     4  10  19  35  61  89 119 159 203 245 299 357
#     4  11  23  38  59  85 122 158 197 246 297 352
#     4   9  20  37  58  88 124 155 197 249 297 353
#     4  11  21  36  61  89 114 150 203 250 292 349
#     4  10  21  37  60  89 119 156 197 247 302 353
#     4  11  23  37  59  87 123 157 201 244 298 351
#
# _framework density 20.273531999999999
#
# number of rings (size 3 to 8) (size 9 to 14) (size 15 to 20)
#    0.000    1.667    3.333    1.500    0.000    3.333 
#    0.000    4.167    7.333    0.000    0.000    0.000 
#    0.000    0.000    0.000    0.000    0.000    0.000 
#
# Total GULP energy -595313.523391 kJ/mol
# GULP energy per Si atom -12402.365071 kJ/mol
# Density = 2.022739 g / cm^3
# Si number density = 20.273532 Si / 1000 Ang^3
#
#
#
# Elastic Constant Matrix: (Units=GPa)
#
#
# Indices 1 2 3 4 5 6 
#
# 1 124.3863 31.7451 21.1259 0.0000 0.0000 0.0000
# 2 31.7451 94.3575 23.8500 0.0000 0.0000 0.0000
# 3 21.1259 23.8500 40.2270 0.0000 0.0000 0.0000
# 4 0.0000 0.0000 0.0000 22.0162 0.0000 0.0000
# 5 0.0000 0.0000 0.0000 0.0000 19.5507 0.0000
# 6 0.0000 0.0000 0.0000 0.0000 0.0000 40.2158
#
#
#
# Elastic Compliance Matrix: (Units=1/GPa)
#
#
# Indices 1 2 3 4 5 6 
#
# 1 0.009201 -0.002204 -0.003525 0.000000 0.000000 0.000000
# 2 -0.002204 0.012994 -0.006546 0.000000 0.000000 0.000000
# 3 -0.003525 -0.006546 0.030591 0.000000 0.000000 0.000000
# 4 0.000000 0.000000 0.000000 0.045421 0.000000 0.000000
# 5 0.000000 0.000000 0.000000 0.000000 0.051149 0.000000
# 6 0.000000 0.000000 0.000000 0.000000 0.000000 0.024866
#
#
# Mechanical properties :
#
#
# Convention : Reuss Voigt Hill
#
# Bulk Modulus (GPa) = 35.41732 45.82367 40.62050
# Shear Modulus (GPa) = 24.01702 28.50654 26.26178
#
# Velocity S-wave (km/s) = 3.44561 3.75386 3.60303
# Velocity P-wave (km/s) = 5.77384 6.43742 6.11464
#
# Compressibility (1/GPa) = 0.02823477
#
# Stress axis : x y z
#
# Youngs Moduli (GPa) = 108.68660 76.95653 32.68897
#
# Poissons Ratio (x) = 0.16965 0.11523
# Poissons Ratio (y) = 0.23960 0.21400
# Poissons Ratio (z) = 0.38311 0.50379
#
# Static dielectric constant tensor:
#      x y z
#    x 3.626400 0.000000 0.000000 
#    y 0.000000 3.982800 0.000000 
#    z 0.000000 0.000000 3.373310 
# 
# 
# High freq. dielectric constant tensor:
#      x y z
#    x 1.780460 0.000000 0.000000 
#    y 0.000000 1.811840 0.000000 
#    z 0.000000 0.000000 1.766960 
# 
# From -- ./inp_files/20921.got.cif
#   From: 2010.03.12/outbox.cif.g09.slc.cpg/sg57_11_cif.got.tgz:20921.got - 2010.04.16 15:48:40.
