data_PCOD8231817
_publ_section_title
;
Structure prediction by ZEFSAII (Michael W. Deem and Ramdas Pophale) SiO2 
 PCOD8231817
Probable space group: P B C M
;
_chemical_formula_sum "Si O2"
_cell_formula_units_Z 48
_cell_length_a 10.062941
_cell_length_b 22.238349
_cell_length_c 11.552370
_cell_angle_alpha 90.000000
_cell_angle_beta 90.000000
_cell_angle_gamma 90.000000
_cell_volume 2585.226256
_symmetry_space_group_name_H-M "P B C M"
_symmetry_group_IT_number 57
_symmetry_cell_setting 'orthorhombic'
loop_
_space_group_symop_operation_xyz
x,y,z
-x,-y,1/2+z
x,1/2-y,-z
-x,1/2+y,1/2-z
-x,-y,-z
x,y,1/2-z
-x,1/2+y,z
x,1/2-y,1/2+z
loop_
_atom_site_type_symbol
_atom_site_label
_atom_site_fract_x
_atom_site_fract_y
_atom_site_fract_z
Si Si1 0.990839 0.577505 0.380029
Si Si2 0.909669 0.682329 0.535124
Si Si3 0.814124 0.292309 0.384310
Si Si4 0.683340 0.602005 0.882600
Si Si5 0.794471 0.491481 0.483875
Si Si6 0.609224 0.396619 0.114933
O O1 0.039303 0.586190 0.250000
O O2 0.116681 0.559461 0.456369
O O3 0.933718 0.641431 0.421985
O O4 0.879263 0.525181 0.384638
O O5 0.877669 0.750000 0.500000
O O6 0.779232 0.658790 0.600286
O O7 0.038902 0.678417 0.618350
O O8 0.810700 0.250000 0.500000
O O9 0.791410 0.266153 0.250000
O O10 0.701968 0.340415 0.414818
O O11 0.657163 0.591520 0.750000
O O12 0.537896 0.613923 0.939912
O O13 0.751199 0.541432 0.925435
O O14 0.665893 0.459002 0.433782
O O15 0.601268 0.405298 0.250000
#
# Coordination Sequence:
#
# PCOD8231817 Si02
#       6
#     8   8   8   8   8   8
#     4  10  20  33  55  84 112 143 185 236 287 333
#     4  10  21  37  56  82 109 145 186 235 281 334
#     4  10  21  38  59  83 112 149 193 240 290 339
#     4  10  21  35  55  81 110 147 185 227 280 341
#     4  10  19  35  53  80 112 146 183 228 281 336
#     4  10  20  36  56  79 111 148 187 229 282 341
#
# _framework density 18.567039999999999
#
# number of rings (size 3 to 8) (size 9 to 14) (size 15 to 20)
#    0.000    2.000    1.667    2.000    0.000    4.000 
#    0.000    0.000    0.000    6.000    0.000    0.000 
#    0.000    0.000    0.000    0.000    0.000    0.000 
#
# Total GULP energy -594804.818373 kJ/mol
# GULP energy per Si atom -12391.767049 kJ/mol
# Density = 1.852478 g / cm^3
# Si number density = 18.567040 Si / 1000 Ang^3
#
#
#
# Elastic Constant Matrix: (Units=GPa)
#
#
# Indices 1 2 3 4 5 6 
#
# 1 120.5632 43.9068 4.7303 0.0000 0.0000 0.0000
# 2 43.9068 90.3737 32.1421 0.0000 0.0000 0.0000
# 3 4.7303 32.1421 67.7509 0.0000 0.0000 0.0000
# 4 0.0000 0.0000 0.0000 13.7424 0.0000 0.0000
# 5 0.0000 0.0000 0.0000 0.0000 19.2158 0.0000
# 6 0.0000 0.0000 0.0000 0.0000 0.0000 -1.9316
#
#
#
# Elastic Compliance Matrix: (Units=1/GPa)
#
#
# Indices 1 2 3 4 5 6 
#
# 1 0.010296 -0.005710 0.001990 0.000000 0.000000 0.000000
# 2 -0.005710 0.016478 -0.007419 0.000000 0.000000 0.000000
# 3 0.001990 -0.007419 0.018141 0.000000 0.000000 0.000000
# 4 0.000000 0.000000 0.000000 0.072768 0.000000 0.000000
# 5 0.000000 0.000000 0.000000 0.000000 0.052040 0.000000
# 6 0.000000 0.000000 0.000000 0.000000 0.000000 -0.517714
#
#
# Mechanical properties :
#
#
# Convention : Reuss Voigt Hill
#
# Bulk Modulus (GPa) = 44.17533 48.91623 46.54578
# Shear Modulus (GPa) = -15.71490 19.39924 1.84217
#
# Velocity S-wave (km/s) = -2.91243 3.23588 0.99716
# Velocity P-wave (km/s) = 3.54039 6.35328 5.14288
#
# Compressibility (1/GPa) = 0.02263707
#
# Stress axis : x y z
#
# Youngs Moduli (GPa) = 97.12781 60.68822 55.12519
#
# Poissons Ratio (x) = 0.34652 -0.10970
# Poissons Ratio (y) = 0.55458 0.40895
# Poissons Ratio (z) = -0.19328 0.45022
#
# Static dielectric constant tensor:
#      x y z
#    x 3.924430 0.000000 0.000000 
#    y 0.000000 3.349080 0.000000 
#    z 0.000000 0.000000 3.302560 
# 
# 
# High freq. dielectric constant tensor:
#      x y z
#    x 1.730180 0.000000 0.000000 
#    y 0.000000 1.717320 0.000000 
#    z 0.000000 0.000000 1.710900 
# 
# From -- ./inp_files/11973.got.cif
#   From: 2010.03.12/outbox.cif.g09.slc.cpg/sg57_6_cif.got.tgz:11973.got - 2010.04.16 15:48:40.
