data_PCOD8231776
_publ_section_title
;
Structure prediction by ZEFSAII (Michael W. Deem and Ramdas Pophale) SiO2 
 PCOD8231776
Probable space group: P B C M
;
_chemical_formula_sum "Si O2"
_cell_formula_units_Z 48
_cell_length_a 10.295846
_cell_length_b 28.044979
_cell_length_c 8.645939
_cell_angle_alpha 90.000000
_cell_angle_beta 90.000000
_cell_angle_gamma 90.000000
_cell_volume 2496.487088
_symmetry_space_group_name_H-M "P B C M"
_symmetry_group_IT_number 57
_symmetry_cell_setting 'orthorhombic'
loop_
_space_group_symop_operation_xyz
x,y,z
-x,-y,1/2+z
x,1/2-y,-z
-x,1/2+y,1/2-z
-x,-y,-z
x,y,1/2-z
-x,1/2+y,z
x,1/2-y,1/2+z
loop_
_atom_site_type_symbol
_atom_site_label
_atom_site_fract_x
_atom_site_fract_y
_atom_site_fract_z
Si Si1 0.887381 0.701540 0.070933
Si Si2 0.515565 0.606460 0.067670
Si Si3 0.016238 0.603452 0.070449
Si Si4 0.735109 0.440535 0.431274
Si Si5 0.391525 0.199857 0.932212
Si Si6 0.237133 0.451353 0.933135
O O1 0.854412 0.709536 0.250000
O O2 0.990468 0.659546 0.047297
O O3 0.947244 0.750000 0.000000
O O4 0.753661 0.687904 0.987705
O O5 0.526226 0.613130 0.250000
O O6 0.637174 0.576197 0.001116
O O7 0.385156 0.579035 0.026805
O O8 0.512717 0.658374 0.989593
O O9 0.043236 0.591516 0.250000
O O10 0.893968 0.573456 0.005669
O O11 0.139405 0.591009 0.967118
O O12 0.703592 0.438680 0.250000
O O13 0.760739 0.494227 0.489824
O O14 0.395276 0.202953 0.750000
O O15 0.441011 0.250000 0.000000
O O16 0.239480 0.448062 0.750000
#
# Coordination Sequence:
#
# PCOD8231776 Si02
#       6
#     8   8   8   8   8   8
#     4  10  19  34  58  85 115 147 188 234 283 338
#     4  11  21  39  61  83 115 155 192 236 288 340
#     4  10  20  38  59  82 114 155 192 232 289 346
#     4  11  23  37  55  85 119 152 192 241 289 344
#     4  11  21  35  58  88 117 146 187 235 284 338
#     4   9  19  37  60  83 113 150 195 241 286 339
#
# _framework density 19.227017
#
# number of rings (size 3 to 8) (size 9 to 14) (size 15 to 20)
#    0.000    1.667    1.667    5.000    0.000    1.333 
#    0.000    4.167    0.000    2.000    0.000    0.000 
#    0.000    0.000    0.000    0.000    0.000    0.000 
#
# Total GULP energy -595396.071411 kJ/mol
# GULP energy per Si atom -12404.084821 kJ/mol
# Density = 1.918326 g / cm^3
# Si number density = 19.227017 Si / 1000 Ang^3
#
#
#
# Elastic Constant Matrix: (Units=GPa)
#
#
# Indices 1 2 3 4 5 6 
#
# 1 89.5779 32.3768 19.2046 0.0000 0.0000 0.0000
# 2 32.3768 118.2115 39.9356 0.0000 0.0000 0.0000
# 3 19.2046 39.9356 91.9864 0.0000 0.0000 0.0000
# 4 0.0000 0.0000 0.0000 29.4609 0.0000 0.0000
# 5 0.0000 0.0000 0.0000 0.0000 23.8710 0.0000
# 6 0.0000 0.0000 0.0000 0.0000 0.0000 -5.0332
#
#
#
# Elastic Compliance Matrix: (Units=1/GPa)
#
#
# Indices 1 2 3 4 5 6 
#
# 1 0.012525 -0.002985 -0.001319 0.000000 0.000000 0.000000
# 2 -0.002985 0.010625 -0.003990 0.000000 0.000000 0.000000
# 3 -0.001319 -0.003990 0.012879 0.000000 0.000000 0.000000
# 4 0.000000 0.000000 0.000000 0.033943 0.000000 0.000000
# 5 0.000000 0.000000 0.000000 0.000000 0.041892 0.000000
# 6 0.000000 0.000000 0.000000 0.000000 0.000000 -0.198681
#
#
# Mechanical properties :
#
#
# Convention : Reuss Voigt Hill
#
# Bulk Modulus (GPa) = 51.43633 53.64553 52.54093
# Shear Modulus (GPa) = -78.43110 23.54367 -27.44372
#
# Velocity S-wave (km/s) = -6.39380 3.50310 -3.78213
# Velocity P-wave (km/s) = 5.26283 6.65762 2.88327
#
# Compressibility (1/GPa) = 0.01944151
#
# Stress axis : x y z
#
# Youngs Moduli (GPa) = 79.83963 94.12014 77.64825
#
# Poissons Ratio (x) = 0.28094 0.10242
# Poissons Ratio (y) = 0.23831 0.30978
# Poissons Ratio (z) = 0.10531 0.37549
#
# Static dielectric constant tensor:
#      x y z
#    x 3.345250 0.000000 0.000000 
#    y 0.000000 3.753210 0.000000 
#    z 0.000000 0.000000 3.391060 
# 
# 
# High freq. dielectric constant tensor:
#      x y z
#    x 1.730720 0.000000 0.000000 
#    y 0.000000 1.765800 0.000000 
#    z 0.000000 0.000000 1.742480 
# 
# From -- ./inp_files/2109.got.cif
#   From: 2010.03.12/outbox.cif.g09.slc.cpg/sg57_2_cif.got.tgz:2109.got - 2010.04.16 15:48:40.
