data_PCOD8231439
_publ_section_title
;
Structure prediction by ZEFSAII (Michael W. Deem and Ramdas Pophale) SiO2 
 PCOD8231439
Probable space group: P B C M
;
_chemical_formula_sum "Si O2"
_cell_formula_units_Z 56
_cell_length_a 15.258670
_cell_length_b 20.796057
_cell_length_c 8.836501
_cell_angle_alpha 90.000000
_cell_angle_beta 90.000000
_cell_angle_gamma 90.000000
_cell_volume 2804.000009
_symmetry_space_group_name_H-M "P B C M"
_symmetry_group_IT_number 57
_symmetry_cell_setting 'orthorhombic'
loop_
_space_group_symop_operation_xyz
x,y,z
-x,-y,1/2+z
x,1/2-y,-z
-x,1/2+y,1/2-z
-x,-y,-z
x,y,1/2-z
-x,1/2+y,z
x,1/2-y,1/2+z
loop_
_atom_site_type_symbol
_atom_site_label
_atom_site_fract_x
_atom_site_fract_y
_atom_site_fract_z
Si Si1 0.942690 0.056755 0.572076
Si Si2 0.801015 0.608944 0.581186
Si Si3 0.446715 0.817628 0.431263
Si Si4 0.758453 0.488375 0.076336
Si Si5 0.578940 0.455525 0.930466
Si Si6 0.966620 0.684059 0.575758
Si Si7 0.640933 0.808455 0.082963
O O1 0.958107 0.050101 0.750000
O O2 0.837953 0.060113 0.536381
O O3 0.978171 0.124548 0.509059
O O4 0.000000 0.000000 0.500000
O O5 0.824501 0.582364 0.750000
O O6 0.809221 0.555509 0.452891
O O7 0.864115 0.668850 0.544527
O O8 0.699906 0.629140 0.577170
O O9 0.407438 0.750000 0.500000
O O10 0.432468 0.818469 0.250000
O O11 0.408784 0.883470 0.501563
O O12 0.546744 0.823439 0.488528
O O13 0.727597 0.482593 0.250000
O O14 0.674022 0.485594 0.967858
O O15 0.565022 0.453374 0.750000
O O16 0.500000 0.500000 0.000000
O O17 0.995293 0.750000 0.500000
O O18 0.987639 0.693113 0.750000
O O19 0.623003 0.783602 0.250000
O O20 0.689347 0.750000 0.000000
#
# Coordination Sequence:
#
# PCOD8231439 Si02
#       7
#     8   8   8   8   8   8   8
#     4  10  21  39  62  88 119 158 204 252 301 361
#     4  10  19  33  53  80 117 155 194 244 303 366
#     4  10  20  37  59  85 119 161 210 258 312 374
#     4  11  23  38  60  89 118 156 205 255 311 374
#     4  12  25  42  64  92 126 164 209 264 323 379
#     4  10  21  36  56  85 121 159 201 252 307 362
#     4   9  18  30  48  75 108 148 188 233 290 355
#
# _framework density 19.97147
#
# number of rings (size 3 to 8) (size 9 to 14) (size 15 to 20)
#    0.000    1.714    1.429    3.429    0.000    4.000 
#    0.000    0.714    0.000    1.714    0.000    0.000 
#    0.000    0.000    0.000    0.000    0.000    0.000 
#
# Total GULP energy -693762.288927 kJ/mol
# GULP energy per Si atom -12388.612302 kJ/mol
# Density = 1.992601 g / cm^3
# Si number density = 19.971470 Si / 1000 Ang^3
#
#
#
# Elastic Constant Matrix: (Units=GPa)
#
#
# Indices 1 2 3 4 5 6 
#
# 1 89.3406 33.5578 29.9371 0.0000 0.0000 0.0000
# 2 33.5578 139.8409 46.5491 0.0000 0.0000 0.0000
# 3 29.9371 46.5491 80.4625 0.0000 0.0000 0.0000
# 4 0.0000 0.0000 0.0000 37.9927 0.0000 0.0000
# 5 0.0000 0.0000 0.0000 0.0000 21.7515 0.0000
# 6 0.0000 0.0000 0.0000 0.0000 0.0000 25.5744
#
#
#
# Elastic Compliance Matrix: (Units=1/GPa)
#
#
# Indices 1 2 3 4 5 6 
#
# 1 0.013181 -0.001896 -0.003807 0.000000 0.000000 0.000000
# 2 -0.001896 0.009129 -0.004576 0.000000 0.000000 0.000000
# 3 -0.003807 -0.004576 0.016492 0.000000 0.000000 0.000000
# 4 0.000000 0.000000 0.000000 0.026321 0.000000 0.000000
# 5 0.000000 0.000000 0.000000 0.000000 0.045974 0.000000
# 6 0.000000 0.000000 0.000000 0.000000 0.000000 0.039102
#
#
# Mechanical properties :
#
#
# Convention : Reuss Voigt Hill
#
# Bulk Modulus (GPa) = 54.81308 58.85911 56.83610
# Shear Modulus (GPa) = 28.27442 30.37038 29.32240
#
# Velocity S-wave (km/s) = 3.76671 3.90383 3.83589
# Velocity P-wave (km/s) = 6.81343 7.06084 6.93824
#
# Compressibility (1/GPa) = 0.01824382
#
# Stress axis : x y z
#
# Youngs Moduli (GPa) = 75.86675 109.53944 60.63495
#
# Poissons Ratio (x) = 0.20765 0.23087
# Poissons Ratio (y) = 0.14382 0.27747
# Poissons Ratio (z) = 0.28886 0.50126
#
# Static dielectric constant tensor:
#      x y z
#    x 3.683030 0.000000 0.000000 
#    y 0.000000 3.808390 0.000000 
#    z 0.000000 0.000000 3.587120 
# 
# 
# High freq. dielectric constant tensor:
#      x y z
#    x 1.773680 0.000000 0.000000 
#    y 0.000000 1.779230 0.000000 
#    z 0.000000 0.000000 1.774990 
# 
# From -- ./inp_files/5266.got.cif
#   From: 2010.03.12/outbox.cif.g09.slc.cpg/sg57_3_cif.got.tgz:5266.got - 2010.04.16 15:48:40.
