data_PCOD8231279
_publ_section_title
;
Structure prediction by ZEFSAII (Michael W. Deem and Ramdas Pophale) SiO2 
 PCOD8231279
Probable space group: P B C M
;
_chemical_formula_sum "Si O2"
_cell_formula_units_Z 52
_cell_length_a 14.023852
_cell_length_b 20.233643
_cell_length_c 10.073474
_cell_angle_alpha 90.000000
_cell_angle_beta 90.000000
_cell_angle_gamma 90.000000
_cell_volume 2858.384662
_symmetry_space_group_name_H-M "P B C M"
_symmetry_group_IT_number 57
_symmetry_cell_setting 'orthorhombic'
loop_
_space_group_symop_operation_xyz
x,y,z
-x,-y,1/2+z
x,1/2-y,-z
-x,1/2+y,1/2-z
-x,-y,-z
x,y,1/2-z
-x,1/2+y,z
x,1/2-y,1/2+z
loop_
_atom_site_type_symbol
_atom_site_label
_atom_site_fract_x
_atom_site_fract_y
_atom_site_fract_z
Si Si1 0.735383 0.629144 0.398818
Si Si2 0.844895 0.958478 0.401842
Si Si3 0.329622 0.691337 0.099326
Si Si4 0.997396 0.851389 0.396499
Si Si5 0.852752 0.750000 0.500000
Si Si6 0.543008 0.692522 0.399389
Si Si7 0.148077 0.609543 0.402321
O O1 0.759703 0.604702 0.250000
O O2 0.766775 0.574272 0.503370
O O3 0.786353 0.700147 0.417385
O O4 0.621369 0.635405 0.417687
O O5 0.807834 0.954225 0.250000
O O6 0.945040 0.921310 0.418568
O O7 0.860059 0.033716 0.446135
O O8 0.320170 0.718186 0.250000
O O9 0.436758 0.664379 0.072229
O O10 0.257049 0.631382 0.075242
O O11 0.303341 0.750000 0.000000
O O12 0.044022 0.848756 0.250000
O O13 0.920655 0.792467 0.403834
O O14 0.079249 0.845221 0.507327
O O15 0.569028 0.750000 0.500000
O O16 0.548835 0.721446 0.250000
O O17 0.115794 0.619563 0.250000
#
# Coordination Sequence:
#
# PCOD8231279 Si02
#       7
#     8   8   8   8   4   8   8
#     4  10  19  32  54  80 106 135 169 210 256 304
#     4   9  20  37  53  73 103 140 177 211 255 309
#     4   9  19  35  54  77 104 134 171 212 256 306
#     4  10  21  34  52  76 102 133 174 218 255 303
#     4  10  20  34  50  78 108 136 162 208 264 314
#     4   9  17  31  52  78 105 134 167 207 255 306
#     4  10  21  37  55  73 101 141 176 212 259 307
#
# _framework density 18.192094000000001
#
# number of rings (size 3 to 8) (size 9 to 14) (size 15 to 20)
#    0.000    2.462    0.769    0.923    1.077    5.538 
#    0.000    0.769    0.000    0.000    0.000    0.000 
#    0.000    0.000    0.000    0.000    0.000    0.000 
#
# Total GULP energy -644718.053353 kJ/mol
# GULP energy per Si atom -12398.424103 kJ/mol
# Density = 1.815069 g / cm^3
# Si number density = 18.192094 Si / 1000 Ang^3
#
#
#
# Elastic Constant Matrix: (Units=GPa)
#
#
# Indices 1 2 3 4 5 6 
#
# 1 92.7964 30.7164 47.6121 0.0000 0.0000 0.0000
# 2 30.7164 56.6052 25.5502 0.0000 0.0000 0.0000
# 3 47.6121 25.5502 95.0057 0.0000 0.0000 0.0000
# 4 0.0000 0.0000 0.0000 23.5672 0.0000 0.0000
# 5 0.0000 0.0000 0.0000 0.0000 28.6136 0.0000
# 6 0.0000 0.0000 0.0000 0.0000 0.0000 19.4296
#
#
#
# Elastic Compliance Matrix: (Units=1/GPa)
#
#
# Indices 1 2 3 4 5 6 
#
# 1 0.016004 -0.005764 -0.006470 0.000000 0.000000 0.000000
# 2 -0.005764 0.022183 -0.003077 0.000000 0.000000 0.000000
# 3 -0.006470 -0.003077 0.014596 0.000000 0.000000 0.000000
# 4 0.000000 0.000000 0.000000 0.042432 0.000000 0.000000
# 5 0.000000 0.000000 0.000000 0.000000 0.034948 0.000000
# 6 0.000000 0.000000 0.000000 0.000000 0.000000 0.051468
#
#
# Mechanical properties :
#
#
# Convention : Reuss Voigt Hill
#
# Bulk Modulus (GPa) = 45.12630 50.24052 47.68341
# Shear Modulus (GPa) = 22.76450 23.69064 23.22757
#
# Velocity S-wave (km/s) = 3.54127 3.61258 3.57710
# Velocity P-wave (km/s) = 6.44826 6.71399 6.58247
#
# Compressibility (1/GPa) = 0.02216003
#
# Stress axis : x y z
#
# Youngs Moduli (GPa) = 62.48453 45.07974 68.51279
#
# Poissons Ratio (x) = 0.25984 0.44330
# Poissons Ratio (y) = 0.36015 0.21082
# Poissons Ratio (z) = 0.40429 0.13872
#
# Static dielectric constant tensor:
#      x y z
#    x 3.411530 0.000000 0.000000 
#    y 0.000000 3.124980 0.000000 
#    z 0.000000 0.000000 3.438400 
# 
# 
# High freq. dielectric constant tensor:
#      x y z
#    x 1.706900 0.000000 0.000000 
#    y 0.000000 1.678780 0.000000 
#    z 0.000000 0.000000 1.714810 
# 
# From -- ./inp_files/5050.got.cif
#   From: 2010.03.12/outbox.cif.g09.slc.cpg/sg57_3_cif.got.tgz:5050.got - 2010.04.16 15:48:40.
