data_PCOD8231027
_publ_section_title
;
Structure prediction by ZEFSAII (Michael W. Deem and Ramdas Pophale) SiO2 
 PCOD8231027
Probable space group: P B C M
;
_chemical_formula_sum "Si O2"
_cell_formula_units_Z 56
_cell_length_a 17.513705
_cell_length_b 19.564076
_cell_length_c 8.743159
_cell_angle_alpha 90.000000
_cell_angle_beta 90.000000
_cell_angle_gamma 90.000000
_cell_volume 2995.751241
_symmetry_space_group_name_H-M "P B C M"
_symmetry_group_IT_number 57
_symmetry_cell_setting 'orthorhombic'
loop_
_space_group_symop_operation_xyz
x,y,z
-x,-y,1/2+z
x,1/2-y,-z
-x,1/2+y,1/2-z
-x,-y,-z
x,y,1/2-z
-x,1/2+y,z
x,1/2-y,1/2+z
loop_
_atom_site_type_symbol
_atom_site_label
_atom_site_fract_x
_atom_site_fract_y
_atom_site_fract_z
Si Si1 0.483368 0.426533 0.929771
Si Si2 0.064365 0.092695 0.927349
Si Si3 0.309791 0.431049 0.571007
Si Si4 0.900389 0.451237 0.072373
Si Si5 0.603546 0.324801 0.068365
Si Si6 0.265963 0.577974 0.929571
Si Si7 0.811019 0.677392 0.069739
O O1 0.501252 0.428187 0.750000
O O2 0.395615 0.407481 0.963197
O O3 0.500000 0.500000 0.000000
O O4 0.532108 0.368685 0.012087
O O5 0.079945 0.105251 0.750000
O O6 0.973789 0.095407 0.965364
O O7 0.104484 0.152945 0.021421
O O8 0.098803 0.019643 0.973101
O O9 0.293534 0.436277 0.750000
O O10 0.293244 0.505728 0.497827
O O11 0.251359 0.375593 0.501819
O O12 0.900675 0.473690 0.250000
O O13 0.823432 0.409134 0.031778
O O14 0.600925 0.319865 0.250000
O O15 0.681610 0.360592 0.006556
O O16 0.598759 0.250000 0.000000
O O17 0.280140 0.574822 0.750000
O O18 0.806757 0.683370 0.250000
O O19 0.791417 0.750000 0.000000
#
# Coordination Sequence:
#
# PCOD8231027 Si02
#       7
#     8   8   8   8   8   8   8
#     4  11  21  37  60  88 117 149 189 232 279 334
#     4  10  19  31  51  83 114 142 182 227 277 330
#     4   9  18  34  58  83 108 144 188 230 274 330
#     4   9  17  32  56  81 108 144 185 229 273 322
#     4  11  23  40  60  84 115 150 188 232 285 342
#     4   9  16  33  59  83 109 146 187 227 276 329
#     4  11  22  38  57  77 110 150 187 229 283 337
#
# _framework density 18.693142000000002
#
# number of rings (size 3 to 8) (size 9 to 14) (size 15 to 20)
#    0.000    2.000    2.857    1.714    0.000    1.143 
#    0.000    7.857    0.000    1.714    0.000    0.000 
#    0.000    0.000    0.000    0.000    0.000    0.000 
#
# Total GULP energy -694344.882482 kJ/mol
# GULP energy per Si atom -12399.015759 kJ/mol
# Density = 1.865060 g / cm^3
# Si number density = 18.693142 Si / 1000 Ang^3
#
#
#
# Elastic Constant Matrix: (Units=GPa)
#
#
# Indices 1 2 3 4 5 6 
#
# 1 138.6777 75.8662 35.9899 0.0000 0.0000 0.0000
# 2 75.8662 148.2880 39.0075 0.0000 0.0000 0.0000
# 3 35.9899 39.0075 60.7403 0.0000 0.0000 0.0000
# 4 0.0000 0.0000 0.0000 30.7194 0.0000 0.0000
# 5 0.0000 0.0000 0.0000 0.0000 23.0114 0.0000
# 6 0.0000 0.0000 0.0000 0.0000 0.0000 27.8589
#
#
#
# Elastic Compliance Matrix: (Units=1/GPa)
#
#
# Indices 1 2 3 4 5 6 
#
# 1 0.010552 -0.004517 -0.003351 0.000000 0.000000 0.000000
# 2 -0.004517 0.010048 -0.003776 0.000000 0.000000 0.000000
# 3 -0.003351 -0.003776 0.020875 0.000000 0.000000 0.000000
# 4 0.000000 0.000000 0.000000 0.032553 0.000000 0.000000
# 5 0.000000 0.000000 0.000000 0.000000 0.043457 0.000000
# 6 0.000000 0.000000 0.000000 0.000000 0.000000 0.035895
#
#
# Mechanical properties :
#
#
# Convention : Reuss Voigt Hill
#
# Bulk Modulus (GPa) = 54.99095 72.15925 63.57510
# Shear Modulus (GPa) = 27.36279 29.44076 28.40177
#
# Velocity S-wave (km/s) = 3.83010 3.97287 3.90214
# Velocity P-wave (km/s) = 7.00294 7.72856 7.37468
#
# Compressibility (1/GPa) = 0.01818481
#
# Stress axis : x y z
#
# Youngs Moduli (GPa) = 94.77112 99.52310 47.90513
#
# Poissons Ratio (x) = 0.44953 0.16055
# Poissons Ratio (y) = 0.42806 0.18091
# Poissons Ratio (z) = 0.31762 0.37585
#
# Static dielectric constant tensor:
#      x y z
#    x 3.712760 0.000000 0.000000 
#    y 0.000000 3.396300 0.000000 
#    z 0.000000 0.000000 3.306030 
# 
# 
# High freq. dielectric constant tensor:
#      x y z
#    x 1.742940 0.000000 0.000000 
#    y 0.000000 1.709040 0.000000 
#    z 0.000000 0.000000 1.708070 
# 
# From -- ./inp_files/7090.got.cif
#   From: 2010.03.12/outbox.cif.g09.slc.cpg/sg57_4_cif.got.tgz:7090.got - 2010.04.16 15:48:40.
