data_PCOD8231482
_publ_section_title
;
Structure prediction by ZEFSAII (Michael W. Deem and Ramdas Pophale) SiO2 
 PCOD8231482
Probable space group: P B C M
;
_chemical_formula_sum "Si O2"
_cell_formula_units_Z 64
_cell_length_a 24.223325
_cell_length_b 15.283597
_cell_length_c 8.679644
_cell_angle_alpha 90.000000
_cell_angle_beta 90.000000
_cell_angle_gamma 90.000000
_cell_volume 3213.373786
_symmetry_space_group_name_H-M "P B C M"
_symmetry_group_IT_number 57
_symmetry_cell_setting 'orthorhombic'
loop_
_space_group_symop_operation_xyz
x,y,z
-x,-y,1/2+z
x,1/2-y,-z
-x,1/2+y,1/2-z
-x,-y,-z
x,y,1/2-z
-x,1/2+y,z
x,1/2-y,1/2+z
loop_
_atom_site_type_symbol
_atom_site_label
_atom_site_fract_x
_atom_site_fract_y
_atom_site_fract_z
Si Si1 0.998748 0.403806 0.932268
Si Si2 0.381453 0.845328 0.930799
Si Si3 0.817449 0.493792 0.569486
Si Si4 0.886360 0.339588 0.068280
Si Si5 0.889827 0.661589 0.569261
Si Si6 0.613162 0.846496 0.432033
Si Si7 0.496773 0.154778 0.430232
Si Si8 0.692021 0.502109 0.567153
O O1 0.995537 0.410557 0.750000
O O2 0.945869 0.352903 0.993019
O O3 0.000000 0.500000 0.000000
O O4 0.052588 0.351875 0.983052
O O5 0.374217 0.833783 0.750000
O O6 0.442773 0.884904 0.967098
O O7 0.337950 0.915145 0.999115
O O8 0.370447 0.750000 0.000000
O O9 0.821044 0.470965 0.750000
O O10 0.845204 0.417407 0.472694
O O11 0.848024 0.583836 0.531432
O O12 0.754921 0.503354 0.510563
O O13 0.892957 0.333014 0.250000
O O14 0.861182 0.250000 0.000000
O O15 0.863193 0.750000 0.500000
O O16 0.900714 0.670236 0.750000
O O17 0.622675 0.750000 0.500000
O O18 0.612734 0.839171 0.250000
O O19 0.555254 0.891799 0.487001
O O20 0.661931 0.909916 0.491952
O O21 0.497940 0.250000 0.500000
O O22 0.484573 0.158166 0.250000
O O23 0.688574 0.499645 0.750000
#
# Coordination Sequence:
#
# PCOD8231482 Si02
#       8
#     8   8   8   8   8   8   8   8
#     4  12  23  39  64  94 128 160 193 237 292 349
#     4   9  18  34  55  79 109 143 183 229 283 344
#     4  10  22  42  63  83 114 154 199 246 293 346
#     4  12  25  42  65  92 123 158 198 242 291 348
#     4  11  23  39  62  90 121 157 198 242 293 349
#     4  10  19  33  54  79 110 147 186 230 282 339
#     4   9  16  28  49  77 108 141 178 226 282 341
#     4   9  20  38  58  80 109 149 191 234 287 342
#
# _framework density 19.916761000000001
#
# number of rings (size 3 to 8) (size 9 to 14) (size 15 to 20)
#    0.000    1.750    1.250    4.500    0.000    2.500 
#    0.000    4.375    0.000    0.000    0.000    0.000 
#    0.000    0.000    0.000    0.000    0.000    0.000 
#
# Total GULP energy -793504.621557 kJ/mol
# GULP energy per Si atom -12398.509712 kJ/mol
# Density = 1.987143 g / cm^3
# Si number density = 19.916761 Si / 1000 Ang^3
#
#
#
# Elastic Constant Matrix: (Units=GPa)
#
#
# Indices 1 2 3 4 5 6 
#
# 1 163.1307 71.7283 50.8410 0.0000 0.0000 0.0000
# 2 71.7283 138.7053 55.2990 0.0000 0.0000 0.0000
# 3 50.8410 55.2990 104.3933 0.0000 0.0000 0.0000
# 4 0.0000 0.0000 0.0000 24.2142 0.0000 0.0000
# 5 0.0000 0.0000 0.0000 0.0000 -13.7622 0.0000
# 6 0.0000 0.0000 0.0000 0.0000 0.0000 2.1216
#
#
#
# Elastic Compliance Matrix: (Units=1/GPa)
#
#
# Indices 1 2 3 4 5 6 
#
# 1 0.008331 -0.003411 -0.002251 0.000000 0.000000 0.000000
# 2 -0.003411 0.010536 -0.003920 0.000000 0.000000 0.000000
# 3 -0.002251 -0.003920 0.012752 0.000000 0.000000 0.000000
# 4 0.000000 0.000000 0.000000 0.041298 0.000000 0.000000
# 5 0.000000 0.000000 0.000000 0.000000 -0.072663 0.000000
# 6 0.000000 0.000000 0.000000 0.000000 0.000000 0.471346
#
#
# Mechanical properties :
#
#
# Convention : Reuss Voigt Hill
#
# Bulk Modulus (GPa) = 80.28252 84.66287 82.47269
# Shear Modulus (GPa) = 10.10272 17.73878 13.92075
#
# Velocity S-wave (km/s) = 2.25466 2.98761 2.64663
# Velocity P-wave (km/s) = 6.86837 7.38253 7.13008
#
# Compressibility (1/GPa) = 0.01245601
#
# Stress axis : x y z
#
# Youngs Moduli (GPa) = 120.02920 94.90963 78.42084
#
# Poissons Ratio (x) = 0.32375 0.17649
# Poissons Ratio (y) = 0.40943 0.30741
# Poissons Ratio (z) = 0.27013 0.37205
#
# Static dielectric constant tensor:
#      x y z
#    x 4.146900 0.000000 0.000000 
#    y 0.000000 3.699310 0.000000 
#    z 0.000000 0.000000 3.537570 
# 
# 
# High freq. dielectric constant tensor:
#      x y z
#    x 1.780450 0.000000 0.000000 
#    y 0.000000 1.781010 0.000000 
#    z 0.000000 0.000000 1.771400 
# 
# From -- ./inp_files/9346.got.cif
#   From: 2010.03.12/outbox.cif.g09.slc.cpg/sg57_5_cif.got.tgz:9346.got - 2010.04.16 15:48:40.
