data_PCOD8231717
_publ_section_title
;
Structure prediction by ZEFSAII (Michael W. Deem and Ramdas Pophale) SiO2 
 PCOD8231717
Probable space group: P B C M
;
_chemical_formula_sum "Si O2"
_cell_formula_units_Z 64
_cell_length_a 23.739304
_cell_length_b 14.574285
_cell_length_c 8.961068
_cell_angle_alpha 90.000000
_cell_angle_beta 90.000000
_cell_angle_gamma 90.000000
_cell_volume 3100.380615
_symmetry_space_group_name_H-M "P B C M"
_symmetry_group_IT_number 57
_symmetry_cell_setting 'orthorhombic'
loop_
_space_group_symop_operation_xyz
x,y,z
-x,-y,1/2+z
x,1/2-y,-z
-x,1/2+y,1/2-z
-x,-y,-z
x,y,1/2-z
-x,1/2+y,z
x,1/2-y,1/2+z
loop_
_atom_site_type_symbol
_atom_site_label
_atom_site_fract_x
_atom_site_fract_y
_atom_site_fract_z
Si Si1 0.973297 0.086430 0.078137
Si Si2 0.132467 0.538486 0.927021
Si Si3 0.354327 0.848361 0.927147
Si Si4 0.753122 0.028230 0.074065
Si Si5 0.392394 0.166481 0.088871
Si Si6 0.261763 0.163192 0.415876
Si Si7 0.559889 0.020365 0.571401
Si Si8 0.089589 0.160696 0.419558
O O1 0.959934 0.064749 0.250000
O O2 0.021380 0.163967 0.063050
O O3 0.914775 0.108489 0.992982
O O4 0.000000 0.000000 0.000000
O O5 0.132780 0.548081 0.750000
O O6 0.117725 0.433919 0.979928
O O7 0.191986 0.570629 0.994198
O O8 0.361849 0.839352 0.750000
O O9 0.300750 0.910971 0.969805
O O10 0.343830 0.750000 0.000000
O O11 0.411072 0.890964 0.997992
O O12 0.762527 0.026229 0.250000
O O13 0.745752 0.925810 0.015424
O O14 0.422086 0.167856 0.250000
O O15 0.326879 0.185534 0.104569
O O16 0.402604 0.066634 0.019008
O O17 0.421388 0.250000 0.000000
O O18 0.233214 0.250000 0.500000
O O19 0.234705 0.149358 0.250000
O O20 0.556465 0.033703 0.750000
O O21 0.500000 0.000000 0.500000
O O22 0.115019 0.250000 0.500000
O O23 0.107640 0.169651 0.250000
#
# Coordination Sequence:
#
# PCOD8231717 Si02
#       8
#     8   8   8   8   8   8   8   8
#     4   9  17  32  52  76 106 142 188 237 287 346
#     4  10  21  36  55  81 112 150 195 243 296 354
#     4  11  25  45  69  94 122 161 209 258 312 370
#     4  11  23  39  61  89 120 159 205 254 308 366
#     4   9  19  34  56  84 116 152 190 233 286 345
#     4  10  19  34  56  84 116 153 195 239 291 354
#     4  11  23  41  64  94 128 163 203 250 304 360
#     4   9  19  33  52  80 112 147 187 233 288 350
#
# _framework density 20.642626
#
# number of rings (size 3 to 8) (size 9 to 14) (size 15 to 20)
#    0.000    2.000    1.250    3.000    0.000    7.000 
#    0.000    3.125    0.000    0.000    0.000    0.000 
#    0.000    0.000    0.000    0.000    0.000    0.000 
#
# Total GULP energy -793231.680022 kJ/mol
# GULP energy per Si atom -12394.245000 kJ/mol
# Density = 2.059564 g / cm^3
# Si number density = 20.642626 Si / 1000 Ang^3
#
#
#
# Elastic Constant Matrix: (Units=GPa)
#
#
# Indices 1 2 3 4 5 6 
#
# 1 113.8530 29.0283 52.1327 0.0000 0.0000 0.0000
# 2 29.0283 82.3142 36.6985 0.0000 0.0000 0.0000
# 3 52.1327 36.6985 109.8340 0.0000 0.0000 0.0000
# 4 0.0000 0.0000 0.0000 33.8734 0.0000 0.0000
# 5 0.0000 0.0000 0.0000 0.0000 29.9353 0.0000
# 6 0.0000 0.0000 0.0000 0.0000 0.0000 6.2788
#
#
#
# Elastic Compliance Matrix: (Units=1/GPa)
#
#
# Indices 1 2 3 4 5 6 
#
# 1 0.011470 -0.001901 -0.004809 0.000000 0.000000 0.000000
# 2 -0.001901 0.014590 -0.003973 0.000000 0.000000 0.000000
# 3 -0.004809 -0.003973 0.012715 0.000000 0.000000 0.000000
# 4 0.000000 0.000000 0.000000 0.029522 0.000000 0.000000
# 5 0.000000 0.000000 0.000000 0.000000 0.033405 0.000000
# 6 0.000000 0.000000 0.000000 0.000000 0.000000 0.159266
#
#
# Mechanical properties :
#
#
# Convention : Reuss Voigt Hill
#
# Bulk Modulus (GPa) = 57.44014 60.19113 58.81564
# Shear Modulus (GPa) = 17.35288 26.56026 21.95657
#
# Velocity S-wave (km/s) = 2.90251 3.59091 3.26491
# Velocity P-wave (km/s) = 6.25453 6.81284 6.53965
#
# Compressibility (1/GPa) = 0.01740943
#
# Stress axis : x y z
#
# Youngs Moduli (GPa) = 87.18429 68.53969 78.64926
#
# Poissons Ratio (x) = 0.13028 0.37823
# Poissons Ratio (y) = 0.16572 0.31245
# Poissons Ratio (z) = 0.41928 0.27229
#
# Static dielectric constant tensor:
#      x y z
#    x 3.974650 0.000000 0.000000 
#    y 0.000000 3.736460 0.000000 
#    z 0.000000 0.000000 3.881840 
# 
# 
# High freq. dielectric constant tensor:
#      x y z
#    x 1.809420 0.000000 0.000000 
#    y 0.000000 1.788750 0.000000 
#    z 0.000000 0.000000 1.816820 
# 
# From -- ./inp_files/9470.got.cif
#   From: 2010.03.12/outbox.cif.g09.slc.cpg/sg57_5_cif.got.tgz:9470.got - 2010.04.16 15:48:40.
