data_PCOD8231536
_publ_section_title
;
Structure prediction by ZEFSAII (Michael W. Deem and Ramdas Pophale) SiO2 
 PCOD8231536
Probable space group: P B C M
;
_chemical_formula_sum "Si O2"
_cell_formula_units_Z 64
_cell_length_a 11.793593
_cell_length_b 16.474345
_cell_length_c 17.968314
_cell_angle_alpha 90.000000
_cell_angle_beta 90.000000
_cell_angle_gamma 90.000000
_cell_volume 3491.094630
_symmetry_space_group_name_H-M "P B C M"
_symmetry_group_IT_number 57
_symmetry_cell_setting 'orthorhombic'
loop_
_space_group_symop_operation_xyz
x,y,z
-x,-y,1/2+z
x,1/2-y,-z
-x,1/2+y,1/2-z
-x,-y,-z
x,y,1/2-z
-x,1/2+y,z
x,1/2-y,1/2+z
loop_
_atom_site_type_symbol
_atom_site_label
_atom_site_fract_x
_atom_site_fract_y
_atom_site_fract_z
Si Si1 0.212197 0.909928 0.934467
Si Si2 0.203094 0.742401 0.335433
Si Si3 0.450451 0.587727 0.987524
Si Si4 0.949524 0.328587 0.452127
Si Si5 0.812824 0.906315 0.074638
Si Si6 0.570164 0.337714 0.332337
Si Si7 0.320627 0.225100 0.667475
Si Si8 0.671439 0.832158 0.539902
O O1 0.195198 0.848719 0.866250
O O2 0.191440 0.999707 0.901813
O O3 0.336703 0.898104 0.967333
O O4 0.123082 0.891306 0.999474
O O5 0.164082 0.741882 0.250000
O O6 0.120186 0.802425 0.379620
O O7 0.330915 0.772977 0.345651
O O8 0.429106 0.596855 0.898855
O O9 0.500000 0.500000 0.000000
O O10 0.540556 0.651244 0.020634
O O11 0.984257 0.250000 0.500000
O O12 0.059727 0.375270 0.424484
O O13 0.738950 0.853125 0.131387
O O14 0.755369 0.901659 0.991881
O O15 0.584489 0.379521 0.250000
O O16 0.454244 0.288538 0.333967
O O17 0.271602 0.235411 0.750000
O O18 0.303006 0.312312 0.626423
O O19 0.708736 0.750000 0.500000
#
# Coordination Sequence:
#
# PCOD8231536 Si02
#       8
#     8   8   8   8   8   8   8   8
#     4  11  22  35  59  86 114 147 188 242 288 337
#     4  10  22  38  58  85 112 146 193 237 283 341
#     4  12  20  35  58  89 114 151 193 234 289 345
#     4  10  21  37  60  82 107 147 196 239 281 337
#     4  11  21  37  55  85 116 149 188 240 288 333
#     4  10  19  35  57  83 115 148 185 235 289 341
#     4  10  20  34  55  82 112 152 191 229 283 341
#     4  10  19  33  55  79 112 149 191 234 272 339
#
# _framework density 18.332359
#
# number of rings (size 3 to 8) (size 9 to 14) (size 15 to 20)
#    0.000    1.500    5.000    2.250    0.000    1.000 
#    0.000    1.250    0.000    0.750    0.000    0.000 
#    0.000    0.000    0.000    0.000    0.000    0.000 
#
# Total GULP energy -793443.744782 kJ/mol
# GULP energy per Si atom -12397.558512 kJ/mol
# Density = 1.829063 g / cm^3
# Si number density = 18.332359 Si / 1000 Ang^3
#
#
#
# Elastic Constant Matrix: (Units=GPa)
#
#
# Indices 1 2 3 4 5 6 
#
# 1 112.3525 36.2695 39.9100 0.0000 0.0000 0.0000
# 2 36.2695 87.3570 57.6993 0.0000 0.0000 0.0000
# 3 39.9100 57.6993 145.6369 0.0000 0.0000 0.0000
# 4 0.0000 0.0000 0.0000 22.4721 0.0000 0.0000
# 5 0.0000 0.0000 0.0000 0.0000 2.2632 0.0000
# 6 0.0000 0.0000 0.0000 0.0000 0.0000 29.6687
#
#
#
# Elastic Compliance Matrix: (Units=1/GPa)
#
#
# Indices 1 2 3 4 5 6 
#
# 1 0.010534 -0.003341 -0.001563 0.000000 0.000000 0.000000
# 2 -0.003341 0.016564 -0.005647 0.000000 0.000000 0.000000
# 3 -0.001563 -0.005647 0.009532 0.000000 0.000000 0.000000
# 4 0.000000 0.000000 0.000000 0.044500 0.000000 0.000000
# 5 0.000000 0.000000 0.000000 0.000000 0.441856 0.000000
# 6 0.000000 0.000000 0.000000 0.000000 0.000000 0.033706
#
#
# Mechanical properties :
#
#
# Convention : Reuss Voigt Hill
#
# Bulk Modulus (GPa) = 64.39931 68.12268 66.26100
# Shear Modulus (GPa) = 8.57676 24.97863 16.77769
#
# Velocity S-wave (km/s) = 2.16533 3.69527 3.02850
# Velocity P-wave (km/s) = 6.43868 7.44628 6.96074
#
# Compressibility (1/GPa) = 0.01552812
#
# Stress axis : x y z
#
# Youngs Moduli (GPa) = 94.92676 60.37057 104.91035
#
# Poissons Ratio (x) = 0.20172 0.16398
# Poissons Ratio (y) = 0.31719 0.59242
# Poissons Ratio (z) = 0.14837 0.34091
#
# Static dielectric constant tensor:
#      x y z
#    x 4.019730 0.000000 0.000000 
#    y 0.000000 3.335870 0.000000 
#    z 0.000000 0.000000 3.695430 
# 
# 
# High freq. dielectric constant tensor:
#      x y z
#    x 1.719200 0.000000 0.000000 
#    y 0.000000 1.698610 0.000000 
#    z 0.000000 0.000000 1.708140 
# 
# From -- ./inp_files/22058.got.cif
#   From: 2010.03.12/outbox.cif.g09.slc.cpg/sg57_12_cif.got.tgz:22058.got - 2010.04.16 15:48:40.
