data_PCOD8231208
_publ_section_title
;
Structure prediction by ZEFSAII (Michael W. Deem and Ramdas Pophale) SiO2 
 PCOD8231208
Probable space group: P B C M
;
_chemical_formula_sum "Si O2"
_cell_formula_units_Z 64
_cell_length_a 19.970702
_cell_length_b 19.617739
_cell_length_c 9.292292
_cell_angle_alpha 90.000000
_cell_angle_beta 90.000000
_cell_angle_gamma 90.000000
_cell_volume 3640.534341
_symmetry_space_group_name_H-M "P B C M"
_symmetry_group_IT_number 57
_symmetry_cell_setting 'orthorhombic'
loop_
_space_group_symop_operation_xyz
x,y,z
-x,-y,1/2+z
x,1/2-y,-z
-x,1/2+y,1/2-z
-x,-y,-z
x,y,1/2-z
-x,1/2+y,z
x,1/2-y,1/2+z
loop_
_atom_site_type_symbol
_atom_site_label
_atom_site_fract_x
_atom_site_fract_y
_atom_site_fract_z
Si Si1 0.411171 0.319823 0.579649
Si Si2 0.204852 0.582276 0.583090
Si Si3 0.667915 0.058824 0.414909
Si Si4 0.481363 0.932439 0.916980
Si Si5 0.693997 0.597492 0.914623
Si Si6 0.085848 0.819608 0.416432
Si Si7 0.834891 0.548282 0.914248
Si Si8 0.016665 0.431953 0.416296
O O1 0.427813 0.250000 0.500000
O O2 0.405608 0.308209 0.750000
O O3 0.471087 0.370625 0.537031
O O4 0.341203 0.349808 0.521817
O O5 0.215548 0.566812 0.750000
O O6 0.277037 0.596591 0.512121
O O7 0.158840 0.648076 0.557505
O O8 0.167890 0.517450 0.515190
O O9 0.687369 0.072351 0.250000
O O10 0.595032 0.089005 0.452613
O O11 0.667050 0.978191 0.447157
O O12 0.489385 0.949911 0.750000
O O13 0.500000 0.000000 0.000000
O O14 0.678377 0.618539 0.750000
O O15 0.773728 0.599929 0.947249
O O16 0.080338 0.750000 0.500000
O O17 0.073463 0.804030 0.250000
O O18 0.028187 0.870148 0.475866
O O19 0.827740 0.521992 0.750000
O O20 0.905063 0.587069 0.938148
O O21 0.998992 0.445159 0.250000
O O22 0.000000 0.500000 0.500000
#
# Coordination Sequence:
#
# PCOD8231208 Si02
#       8
#     8   8   8   8   8   8   8   8
#     4  11  23  37  55  79 108 146 184 222 272 327
#     4  10  19  32  51  79 109 135 175 227 266 313
#     4   9  18  33  54  80 109 139 172 216 270 323
#     4  10  20  35  56  82 109 140 181 225 270 321
#     4   9  17  32  53  78 107 139 174 217 266 320
#     4  10  22  37  53  77 109 145 184 226 272 326
#     4   9  18  32  54  80 108 140 173 216 273 322
#     4  10  19  34  55  81 110 142 181 225 271 322
#
# _framework density 17.579837000000001
#
# number of rings (size 3 to 8) (size 9 to 14) (size 15 to 20)
#    0.000    2.250    2.500    1.500    0.000    4.500 
#    0.000    1.250    0.000    4.500    0.000    0.000 
#    0.000    0.000    0.000    0.000    0.000    0.000 
#
# Total GULP energy -793635.652041 kJ/mol
# GULP energy per Si atom -12400.557063 kJ/mol
# Density = 1.753982 g / cm^3
# Si number density = 17.579837 Si / 1000 Ang^3
#
#
#
# Elastic Constant Matrix: (Units=GPa)
#
#
# Indices 1 2 3 4 5 6 
#
# 1 137.1101 67.8197 58.4148 0.0000 0.0000 0.0000
# 2 67.8197 112.4442 63.6353 0.0000 0.0000 0.0000
# 3 58.4148 63.6353 84.9732 0.0000 0.0000 0.0000
# 4 0.0000 0.0000 0.0000 30.4143 0.0000 0.0000
# 5 0.0000 0.0000 0.0000 0.0000 28.1774 0.0000
# 6 0.0000 0.0000 0.0000 0.0000 0.0000 22.9573
#
#
#
# Elastic Compliance Matrix: (Units=1/GPa)
#
#
# Indices 1 2 3 4 5 6 
#
# 1 0.011363 -0.004222 -0.004649 0.000000 0.000000 0.000000
# 2 -0.004222 0.017004 -0.009831 0.000000 0.000000 0.000000
# 3 -0.004649 -0.009831 0.022327 0.000000 0.000000 0.000000
# 4 0.000000 0.000000 0.000000 0.032879 0.000000 0.000000
# 5 0.000000 0.000000 0.000000 0.000000 0.035489 0.000000
# 6 0.000000 0.000000 0.000000 0.000000 0.000000 0.043559
#
#
# Mechanical properties :
#
#
# Convention : Reuss Voigt Hill
#
# Bulk Modulus (GPa) = 75.25654 79.36301 77.30978
# Shear Modulus (GPa) = 24.45510 25.95362 25.20436
#
# Velocity S-wave (km/s) = 3.73378 3.84647 3.79054
# Velocity P-wave (km/s) = 7.84152 8.06036 7.95170
#
# Compressibility (1/GPa) = 0.01328788
#
# Stress axis : x y z
#
# Youngs Moduli (GPa) = 88.00781 58.81102 44.78837
#
# Poissons Ratio (x) = 0.24830 0.20824
# Poissons Ratio (y) = 0.37157 0.44033
# Poissons Ratio (z) = 0.40918 0.57819
#
# Static dielectric constant tensor:
#      x y z
#    x 3.723240 0.000000 0.000000 
#    y 0.000000 2.967610 0.000000 
#    z 0.000000 0.000000 3.274210 
# 
# 
# High freq. dielectric constant tensor:
#      x y z
#    x 1.697680 0.000000 0.000000 
#    y 0.000000 1.646090 0.000000 
#    z 0.000000 0.000000 1.681980 
# 
# From -- ./inp_files/8459.got.cif
#   From: 2010.03.12/outbox.cif.g09.slc.cpg/sg57_5_cif.got.tgz:8459.got - 2010.04.16 15:48:40.
