data_PCOD8231696
_publ_section_title
;
Structure prediction by ZEFSAII (Michael W. Deem and Ramdas Pophale) SiO2 
 PCOD8231696
Probable space group: P B C M
;
_chemical_formula_sum "Si O2"
_cell_formula_units_Z 40
_cell_length_a 11.622819
_cell_length_b 21.004948
_cell_length_c 8.625585
_cell_angle_alpha 90.000000
_cell_angle_beta 90.000000
_cell_angle_gamma 90.000000
_cell_volume 2105.821933
_symmetry_space_group_name_H-M "P B C M"
_symmetry_group_IT_number 57
_symmetry_cell_setting 'orthorhombic'
loop_
_space_group_symop_operation_xyz
x,y,z
-x,-y,1/2+z
x,1/2-y,-z
-x,1/2+y,1/2-z
-x,-y,-z
x,y,1/2-z
-x,1/2+y,z
x,1/2-y,1/2+z
loop_
_atom_site_type_symbol
_atom_site_label
_atom_site_fract_x
_atom_site_fract_y
_atom_site_fract_z
Si Si1 0.922896 0.556752 0.066238
Si Si2 0.662441 0.954718 0.924250
Si Si3 0.447811 0.907444 0.077284
Si Si4 0.963995 0.180627 0.933497
Si Si5 0.279698 0.815561 0.929878
O O1 0.935865 0.555938 0.250000
O O2 0.792108 0.544521 0.011591
O O3 0.955390 0.626007 0.002296
O O4 0.000000 0.500000 0.000000
O O5 0.660500 0.927299 0.750000
O O6 0.612230 0.024864 0.928270
O O7 0.582059 0.910364 0.030845
O O8 0.439261 0.878249 0.250000
O O9 0.381802 0.865107 0.952409
O O10 0.976961 0.182042 0.750000
O O11 0.998591 0.250000 0.000000
O O12 0.833948 0.162464 0.978852
O O13 0.248335 0.808328 0.750000
O O14 0.325361 0.750000 0.000000
#
# Coordination Sequence:
#
# PCOD8231696 Si02
#       5
#     8   8   8   8   8
#     4  11  22  37  58  85 116 150 190 233 278 331
#     4   9  20  36  54  78 109 144 180 221 269 322
#     4  10  19  34  56  81 109 140 177 222 272 323
#     4  11  22  38  58  82 113 148 188 232 282 336
#     4  11  21  35  56  81 109 141 180 223 270 323
#
# _framework density 18.994956999999999
#
# number of rings (size 3 to 8) (size 9 to 14) (size 15 to 20)
#    0.000    1.600    0.000    7.200    0.000    4.000 
#    0.000    1.000    0.000    4.800    0.000    0.000 
#    0.000    0.000    0.000    0.000    0.000    0.000 
#
# Total GULP energy -496057.968946 kJ/mol
# GULP energy per Si atom -12401.449224 kJ/mol
# Density = 1.895172 g / cm^3
# Si number density = 18.994957 Si / 1000 Ang^3
#
#
#
# Elastic Constant Matrix: (Units=GPa)
#
#
# Indices 1 2 3 4 5 6 
#
# 1 141.8784 53.1908 46.4795 0.0000 0.0000 0.0000
# 2 53.1908 66.7340 38.6651 0.0000 0.0000 0.0000
# 3 46.4795 38.6651 109.7091 0.0000 0.0000 0.0000
# 4 0.0000 0.0000 0.0000 33.4618 0.0000 0.0000
# 5 0.0000 0.0000 0.0000 0.0000 22.5938 0.0000
# 6 0.0000 0.0000 0.0000 0.0000 0.0000 24.7532
#
#
#
# Elastic Compliance Matrix: (Units=1/GPa)
#
#
# Indices 1 2 3 4 5 6 
#
# 1 0.010344 -0.007170 -0.001856 0.000000 0.000000 0.000000
# 2 -0.007170 0.023799 -0.005350 0.000000 0.000000 0.000000
# 3 -0.001856 -0.005350 0.011787 0.000000 0.000000 0.000000
# 4 0.000000 0.000000 0.000000 0.029885 0.000000 0.000000
# 5 0.000000 0.000000 0.000000 0.000000 0.044260 0.000000
# 6 0.000000 0.000000 0.000000 0.000000 0.000000 0.040399
#
#
# Mechanical properties :
#
#
# Convention : Reuss Voigt Hill
#
# Bulk Modulus (GPa) = 58.20951 66.11026 62.15988
# Shear Modulus (GPa) = 25.64744 28.16083 26.90414
#
# Velocity S-wave (km/s) = 3.67853 3.85456 3.76757
# Velocity P-wave (km/s) = 6.98236 7.39526 7.19177
#
# Compressibility (1/GPa) = 0.01717932
#
# Stress axis : x y z
#
# Youngs Moduli (GPa) = 96.67293 42.01789 84.84137
#
# Poissons Ratio (x) = 0.30126 0.15743
# Poissons Ratio (y) = 0.69312 0.45391
# Poissons Ratio (z) = 0.17938 0.22480
#
# Static dielectric constant tensor:
#      x y z
#    x 3.539840 0.000000 0.000000 
#    y 0.000000 3.530420 0.000000 
#    z 0.000000 0.000000 3.669270 
# 
# 
# High freq. dielectric constant tensor:
#      x y z
#    x 1.737410 0.000000 0.000000 
#    y 0.000000 1.730500 0.000000 
#    z 0.000000 0.000000 1.753420 
# 
# From -- ./inp_files/2659.got.cif
#   From: 2010.03.12/outbox.cif.g09.slc.cpg/sg57_2_cif.got.tgz:2659.got - 2010.04.16 15:48:40.
