data_PCOD8231187
_publ_section_title
;
Structure prediction by ZEFSAII (Michael W. Deem and Ramdas Pophale) SiO2 
 PCOD8231187
Probable space group: P B C M
;
_chemical_formula_sum "Si O2"
_cell_formula_units_Z 48
_cell_length_a 15.866356
_cell_length_b 18.766999
_cell_length_c 9.058808
_cell_angle_alpha 90.000000
_cell_angle_beta 90.000000
_cell_angle_gamma 90.000000
_cell_volume 2697.385883
_symmetry_space_group_name_H-M "P B C M"
_symmetry_group_IT_number 57
_symmetry_cell_setting 'orthorhombic'
loop_
_space_group_symop_operation_xyz
x,y,z
-x,-y,1/2+z
x,1/2-y,-z
-x,1/2+y,1/2-z
-x,-y,-z
x,y,1/2-z
-x,1/2+y,z
x,1/2-y,1/2+z
loop_
_atom_site_type_symbol
_atom_site_label
_atom_site_fract_x
_atom_site_fract_y
_atom_site_fract_z
Si Si1 0.749238 0.465984 0.079837
Si Si2 0.983874 0.821621 0.077304
Si Si3 0.174234 0.821931 0.422799
Si Si4 0.825342 0.907380 0.077919
Si Si5 0.657338 0.826473 0.073910
Si Si6 0.423920 0.040882 0.075949
O O1 0.773180 0.471400 0.250000
O O2 0.764229 0.385248 0.024454
O O3 0.654070 0.488219 0.048124
O O4 0.814020 0.517104 0.998252
O O5 0.976704 0.808415 0.250000
O O6 0.917036 0.880864 0.025974
O O7 0.078657 0.842807 0.030418
O O8 0.954802 0.750000 0.000000
O O9 0.205090 0.750000 0.500000
O O10 0.180103 0.808119 0.250000
O O11 0.820905 0.921094 0.250000
O O12 0.752067 0.851359 0.032844
O O13 0.642950 0.821951 0.250000
O O14 0.640552 0.750000 0.000000
O O15 0.591840 0.883286 0.003670
O O16 0.440236 0.053472 0.250000
O O17 0.500000 0.000000 0.000000
#
# Coordination Sequence:
#
# PCOD8231187 Si02
#       6
#     8   8   8   8   8   8
#     4   9  19  34  51  71  96 126 160 200 246 295
#     4   9  17  29  45  67  97 131 166 202 238 278
#     4   9  18  33  50  69  95 128 165 203 241 281
#     4   9  18  30  46  71 101 131 163 200 240 285
#     4  10  19  32  51  76 105 134 165 201 243 292
#     4  10  20  36  56  76 100 130 163 202 251 303
#
# _framework density 17.795006000000001
#
# number of rings (size 3 to 8) (size 9 to 14) (size 15 to 20)
#    0.000    2.667    0.000    1.500    0.000    3.333 
#    0.000    0.833    0.000    2.000    0.000    0.000 
#    0.000    0.000    0.000    0.000    0.000    0.000 
#
# Total GULP energy -595124.085429 kJ/mol
# GULP energy per Si atom -12398.418446 kJ/mol
# Density = 1.775450 g / cm^3
# Si number density = 17.795006 Si / 1000 Ang^3
#
#
#
# Elastic Constant Matrix: (Units=GPa)
#
#
# Indices 1 2 3 4 5 6 
#
# 1 66.5558 67.8329 35.7320 0.0000 0.0000 0.0000
# 2 67.8329 164.9621 58.2648 0.0000 0.0000 0.0000
# 3 35.7320 58.2648 56.8802 0.0000 0.0000 0.0000
# 4 0.0000 0.0000 0.0000 35.6987 0.0000 0.0000
# 5 0.0000 0.0000 0.0000 0.0000 22.5745 0.0000
# 6 0.0000 0.0000 0.0000 0.0000 0.0000 43.6269
#
#
#
# Elastic Compliance Matrix: (Units=1/GPa)
#
#
# Indices 1 2 3 4 5 6 
#
# 1 0.028699 -0.008514 -0.009308 0.000000 0.000000 0.000000
# 2 -0.008514 0.012024 -0.006969 0.000000 0.000000 0.000000
# 3 -0.009308 -0.006969 0.030566 0.000000 0.000000 0.000000
# 4 0.000000 0.000000 0.000000 0.028012 0.000000 0.000000
# 5 0.000000 0.000000 0.000000 0.000000 0.044298 0.000000
# 6 0.000000 0.000000 0.000000 0.000000 0.000000 0.022922
#
#
# Mechanical properties :
#
#
# Convention : Reuss Voigt Hill
#
# Bulk Modulus (GPa) = 46.06311 68.00638 57.03475
# Shear Modulus (GPa) = 22.38762 28.81790 25.60276
#
# Velocity S-wave (km/s) = 3.55080 4.02859 3.79722
# Velocity P-wave (km/s) = 6.53854 7.74202 7.16559
#
# Compressibility (1/GPa) = 0.02170934
#
# Stress axis : x y z
#
# Youngs Moduli (GPa) = 34.84431 83.16590 32.71584
#
# Poissons Ratio (x) = 0.70804 0.30451
# Poissons Ratio (y) = 0.29665 0.22798
# Poissons Ratio (z) = 0.32432 0.57955
#
# Static dielectric constant tensor:
#      x y z
#    x 3.314780 0.000000 0.000000 
#    y 0.000000 3.288420 0.000000 
#    z 0.000000 0.000000 3.308370 
# 
# 
# High freq. dielectric constant tensor:
#      x y z
#    x 1.677040 0.000000 0.000000 
#    y 0.000000 1.689360 0.000000 
#    z 0.000000 0.000000 1.690710 
# 
# From -- ./inp_files/4659.got.cif
#   From: 2010.03.12/outbox.cif.g09.slc.cpg/sg57_3_cif.got.tgz:4659.got - 2010.04.16 15:48:40.
