data_PCOD8231259
_publ_section_title
;
Structure prediction by ZEFSAII (Michael W. Deem and Ramdas Pophale) SiO2 
 PCOD8231259
Probable space group: P B C M
;
_chemical_formula_sum "Si O2"
_cell_formula_units_Z 56
_cell_length_a 16.541217
_cell_length_b 21.089674
_cell_length_c 8.845084
_cell_angle_alpha 90.000000
_cell_angle_beta 90.000000
_cell_angle_gamma 90.000000
_cell_volume 3085.597595
_symmetry_space_group_name_H-M "P B C M"
_symmetry_group_IT_number 57
_symmetry_cell_setting 'orthorhombic'
loop_
_space_group_symop_operation_xyz
x,y,z
-x,-y,1/2+z
x,1/2-y,-z
-x,1/2+y,1/2-z
-x,-y,-z
x,y,1/2-z
-x,1/2+y,z
x,1/2-y,1/2+z
loop_
_atom_site_type_symbol
_atom_site_label
_atom_site_fract_x
_atom_site_fract_y
_atom_site_fract_z
Si Si1 0.797337 0.005200 0.422724
Si Si2 0.477866 0.404498 0.426033
Si Si3 0.639930 0.684544 0.424999
Si Si4 0.963088 0.062498 0.424537
Si Si5 0.044240 0.316434 0.070370
Si Si6 0.807576 0.875479 0.574841
Si Si7 0.382198 0.969585 0.573795
O O1 0.788877 0.980467 0.250000
O O2 0.826014 0.947248 0.526798
O O3 0.865424 0.059310 0.435445
O O4 0.711325 0.033176 0.477295
O O5 0.480210 0.391830 0.250000
O O6 0.442393 0.342452 0.505323
O O7 0.419715 0.462696 0.470675
O O8 0.569023 0.415680 0.483766
O O9 0.663558 0.750000 0.500000
O O10 0.625463 0.695548 0.250000
O O11 0.713909 0.637338 0.458813
O O12 0.991312 0.065488 0.250000
O O13 0.989679 0.125989 0.509509
O O14 0.000000 0.000000 0.500000
O O15 0.037404 0.313224 0.250000
O O16 0.013581 0.250000 0.000000
O O17 0.137009 0.327806 0.021537
O O18 0.829312 0.865943 0.750000
O O19 0.392808 0.955770 0.750000
#
# Coordination Sequence:
#
# PCOD8231259 Si02
#       7
#     8   8   8   8   8   8   8
#     4  10  20  35  57  83 115 151 186 232 283 332
#     4  10  19  32  53  78 107 142 180 223 268 322
#     4  11  23  36  52  77 110 149 186 226 273 331
#     4  11  22  37  59  88 117 152 194 237 289 342
#     4  12  25  41  60  82 114 154 195 241 290 347
#     4  11  22  35  55  83 115 150 189 230 279 341
#     4   9  18  33  53  78 108 142 178 222 272 322
#
# _framework density 18.148835999999999
#
# number of rings (size 3 to 8) (size 9 to 14) (size 15 to 20)
#    0.000    1.429    2.857    3.429    0.000    4.571 
#    0.000    0.000    0.000    0.857    0.000    4.000 
#    0.000    0.000    0.000    0.000    0.000    0.000 
#
# Total GULP energy -694584.500514 kJ/mol
# GULP energy per Si atom -12403.294652 kJ/mol
# Density = 1.810753 g / cm^3
# Si number density = 18.148836 Si / 1000 Ang^3
#
#
#
# Elastic Constant Matrix: (Units=GPa)
#
#
# Indices 1 2 3 4 5 6 
#
# 1 101.6870 41.4824 42.9805 0.0000 0.0000 0.0000
# 2 41.4824 97.7038 55.2421 0.0000 0.0000 0.0000
# 3 42.9805 55.2421 112.7119 0.0000 0.0000 0.0000
# 4 0.0000 0.0000 0.0000 32.2075 0.0000 0.0000
# 5 0.0000 0.0000 0.0000 0.0000 28.3557 0.0000
# 6 0.0000 0.0000 0.0000 0.0000 0.0000 27.6240
#
#
#
# Elastic Compliance Matrix: (Units=1/GPa)
#
#
# Indices 1 2 3 4 5 6 
#
# 1 0.012595 -0.003641 -0.003018 0.000000 0.000000 0.000000
# 2 -0.003641 0.015211 -0.006067 0.000000 0.000000 0.000000
# 3 -0.003018 -0.006067 0.012997 0.000000 0.000000 0.000000
# 4 0.000000 0.000000 0.000000 0.031049 0.000000 0.000000
# 5 0.000000 0.000000 0.000000 0.000000 0.035266 0.000000
# 6 0.000000 0.000000 0.000000 0.000000 0.000000 0.036200
#
#
# Mechanical properties :
#
#
# Convention : Reuss Voigt Hill
#
# Bulk Modulus (GPa) = 65.14434 65.72363 65.43398
# Shear Modulus (GPa) = 28.75423 29.13064 28.94244
#
# Velocity S-wave (km/s) = 3.98472 4.01071 3.99774
# Velocity P-wave (km/s) = 7.55930 7.59869 7.57902
#
# Compressibility (1/GPa) = 0.01535053
#
# Stress axis : x y z
#
# Youngs Moduli (GPa) = 79.39526 65.74162 76.94282
#
# Poissons Ratio (x) = 0.23936 0.23225
# Poissons Ratio (y) = 0.28907 0.46680
# Poissons Ratio (z) = 0.23965 0.39884
#
# Static dielectric constant tensor:
#      x y z
#    x 3.488960 0.000000 0.000000 
#    y 0.000000 3.138600 0.000000 
#    z 0.000000 0.000000 3.420880 
# 
# 
# High freq. dielectric constant tensor:
#      x y z
#    x 1.703500 0.000000 0.000000 
#    y 0.000000 1.679160 0.000000 
#    z 0.000000 0.000000 1.715640 
# 
# From -- ./inp_files/5198.got.cif
#   From: 2010.03.12/outbox.cif.g09.slc.cpg/sg57_3_cif.got.tgz:5198.got - 2010.04.16 15:48:40.
