data_PCOD8231850
_publ_section_title
;
Structure prediction by ZEFSAII (Michael W. Deem and Ramdas Pophale) SiO2 
 PCOD8231850
Probable space group: P B C M
;
_chemical_formula_sum "Si O2"
_cell_formula_units_Z 64
_cell_length_a 20.188771
_cell_length_b 19.335225
_cell_length_c 8.988451
_cell_angle_alpha 90.000000
_cell_angle_beta 90.000000
_cell_angle_gamma 90.000000
_cell_volume 3508.681665
_symmetry_space_group_name_H-M "P B C M"
_symmetry_group_IT_number 57
_symmetry_cell_setting 'orthorhombic'
loop_
_space_group_symop_operation_xyz
x,y,z
-x,-y,1/2+z
x,1/2-y,-z
-x,1/2+y,1/2-z
-x,-y,-z
x,y,1/2-z
-x,1/2+y,z
x,1/2-y,1/2+z
loop_
_atom_site_type_symbol
_atom_site_label
_atom_site_fract_x
_atom_site_fract_y
_atom_site_fract_z
Si Si1 0.848779 0.821577 0.426546
Si Si2 0.384777 0.176126 0.424155
Si Si3 0.763568 0.068211 0.921688
Si Si4 0.527607 0.177859 0.077725
Si Si5 0.739876 0.911617 0.575935
Si Si6 0.329029 0.675670 0.424781
Si Si7 0.915256 0.447096 0.421233
Si Si8 0.960308 0.600913 0.422519
O O1 0.825616 0.750000 0.500000
O O2 0.848646 0.814478 0.250000
O O3 0.798250 0.880498 0.477589
O O4 0.922083 0.840842 0.483840
O O5 0.373250 0.250000 0.500000
O O6 0.378636 0.189864 0.250000
O O7 0.457227 0.141348 0.464104
O O8 0.329270 0.122085 0.476010
O O9 0.752065 0.086554 0.750000
O O10 0.840780 0.072804 0.963049
O O11 0.734927 0.992691 0.958212
O O12 0.726482 0.123567 0.021210
O O13 0.528484 0.193884 0.250000
O O14 0.597911 0.142107 0.034745
O O15 0.525521 0.250000 0.000000
O O16 0.755976 0.898761 0.750000
O O17 0.319556 0.750000 0.500000
O O18 0.320771 0.686351 0.250000
O O19 0.931722 0.431105 0.250000
O O20 0.924771 0.528065 0.453646
O O21 0.963780 0.401618 0.523279
O O22 0.958430 0.621402 0.250000
#
# Coordination Sequence:
#
# PCOD8231850 Si02
#       8
#     8   8   8   8   8   8   8   8
#     4  12  24  37  55  79 112 150 187 227 273 321
#     4   9  17  30  51  75 104 141 182 224 270 317
#     4  10  20  36  56  79 111 145 178 218 267 324
#     4   8  15  29  49  74 101 134 175 222 268 319
#     4  10  20  36  54  77 109 146 185 224 268 322
#     4  10  20  35  56  80 106 135 176 224 275 329
#     4   9  18  34  56  80 107 139 175 217 262 316
#     4  10  19  35  57  81 107 136 178 223 264 313
#
# _framework density 18.240469999999998
#
# number of rings (size 3 to 8) (size 9 to 14) (size 15 to 20)
#    0.000    2.250    1.250    2.250    0.000    3.500 
#    0.000    1.250    0.000    3.000    0.000    0.000 
#    0.000    0.000    0.000    0.000    0.000    0.000 
#
# Total GULP energy -793261.459152 kJ/mol
# GULP energy per Si atom -12394.710299 kJ/mol
# Density = 1.819895 g / cm^3
# Si number density = 18.240470 Si / 1000 Ang^3
#
#
#
# Elastic Constant Matrix: (Units=GPa)
#
#
# Indices 1 2 3 4 5 6 
#
# 1 138.5204 55.8145 52.2875 0.0000 0.0000 0.0000
# 2 55.8145 74.3878 40.2668 0.0000 0.0000 0.0000
# 3 52.2875 40.2668 78.3935 0.0000 0.0000 0.0000
# 4 0.0000 0.0000 0.0000 26.8487 0.0000 0.0000
# 5 0.0000 0.0000 0.0000 0.0000 39.1766 0.0000
# 6 0.0000 0.0000 0.0000 0.0000 0.0000 25.7990
#
#
#
# Elastic Compliance Matrix: (Units=1/GPa)
#
#
# Indices 1 2 3 4 5 6 
#
# 1 0.011360 -0.006125 -0.004431 0.000000 0.000000 0.000000
# 2 -0.006125 0.021923 -0.007175 0.000000 0.000000 0.000000
# 3 -0.004431 -0.007175 0.019397 0.000000 0.000000 0.000000
# 4 0.000000 0.000000 0.000000 0.037246 0.000000 0.000000
# 5 0.000000 0.000000 0.000000 0.000000 0.025525 0.000000
# 6 0.000000 0.000000 0.000000 0.000000 0.000000 0.038761
#
#
# Mechanical properties :
#
#
# Convention : Reuss Voigt Hill
#
# Bulk Modulus (GPa) = 58.08061 65.33771 61.70916
# Shear Modulus (GPa) = 25.58690 27.89374 26.74032
#
# Velocity S-wave (km/s) = 3.74940 3.91477 3.83298
# Velocity P-wave (km/s) = 7.11721 7.50545 7.31391
#
# Compressibility (1/GPa) = 0.01721745
#
# Stress axis : x y z
#
# Youngs Moduli (GPa) = 88.03184 45.61461 51.55457
#
# Poissons Ratio (x) = 0.27939 0.22842
# Poissons Ratio (y) = 0.53919 0.36992
# Poissons Ratio (z) = 0.39003 0.32730
#
# Static dielectric constant tensor:
#      x y z
#    x 3.908340 0.000000 0.000000 
#    y 0.000000 3.080630 0.000000 
#    z 0.000000 0.000000 3.336130 
# 
# 
# High freq. dielectric constant tensor:
#      x y z
#    x 1.726320 0.000000 0.000000 
#    y 0.000000 1.673830 0.000000 
#    z 0.000000 0.000000 1.708010 
# 
# From -- ./inp_files/7141.got.cif
#   From: 2010.03.12/outbox.cif.g09.slc.cpg/sg57_4_cif.got.tgz:7141.got - 2010.04.16 15:48:40.
