data_PCOD8231448
_publ_section_title
;
Structure prediction by ZEFSAII (Michael W. Deem and Ramdas Pophale) SiO2 
 PCOD8231448
Probable space group: P B C M
;
_chemical_formula_sum "Si O2"
_cell_formula_units_Z 56
_cell_length_a 14.726613
_cell_length_b 22.498544
_cell_length_c 8.744661
_cell_angle_alpha 90.000000
_cell_angle_beta 90.000000
_cell_angle_gamma 90.000000
_cell_volume 2897.345361
_symmetry_space_group_name_H-M "P B C M"
_symmetry_group_IT_number 57
_symmetry_cell_setting 'orthorhombic'
loop_
_space_group_symop_operation_xyz
x,y,z
-x,-y,1/2+z
x,1/2-y,-z
-x,1/2+y,1/2-z
-x,-y,-z
x,y,1/2-z
-x,1/2+y,z
x,1/2-y,1/2+z
loop_
_atom_site_type_symbol
_atom_site_label
_atom_site_fract_x
_atom_site_fract_y
_atom_site_fract_z
Si Si1 0.920304 0.688770 0.568383
Si Si2 0.091778 0.979249 0.073669
Si Si3 0.608873 0.554511 0.929647
Si Si4 0.419926 0.580239 0.429067
Si Si5 0.117172 0.650708 0.568630
Si Si6 0.689066 0.189018 0.568834
Si Si7 0.209891 0.090881 0.428291
O O1 0.882573 0.750000 0.500000
O O2 0.913827 0.689036 0.750000
O O3 0.858687 0.636578 0.504399
O O4 0.024162 0.680833 0.509960
O O5 0.069318 0.971268 0.250000
O O6 0.121920 0.916310 0.002801
O O7 0.172143 0.025093 0.044340
O O8 0.000000 0.000000 0.000000
O O9 0.594966 0.563557 0.750000
O O10 0.621346 0.484638 0.969846
O O11 0.523538 0.582127 0.016812
O O12 0.693863 0.592950 0.987426
O O13 0.415478 0.593167 0.250000
O O14 0.365167 0.631251 0.515483
O O15 0.118471 0.649720 0.750000
O O16 0.206584 0.684573 0.508781
O O17 0.647716 0.250000 0.500000
O O18 0.682915 0.191972 0.750000
O O19 0.221270 0.105965 0.250000
#
# Coordination Sequence:
#
# PCOD8231448 Si02
#       7
#     8   8   8   8   8   8   8
#     4  11  22  38  57  77 110 152 198 242 284 335
#     4  10  19  33  53  81 114 149 188 233 285 334
#     4  10  21  38  63  91 118 151 189 234 291 348
#     4  10  21  39  62  90 120 150 189 236 289 349
#     4   9  19  35  56  81 114 153 192 236 286 339
#     4  11  22  38  59  85 119 158 199 243 292 347
#     4  11  22  36  57  86 118 152 191 235 286 342
#
# _framework density 19.328037999999999
#
# number of rings (size 3 to 8) (size 9 to 14) (size 15 to 20)
#    0.000    1.714    1.429    3.429    0.000    3.429 
#    0.000    4.286    0.000    0.000    0.000    0.000 
#    0.000    0.000    0.000    0.000    0.000    0.000 
#
# Total GULP energy -694454.456925 kJ/mol
# GULP energy per Si atom -12400.972445 kJ/mol
# Density = 1.928405 g / cm^3
# Si number density = 19.328038 Si / 1000 Ang^3
#
#
#
# Elastic Constant Matrix: (Units=GPa)
#
#
# Indices 1 2 3 4 5 6 
#
# 1 91.5322 31.9101 32.3024 0.0000 0.0000 0.0000
# 2 31.9101 102.5599 39.5562 0.0000 0.0000 0.0000
# 3 32.3024 39.5562 69.1755 0.0000 0.0000 0.0000
# 4 0.0000 0.0000 0.0000 31.0826 0.0000 0.0000
# 5 0.0000 0.0000 0.0000 0.0000 31.8748 0.0000
# 6 0.0000 0.0000 0.0000 0.0000 0.0000 22.7422
#
#
#
# Elastic Compliance Matrix: (Units=1/GPa)
#
#
# Indices 1 2 3 4 5 6 
#
# 1 0.013479 -0.002266 -0.004999 0.000000 0.000000 0.000000
# 2 -0.002266 0.012890 -0.006313 0.000000 0.000000 0.000000
# 3 -0.004999 -0.006313 0.020400 0.000000 0.000000 0.000000
# 4 0.000000 0.000000 0.000000 0.032172 0.000000 0.000000
# 5 0.000000 0.000000 0.000000 0.000000 0.031373 0.000000
# 6 0.000000 0.000000 0.000000 0.000000 0.000000 0.043971
#
#
# Mechanical properties :
#
#
# Convention : Reuss Voigt Hill
#
# Bulk Modulus (GPa) = 50.98227 52.31166 51.64696
# Shear Modulus (GPa) = 26.59884 27.77318 27.18601
#
# Velocity S-wave (km/s) = 3.71371 3.79481 3.75448
# Velocity P-wave (km/s) = 6.69504 6.80622 6.75086
#
# Compressibility (1/GPa) = 0.01961466
#
# Stress axis : x y z
#
# Youngs Moduli (GPa) = 74.18896 77.57829 49.01984
#
# Poissons Ratio (x) = 0.17579 0.24503
# Poissons Ratio (y) = 0.16811 0.30945
# Poissons Ratio (z) = 0.37083 0.48974
#
# Static dielectric constant tensor:
#      x y z
#    x 3.562710 0.000000 0.000000 
#    y 0.000000 3.527670 0.000000 
#    z 0.000000 0.000000 3.480940 
# 
# 
# High freq. dielectric constant tensor:
#      x y z
#    x 1.752160 0.000000 0.000000 
#    y 0.000000 1.755260 0.000000 
#    z 0.000000 0.000000 1.750350 
# 
# From -- ./inp_files/5209.got.cif
#   From: 2010.03.12/outbox.cif.g09.slc.cpg/sg57_3_cif.got.tgz:5209.got - 2010.04.16 15:48:40.
