data_PCOD8231421
_publ_section_title
;
Structure prediction by ZEFSAII (Michael W. Deem and Ramdas Pophale) SiO2 
 PCOD8231421
Probable space group: P B C M
;
_chemical_formula_sum "Si O2"
_cell_formula_units_Z 56
_cell_length_a 9.456312
_cell_length_b 14.107580
_cell_length_c 22.750306
_cell_angle_alpha 90.000000
_cell_angle_beta 90.000000
_cell_angle_gamma 90.000000
_cell_volume 3035.019998
_symmetry_space_group_name_H-M "P B C M"
_symmetry_group_IT_number 57
_symmetry_cell_setting 'orthorhombic'
loop_
_space_group_symop_operation_xyz
x,y,z
-x,-y,1/2+z
x,1/2-y,-z
-x,1/2+y,1/2-z
-x,-y,-z
x,y,1/2-z
-x,1/2+y,z
x,1/2-y,1/2+z
loop_
_atom_site_type_symbol
_atom_site_label
_atom_site_fract_x
_atom_site_fract_y
_atom_site_fract_z
Si Si1 0.657835 0.958788 0.181455
Si Si2 0.158041 0.082474 0.373472
Si Si3 0.149227 0.966409 0.478774
Si Si4 0.856332 0.307193 0.384879
Si Si5 0.165882 0.587541 0.396836
Si Si6 0.657678 0.431268 0.317337
Si Si7 0.141175 0.284236 0.180412
O O1 0.661016 0.979774 0.250000
O O2 0.498255 0.952469 0.157347
O O3 0.740615 0.862164 0.166331
O O4 0.729044 0.050144 0.152473
O O5 0.184014 0.191645 0.357650
O O6 0.992083 0.054852 0.377561
O O7 0.221360 0.047989 0.437299
O O8 0.236477 0.020408 0.324165
O O9 0.127976 0.868239 0.443874
O O10 0.228629 0.950277 0.540733
O O11 0.000000 0.000000 0.500000
O O12 0.833556 0.199768 0.402188
O O13 0.716920 0.340008 0.350637
O O14 0.990948 0.322155 0.342173
O O15 0.644444 0.403429 0.250000
O O16 0.132020 0.260571 0.250000
#
# Coordination Sequence:
#
# PCOD8231421 Si02
#       7
#     8   8   8   8   8   8   8
#     4  10  22  36  52  75 107 143 178 216 266 322
#     4   9  19  33  54  79 102 135 176 218 265 314
#     4   9  17  33  55  80 107 137 172 218 268 316
#     4  10  20  33  54  81 106 137 178 220 267 319
#     4  10  20  35  56  79 106 138 176 221 266 317
#     4  10  20  35  52  75 107 141 174 216 268 325
#     4  10  19  33  53  79 107 137 175 223 267 311
#
# _framework density 18.451279
#
# number of rings (size 3 to 8) (size 9 to 14) (size 15 to 20)
#    0.000    2.286    0.000    3.857    0.000    5.714 
#    0.000    7.857    0.000    3.429    0.000    2.000 
#    0.000    0.000    0.000    0.000    0.000    0.000 
#
# Total GULP energy -694034.519554 kJ/mol
# GULP energy per Si atom -12393.473563 kJ/mol
# Density = 1.840928 g / cm^3
# Si number density = 18.451279 Si / 1000 Ang^3
#
#
#
# Elastic Constant Matrix: (Units=GPa)
#
#
# Indices 1 2 3 4 5 6 
#
# 1 96.5747 41.6326 43.7660 0.0000 0.0000 0.0000
# 2 41.6326 92.2946 49.5524 0.0000 0.0000 0.0000
# 3 43.7660 49.5524 90.6730 0.0000 0.0000 0.0000
# 4 0.0000 0.0000 0.0000 30.0115 0.0000 0.0000
# 5 0.0000 0.0000 0.0000 0.0000 14.6966 0.0000
# 6 0.0000 0.0000 0.0000 0.0000 0.0000 19.6587
#
#
#
# Elastic Compliance Matrix: (Units=1/GPa)
#
#
# Indices 1 2 3 4 5 6 
#
# 1 0.014157 -0.003846 -0.004732 0.000000 0.000000 0.000000
# 2 -0.003846 0.016379 -0.007095 0.000000 0.000000 0.000000
# 3 -0.004732 -0.007095 0.017190 0.000000 0.000000 0.000000
# 4 0.000000 0.000000 0.000000 0.033321 0.000000 0.000000
# 5 0.000000 0.000000 0.000000 0.000000 0.068043 0.000000
# 6 0.000000 0.000000 0.000000 0.000000 0.000000 0.050868
#
#
# Mechanical properties :
#
#
# Convention : Reuss Voigt Hill
#
# Bulk Modulus (GPa) = 61.04471 61.04938 61.04705
# Shear Modulus (GPa) = 21.11837 22.51278 21.81558
#
# Velocity S-wave (km/s) = 3.38679 3.49681 3.44224
# Velocity P-wave (km/s) = 6.96059 7.03294 6.99686
#
# Compressibility (1/GPa) = 0.01638143
#
# Stress axis : x y z
#
# Youngs Moduli (GPa) = 70.63779 61.05522 58.17435
#
# Poissons Ratio (x) = 0.23479 0.27526
# Poissons Ratio (y) = 0.27164 0.41273
# Poissons Ratio (z) = 0.33423 0.43317
#
# Static dielectric constant tensor:
#      x y z
#    x 3.367590 0.000000 0.000000 
#    y 0.000000 3.330980 0.000000 
#    z 0.000000 0.000000 4.083070 
# 
# 
# High freq. dielectric constant tensor:
#      x y z
#    x 1.694380 0.000000 0.000000 
#    y 0.000000 1.720120 0.000000 
#    z 0.000000 0.000000 1.723890 
# 
# From -- ./inp_files/24425.got.cif
#   From: 2010.03.12/outbox.cif.g09.slc.cpg/sg57_13_cif.got.tgz:24425.got - 2010.04.16 15:48:40.
