data_PCOD8231161
_publ_section_title
;
Structure prediction by ZEFSAII (Michael W. Deem and Ramdas Pophale) SiO2 
 PCOD8231161
Probable space group: P B C M
;
_chemical_formula_sum "Si O2"
_cell_formula_units_Z 64
_cell_length_a 21.027364
_cell_length_b 19.273933
_cell_length_c 8.978804
_cell_angle_alpha 90.000000
_cell_angle_beta 90.000000
_cell_angle_gamma 90.000000
_cell_volume 3638.929729
_symmetry_space_group_name_H-M "P B C M"
_symmetry_group_IT_number 57
_symmetry_cell_setting 'orthorhombic'
loop_
_space_group_symop_operation_xyz
x,y,z
-x,-y,1/2+z
x,1/2-y,-z
-x,1/2+y,1/2-z
-x,-y,-z
x,y,1/2-z
-x,1/2+y,z
x,1/2-y,1/2+z
loop_
_atom_site_type_symbol
_atom_site_label
_atom_site_fract_x
_atom_site_fract_y
_atom_site_fract_z
Si Si1 0.317655 0.053224 0.575387
Si Si2 0.770664 0.380169 0.416729
Si Si3 0.897579 0.317547 0.417821
Si Si4 0.183021 0.007955 0.580413
Si Si5 0.388939 0.322241 0.923617
Si Si6 0.062522 0.529383 0.925630
Si Si7 0.536328 0.321427 0.578335
Si Si8 0.364759 0.585813 0.920869
O O1 0.333528 0.045089 0.750000
O O2 0.241163 0.061233 0.550918
O O3 0.348105 0.121568 0.509301
O O4 0.346283 0.988248 0.487470
O O5 0.781354 0.413323 0.250000
O O6 0.820098 0.316402 0.431802
O O7 0.787245 0.433032 0.547392
O O8 0.695984 0.361196 0.433363
O O9 0.925494 0.250000 0.500000
O O10 0.920521 0.309294 0.250000
O O11 0.925032 0.390966 0.479452
O O12 0.159498 0.011262 0.750000
O O13 0.121525 0.019640 0.476084
O O14 0.370669 0.319675 0.750000
O O15 0.462892 0.340133 0.945781
O O16 0.371912 0.250000 0.000000
O O17 0.055697 0.524999 0.750000
O O18 0.000000 0.500000 0.000000
O O19 0.555147 0.250000 0.500000
O O20 0.553907 0.313105 0.750000
O O21 0.576008 0.384140 0.509658
O O22 0.385247 0.575472 0.750000
#
# Coordination Sequence:
#
# PCOD8231161 Si02
#       8
#     8   8   8   8   8   8   8   8
#     4  10  20  34  54  79 105 132 166 211 257 305
#     4   8  16  30  45  66  97 130 164 201 241 287
#     4   9  18  31  47  70 100 132 167 206 244 286
#     4   9  17  30  50  76 102 128 159 197 242 291
#     4  10  21  37  56  75  97 129 169 214 266 321
#     4  10  20  34  53  77 105 138 174 210 248 295
#     4  10  21  36  51  69  96 131 171 214 261 315
#     4  10  19  32  51  74 102 136 172 211 256 303
#
# _framework density 17.587588
#
# number of rings (size 3 to 8) (size 9 to 14) (size 15 to 20)
#    0.000    2.500    0.000    3.000    0.000    7.000 
#    0.000    1.250    0.000    0.750    0.000    3.500 
#    0.000    0.000    0.000    0.000    0.000    0.000 
#
# Total GULP energy -793151.593323 kJ/mol
# GULP energy per Si atom -12392.993646 kJ/mol
# Density = 1.754756 g / cm^3
# Si number density = 17.587588 Si / 1000 Ang^3
#
#
#
# Elastic Constant Matrix: (Units=GPa)
#
#
# Indices 1 2 3 4 5 6 
#
# 1 98.4447 57.7689 58.8782 0.0000 0.0000 0.0000
# 2 57.7689 84.9499 50.5283 0.0000 0.0000 0.0000
# 3 58.8782 50.5283 106.8720 0.0000 0.0000 0.0000
# 4 0.0000 0.0000 0.0000 31.6700 0.0000 0.0000
# 5 0.0000 0.0000 0.0000 0.0000 28.7169 0.0000
# 6 0.0000 0.0000 0.0000 0.0000 0.0000 20.0548
#
#
#
# Elastic Compliance Matrix: (Units=1/GPa)
#
#
# Indices 1 2 3 4 5 6 
#
# 1 0.019480 -0.009549 -0.006217 0.000000 0.000000 0.000000
# 2 -0.009549 0.021058 -0.004695 0.000000 0.000000 0.000000
# 3 -0.006217 -0.004695 0.015002 0.000000 0.000000 0.000000
# 4 0.000000 0.000000 0.000000 0.031576 0.000000 0.000000
# 5 0.000000 0.000000 0.000000 0.000000 0.034823 0.000000
# 6 0.000000 0.000000 0.000000 0.000000 0.000000 0.049863
#
#
# Mechanical properties :
#
#
# Convention : Reuss Voigt Hill
#
# Bulk Modulus (GPa) = 68.41362 69.40194 68.90778
# Shear Modulus (GPa) = 22.97822 24.29442 23.63632
#
# Velocity S-wave (km/s) = 3.61848 3.72067 3.66993
# Velocity P-wave (km/s) = 7.51273 7.61605 7.56457
#
# Compressibility (1/GPa) = 0.01461697
#
# Stress axis : x y z
#
# Youngs Moduli (GPa) = 51.33488 47.48764 66.65715
#
# Poissons Ratio (x) = 0.45346 0.41442
# Poissons Ratio (y) = 0.49020 0.31298
# Poissons Ratio (z) = 0.31916 0.22297
#
# Static dielectric constant tensor:
#      x y z
#    x 3.379970 0.000000 0.000000 
#    y 0.000000 2.991070 0.000000 
#    z 0.000000 0.000000 3.407690 
# 
# 
# High freq. dielectric constant tensor:
#      x y z
#    x 1.675900 0.000000 0.000000 
#    y 0.000000 1.647660 0.000000 
#    z 0.000000 0.000000 1.696350 
# 
# From -- ./inp_files/8467.got.cif
#   From: 2010.03.12/outbox.cif.g09.slc.cpg/sg57_5_cif.got.tgz:8467.got - 2010.04.16 15:48:40.
