data_PCOD8231213
_publ_section_title
;
Structure prediction by ZEFSAII (Michael W. Deem and Ramdas Pophale) SiO2 
 PCOD8231213
Probable space group: P B C M
;
_chemical_formula_sum "Si O2"
_cell_formula_units_Z 56
_cell_length_a 19.114465
_cell_length_b 18.307134
_cell_length_c 8.855136
_cell_angle_alpha 90.000000
_cell_angle_beta 90.000000
_cell_angle_gamma 90.000000
_cell_volume 3098.687234
_symmetry_space_group_name_H-M "P B C M"
_symmetry_group_IT_number 57
_symmetry_cell_setting 'orthorhombic'
loop_
_space_group_symop_operation_xyz
x,y,z
-x,-y,1/2+z
x,1/2-y,-z
-x,1/2+y,1/2-z
-x,-y,-z
x,y,1/2-z
-x,1/2+y,z
x,1/2-y,1/2+z
loop_
_atom_site_type_symbol
_atom_site_label
_atom_site_fract_x
_atom_site_fract_y
_atom_site_fract_z
Si Si1 0.063726 0.672361 0.573698
Si Si2 0.086003 0.171371 0.927311
Si Si3 0.707920 0.453608 0.921862
Si Si4 0.771145 0.895751 0.428021
Si Si5 0.639089 0.672854 0.430098
Si Si6 0.567186 0.964322 0.073950
Si Si7 0.784773 0.171513 0.573130
O O1 0.058957 0.750000 0.500000
O O2 0.065751 0.685022 0.750000
O O3 0.138416 0.637191 0.524825
O O4 0.989599 0.633010 0.529469
O O5 0.090944 0.183335 0.750000
O O6 0.149617 0.120225 0.980884
O O7 0.095029 0.250000 0.000000
O O8 0.722209 0.431418 0.750000
O O9 0.757649 0.520415 0.970844
O O10 0.628134 0.476384 0.947914
O O11 0.724629 0.383819 0.023331
O O12 0.757779 0.882664 0.250000
O O13 0.718415 0.843554 0.518388
O O14 0.615202 0.750000 0.500000
O O15 0.635030 0.675919 0.250000
O O16 0.586322 0.611060 0.491058
O O17 0.554759 0.947344 0.250000
O O18 0.500000 0.000000 0.000000
O O19 0.771987 0.250000 0.500000
O O20 0.779332 0.182819 0.750000
#
# Coordination Sequence:
#
# PCOD8231213 Si02
#       7
#     8   8   8   8   8   8   8
#     4   8  15  27  43  65  92 125 165 210 256 301
#     4   9  16  27  44  66  95 130 169 211 256 301
#     4   9  19  35  53  74 102 132 163 199 246 303
#     4   9  18  32  49  71 101 137 172 210 256 306
#     4  11  21  34  54  80 110 143 178 216 254 298
#     4  10  21  39  61  84 110 140 171 205 251 307
#     4  10  19  32  52  74  97 127 168 215 259 302
#
# _framework density 18.072168000000001
#
# number of rings (size 3 to 8) (size 9 to 14) (size 15 to 20)
#    0.000    2.571    0.000    3.429    0.000    5.143 
#    0.000    1.429    0.000    3.429    0.000    0.000 
#    0.000    0.000    0.000    0.000    0.000    0.000 
#
# Total GULP energy -693879.396857 kJ/mol
# GULP energy per Si atom -12390.703515 kJ/mol
# Density = 1.803103 g / cm^3
# Si number density = 18.072168 Si / 1000 Ang^3
#
#
#
# Elastic Constant Matrix: (Units=GPa)
#
#
# Indices 1 2 3 4 5 6 
#
# 1 100.9060 58.6590 43.8972 0.0000 0.0000 0.0000
# 2 58.6590 96.4467 47.3487 0.0000 0.0000 0.0000
# 3 43.8972 47.3487 81.4265 0.0000 0.0000 0.0000
# 4 0.0000 0.0000 0.0000 28.9573 0.0000 0.0000
# 5 0.0000 0.0000 0.0000 0.0000 21.2976 0.0000
# 6 0.0000 0.0000 0.0000 0.0000 0.0000 18.6639
#
#
#
# Elastic Compliance Matrix: (Units=1/GPa)
#
#
# Indices 1 2 3 4 5 6 
#
# 1 0.016310 -0.007842 -0.004233 0.000000 0.000000 0.000000
# 2 -0.007842 0.018281 -0.006403 0.000000 0.000000 0.000000
# 3 -0.004233 -0.006403 0.018286 0.000000 0.000000 0.000000
# 4 0.000000 0.000000 0.000000 0.034534 0.000000 0.000000
# 5 0.000000 0.000000 0.000000 0.000000 0.046954 0.000000
# 6 0.000000 0.000000 0.000000 0.000000 0.000000 0.053579
#
#
# Mechanical properties :
#
#
# Convention : Reuss Voigt Hill
#
# Bulk Modulus (GPa) = 62.80429 64.28767 63.54598
# Shear Modulus (GPa) = 21.71959 22.37538 22.04748
#
# Velocity S-wave (km/s) = 3.47050 3.52250 3.49659
# Velocity P-wave (km/s) = 7.13348 7.22454 7.17915
#
# Compressibility (1/GPa) = 0.01592248
#
# Stress axis : x y z
#
# Youngs Moduli (GPa) = 61.31075 54.70109 54.68617
#
# Poissons Ratio (x) = 0.42896 0.23149
# Poissons Ratio (y) = 0.48079 0.35014
# Poissons Ratio (z) = 0.25953 0.35024
#
# Static dielectric constant tensor:
#      x y z
#    x 3.742930 0.000000 0.000000 
#    y 0.000000 3.094910 0.000000 
#    z 0.000000 0.000000 3.309110 
# 
# 
# High freq. dielectric constant tensor:
#      x y z
#    x 1.707510 0.000000 0.000000 
#    y 0.000000 1.674070 0.000000 
#    z 0.000000 0.000000 1.703800 
# 
# From -- ./inp_files/8048.got.cif
#   From: 2010.03.12/outbox.cif.g09.slc.cpg/sg57_5_cif.got.tgz:8048.got - 2010.04.16 15:48:40.
