data_PCOD8231689
_publ_section_title
;
Structure prediction by ZEFSAII (Michael W. Deem and Ramdas Pophale) SiO2 
 PCOD8231689
Probable space group: P B C M
;
_chemical_formula_sum "Si O2"
_cell_formula_units_Z 64
_cell_length_a 11.266635
_cell_length_b 33.891245
_cell_length_c 8.580646
_cell_angle_alpha 90.000000
_cell_angle_beta 90.000000
_cell_angle_gamma 90.000000
_cell_volume 3276.436332
_symmetry_space_group_name_H-M "P B C M"
_symmetry_group_IT_number 57
_symmetry_cell_setting 'orthorhombic'
loop_
_space_group_symop_operation_xyz
x,y,z
-x,-y,1/2+z
x,1/2-y,-z
-x,1/2+y,1/2-z
-x,-y,-z
x,y,1/2-z
-x,1/2+y,z
x,1/2-y,1/2+z
loop_
_atom_site_type_symbol
_atom_site_label
_atom_site_fract_x
_atom_site_fract_y
_atom_site_fract_z
Si Si1 0.733045 0.979318 0.067152
Si Si2 0.981218 0.791862 0.933939
Si Si3 0.634824 0.130446 0.934607
Si Si4 0.387205 0.400976 0.066805
Si Si5 0.142576 0.364706 0.067955
Si Si6 0.747053 0.207897 0.067106
Si Si7 0.956695 0.560199 0.069524
Si Si8 0.209279 0.943212 0.432168
O O1 0.717740 0.986428 0.250000
O O2 0.643885 0.945072 0.004731
O O3 0.867864 0.965651 0.034170
O O4 0.704683 0.019914 0.975119
O O5 0.962270 0.793941 0.750000
O O6 0.117176 0.800987 0.981177
O O7 0.942814 0.750000 0.000000
O O8 0.892839 0.820988 0.021558
O O9 0.628409 0.134339 0.750000
O O10 0.508447 0.116173 0.005664
O O11 0.731386 0.097839 0.984847
O O12 0.665314 0.173040 0.002803
O O13 0.403339 0.404366 0.250000
O O14 0.280306 0.371320 0.024123
O O15 0.120245 0.372748 0.250000
O O16 0.059614 0.393731 0.968787
O O17 0.732386 0.210118 0.250000
O O18 0.704784 0.250000 0.000000
O O19 0.931747 0.551629 0.250000
O O20 0.090784 0.549072 0.029351
O O21 0.181244 0.942736 0.250000
#
# Coordination Sequence:
#
# PCOD8231689 Si02
#       8
#     8   8   8   8   8   8   8   8
#     4  10  20  36  56  77 106 142 180 223 272 321
#     4  10  20  34  54  82 114 142 173 214 265 323
#     4  10  21  38  58  79 107 143 183 223 263 313
#     4   8  18  37  57  76 102 141 183 223 266 311
#     4  10  19  34  56  79 106 139 176 218 268 321
#     4  10  21  37  58  84 112 141 173 214 264 316
#     4  11  21  34  53  77 107 140 178 222 270 325
#     4  11  22  34  52  80 111 142 178 221 270 321
#
# _framework density 19.533417
#
# number of rings (size 3 to 8) (size 9 to 14) (size 15 to 20)
#    0.000    2.000    0.000    4.875    0.000    5.000 
#    0.000    4.375    0.000    0.000    0.000    0.000 
#    0.000    0.000    0.000    0.000    0.000    0.000 
#
# Total GULP energy -793680.149748 kJ/mol
# GULP energy per Si atom -12401.252340 kJ/mol
# Density = 1.948896 g / cm^3
# Si number density = 19.533417 Si / 1000 Ang^3
#
#
#
# Elastic Constant Matrix: (Units=GPa)
#
#
# Indices 1 2 3 4 5 6 
#
# 1 63.5885 44.7678 17.6274 0.0000 0.0000 0.0000
# 2 44.7678 142.6715 24.2708 0.0000 0.0000 0.0000
# 3 17.6274 24.2708 49.8127 0.0000 0.0000 0.0000
# 4 0.0000 0.0000 0.0000 37.5421 0.0000 0.0000
# 5 0.0000 0.0000 0.0000 0.0000 18.2922 0.0000
# 6 0.0000 0.0000 0.0000 0.0000 0.0000 26.4405
#
#
#
# Elastic Compliance Matrix: (Units=1/GPa)
#
#
# Indices 1 2 3 4 5 6 
#
# 1 0.021121 -0.005840 -0.004629 0.000000 0.000000 0.000000
# 2 -0.005840 0.009257 -0.002444 0.000000 0.000000 0.000000
# 3 -0.004629 -0.002444 0.022904 0.000000 0.000000 0.000000
# 4 0.000000 0.000000 0.000000 0.026637 0.000000 0.000000
# 5 0.000000 0.000000 0.000000 0.000000 0.054668 0.000000
# 6 0.000000 0.000000 0.000000 0.000000 0.000000 0.037821
#
#
# Mechanical properties :
#
#
# Convention : Reuss Voigt Hill
#
# Bulk Modulus (GPa) = 36.42059 47.71163 42.06611
# Shear Modulus (GPa) = 24.10977 27.74873 25.92925
#
# Velocity S-wave (km/s) = 3.51705 3.77314 3.64734
# Velocity P-wave (km/s) = 5.93115 6.59248 6.27054
#
# Compressibility (1/GPa) = 0.02745700
#
# Stress axis : x y z
#
# Youngs Moduli (GPa) = 47.34715 108.02264 43.66062
#
# Poissons Ratio (x) = 0.63084 0.20209
# Poissons Ratio (y) = 0.27650 0.10671
# Poissons Ratio (z) = 0.21915 0.26401
#
# Static dielectric constant tensor:
#      x y z
#    x 3.604520 0.000000 0.000000 
#    y 0.000000 3.886840 0.000000 
#    z 0.000000 0.000000 3.421720 
# 
# 
# High freq. dielectric constant tensor:
#      x y z
#    x 1.744870 0.000000 0.000000 
#    y 0.000000 1.771890 0.000000 
#    z 0.000000 0.000000 1.754580 
# 
# From -- ./inp_files/3908.got.cif
#   From: 2010.03.12/outbox.cif.g09.slc.cpg/sg57_2_cif.got.tgz:3908.got - 2010.04.16 15:48:40.
