data_PCOD8231496
_publ_section_title
;
Structure prediction by ZEFSAII (Michael W. Deem and Ramdas Pophale) SiO2 
 PCOD8231496
Probable space group: P B C M
;
_chemical_formula_sum "Si O2"
_cell_formula_units_Z 60
_cell_length_a 13.600057
_cell_length_b 14.728400
_cell_length_c 16.123784
_cell_angle_alpha 90.000000
_cell_angle_beta 90.000000
_cell_angle_gamma 90.000000
_cell_volume 3229.708084
_symmetry_space_group_name_H-M "P B C M"
_symmetry_group_IT_number 57
_symmetry_cell_setting 'orthorhombic'
loop_
_space_group_symop_operation_xyz
x,y,z
-x,-y,1/2+z
x,1/2-y,-z
-x,1/2+y,1/2-z
-x,-y,-z
x,y,1/2-z
-x,1/2+y,z
x,1/2-y,1/2+z
loop_
_atom_site_type_symbol
_atom_site_label
_atom_site_fract_x
_atom_site_fract_y
_atom_site_fract_z
Si Si1 0.100254 0.725253 0.346285
Si Si2 0.339491 0.962166 0.340616
Si Si3 0.737190 0.157254 0.450625
Si Si4 0.858100 0.083948 0.908931
Si Si5 0.614101 0.750000 0.500000
Si Si6 0.071581 0.405832 0.654080
Si Si7 0.288269 0.336465 0.654503
Si Si8 0.455972 0.902651 0.489882
O O1 0.089721 0.743504 0.250000
O O2 0.206782 0.679136 0.364744
O O3 0.086245 0.821028 0.393431
O O4 0.015171 0.658630 0.379323
O O5 0.384017 0.944721 0.250000
O O6 0.225618 0.931823 0.339238
O O7 0.398946 0.898300 0.402736
O O8 0.346525 0.069409 0.362354
O O9 0.726269 0.250000 0.500000
O O10 0.804263 0.085264 0.501569
O O11 0.625820 0.118903 0.438221
O O12 0.931750 0.998144 0.901105
O O13 0.678166 0.735665 0.415902
O O14 0.545845 0.835486 0.485485
O O15 0.054024 0.431789 0.750000
O O16 0.172635 0.351478 0.642338
O O17 0.308844 0.303043 0.750000
O O18 0.500000 0.000000 0.500000
#
# Coordination Sequence:
#
# PCOD8231496 Si02
#       8
#     8   8   8   8   4   8   8   8
#     4  10  19  33  54  81 111 141 176 222 278 327
#     4   9  17  33  58  80 101 138 189 231 268 323
#     4   9  19  35  52  77 107 134 176 229 269 312
#     4   9  17  32  54  77 104 140 178 219 266 317
#     4  12  22  36  58  84 112 152 184 226 294 336
#     4   9  18  34  56  81 108 141 182 224 268 326
#     4   9  19  37  56  82 113 143 187 234 270 333
#     4  11  21  36  55  79 113 147 181 227 281 334
#
# _framework density 18.577529999999999
#
# number of rings (size 3 to 8) (size 9 to 14) (size 15 to 20)
#    0.000    2.400    2.000    2.000    0.000    1.067 
#    3.600    2.667    0.000    1.600    0.000    0.000 
#    0.000    0.000    0.000    0.000    0.000    0.000 
#
# Total GULP energy -743633.184255 kJ/mol
# GULP energy per Si atom -12393.886404 kJ/mol
# Density = 1.853525 g / cm^3
# Si number density = 18.577530 Si / 1000 Ang^3
#
#
#
# Elastic Constant Matrix: (Units=GPa)
#
#
# Indices 1 2 3 4 5 6 
#
# 1 80.5112 47.2662 18.3237 0.0000 0.0000 0.0000
# 2 47.2662 107.6136 22.9841 0.0000 0.0000 0.0000
# 3 18.3237 22.9841 50.6854 0.0000 0.0000 0.0000
# 4 0.0000 0.0000 0.0000 26.5392 0.0000 0.0000
# 5 0.0000 0.0000 0.0000 0.0000 25.5844 0.0000
# 6 0.0000 0.0000 0.0000 0.0000 0.0000 37.9665
#
#
#
# Elastic Compliance Matrix: (Units=1/GPa)
#
#
# Indices 1 2 3 4 5 6 
#
# 1 0.017161 -0.006879 -0.003085 0.000000 0.000000 0.000000
# 2 -0.006879 0.013046 -0.003429 0.000000 0.000000 0.000000
# 3 -0.003085 -0.003429 0.022400 0.000000 0.000000 0.000000
# 4 0.000000 0.000000 0.000000 0.037680 0.000000 0.000000
# 5 0.000000 0.000000 0.000000 0.000000 0.039086 0.000000
# 6 0.000000 0.000000 0.000000 0.000000 0.000000 0.026339
#
#
# Mechanical properties :
#
#
# Convention : Reuss Voigt Hill
#
# Bulk Modulus (GPa) = 38.72718 46.21757 42.47238
# Shear Modulus (GPa) = 26.16363 28.03375 27.09869
#
# Velocity S-wave (km/s) = 3.75687 3.88882 3.82341
# Velocity P-wave (km/s) = 6.30161 6.71536 6.51177
#
# Compressibility (1/GPa) = 0.02582165
#
# Stress axis : x y z
#
# Youngs Moduli (GPa) = 58.27176 76.65095 44.64322
#
# Poissons Ratio (x) = 0.52725 0.13771
# Poissons Ratio (y) = 0.40083 0.15309
# Poissons Ratio (z) = 0.17976 0.26285
#
# Static dielectric constant tensor:
#      x y z
#    x 3.592810 0.000000 0.000000 
#    y 0.000000 3.368200 0.000000 
#    z 0.000000 0.000000 3.312510 
# 
# 
# High freq. dielectric constant tensor:
#      x y z
#    x 1.712680 0.000000 0.000000 
#    y 0.000000 1.716390 0.000000 
#    z 0.000000 0.000000 1.704190 
# 
# From -- ./inp_files/21983.got.cif
#   From: 2010.03.12/outbox.cif.g09.slc.cpg/sg57_11_cif.got.tgz:21983.got - 2010.04.16 15:48:40.
