data_PCOD8231062
_publ_section_title
;
Structure prediction by ZEFSAII (Michael W. Deem and Ramdas Pophale) SiO2 
 PCOD8231062
Probable space group: P B C M
;
_chemical_formula_sum "Si O2"
_cell_formula_units_Z 64
_cell_length_a 21.643810
_cell_length_b 19.155913
_cell_length_c 8.871975
_cell_angle_alpha 90.000000
_cell_angle_beta 90.000000
_cell_angle_gamma 90.000000
_cell_volume 3678.382418
_symmetry_space_group_name_H-M "P B C M"
_symmetry_group_IT_number 57
_symmetry_cell_setting 'orthorhombic'
loop_
_space_group_symop_operation_xyz
x,y,z
-x,-y,1/2+z
x,1/2-y,-z
-x,1/2+y,1/2-z
-x,-y,-z
x,y,1/2-z
-x,1/2+y,z
x,1/2-y,1/2+z
loop_
_atom_site_type_symbol
_atom_site_label
_atom_site_fract_x
_atom_site_fract_y
_atom_site_fract_z
Si Si1 0.017333 0.607178 0.419467
Si Si2 0.190422 0.963162 0.422755
Si Si3 0.381107 0.678663 0.071410
Si Si4 0.488259 0.318718 0.076393
Si Si5 0.668176 0.453155 0.075491
Si Si6 0.439984 0.033006 0.924050
Si Si7 0.873243 0.177953 0.572293
Si Si8 0.912479 0.538710 0.581392
O O1 0.011037 0.635957 0.250000
O O2 0.949041 0.598691 0.490235
O O3 0.057330 0.661869 0.515729
O O4 0.049659 0.532538 0.421841
O O5 0.169882 0.968651 0.250000
O O6 0.262325 0.979780 0.445243
O O7 0.172544 0.884948 0.479054
O O8 0.154595 0.023947 0.510929
O O9 0.381529 0.684101 0.250000
O O10 0.355878 0.750000 0.000000
O O11 0.449417 0.661461 0.011425
O O12 0.335993 0.618096 0.017427
O O13 0.504831 0.302523 0.250000
O O14 0.441506 0.383132 0.063241
O O15 0.457971 0.250000 0.000000
O O16 0.651805 0.439616 0.250000
O O17 0.621758 0.510321 0.009076
O O18 0.437799 0.008716 0.750000
O O19 0.500000 0.000000 0.000000
O O20 0.848855 0.250000 0.500000
O O21 0.874003 0.187447 0.750000
O O22 0.903245 0.566455 0.750000
#
# Coordination Sequence:
#
# PCOD8231062 Si02
#       8
#     8   8   8   8   8   8   8   8
#     4   9  16  27  45  69  95 124 158 197 242 286
#     4   9  20  35  49  67  96 134 171 210 251 300
#     4  11  21  33  50  70  97 131 169 210 257 309
#     4  10  20  34  53  76 101 127 161 203 255 314
#     4  11  22  36  52  73 102 136 178 220 263 316
#     4  11  22  35  54  78 104 134 168 214 268 321
#     4  10  19  32  48  69  99 134 173 210 247 290
#     4   9  16  27  46  70  94 121 156 200 244 287
#
# _framework density 17.398951
#
# number of rings (size 3 to 8) (size 9 to 14) (size 15 to 20)
#    0.000    2.000    1.250    4.125    0.000    6.500 
#    0.000    1.250    0.000    0.000    0.000    0.875 
#    0.000    4.000    0.000    0.000    0.000    0.000 
#
# Total GULP energy -793623.156444 kJ/mol
# GULP energy per Si atom -12400.361819 kJ/mol
# Density = 1.735935 g / cm^3
# Si number density = 17.398951 Si / 1000 Ang^3
#
#
#
# Elastic Constant Matrix: (Units=GPa)
#
#
# Indices 1 2 3 4 5 6 
#
# 1 88.1761 30.0438 47.1206 0.0000 0.0000 0.0000
# 2 30.0438 44.6119 28.2985 0.0000 0.0000 0.0000
# 3 47.1206 28.2985 127.6644 0.0000 0.0000 0.0000
# 4 0.0000 0.0000 0.0000 29.0153 0.0000 0.0000
# 5 0.0000 0.0000 0.0000 0.0000 26.8186 0.0000
# 6 0.0000 0.0000 0.0000 0.0000 0.0000 19.0998
#
#
#
# Elastic Compliance Matrix: (Units=1/GPa)
#
#
# Indices 1 2 3 4 5 6 
#
# 1 0.016457 -0.008413 -0.004209 0.000000 0.000000 0.000000
# 2 -0.008413 0.030384 -0.003630 0.000000 0.000000 0.000000
# 3 -0.004209 -0.003630 0.010191 0.000000 0.000000 0.000000
# 4 0.000000 0.000000 0.000000 0.034465 0.000000 0.000000
# 5 0.000000 0.000000 0.000000 0.000000 0.037288 0.000000
# 6 0.000000 0.000000 0.000000 0.000000 0.000000 0.052357
#
#
# Mechanical properties :
#
#
# Convention : Reuss Voigt Hill
#
# Bulk Modulus (GPa) = 40.76990 52.37537 46.57264
# Shear Modulus (GPa) = 22.54075 25.31934 23.93005
#
# Velocity S-wave (km/s) = 3.60324 3.81888 3.71263
# Velocity P-wave (km/s) = 6.38705 7.04365 6.72337
#
# Compressibility (1/GPa) = 0.02452790
#
# Stress axis : x y z
#
# Youngs Moduli (GPa) = 60.76504 32.91251 98.12278
#
# Poissons Ratio (x) = 0.27688 0.41304
# Poissons Ratio (y) = 0.51120 0.35617
# Poissons Ratio (z) = 0.25578 0.11947
#
# Static dielectric constant tensor:
#      x y z
#    x 3.068200 0.000000 0.000000 
#    y 0.000000 3.192860 0.000000 
#    z 0.000000 0.000000 3.455930 
# 
# 
# High freq. dielectric constant tensor:
#      x y z
#    x 1.647110 0.000000 0.000000 
#    y 0.000000 1.648760 0.000000 
#    z 0.000000 0.000000 1.692390 
# 
# From -- ./inp_files/7177.got.cif
#   From: 2010.03.12/outbox.cif.g09.slc.cpg/sg57_4_cif.got.tgz:7177.got - 2010.04.16 15:48:40.
