data_PCOD8231288
_publ_section_title
;
Structure prediction by ZEFSAII (Michael W. Deem and Ramdas Pophale) SiO2 
 PCOD8231288
Probable space group: P B C M
;
_chemical_formula_sum "Si O2"
_cell_formula_units_Z 48
_cell_length_a 11.120746
_cell_length_b 12.631510
_cell_length_c 19.123570
_cell_angle_alpha 90.000000
_cell_angle_beta 90.000000
_cell_angle_gamma 90.000000
_cell_volume 2686.322574
_symmetry_space_group_name_H-M "P B C M"
_symmetry_group_IT_number 57
_symmetry_cell_setting 'orthorhombic'
loop_
_space_group_symop_operation_xyz
x,y,z
-x,-y,1/2+z
x,1/2-y,-z
-x,1/2+y,1/2-z
-x,-y,-z
x,y,1/2-z
-x,1/2+y,z
x,1/2-y,1/2+z
loop_
_atom_site_type_symbol
_atom_site_label
_atom_site_fract_x
_atom_site_fract_y
_atom_site_fract_z
Si Si1 0.810407 0.917474 0.328872
Si Si2 0.581885 0.645704 0.047425
Si Si3 0.232705 0.179270 0.330266
Si Si4 0.109136 0.628961 0.001316
Si Si5 0.954413 0.517525 0.111642
Si Si6 0.662508 0.027600 0.442033
O O1 0.770578 0.936727 0.250000
O O2 0.829245 0.792873 0.344508
O O3 0.699653 0.963487 0.373110
O O4 0.935044 0.977980 0.341729
O O5 0.654367 0.669779 0.117942
O O6 0.455490 0.596674 0.071483
O O7 0.562926 0.750000 0.000000
O O8 0.652394 0.557251 0.004037
O O9 0.278370 0.171053 0.250000
O O10 0.135408 0.086975 0.341916
O O11 0.113437 0.583469 0.922138
O O12 0.080468 0.750000 0.000000
O O13 0.234965 0.610558 0.039059
O O14 0.997831 0.583402 0.044899
#
# Coordination Sequence:
#
# PCOD8231288 Si02
#       6
#     8   8   8   8   8   8
#     4  10  21  37  57  82 116 152 187 230 283 346
#     4  11  21  37  60  82 111 143 192 242 279 337
#     4  11  22  37  58  84 115 152 190 231 289 347
#     4  10  19  32  54  83 112 140 188 238 279 334
#     4  10  20  34  54  83 114 152 185 230 284 339
#     4  10  21  36  57  83 106 146 186 233 288 328
#
# _framework density 17.868293999999999
#
# number of rings (size 3 to 8) (size 9 to 14) (size 15 to 20)
#    0.000    1.667    3.333    2.000    0.000    1.333 
#    0.000    0.000    0.000    1.000    0.000    0.000 
#    0.000    0.000    0.000    0.000    0.000    0.000 
#
# Total GULP energy -595185.472891 kJ/mol
# GULP energy per Si atom -12399.697352 kJ/mol
# Density = 1.782763 g / cm^3
# Si number density = 17.868294 Si / 1000 Ang^3
#
#
#
# Elastic Constant Matrix: (Units=GPa)
#
#
# Indices 1 2 3 4 5 6 
#
# 1 82.7009 42.7024 52.7619 0.0000 0.0000 0.0000
# 2 42.7024 115.2861 51.4176 0.0000 0.0000 0.0000
# 3 52.7619 51.4176 115.5210 0.0000 0.0000 0.0000
# 4 0.0000 0.0000 0.0000 28.4915 0.0000 0.0000
# 5 0.0000 0.0000 0.0000 0.0000 21.2065 0.0000
# 6 0.0000 0.0000 0.0000 0.0000 0.0000 21.4382
#
#
#
# Elastic Compliance Matrix: (Units=1/GPa)
#
#
# Indices 1 2 3 4 5 6 
#
# 1 0.018313 -0.003809 -0.006669 0.000000 0.000000 0.000000
# 2 -0.003809 0.011615 -0.003430 0.000000 0.000000 0.000000
# 3 -0.006669 -0.003430 0.013229 0.000000 0.000000 0.000000
# 4 0.000000 0.000000 0.000000 0.035098 0.000000 0.000000
# 5 0.000000 0.000000 0.000000 0.000000 0.047155 0.000000
# 6 0.000000 0.000000 0.000000 0.000000 0.000000 0.046646
#
#
# Mechanical properties :
#
#
# Convention : Reuss Voigt Hill
#
# Bulk Modulus (GPa) = 65.18356 67.47465 66.32911
# Shear Modulus (GPa) = 24.39202 25.33565 24.86384
#
# Velocity S-wave (km/s) = 3.69874 3.76960 3.73434
# Velocity P-wave (km/s) = 7.40271 7.53596 7.46963
#
# Compressibility (1/GPa) = 0.01534129
#
# Stress axis : x y z
#
# Youngs Moduli (GPa) = 54.60566 86.09789 75.59190
#
# Poissons Ratio (x) = 0.32794 0.50411
# Poissons Ratio (y) = 0.20799 0.25928
# Poissons Ratio (z) = 0.36415 0.29531
#
# Static dielectric constant tensor:
#      x y z
#    x 3.162760 0.000000 0.000000 
#    y 0.000000 3.449610 0.000000 
#    z 0.000000 0.000000 3.286530 
# 
# 
# High freq. dielectric constant tensor:
#      x y z
#    x 1.686150 0.000000 0.000000 
#    y 0.000000 1.704220 0.000000 
#    z 0.000000 0.000000 1.690010 
# 
# From -- ./inp_files/21794.got.cif
#   From: 2010.03.12/outbox.cif.g09.slc.cpg/sg57_11_cif.got.tgz:21794.got - 2010.04.16 15:48:40.
