data_PCOD8231578
_publ_section_title
;
Structure prediction by ZEFSAII (Michael W. Deem and Ramdas Pophale) SiO2 
 PCOD8231578
Probable space group: P B C M
;
_chemical_formula_sum "Si O2"
_cell_formula_units_Z 48
_cell_length_a 17.029214
_cell_length_b 15.519780
_cell_length_c 8.927099
_cell_angle_alpha 90.000000
_cell_angle_beta 90.000000
_cell_angle_gamma 90.000000
_cell_volume 2359.339914
_symmetry_space_group_name_H-M "P B C M"
_symmetry_group_IT_number 57
_symmetry_cell_setting 'orthorhombic'
loop_
_space_group_symop_operation_xyz
x,y,z
-x,-y,1/2+z
x,1/2-y,-z
-x,1/2+y,1/2-z
-x,-y,-z
x,y,1/2-z
-x,1/2+y,z
x,1/2-y,1/2+z
loop_
_atom_site_type_symbol
_atom_site_label
_atom_site_fract_x
_atom_site_fract_y
_atom_site_fract_z
Si Si1 0.340051 0.105617 0.575317
Si Si2 0.493026 0.091566 0.424199
Si Si3 0.814847 0.162652 0.573935
Si Si4 0.333899 0.902700 0.920074
Si Si5 0.084370 0.999481 0.073012
Si Si6 0.816164 0.663934 0.072425
O O1 0.336244 0.127921 0.750000
O O2 0.422509 0.141871 0.507971
O O3 0.271382 0.154238 0.489478
O O4 0.332907 0.004083 0.543526
O O5 0.472039 0.080254 0.250000
O O6 0.578404 0.136551 0.443562
O O7 0.500000 0.000000 0.500000
O O8 0.847093 0.250000 0.500000
O O9 0.820230 0.172648 0.750000
O O10 0.724453 0.146799 0.530117
O O11 0.868183 0.083947 0.515688
O O12 0.305766 0.887155 0.750000
O O13 0.074945 0.997936 0.250000
O O14 0.131082 0.083864 0.019561
O O15 0.000000 0.000000 0.000000
O O16 0.813817 0.672201 0.250000
O O17 0.853508 0.750000 0.000000
#
# Coordination Sequence:
#
# PCOD8231578 Si02
#       6
#     8   8   8   8   8   8
#     4  10  19  33  56  86 119 161 206 250 306 359
#     4   9  17  29  49  81 118 158 207 255 302 355
#     4  11  23  40  62  91 123 159 201 246 299 356
#     4   9  18  33  55  84 118 159 204 248 299 353
#     4  10  24  44  67  93 122 157 196 242 301 363
#     4  11  23  41  63  92 125 160 203 249 301 361
#
# _framework density 20.344673
#
# number of rings (size 3 to 8) (size 9 to 14) (size 15 to 20)
#    0.000    2.000    1.667    3.000    0.000    6.667 
#    0.000    4.167    0.000    4.000    0.000    0.000 
#    0.000    0.000    0.000    0.000    0.000    0.000 
#
# Total GULP energy -595209.196202 kJ/mol
# GULP energy per Si atom -12400.191588 kJ/mol
# Density = 2.029837 g / cm^3
# Si number density = 20.344673 Si / 1000 Ang^3
#
#
#
# Elastic Constant Matrix: (Units=GPa)
#
#
# Indices 1 2 3 4 5 6 
#
# 1 142.0439 63.0488 49.3468 0.0000 0.0000 0.0000
# 2 63.0488 125.5312 48.8059 0.0000 0.0000 0.0000
# 3 49.3468 48.8059 88.8748 0.0000 0.0000 0.0000
# 4 0.0000 0.0000 0.0000 31.1267 0.0000 0.0000
# 5 0.0000 0.0000 0.0000 0.0000 40.7980 0.0000
# 6 0.0000 0.0000 0.0000 0.0000 0.0000 7.2011
#
#
#
# Elastic Compliance Matrix: (Units=1/GPa)
#
#
# Indices 1 2 3 4 5 6 
#
# 1 0.009847 -0.003586 -0.003498 0.000000 0.000000 0.000000
# 2 -0.003586 0.011434 -0.004288 0.000000 0.000000 0.000000
# 3 -0.003498 -0.004288 0.015549 0.000000 0.000000 0.000000
# 4 0.000000 0.000000 0.000000 0.032127 0.000000 0.000000
# 5 0.000000 0.000000 0.000000 0.000000 0.024511 0.000000
# 6 0.000000 0.000000 0.000000 0.000000 0.000000 0.138868
#
#
# Mechanical properties :
#
#
# Convention : Reuss Voigt Hill
#
# Bulk Modulus (GPa) = 70.99318 75.42809 73.21063
# Shear Modulus (GPa) = 19.24737 28.84172 24.04454
#
# Velocity S-wave (km/s) = 3.07915 3.76926 3.44155
# Velocity P-wave (km/s) = 6.90018 7.48991 7.20108
#
# Compressibility (1/GPa) = 0.01408586
#
# Stress axis : x y z
#
# Youngs Moduli (GPa) = 101.55444 87.45632 64.31204
#
# Poissons Ratio (x) = 0.31358 0.22499
# Poissons Ratio (y) = 0.36413 0.27579
# Poissons Ratio (z) = 0.35528 0.37504
#
# Static dielectric constant tensor:
#      x y z
#    x 3.895080 0.000000 0.000000 
#    y 0.000000 3.697820 0.000000 
#    z 0.000000 0.000000 3.742570 
# 
# 
# High freq. dielectric constant tensor:
#      x y z
#    x 1.797450 0.000000 0.000000 
#    y 0.000000 1.781640 0.000000 
#    z 0.000000 0.000000 1.799210 
# 
# From -- ./inp_files/6541.got.cif
#   From: 2010.03.12/outbox.cif.g09.slc.cpg/sg57_4_cif.got.tgz:6541.got - 2010.04.16 15:48:40.
