data_PCOD8231971
_publ_section_title
;
Structure prediction by ZEFSAII (Michael W. Deem and Ramdas Pophale) SiO2 
 PCOD8231971
Probable space group: P B C M
;
_chemical_formula_sum "Si O2"
_cell_formula_units_Z 48
_cell_length_a 16.725186
_cell_length_b 15.885525
_cell_length_c 9.187217
_cell_angle_alpha 90.000000
_cell_angle_beta 90.000000
_cell_angle_gamma 90.000000
_cell_volume 2440.936621
_symmetry_space_group_name_H-M "P B C M"
_symmetry_group_IT_number 57
_symmetry_cell_setting 'orthorhombic'
loop_
_space_group_symop_operation_xyz
x,y,z
-x,-y,1/2+z
x,1/2-y,-z
-x,1/2+y,1/2-z
-x,-y,-z
x,y,1/2-z
-x,1/2+y,z
x,1/2-y,1/2+z
loop_
_atom_site_type_symbol
_atom_site_label
_atom_site_fract_x
_atom_site_fract_y
_atom_site_fract_z
Si Si1 0.670655 0.831905 0.082799
Si Si2 0.154890 0.111211 0.581283
Si Si3 0.687100 0.164348 0.422016
Si Si4 0.415950 0.998540 0.921908
Si Si5 0.998809 0.331430 0.920959
Si Si6 0.157854 0.924734 0.579658
O O1 0.647774 0.819946 0.250000
O O2 0.766074 0.833821 0.060728
O O3 0.632962 0.919082 0.024384
O O4 0.636215 0.750000 0.000000
O O5 0.127357 0.109165 0.750000
O O6 0.085261 0.149073 0.484070
O O7 0.173204 0.018098 0.520037
O O8 0.658599 0.250000 0.500000
O O9 0.685289 0.180353 0.250000
O O10 0.776062 0.140234 0.482128
O O11 0.629594 0.087030 0.466122
O O12 0.428255 0.001979 0.750000
O O13 0.500000 0.000000 0.000000
O O14 0.007082 0.315456 0.750000
O O15 0.933618 0.402478 0.958157
O O16 0.963890 0.250000 0.000000
O O17 0.173611 0.925932 0.750000
#
# Coordination Sequence:
#
# PCOD8231971 Si02
#       6
#     8   8   8   8   8   8
#     4  10  21  38  61  86 114 152 193 233 283 340
#     4  10  19  36  59  80 109 150 192 236 285 334
#     4  10  20  38  62  87 116 153 193 233 283 341
#     4  10  22  41  63  86 116 151 187 231 287 347
#     4  11  22  34  50  78 113 149 192 238 282 332
#     4   9  18  35  58  80 109 151 193 233 282 337
#
# _framework density 19.664583
#
# number of rings (size 3 to 8) (size 9 to 14) (size 15 to 20)
#    0.000    2.000    1.667    2.000    0.000    4.000 
#    0.000    5.833    0.000    0.000    0.000    0.000 
#    0.000    0.000    0.000    0.000    0.000    0.000 
#
# Total GULP energy -595095.397345 kJ/mol
# GULP energy per Si atom -12397.820778 kJ/mol
# Density = 1.961983 g / cm^3
# Si number density = 19.664583 Si / 1000 Ang^3
#
#
#
# Elastic Constant Matrix: (Units=GPa)
#
#
# Indices 1 2 3 4 5 6 
#
# 1 96.0007 34.4679 42.5093 0.0000 0.0000 0.0000
# 2 34.4679 146.2962 47.2257 0.0000 0.0000 0.0000
# 3 42.5093 47.2257 54.8125 0.0000 0.0000 0.0000
# 4 0.0000 0.0000 0.0000 31.8654 0.0000 0.0000
# 5 0.0000 0.0000 0.0000 0.0000 25.1681 0.0000
# 6 0.0000 0.0000 0.0000 0.0000 0.0000 19.8040
#
#
#
# Elastic Compliance Matrix: (Units=1/GPa)
#
#
# Indices 1 2 3 4 5 6 
#
# 1 0.015876 0.000324 -0.012592 0.000000 0.000000 0.000000
# 2 0.000324 0.009476 -0.008416 0.000000 0.000000 0.000000
# 3 -0.012592 -0.008416 0.035260 0.000000 0.000000 0.000000
# 4 0.000000 0.000000 0.000000 0.031382 0.000000 0.000000
# 5 0.000000 0.000000 0.000000 0.000000 0.039733 0.000000
# 6 0.000000 0.000000 0.000000 0.000000 0.000000 0.050495
#
#
# Mechanical properties :
#
#
# Convention : Reuss Voigt Hill
#
# Bulk Modulus (GPa) = 51.96003 60.61281 56.28642
# Shear Modulus (GPa) = 21.73887 26.89460 24.31674
#
# Velocity S-wave (km/s) = 3.32849 3.70221 3.52031
# Velocity P-wave (km/s) = 6.42279 7.01180 6.72375
#
# Compressibility (1/GPa) = 0.01924556
#
# Stress axis : x y z
#
# Youngs Moduli (GPa) = 62.98894 105.53333 28.36053
#
# Poissons Ratio (x) = -0.03423 0.35711
# Poissons Ratio (y) = -0.02043 0.23867
# Poissons Ratio (z) = 0.79314 0.88813
#
# Static dielectric constant tensor:
#      x y z
#    x 3.537150 0.000000 0.000000 
#    y 0.000000 2.932030 0.000000 
#    z 0.000000 0.000000 3.320480 
# 
# 
# High freq. dielectric constant tensor:
#      x y z
#    x 1.766940 0.000000 0.000000 
#    y 0.000000 1.782800 0.000000 
#    z 0.000000 0.000000 1.739010 
# 
# From -- ./inp_files/6522.got.cif
#   From: 2010.03.12/outbox.cif.g09.slc.cpg/sg57_4_cif.got.tgz:6522.got - 2010.04.16 15:48:40.
