data_PCOD8231781
_publ_section_title
;
Structure prediction by ZEFSAII (Michael W. Deem and Ramdas Pophale) SiO2 
 PCOD8231781
Probable space group: P B C M
;
_chemical_formula_sum "Si O2"
_cell_formula_units_Z 32
_cell_length_a 17.231338
_cell_length_b 4.890506
_cell_length_c 15.462910
_cell_angle_alpha 90.000000
_cell_angle_beta 90.000000
_cell_angle_gamma 90.000000
_cell_volume 1303.058836
_symmetry_space_group_name_H-M "P B C M"
_symmetry_group_IT_number 57
_symmetry_cell_setting 'orthorhombic'
loop_
_space_group_symop_operation_xyz
x,y,z
-x,-y,1/2+z
x,1/2-y,-z
-x,1/2+y,1/2-z
-x,-y,-z
x,y,1/2-z
-x,1/2+y,z
x,1/2-y,1/2+z
loop_
_atom_site_type_symbol
_atom_site_label
_atom_site_fract_x
_atom_site_fract_y
_atom_site_fract_z
Si Si1 0.047687 0.553872 0.147124
Si Si2 0.456723 0.189297 0.101644
Si Si3 0.697707 0.379704 0.093337
Si Si4 0.785847 0.876701 0.151415
O O1 0.052601 0.544850 0.250000
O O2 0.133411 0.488153 0.111493
O O3 0.018041 0.844610 0.113258
O O4 0.473361 0.493073 0.138110
O O5 0.377210 0.042429 0.129903
O O6 0.459018 0.250000 0.000000
O O7 0.763381 0.615192 0.092628
O O8 0.722976 0.122747 0.151595
O O9 0.681028 0.250000 0.000000
O O10 0.794681 0.772318 0.250000
#
# Coordination Sequence:
#
# PCOD8231781 Si02
#       4
#     8   8   8   8
#     4   9  17  32  56  83 108 143 197 247 280 328
#     4  10  19  34  58  87 114 146 197 249 283 326
#     4  12  23  38  61  89 120 154 194 244 299 353
#     4  11  23  39  61  88 120 156 194 242 298 356
#
# _framework density 24.557600999999998
#
# number of rings (size 3 to 8) (size 9 to 14) (size 15 to 20)
#    0.000    1.500    0.000    8.250    0.000    4.000 
#    0.000    0.000    0.000   30.000    0.000    0.000 
#    0.000    0.000    0.000    0.000    0.000    0.000 
#
# Total GULP energy -396430.928419 kJ/mol
# GULP energy per Si atom -12388.466513 kJ/mol
# Density = 2.450171 g / cm^3
# Si number density = 24.557601 Si / 1000 Ang^3
#
#
#
# Elastic Constant Matrix: (Units=GPa)
#
#
# Indices 1 2 3 4 5 6 
#
# 1 88.9421 7.1295 7.9796 0.0000 0.0000 0.0000
# 2 7.1295 115.4730 -3.0267 0.0000 0.0000 0.0000
# 3 7.9796 -3.0267 16.1163 0.0000 0.0000 0.0000
# 4 0.0000 0.0000 0.0000 22.6091 0.0000 0.0000
# 5 0.0000 0.0000 0.0000 0.0000 18.1295 0.0000
# 6 0.0000 0.0000 0.0000 0.0000 0.0000 53.9160
#
#
#
# Elastic Compliance Matrix: (Units=1/GPa)
#
#
# Indices 1 2 3 4 5 6 
#
# 1 0.011856 -0.000890 -0.006038 0.000000 0.000000 0.000000
# 2 -0.000890 0.008770 0.002088 0.000000 0.000000 0.000000
# 3 -0.006038 0.002088 0.065430 0.000000 0.000000 0.000000
# 4 0.000000 0.000000 0.000000 0.044230 0.000000 0.000000
# 5 0.000000 0.000000 0.000000 0.000000 0.055159 0.000000
# 6 0.000000 0.000000 0.000000 0.000000 0.000000 0.018547
#
#
# Mechanical properties :
#
#
# Convention : Reuss Voigt Hill
#
# Bulk Modulus (GPa) = 13.09306 27.18848 20.14077
# Shear Modulus (GPa) = 20.90901 32.82752 26.86827
#
# Velocity S-wave (km/s) = 2.92109 3.66013 3.31129
# Velocity P-wave (km/s) = 4.08903 5.38121 4.77900
#
# Compressibility (1/GPa) = 0.07637633
#
# Stress axis : x y z
#
# Youngs Moduli (GPa) = 84.34335 114.02866 15.28340
#
# Poissons Ratio (x) = 0.10152 0.09227
# Poissons Ratio (y) = 0.07509 -0.03191
# Poissons Ratio (z) = 0.50923 -0.23807
#
# Static dielectric constant tensor:
#      x y z
#    x 4.596310 0.000000 0.000000 
#    y 0.000000 5.027570 0.000000 
#    z 0.000000 0.000000 3.727710 
# 
# 
# High freq. dielectric constant tensor:
#      x y z
#    x 1.982970 0.000000 0.000000 
#    y 0.000000 2.005720 0.000000 
#    z 0.000000 0.000000 1.908770 
# 
# From -- ./inp_files/22224.got.cif
#   From: 2010.03.12/outbox.cif.g09.slc.cpg/sg57_12_cif.got.tgz:22224.got - 2010.04.16 15:48:40.
