data_PCOD8231248
_publ_section_title
;
Structure prediction by ZEFSAII (Michael W. Deem and Ramdas Pophale) SiO2 
 PCOD8231248
Probable space group: P B C M
;
_chemical_formula_sum "Si O2"
_cell_formula_units_Z 56
_cell_length_a 9.756859
_cell_length_b 22.041602
_cell_length_c 11.962141
_cell_angle_alpha 90.000000
_cell_angle_beta 90.000000
_cell_angle_gamma 90.000000
_cell_volume 2572.539799
_symmetry_space_group_name_H-M "P B C M"
_symmetry_group_IT_number 57
_symmetry_cell_setting 'orthorhombic'
loop_
_space_group_symop_operation_xyz
x,y,z
-x,-y,1/2+z
x,1/2-y,-z
-x,1/2+y,1/2-z
-x,-y,-z
x,y,1/2-z
-x,1/2+y,z
x,1/2-y,1/2+z
loop_
_atom_site_type_symbol
_atom_site_label
_atom_site_fract_x
_atom_site_fract_y
_atom_site_fract_z
Si Si1 0.087777 0.610162 0.579962
Si Si2 0.705554 0.014524 0.972899
Si Si3 0.320609 0.183337 0.031185
Si Si4 0.791159 0.910125 0.369382
Si Si5 0.210486 0.765838 0.376717
Si Si6 0.024220 0.172672 0.126554
Si Si7 0.495029 0.078863 0.124103
O O1 0.174390 0.548664 0.592688
O O2 0.184861 0.662792 0.627076
O O3 0.950183 0.605180 0.651168
O O4 0.040166 0.621175 0.452030
O O5 0.616340 0.065483 0.037076
O O6 0.777638 0.969997 0.058748
O O7 0.617178 0.974707 0.886761
O O8 0.180446 0.189898 0.100165
O O9 0.433445 0.145762 0.101094
O O10 0.378415 0.250000 0.000000
O O11 0.291311 0.146648 0.918357
O O12 0.722383 0.922864 0.250000
O O13 0.286014 0.750000 0.500000
O O14 0.276932 0.749172 0.250000
O O15 0.062770 0.734009 0.383945
O O16 0.017766 0.144722 0.250000
O O17 0.552295 0.078516 0.250000
#
# Coordination Sequence:
#
# PCOD8231248 Si02
#       7
#     8   8   8   8   8   8   8
#     4  10  19  32  52  81 112 144 187 235 286 345
#     4  10  22  39  56  79 113 148 188 235 278 330
#     4  10  20  35  56  84 112 140 183 238 283 330
#     4  10  20  34  55  83 114 146 178 221 285 349
#     4   9  17  30  49  77 115 150 180 221 280 346
#     4   9  17  30  51  81 115 149 184 230 292 352
#     4  10  22  40  60  79 105 149 195 233 279 331
#
# _framework density 21.768370999999998
#
# number of rings (size 3 to 8) (size 9 to 14) (size 15 to 20)
#    0.000    2.286    0.000    3.857    0.000    4.571 
#    0.000    2.143    0.000    0.000    0.000    0.000 
#    0.000    0.000    0.000    0.000    0.000    0.000 
#
# Total GULP energy -693862.529280 kJ/mol
# GULP energy per Si atom -12390.402309 kJ/mol
# Density = 2.171882 g / cm^3
# Si number density = 21.768371 Si / 1000 Ang^3
#
#
#
# Elastic Constant Matrix: (Units=GPa)
#
#
# Indices 1 2 3 4 5 6 
#
# 1 20.9474 15.0970 0.3874 0.0000 0.0000 0.0000
# 2 15.0970 110.6709 9.6128 0.0000 0.0000 0.0000
# 3 0.3874 9.6128 128.3240 0.0000 0.0000 0.0000
# 4 0.0000 0.0000 0.0000 11.4401 0.0000 0.0000
# 5 0.0000 0.0000 0.0000 0.0000 -10.8034 0.0000
# 6 0.0000 0.0000 0.0000 0.0000 0.0000 21.7148
#
#
#
# Elastic Compliance Matrix: (Units=1/GPa)
#
#
# Indices 1 2 3 4 5 6 
#
# 1 0.052963 -0.007258 0.000384 0.000000 0.000000 0.000000
# 2 -0.007258 0.010090 -0.000734 0.000000 0.000000 0.000000
# 3 0.000384 -0.000734 0.007847 0.000000 0.000000 0.000000
# 4 0.000000 0.000000 0.000000 0.087412 0.000000 0.000000
# 5 0.000000 0.000000 0.000000 0.000000 -0.092563 0.000000
# 6 0.000000 0.000000 0.000000 0.000000 0.000000 0.046051
#
#
# Mechanical properties :
#
#
# Convention : Reuss Voigt Hill
#
# Bulk Modulus (GPa) = 17.95900 34.45963 26.20932
# Shear Modulus (GPa) = 34.34633 20.12664 27.23649
#
# Velocity S-wave (km/s) = 3.97647 3.04399 3.54106
# Velocity P-wave (km/s) = 5.41766 5.31216 5.36517
#
# Compressibility (1/GPa) = 0.05568239
#
# Stress axis : x y z
#
# Youngs Moduli (GPa) = 18.88124 99.11141 127.44385
#
# Poissons Ratio (x) = 0.71937 -0.04891
# Poissons Ratio (y) = 0.13704 0.09353
# Poissons Ratio (z) = -0.00725 0.07274
#
# Static dielectric constant tensor:
#      x y z
#    x 3.597860 0.000000 0.000000 
#    y 0.000000 3.831450 0.000000 
#    z 0.000000 0.000000 4.322440 
# 
# 
# High freq. dielectric constant tensor:
#      x y z
#    x 1.822030 0.000000 0.000000 
#    y 0.000000 1.852580 0.000000 
#    z 0.000000 0.000000 1.864230 
# 
# From -- ./inp_files/13081.got.cif
#   From: 2010.03.12/outbox.cif.g09.slc.cpg/sg57_7_cif.got.tgz:13081.got - 2010.04.16 15:48:40.
