data_PCOD8231135
_publ_section_title
;
Structure prediction by ZEFSAII (Michael W. Deem and Ramdas Pophale) SiO2 
 PCOD8231135
Probable space group: P B C M
;
_chemical_formula_sum "Si O2"
_cell_formula_units_Z 48
_cell_length_a 15.043277
_cell_length_b 20.473932
_cell_length_c 8.734208
_cell_angle_alpha 90.000000
_cell_angle_beta 90.000000
_cell_angle_gamma 90.000000
_cell_volume 2690.092658
_symmetry_space_group_name_H-M "P B C M"
_symmetry_group_IT_number 57
_symmetry_cell_setting 'orthorhombic'
loop_
_space_group_symop_operation_xyz
x,y,z
-x,-y,1/2+z
x,1/2-y,-z
-x,1/2+y,1/2-z
-x,-y,-z
x,y,1/2-z
-x,1/2+y,z
x,1/2-y,1/2+z
loop_
_atom_site_type_symbol
_atom_site_label
_atom_site_fract_x
_atom_site_fract_y
_atom_site_fract_z
Si Si1 0.115732 0.184405 0.423929
Si Si2 0.688289 0.644071 0.425945
Si Si3 0.734580 0.511990 0.929631
Si Si4 0.486553 0.186912 0.571023
Si Si5 0.080817 0.040146 0.432267
Si Si6 0.428875 0.950701 0.070628
O O1 0.075660 0.250000 0.500000
O O2 0.086007 0.188441 0.250000
O O3 0.221855 0.185385 0.444508
O O4 0.077739 0.115747 0.492033
O O5 0.677186 0.621169 0.250000
O O6 0.689637 0.581287 0.535268
O O7 0.606682 0.687165 0.480800
O O8 0.748206 0.502790 0.750000
O O9 0.829216 0.505323 0.012609
O O10 0.667712 0.457339 0.993558
O O11 0.537635 0.250000 0.500000
O O12 0.468927 0.195231 0.750000
O O13 0.542995 0.122975 0.534551
O O14 0.078910 0.038724 0.250000
O O15 0.000000 0.000000 0.500000
O O16 0.422739 0.965055 0.250000
O O17 0.500000 0.000000 0.000000
#
# Coordination Sequence:
#
# PCOD8231135 Si02
#       6
#     8   8   8   8   8   8
#     4   9  19  32  49  76 108 141 174 213 264 323
#     4  10  19  32  50  74 108 144 180 223 267 321
#     4  11  21  34  55  82 109 143 183 225 275 328
#     4  11  23  35  50  74 106 145 187 229 279 330
#     4  10  21  38  58  83 112 143 181 227 277 329
#     4  11  22  36  55  79 108 145 188 229 270 323
#
# _framework density 17.843250999999999
#
# number of rings (size 3 to 8) (size 9 to 14) (size 15 to 20)
#    0.000    1.667    1.667    5.000    0.000    7.333 
#    0.000    0.000    0.000    1.000    0.000    7.000 
#    0.000    0.000    0.000    0.000    0.000    0.000 
#
# Total GULP energy -595156.356192 kJ/mol
# GULP energy per Si atom -12399.090754 kJ/mol
# Density = 1.780264 g / cm^3
# Si number density = 17.843251 Si / 1000 Ang^3
#
#
#
# Elastic Constant Matrix: (Units=GPa)
#
#
# Indices 1 2 3 4 5 6 
#
# 1 96.6743 65.0906 42.1235 0.0000 0.0000 0.0000
# 2 65.0906 124.3965 55.8391 0.0000 0.0000 0.0000
# 3 42.1235 55.8391 97.4935 0.0000 0.0000 0.0000
# 4 0.0000 0.0000 0.0000 31.4764 0.0000 0.0000
# 5 0.0000 0.0000 0.0000 0.0000 29.4961 0.0000
# 6 0.0000 0.0000 0.0000 0.0000 0.0000 18.1892
#
#
#
# Elastic Compliance Matrix: (Units=1/GPa)
#
#
# Indices 1 2 3 4 5 6 
#
# 1 0.016579 -0.007349 -0.002954 0.000000 0.000000 0.000000
# 2 -0.007349 0.014078 -0.004888 0.000000 0.000000 0.000000
# 3 -0.002954 -0.004888 0.014333 0.000000 0.000000 0.000000
# 4 0.000000 0.000000 0.000000 0.031770 0.000000 0.000000
# 5 0.000000 0.000000 0.000000 0.000000 0.033903 0.000000
# 6 0.000000 0.000000 0.000000 0.000000 0.000000 0.054978
#
#
# Mechanical properties :
#
#
# Convention : Reuss Voigt Hill
#
# Bulk Modulus (GPa) = 68.45481 71.63006 70.04244
# Shear Modulus (GPa) = 24.88886 26.19976 25.54431
#
# Velocity S-wave (km/s) = 3.73884 3.83603 3.78775
# Velocity P-wave (km/s) = 7.55555 7.73637 7.64650
#
# Compressibility (1/GPa) = 0.01460818
#
# Stress axis : x y z
#
# Youngs Moduli (GPa) = 60.31597 71.03087 69.76846
#
# Poissons Ratio (x) = 0.52201 0.20611
# Poissons Ratio (y) = 0.44327 0.34103
# Poissons Ratio (z) = 0.17818 0.34720
#
# Static dielectric constant tensor:
#      x y z
#    x 3.173620 0.000000 0.000000 
#    y 0.000000 3.399940 0.000000 
#    z 0.000000 0.000000 3.395330 
# 
# 
# High freq. dielectric constant tensor:
#      x y z
#    x 1.660530 0.000000 0.000000 
#    y 0.000000 1.691320 0.000000 
#    z 0.000000 0.000000 1.703770 
# 
# From -- ./inp_files/4853.got.cif
#   From: 2010.03.12/outbox.cif.g09.slc.cpg/sg57_3_cif.got.tgz:4853.got - 2010.04.16 15:48:40.
