data_PCOD8231720
_publ_section_title
;
Structure prediction by ZEFSAII (Michael W. Deem and Ramdas Pophale) SiO2 
 PCOD8231720
Probable space group: P B C M
;
_chemical_formula_sum "Si O2"
_cell_formula_units_Z 56
_cell_length_a 19.587230
_cell_length_b 17.876179
_cell_length_c 8.746182
_cell_angle_alpha 90.000000
_cell_angle_beta 90.000000
_cell_angle_gamma 90.000000
_cell_volume 3062.430406
_symmetry_space_group_name_H-M "P B C M"
_symmetry_group_IT_number 57
_symmetry_cell_setting 'orthorhombic'
loop_
_space_group_symop_operation_xyz
x,y,z
-x,-y,1/2+z
x,1/2-y,-z
-x,1/2+y,1/2-z
-x,-y,-z
x,y,1/2-z
-x,1/2+y,z
x,1/2-y,1/2+z
loop_
_atom_site_type_symbol
_atom_site_label
_atom_site_fract_x
_atom_site_fract_y
_atom_site_fract_z
Si Si1 0.565491 0.669409 0.068331
Si Si2 0.799373 0.024596 0.931537
Si Si3 0.844114 0.330599 0.575276
Si Si4 0.656294 0.531351 0.428504
Si Si5 0.998658 0.170613 0.425198
Si Si6 0.537833 0.069622 0.928690
Si Si7 0.935053 0.959685 0.070563
O O1 0.565630 0.674919 0.250000
O O2 0.618877 0.606025 0.004570
O O3 0.585395 0.750000 0.000000
O O4 0.489150 0.644907 0.012272
O O5 0.802584 0.025310 0.750000
O O6 0.732678 0.979974 0.993227
O O7 0.796186 0.110109 0.989321
O O8 0.864359 0.982988 0.997483
O O9 0.835835 0.250000 0.500000
O O10 0.820862 0.323650 0.750000
O O11 0.921716 0.362601 0.565100
O O12 0.659505 0.546177 0.250000
O O13 0.617001 0.452132 0.459319
O O14 0.995159 0.250000 0.500000
O O15 0.023485 0.173411 0.250000
O O16 0.053157 0.126548 0.527715
O O17 0.521914 0.077424 0.750000
O O18 0.500000 0.000000 0.000000
O O19 0.932771 0.973885 0.250000
O O20 0.000000 0.000000 0.000000
#
# Coordination Sequence:
#
# PCOD8231720 Si02
#       7
#     8   8   8   8   8   8   8
#     4  10  19  34  56  85 115 146 187 229 271 320
#     4  11  21  36  57  79 108 147 185 228 280 330
#     4  10  20  34  53  77 104 133 173 221 274 333
#     4   8  18  35  55  79 110 147 184 224 272 328
#     4  10  20  35  55  78 105 134 171 223 280 332
#     4   9  16  31  54  80 108 139 177 218 262 313
#     4  12  23  36  54  79 107 140 183 231 277 329
#
# _framework density 18.286131000000001
#
# number of rings (size 3 to 8) (size 9 to 14) (size 15 to 20)
#    0.000    2.000    1.429    4.286    0.000    1.143 
#    0.000   10.000    0.000    1.714    0.000    0.000 
#    0.000    0.000    0.000    0.000    0.000    0.000 
#
# Total GULP energy -694013.196354 kJ/mol
# GULP energy per Si atom -12393.092792 kJ/mol
# Density = 1.824451 g / cm^3
# Si number density = 18.286131 Si / 1000 Ang^3
#
#
#
# Elastic Constant Matrix: (Units=GPa)
#
#
# Indices 1 2 3 4 5 6 
#
# 1 117.1001 59.7241 42.9860 0.0000 0.0000 0.0000
# 2 59.7241 97.1139 41.5773 0.0000 0.0000 0.0000
# 3 42.9860 41.5773 104.5634 0.0000 0.0000 0.0000
# 4 0.0000 0.0000 0.0000 34.6247 0.0000 0.0000
# 5 0.0000 0.0000 0.0000 0.0000 21.5391 0.0000
# 6 0.0000 0.0000 0.0000 0.0000 0.0000 27.2439
#
#
#
# Elastic Compliance Matrix: (Units=1/GPa)
#
#
# Indices 1 2 3 4 5 6 
#
# 1 0.013008 -0.006882 -0.002611 0.000000 0.000000 0.000000
# 2 -0.006882 0.016051 -0.003553 0.000000 0.000000 0.000000
# 3 -0.002611 -0.003553 0.012050 0.000000 0.000000 0.000000
# 4 0.000000 0.000000 0.000000 0.028881 0.000000 0.000000
# 5 0.000000 0.000000 0.000000 0.000000 0.046427 0.000000
# 6 0.000000 0.000000 0.000000 0.000000 0.000000 0.036705
#
#
# Mechanical properties :
#
#
# Convention : Reuss Voigt Hill
#
# Bulk Modulus (GPa) = 66.59427 67.48358 67.03892
# Shear Modulus (GPa) = 27.14140 28.31421 27.72780
#
# Velocity S-wave (km/s) = 3.85679 3.93924 3.89823
# Velocity P-wave (km/s) = 7.50534 7.59437 7.54999
#
# Compressibility (1/GPa) = 0.01501631
#
# Stress axis : x y z
#
# Youngs Moduli (GPa) = 76.87429 62.30247 82.98878
#
# Poissons Ratio (x) = 0.42877 0.21670
# Poissons Ratio (y) = 0.52905 0.29486
# Poissons Ratio (z) = 0.20073 0.22136
#
# Static dielectric constant tensor:
#      x y z
#    x 3.744150 0.000000 0.000000 
#    y 0.000000 3.567060 0.000000 
#    z 0.000000 0.000000 3.047610 
# 
# 
# High freq. dielectric constant tensor:
#      x y z
#    x 1.689160 0.000000 0.000000 
#    y 0.000000 1.709760 0.000000 
#    z 0.000000 0.000000 1.713770 
# 
# From -- ./inp_files/8301.got.cif
#   From: 2010.03.12/outbox.cif.g09.slc.cpg/sg57_5_cif.got.tgz:8301.got - 2010.04.16 15:48:40.
