data_PCOD8231605
_publ_section_title
;
Structure prediction by ZEFSAII (Michael W. Deem and Ramdas Pophale) SiO2 
 PCOD8231605
Probable space group: P B C M
;
_chemical_formula_sum "Si O2"
_cell_formula_units_Z 48
_cell_length_a 9.913485
_cell_length_b 27.748032
_cell_length_c 9.049510
_cell_angle_alpha 90.000000
_cell_angle_beta 90.000000
_cell_angle_gamma 90.000000
_cell_volume 2489.336487
_symmetry_space_group_name_H-M "P B C M"
_symmetry_group_IT_number 57
_symmetry_cell_setting 'orthorhombic'
loop_
_space_group_symop_operation_xyz
x,y,z
-x,-y,1/2+z
x,1/2-y,-z
-x,1/2+y,1/2-z
-x,-y,-z
x,y,1/2-z
-x,1/2+y,z
x,1/2-y,1/2+z
loop_
_atom_site_type_symbol
_atom_site_label
_atom_site_fract_x
_atom_site_fract_y
_atom_site_fract_z
Si Si1 0.533654 0.799649 0.578160
Si Si2 0.763049 0.642309 0.579187
Si Si3 0.741977 0.149131 0.080419
Si Si4 0.973895 0.297974 0.419398
Si Si5 0.160880 0.049313 0.421800
Si Si6 0.847226 0.453124 0.579247
O O1 0.493338 0.750000 0.500000
O O2 0.562476 0.789710 0.750000
O O3 0.666460 0.820924 0.504347
O O4 0.413278 0.837620 0.555836
O O5 0.720588 0.639314 0.750000
O O6 0.753217 0.589614 0.507040
O O7 0.915037 0.660873 0.559477
O O8 0.787138 0.155690 0.250000
O O9 0.761516 0.093636 0.032632
O O10 0.832370 0.184358 0.983410
O O11 0.024447 0.250000 0.500000
O O12 0.950527 0.284861 0.250000
O O13 0.195685 0.053092 0.250000
O O14 0.003411 0.057517 0.454597
O O15 0.206593 0.997134 0.480662
O O16 0.826904 0.466959 0.750000
#
# Coordination Sequence:
#
# PCOD8231605 Si02
#       6
#     8   8   8   8   8   8
#     4  11  24  41  61  84 115 155 197 237 289 349
#     4  11  23  39  59  85 116 153 196 241 290 344
#     4  10  21  39  61  86 116 152 192 238 290 344
#     4  11  23  36  56  84 113 146 189 240 289 342
#     4  10  19  33  58  88 119 153 190 238 292 346
#     4   9  18  34  57  86 120 153 187 235 291 346
#
# _framework density 19.282247000000002
#
# number of rings (size 3 to 8) (size 9 to 14) (size 15 to 20)
#    0.000    1.667    1.667    3.000    0.000    7.333 
#    0.000    0.833    0.000    0.000    0.000    0.000 
#    0.000    0.000    0.000    0.000    0.000    0.000 
#
# Total GULP energy -595493.595584 kJ/mol
# GULP energy per Si atom -12406.116575 kJ/mol
# Density = 1.923836 g / cm^3
# Si number density = 19.282247 Si / 1000 Ang^3
#
#
#
# Elastic Constant Matrix: (Units=GPa)
#
#
# Indices 1 2 3 4 5 6 
#
# 1 48.8454 19.0970 34.7813 0.0000 0.0000 0.0000
# 2 19.0970 124.4108 62.1691 0.0000 0.0000 0.0000
# 3 34.7813 62.1691 122.3567 0.0000 0.0000 0.0000
# 4 0.0000 0.0000 0.0000 38.8761 0.0000 0.0000
# 5 0.0000 0.0000 0.0000 0.0000 24.1317 0.0000
# 6 0.0000 0.0000 0.0000 0.0000 0.0000 32.7423
#
#
#
# Elastic Compliance Matrix: (Units=1/GPa)
#
#
# Indices 1 2 3 4 5 6 
#
# 1 0.025683 -0.000394 -0.007100 0.000000 0.000000 0.000000
# 2 -0.000394 0.010779 -0.005365 0.000000 0.000000 0.000000
# 3 -0.007100 -0.005365 0.012917 0.000000 0.000000 0.000000
# 4 0.000000 0.000000 0.000000 0.025723 0.000000 0.000000
# 5 0.000000 0.000000 0.000000 0.000000 0.041439 0.000000
# 6 0.000000 0.000000 0.000000 0.000000 0.000000 0.030541
#
#
# Mechanical properties :
#
#
# Convention : Reuss Voigt Hill
#
# Bulk Modulus (GPa) = 42.26487 58.63419 50.44953
# Shear Modulus (GPa) = 27.67200 31.12108 29.39654
#
# Velocity S-wave (km/s) = 3.79238 4.02179 3.90877
# Velocity P-wave (km/s) = 6.41427 7.21393 6.82582
#
# Compressibility (1/GPa) = 0.02366031
#
# Stress axis : x y z
#
# Youngs Moduli (GPa) = 38.93661 92.77074 77.41714
#
# Poissons Ratio (x) = 0.03657 0.54969
# Poissons Ratio (y) = 0.01535 0.41533
# Poissons Ratio (z) = 0.27646 0.49770
#
# Static dielectric constant tensor:
#      x y z
#    x 3.230730 0.000000 0.000000 
#    y 0.000000 3.623220 0.000000 
#    z 0.000000 0.000000 3.620850 
# 
# 
# High freq. dielectric constant tensor:
#      x y z
#    x 1.727140 0.000000 0.000000 
#    y 0.000000 1.763110 0.000000 
#    z 0.000000 0.000000 1.760610 
# 
# From -- ./inp_files/2053.got.cif
#   From: 2010.03.12/outbox.cif.g09.slc.cpg/sg57_2_cif.got.tgz:2053.got - 2010.04.16 15:48:40.
