data_PCOD8231950
_publ_section_title
;
Structure prediction by ZEFSAII (Michael W. Deem and Ramdas Pophale) SiO2 
 PCOD8231950
Probable space group: P B C M
;
_chemical_formula_sum "Si O2"
_cell_formula_units_Z 64
_cell_length_a 12.159948
_cell_length_b 11.613758
_cell_length_c 23.397677
_cell_angle_alpha 90.000000
_cell_angle_beta 90.000000
_cell_angle_gamma 90.000000
_cell_volume 3304.282964
_symmetry_space_group_name_H-M "P B C M"
_symmetry_group_IT_number 57
_symmetry_cell_setting 'orthorhombic'
loop_
_space_group_symop_operation_xyz
x,y,z
-x,-y,1/2+z
x,1/2-y,-z
-x,1/2+y,1/2-z
-x,-y,-z
x,y,1/2-z
-x,1/2+y,z
x,1/2-y,1/2+z
loop_
_atom_site_type_symbol
_atom_site_label
_atom_site_fract_x
_atom_site_fract_y
_atom_site_fract_z
Si Si1 0.931750 0.500189 0.311958
Si Si2 0.360685 0.196222 0.563047
Si Si3 0.153154 0.622148 0.313383
Si Si4 0.720745 0.447054 0.913287
Si Si5 0.171053 0.352752 0.901539
Si Si6 0.800100 0.075382 0.966302
Si Si7 0.397627 0.773737 0.065560
Si Si8 0.953946 0.295292 0.388978
O O1 0.886284 0.459649 0.250000
O O2 0.833238 0.563751 0.345956
O O3 0.989151 0.396145 0.345729
O O4 0.027996 0.590530 0.302227
O O5 0.354117 0.250000 0.500000
O O6 0.274105 0.266143 0.602593
O O7 0.482218 0.196954 0.591204
O O8 0.333129 0.061675 0.562196
O O9 0.207912 0.641494 0.250000
O O10 0.218946 0.528990 0.352398
O O11 0.146661 0.732830 0.355121
O O12 0.636038 0.343081 0.901618
O O13 0.798772 0.402608 0.965378
O O14 0.184939 0.438681 0.955375
O O15 0.057500 0.281936 0.907051
O O16 0.691154 0.121894 0.932325
O O17 0.905885 0.147153 0.946007
O O18 0.419465 0.750000 0.000000
#
# Coordination Sequence:
#
# PCOD8231950 Si02
#       8
#     8   8   8   8   8   8   8   8
#     4   9  19  36  57  81 114 157 200 241 284 340
#     4  11  22  37  57  89 121 156 197 240 301 357
#     4  10  20  35  56  81 112 151 199 238 281 350
#     4  11  21  38  59  86 117 153 195 244 299 350
#     4  10  21  36  55  87 123 154 193 240 299 355
#     4  10  20  38  58  85 120 155 195 240 297 364
#     4   9  21  35  61  84 112 157 199 245 289 355
#     4  10  19  36  56  87 118 156 191 239 301 357
#
# _framework density 19.368801000000001
#
# number of rings (size 3 to 8) (size 9 to 14) (size 15 to 20)
#    0.000    2.000    2.500    1.125    1.750    2.000 
#    4.500    4.375    0.000    1.500    0.000    0.000 
#    0.000    0.000    0.000    0.000    0.000    0.000 
#
# Total GULP energy -792924.569104 kJ/mol
# GULP energy per Si atom -12389.446392 kJ/mol
# Density = 1.932472 g / cm^3
# Si number density = 19.368801 Si / 1000 Ang^3
#
#
#
# Elastic Constant Matrix: (Units=GPa)
#
#
# Indices 1 2 3 4 5 6 
#
# 1 96.6321 37.7935 36.6634 0.0000 0.0000 0.0000
# 2 37.7935 100.5766 25.8524 0.0000 0.0000 0.0000
# 3 36.6634 25.8524 99.2803 0.0000 0.0000 0.0000
# 4 0.0000 0.0000 0.0000 15.8690 0.0000 0.0000
# 5 0.0000 0.0000 0.0000 0.0000 12.9263 0.0000
# 6 0.0000 0.0000 0.0000 0.0000 0.0000 26.1479
#
#
#
# Elastic Compliance Matrix: (Units=1/GPa)
#
#
# Indices 1 2 3 4 5 6 
#
# 1 0.013406 -0.004035 -0.003900 0.000000 0.000000 0.000000
# 2 -0.004035 0.011870 -0.001601 0.000000 0.000000 0.000000
# 3 -0.003900 -0.001601 0.011930 0.000000 0.000000 0.000000
# 4 0.000000 0.000000 0.000000 0.063016 0.000000 0.000000
# 5 0.000000 0.000000 0.000000 0.000000 0.077362 0.000000
# 6 0.000000 0.000000 0.000000 0.000000 0.000000 0.038244
#
#
# Mechanical properties :
#
#
# Convention : Reuss Voigt Hill
#
# Bulk Modulus (GPa) = 55.14465 55.23417 55.18941
# Shear Modulus (GPa) = 20.75155 24.06727 22.40941
#
# Velocity S-wave (km/s) = 3.27676 3.52885 3.40514
# Velocity P-wave (km/s) = 6.54591 6.72181 6.63444
#
# Compressibility (1/GPa) = 0.01813412
#
# Stress axis : x y z
#
# Youngs Moduli (GPa) = 74.59070 84.24261 83.82482
#
# Poissons Ratio (x) = 0.33994 0.32693
# Poissons Ratio (y) = 0.30099 0.13419
# Poissons Ratio (z) = 0.29091 0.13486
#
# Static dielectric constant tensor:
#      x y z
#    x 3.557340 0.000000 0.000000 
#    y 0.000000 3.666850 0.000000 
#    z 0.000000 0.000000 3.649690 
# 
# 
# High freq. dielectric constant tensor:
#      x y z
#    x 1.731570 0.000000 0.000000 
#    y 0.000000 1.766860 0.000000 
#    z 0.000000 0.000000 1.730390 
# 
# From -- ./inp_files/27298.got.cif
#   From: 2010.03.12/outbox.cif.g09.slc.cpg/sg57_14_cif.got.tgz:27298.got - 2010.04.16 15:48:40.
