data_PCOD8231577
_publ_section_title
;
Structure prediction by ZEFSAII (Michael W. Deem and Ramdas Pophale) SiO2 
 PCOD8231577
Probable space group: P B C M
;
_chemical_formula_sum "Si O2"
_cell_formula_units_Z 48
_cell_length_a 19.964492
_cell_length_b 13.941609
_cell_length_c 8.588599
_cell_angle_alpha 90.000000
_cell_angle_beta 90.000000
_cell_angle_gamma 90.000000
_cell_volume 2390.526094
_symmetry_space_group_name_H-M "P B C M"
_symmetry_group_IT_number 57
_symmetry_cell_setting 'orthorhombic'
loop_
_space_group_symop_operation_xyz
x,y,z
-x,-y,1/2+z
x,1/2-y,-z
-x,1/2+y,1/2-z
-x,-y,-z
x,y,1/2-z
-x,1/2+y,z
x,1/2-y,1/2+z
loop_
_atom_site_type_symbol
_atom_site_label
_atom_site_fract_x
_atom_site_fract_y
_atom_site_fract_z
Si Si1 0.531197 0.851120 0.564981
Si Si2 0.906749 0.546595 0.431645
Si Si3 0.029143 0.851586 0.432199
Si Si4 0.771479 0.852287 0.567579
Si Si5 0.615658 0.348494 0.066199
Si Si6 0.650053 0.963834 0.066925
O O1 0.557543 0.750000 0.500000
O O2 0.538231 0.854514 0.750000
O O3 0.455130 0.868289 0.515797
O O4 0.576494 0.932343 0.487605
O O5 0.922892 0.556653 0.250000
O O6 0.921780 0.437850 0.489366
O O7 0.830084 0.571674 0.469346
O O8 0.953568 0.623319 0.518275
O O9 0.053257 0.750000 0.500000
O O10 0.032144 0.840688 0.250000
O O11 0.793135 0.750000 0.500000
O O12 0.757443 0.843411 0.750000
O O13 0.704468 0.886194 0.483183
O O14 0.605928 0.341083 0.250000
O O15 0.646901 0.250000 0.000000
O O16 0.665294 0.434842 0.018592
O O17 0.651604 0.978716 0.250000
#
# Coordination Sequence:
#
# PCOD8231577 Si02
#       6
#     8   8   8   8   8   8
#     4  11  21  36  57  84 114 146 183 229 282 335
#     4   9  20  37  57  82 114 151 190 231 276 328
#     4  10  19  33  56  86 117 149 186 230 277 326
#     4  11  23  40  59  82 112 147 186 229 278 333
#     4  11  22  39  60  84 111 143 183 230 281 334
#     4  12  24  39  57  81 111 147 188 230 278 332
#
# _framework density 20.079262
#
# number of rings (size 3 to 8) (size 9 to 14) (size 15 to 20)
#    0.000    1.333    0.000    8.000    0.000    3.333 
#    0.000    0.833    0.000    2.000    0.000    0.000 
#    0.000    0.000    0.000    0.000    0.000    0.000 
#
# Total GULP energy -595385.165291 kJ/mol
# GULP energy per Si atom -12403.857610 kJ/mol
# Density = 2.003356 g / cm^3
# Si number density = 20.079262 Si / 1000 Ang^3
#
#
#
# Elastic Constant Matrix: (Units=GPa)
#
#
# Indices 1 2 3 4 5 6 
#
# 1 42.4447 22.9886 12.5133 0.0000 0.0000 0.0000
# 2 22.9886 136.6764 37.0724 0.0000 0.0000 0.0000
# 3 12.5133 37.0724 84.3176 0.0000 0.0000 0.0000
# 4 0.0000 0.0000 0.0000 38.7597 0.0000 0.0000
# 5 0.0000 0.0000 0.0000 0.0000 25.6260 0.0000
# 6 0.0000 0.0000 0.0000 0.0000 0.0000 23.9647
#
#
#
# Elastic Compliance Matrix: (Units=1/GPa)
#
#
# Indices 1 2 3 4 5 6 
#
# 1 0.026283 -0.003818 -0.002222 0.000000 0.000000 0.000000
# 2 -0.003818 0.008862 -0.003330 0.000000 0.000000 0.000000
# 3 -0.002222 -0.003330 0.013654 0.000000 0.000000 0.000000
# 4 0.000000 0.000000 0.000000 0.025800 0.000000 0.000000
# 5 0.000000 0.000000 0.000000 0.000000 0.039023 0.000000
# 6 0.000000 0.000000 0.000000 0.000000 0.000000 0.041728
#
#
# Mechanical properties :
#
#
# Convention : Reuss Voigt Hill
#
# Bulk Modulus (GPa) = 33.26765 45.39862 39.33313
# Shear Modulus (GPa) = 27.15788 30.39437 28.77613
#
# Velocity S-wave (km/s) = 3.68167 3.89488 3.78977
# Velocity P-wave (km/s) = 5.88872 6.54870 6.22746
#
# Compressibility (1/GPa) = 0.03005924
#
# Stress axis : x y z
#
# Youngs Moduli (GPa) = 38.04736 112.84253 73.24044
#
# Poissons Ratio (x) = 0.43084 0.16273
# Poissons Ratio (y) = 0.14527 0.24387
# Poissons Ratio (z) = 0.08454 0.37574
#
# Static dielectric constant tensor:
#      x y z
#    x 3.387450 0.000000 0.000000 
#    y 0.000000 4.189570 0.000000 
#    z 0.000000 0.000000 3.719360 
# 
# 
# High freq. dielectric constant tensor:
#      x y z
#    x 1.754320 0.000000 0.000000 
#    y 0.000000 1.802850 0.000000 
#    z 0.000000 0.000000 1.797840 
# 
# From -- ./inp_files/7871.got.cif
#   From: 2010.03.12/outbox.cif.g09.slc.cpg/sg57_4_cif.got.tgz:7871.got - 2010.04.16 15:48:40.
