data_PCOD8231423
_publ_section_title
;
Structure prediction by ZEFSAII (Michael W. Deem and Ramdas Pophale) SiO2 
 PCOD8231423
Probable space group: P B C M
;
_chemical_formula_sum "Si O2"
_cell_formula_units_Z 48
_cell_length_a 16.563631
_cell_length_b 18.081159
_cell_length_c 8.575526
_cell_angle_alpha 90.000000
_cell_angle_beta 90.000000
_cell_angle_gamma 90.000000
_cell_volume 2568.281244
_symmetry_space_group_name_H-M "P B C M"
_symmetry_group_IT_number 57
_symmetry_cell_setting 'orthorhombic'
loop_
_space_group_symop_operation_xyz
x,y,z
-x,-y,1/2+z
x,1/2-y,-z
-x,1/2+y,1/2-z
-x,-y,-z
x,y,1/2-z
-x,1/2+y,z
x,1/2-y,1/2+z
loop_
_atom_site_type_symbol
_atom_site_label
_atom_site_fract_x
_atom_site_fract_y
_atom_site_fract_z
Si Si1 0.651721 0.831522 0.434938
Si Si2 0.915672 0.026675 0.434632
Si Si3 0.504390 0.418310 0.064954
Si Si4 0.679733 0.400591 0.066149
Si Si5 0.236572 0.048782 0.434559
Si Si6 0.839532 0.171534 0.564696
O O1 0.655793 0.750000 0.500000
O O2 0.653999 0.830736 0.250000
O O3 0.569185 0.868999 0.498473
O O4 0.729139 0.874730 0.499646
O O5 0.917720 0.030864 0.250000
O O6 0.898157 0.108055 0.501905
O O7 0.849875 0.966887 0.489389
O O8 0.000000 0.000000 0.500000
O O9 0.502466 0.423067 0.250000
O O10 0.589369 0.381844 0.006021
O O11 0.500000 0.500000 0.000000
O O12 0.682262 0.396351 0.250000
O O13 0.701946 0.483906 0.014140
O O14 0.747831 0.344145 0.002144
O O15 0.225860 0.053521 0.250000
O O16 0.869039 0.250000 0.500000
O O17 0.843825 0.171121 0.750000
#
# Coordination Sequence:
#
# PCOD8231423 Si02
#       6
#     8   8   8   8   8   8
#     4  11  23  36  53  79 113 152 197 242 289 340
#     4  11  22  39  63  91 119 149 189 230 278 342
#     4  10  19  33  53  79 109 148 196 242 286 336
#     4   8  16  31  53  78 108 145 186 229 279 335
#     4  10  19  36  60  82 110 146 185 231 285 338
#     4  10  20  36  57  85 119 155 191 235 289 338
#
# _framework density 18.689543
#
# number of rings (size 3 to 8) (size 9 to 14) (size 15 to 20)
#    0.000    2.000    1.667    4.000    0.000    1.333 
#    0.000    1.667    0.000    0.000    0.000    0.000 
#    0.000    0.000    0.000    0.000    0.000    0.000 
#
# Total GULP energy -595120.021305 kJ/mol
# GULP energy per Si atom -12398.333777 kJ/mol
# Density = 1.864700 g / cm^3
# Si number density = 18.689543 Si / 1000 Ang^3
#
#
#
# Elastic Constant Matrix: (Units=GPa)
#
#
# Indices 1 2 3 4 5 6 
#
# 1 150.9515 79.6921 46.4379 0.0000 0.0000 0.0000
# 2 79.6921 148.6873 46.7818 0.0000 0.0000 0.0000
# 3 46.4379 46.7818 92.4798 0.0000 0.0000 0.0000
# 4 0.0000 0.0000 0.0000 31.0544 0.0000 0.0000
# 5 0.0000 0.0000 0.0000 0.0000 25.3645 0.0000
# 6 0.0000 0.0000 0.0000 0.0000 0.0000 21.9877
#
#
#
# Elastic Compliance Matrix: (Units=1/GPa)
#
#
# Indices 1 2 3 4 5 6 
#
# 1 0.009769 -0.004391 -0.002684 0.000000 0.000000 0.000000
# 2 -0.004391 0.009973 -0.002840 0.000000 0.000000 0.000000
# 3 -0.002684 -0.002840 0.013597 0.000000 0.000000 0.000000
# 4 0.000000 0.000000 0.000000 0.032202 0.000000 0.000000
# 5 0.000000 0.000000 0.000000 0.000000 0.039425 0.000000
# 6 0.000000 0.000000 0.000000 0.000000 0.000000 0.045480
#
#
# Mechanical properties :
#
#
# Convention : Reuss Voigt Hill
#
# Bulk Modulus (GPa) = 74.02533 81.99358 78.00946
# Shear Modulus (GPa) = 28.60777 30.29510 29.45143
#
# Velocity S-wave (km/s) = 3.91664 4.03049 3.97397
# Velocity P-wave (km/s) = 7.75547 8.10101 7.93012
#
# Compressibility (1/GPa) = 0.01350889
#
# Stress axis : x y z
#
# Youngs Moduli (GPa) = 102.36923 100.27513 73.54388
#
# Poissons Ratio (x) = 0.44033 0.19738
# Poissons Ratio (y) = 0.44953 0.20884
# Poissons Ratio (z) = 0.27474 0.28475
#
# Static dielectric constant tensor:
#      x y z
#    x 4.365050 0.000000 0.000000 
#    y 0.000000 3.346330 0.000000 
#    z 0.000000 0.000000 3.370370 
# 
# 
# High freq. dielectric constant tensor:
#      x y z
#    x 1.728980 0.000000 0.000000 
#    y 0.000000 1.716730 0.000000 
#    z 0.000000 0.000000 1.723040 
# 
# From -- ./inp_files/4545.got.cif
#   From: 2010.03.12/outbox.cif.g09.slc.cpg/sg57_3_cif.got.tgz:4545.got - 2010.04.16 15:48:40.
