data_PCOD8231793
_publ_section_title
;
Structure prediction by ZEFSAII (Michael W. Deem and Ramdas Pophale) SiO2 
 PCOD8231793
Probable space group: P B C M
;
_chemical_formula_sum "Si O2"
_cell_formula_units_Z 64
_cell_length_a 17.964704
_cell_length_b 11.222872
_cell_length_c 14.749144
_cell_angle_alpha 90.000000
_cell_angle_beta 90.000000
_cell_angle_gamma 90.000000
_cell_volume 2973.657126
_symmetry_space_group_name_H-M "P B C M"
_symmetry_group_IT_number 57
_symmetry_cell_setting 'orthorhombic'
loop_
_space_group_symop_operation_xyz
x,y,z
-x,-y,1/2+z
x,1/2-y,-z
-x,1/2+y,1/2-z
-x,-y,-z
x,y,1/2-z
-x,1/2+y,z
x,1/2-y,1/2+z
loop_
_atom_site_type_symbol
_atom_site_label
_atom_site_fract_x
_atom_site_fract_y
_atom_site_fract_z
Si Si1 0.035930 0.195059 0.850677
Si Si2 0.443684 0.034579 0.849865
Si Si3 0.802284 0.792721 0.401279
Si Si4 0.955244 0.427696 0.643469
Si Si5 0.643392 0.736804 0.392570
Si Si6 0.653479 0.378072 0.525189
Si Si7 0.214757 0.556850 0.356954
Si Si8 0.609543 0.482363 0.350640
O O1 0.001606 0.190449 0.750000
O O2 0.124304 0.218785 0.839972
O O3 0.999422 0.312793 0.899813
O O4 0.022854 0.061776 0.896361
O O5 0.442354 0.975194 0.750000
O O6 0.391600 0.149412 0.845429
O O7 0.412619 0.941833 0.921845
O O8 0.528233 0.071518 0.874056
O O9 0.827458 0.750000 0.500000
O O10 0.731006 0.719155 0.365536
O O11 0.773508 0.927846 0.400523
O O12 0.971699 0.436377 0.750000
O O13 0.868967 0.399070 0.625158
O O14 0.636557 0.750000 0.500000
O O15 0.599915 0.624450 0.353752
O O16 0.622337 0.250000 0.500000
O O17 0.727733 0.362672 0.586225
O O18 0.668297 0.443790 0.428422
O O19 0.234105 0.558452 0.250000
O O20 0.636330 0.441682 0.250000
#
# Coordination Sequence:
#
# PCOD8231793 Si02
#       8
#     8   8   8   8   8   8   8   8
#     4   9  17  32  55  84 119 161 205 255 310 370
#     4  11  24  41  65  91 119 162 209 251 314 381
#     4  10  19  34  58  91 122 153 203 258 308 368
#     4   8  16  32  58  88 119 157 208 261 312 373
#     4  11  21  39  67  89 122 161 205 261 312 368
#     4  12  25  41  63  89 124 165 206 259 308 370
#     4  10  20  40  65  89 120 167 219 258 305 378
#     4  11  26  42  60  93 128 159 201 262 322 374
#
# _framework density 21.522321000000002
#
# number of rings (size 3 to 8) (size 9 to 14) (size 15 to 20)
#    0.000    1.750    2.500    3.000    1.750    2.500 
#    0.000    5.625    0.000    1.500    0.000    0.000 
#    0.000    0.000    0.000    0.375    0.000    0.000 
#
# Total GULP energy -793015.366483 kJ/mol
# GULP energy per Si atom -12390.865101 kJ/mol
# Density = 2.147334 g / cm^3
# Si number density = 21.522321 Si / 1000 Ang^3
#
#
#
# Elastic Constant Matrix: (Units=GPa)
#
#
# Indices 1 2 3 4 5 6 
#
# 1 84.0400 33.6441 25.7889 0.0000 0.0000 0.0000
# 2 33.6441 117.8103 41.9654 0.0000 0.0000 0.0000
# 3 25.7889 41.9654 93.9112 0.0000 0.0000 0.0000
# 4 0.0000 0.0000 0.0000 13.1355 0.0000 0.0000
# 5 0.0000 0.0000 0.0000 0.0000 22.6387 0.0000
# 6 0.0000 0.0000 0.0000 0.0000 0.0000 28.2794
#
#
#
# Elastic Compliance Matrix: (Units=1/GPa)
#
#
# Indices 1 2 3 4 5 6 
#
# 1 0.013885 -0.003101 -0.002427 0.000000 0.000000 0.000000
# 2 -0.003101 0.010788 -0.003969 0.000000 0.000000 0.000000
# 3 -0.002427 -0.003969 0.013089 0.000000 0.000000 0.000000
# 4 0.000000 0.000000 0.000000 0.076130 0.000000 0.000000
# 5 0.000000 0.000000 0.000000 0.000000 0.044172 0.000000
# 6 0.000000 0.000000 0.000000 0.000000 0.000000 0.035361
#
#
# Mechanical properties :
#
#
# Convention : Reuss Voigt Hill
#
# Bulk Modulus (GPa) = 53.28491 55.39534 54.34013
# Shear Modulus (GPa) = 22.86502 25.76826 24.31664
#
# Velocity S-wave (km/s) = 3.26296 3.46393 3.36495
# Velocity P-wave (km/s) = 6.24561 6.46474 6.35612
#
# Compressibility (1/GPa) = 0.01876704
#
# Stress axis : x y z
#
# Youngs Moduli (GPa) = 72.01863 92.69961 76.40246
#
# Poissons Ratio (x) = 0.28743 0.18546
# Poissons Ratio (y) = 0.22330 0.30325
# Poissons Ratio (z) = 0.17482 0.36793
#
# Static dielectric constant tensor:
#      x y z
#    x 3.794770 0.000000 0.000000 
#    y 0.000000 4.000210 0.000000 
#    z 0.000000 0.000000 4.839460 
# 
# 
# High freq. dielectric constant tensor:
#      x y z
#    x 1.834880 0.000000 0.000000 
#    y 0.000000 1.836120 0.000000 
#    z 0.000000 0.000000 1.840390 
# 
# From -- ./inp_files/19144.got.cif
#   From: 2010.03.12/outbox.cif.g09.slc.cpg/sg57_10_cif.got.tgz:19144.got - 2010.04.16 15:48:40.
