data_PCOD8231319
_publ_section_title
;
Structure prediction by ZEFSAII (Michael W. Deem and Ramdas Pophale) SiO2 
 PCOD8231319
Probable space group: P B C M
;
_chemical_formula_sum "Si O2"
_cell_formula_units_Z 64
_cell_length_a 20.944877
_cell_length_b 18.658602
_cell_length_c 9.061936
_cell_angle_alpha 90.000000
_cell_angle_beta 90.000000
_cell_angle_gamma 90.000000
_cell_volume 3541.423835
_symmetry_space_group_name_H-M "P B C M"
_symmetry_group_IT_number 57
_symmetry_cell_setting 'orthorhombic'
loop_
_space_group_symop_operation_xyz
x,y,z
-x,-y,1/2+z
x,1/2-y,-z
-x,1/2+y,1/2-z
-x,-y,-z
x,y,1/2-z
-x,1/2+y,z
x,1/2-y,1/2+z
loop_
_atom_site_type_symbol
_atom_site_label
_atom_site_fract_x
_atom_site_fract_y
_atom_site_fract_z
Si Si1 0.994467 0.575712 0.422386
Si Si2 0.865688 0.421078 0.578808
Si Si3 0.749987 0.326727 0.573428
Si Si4 0.365539 0.921390 0.578818
Si Si5 0.628215 0.916595 0.424722
Si Si6 0.750006 0.825879 0.076301
Si Si7 0.871643 0.916900 0.424708
Si Si8 0.505401 0.575718 0.422373
O O1 0.980518 0.565958 0.250000
O O2 0.935243 0.617148 0.498735
O O3 0.000000 0.500000 0.500000
O O4 0.063657 0.613448 0.447684
O O5 0.850393 0.428598 0.750000
O O6 0.812126 0.368991 0.511476
O O7 0.860899 0.502056 0.514777
O O8 0.749747 0.250000 0.500000
O O9 0.749951 0.318448 0.750000
O O10 0.688081 0.369402 0.511441
O O11 0.350238 0.928940 0.750000
O O12 0.436142 0.886714 0.552381
O O13 0.360881 0.002379 0.514779
O O14 0.617784 0.915506 0.250000
O O15 0.687807 0.869221 0.475092
O O16 0.564544 0.882709 0.501247
O O17 0.750023 0.814559 0.250000
O O18 0.811919 0.869741 0.024964
O O19 0.750326 0.750000 0.000000
O O20 0.882111 0.915767 0.250000
O O21 0.500000 0.500000 0.500000
O O22 0.519398 0.565990 0.250000
#
# Coordination Sequence:
#
# PCOD8231319 Si02
#       8
#     8   8   8   8   8   8   8   8
#     4   9  16  28  48  75 101 125 156 200 246 290
#     4   8  15  29  51  72  92 121 158 194 235 282
#     4  10  19  33  49  67  93 126 160 196 234 280
#     4   8  15  29  51  72  92 121 158 194 235 282
#     4   9  17  32  53  75  95 124 164 204 242 287
#     4  10  21  35  51  71  99 130 164 204 248 298
#     4   9  17  32  53  75  95 124 164 204 242 287
#     4   9  16  28  48  75 101 125 156 200 246 290
#
# _framework density 18.071828
#
# number of rings (size 3 to 8) (size 9 to 14) (size 15 to 20)
#    0.000    3.000    0.000    3.000    0.000    4.000 
#    0.000    7.500    0.000    7.500    0.000    0.000 
#    0.000    0.000    0.000    0.000    0.000    0.000 
#
# Total GULP energy -793007.209499 kJ/mol
# GULP energy per Si atom -12390.737648 kJ/mol
# Density = 1.803070 g / cm^3
# Si number density = 18.071828 Si / 1000 Ang^3
#
#
#
# Elastic Constant Matrix: (Units=GPa)
#
#
# Indices 1 2 3 4 5 6 
#
# 1 203.1640 77.4966 53.5250 0.0000 0.0000 0.0000
# 2 77.4966 91.3543 24.9168 0.0000 0.0000 0.0000
# 3 53.5250 24.9168 44.7411 0.0000 0.0000 0.0000
# 4 0.0000 0.0000 0.0000 24.3199 0.0000 0.0000
# 5 0.0000 0.0000 0.0000 0.0000 30.9221 0.0000
# 6 0.0000 0.0000 0.0000 0.0000 0.0000 6.5453
#
#
#
# Elastic Compliance Matrix: (Units=1/GPa)
#
#
# Indices 1 2 3 4 5 6 
#
# 1 0.009109 -0.005607 -0.007775 0.000000 0.000000 0.000000
# 2 -0.005607 0.016358 -0.002402 0.000000 0.000000 0.000000
# 3 -0.007775 -0.002402 0.032990 0.000000 0.000000 0.000000
# 4 0.000000 0.000000 0.000000 0.041119 0.000000 0.000000
# 5 0.000000 0.000000 0.000000 0.000000 0.032339 0.000000
# 6 0.000000 0.000000 0.000000 0.000000 0.000000 0.152781
#
#
# Mechanical properties :
#
#
# Convention : Reuss Voigt Hill
#
# Bulk Modulus (GPa) = 37.19003 72.34847 54.76925
# Shear Modulus (GPa) = 15.37383 24.57886 19.97634
#
# Velocity S-wave (km/s) = 2.91985 3.69191 3.32834
# Velocity P-wave (km/s) = 5.65606 7.63507 6.71883
#
# Compressibility (1/GPa) = 0.02688893
#
# Stress axis : x y z
#
# Youngs Moduli (GPa) = 109.77843 61.13250 30.31188
#
# Poissons Ratio (x) = 0.34276 0.23568
# Poissons Ratio (y) = 0.61550 0.07282
# Poissons Ratio (z) = 0.85355 0.14686
#
# Static dielectric constant tensor:
#      x y z
#    x 4.035590 0.000000 0.000000 
#    y 0.000000 3.057570 0.000000 
#    z 0.000000 0.000000 3.238460 
# 
# 
# High freq. dielectric constant tensor:
#      x y z
#    x 1.728290 0.000000 0.000000 
#    y 0.000000 1.658510 0.000000 
#    z 0.000000 0.000000 1.674240 
# 
# From -- ./inp_files/8616.got.cif
#   From: 2010.03.12/outbox.cif.g09.slc.cpg/sg57_5_cif.got.tgz:8616.got - 2010.04.16 15:48:40.
