data_PCOD8231110
_publ_section_title
;
Structure prediction by ZEFSAII (Michael W. Deem and Ramdas Pophale) SiO2 
 PCOD8231110
Probable space group: P B C M
;
_chemical_formula_sum "Si O2"
_cell_formula_units_Z 64
_cell_length_a 19.917751
_cell_length_b 19.743621
_cell_length_c 9.141831
_cell_angle_alpha 90.000000
_cell_angle_beta 90.000000
_cell_angle_gamma 90.000000
_cell_volume 3595.011574
_symmetry_space_group_name_H-M "P B C M"
_symmetry_group_IT_number 57
_symmetry_cell_setting 'orthorhombic'
loop_
_space_group_symop_operation_xyz
x,y,z
-x,-y,1/2+z
x,1/2-y,-z
-x,1/2+y,1/2-z
-x,-y,-z
x,y,1/2-z
-x,1/2+y,z
x,1/2-y,1/2+z
loop_
_atom_site_type_symbol
_atom_site_label
_atom_site_fract_x
_atom_site_fract_y
_atom_site_fract_z
Si Si1 0.016976 0.316477 0.919713
Si Si2 0.814938 0.050700 0.580225
Si Si3 0.452534 0.052219 0.422005
Si Si4 0.290088 0.314807 0.086378
Si Si5 0.138404 0.818437 0.577665
Si Si6 0.701563 0.551754 0.418894
Si Si7 0.550444 0.813920 0.414718
Si Si8 0.940990 0.538497 0.078983
O O1 0.024472 0.301421 0.750000
O O2 0.059545 0.382363 0.968749
O O3 0.939483 0.330184 0.961683
O O4 0.045306 0.250000 0.000000
O O5 0.822090 0.070971 0.750000
O O6 0.819964 0.118000 0.483591
O O7 0.743612 0.015810 0.546257
O O8 0.870923 0.995548 0.535659
O O9 0.466008 0.052775 0.250000
O O10 0.375232 0.035195 0.459336
O O11 0.473591 0.123360 0.489805
O O12 0.500000 0.000000 0.500000
O O13 0.260187 0.314425 0.250000
O O14 0.369813 0.309088 0.091362
O O15 0.260211 0.250000 0.000000
O O16 0.269216 0.384797 0.008945
O O17 0.164492 0.750000 0.500000
O O18 0.150846 0.812267 0.750000
O O19 0.708321 0.572830 0.250000
O O20 0.519972 0.750000 0.500000
O O21 0.521151 0.818012 0.250000
O O22 0.956092 0.533819 0.250000
O O23 0.000000 0.500000 0.000000
#
# Coordination Sequence:
#
# PCOD8231110 Si02
#       8
#     8   8   8   8   8   8   8   8
#     4   9  18  31  47  70  98 129 165 206 246 288
#     4  10  20  34  53  75 102 135 167 205 254 301
#     4  10  19  32  51  74 101 132 168 209 254 302
#     4   9  16  27  46  70  96 129 167 205 243 288
#     4  10  19  32  51  75 101 128 167 211 252 298
#     4   9  19  34  50  72 102 135 169 207 251 302
#     4   9  16  27  45  71 100 128 162 202 244 291
#     4  10  19  32  50  73 100 129 164 204 247 293
#
# _framework density 17.802447000000001
#
# number of rings (size 3 to 8) (size 9 to 14) (size 15 to 20)
#    0.000    2.500    1.250    1.500    0.000    5.000 
#    0.000    0.625    0.000    2.250    0.000    3.500 
#    0.000    0.000    0.000    0.000    0.000    0.000 
#
# Total GULP energy -793584.860293 kJ/mol
# GULP energy per Si atom -12399.763442 kJ/mol
# Density = 1.776193 g / cm^3
# Si number density = 17.802447 Si / 1000 Ang^3
#
#
#
# Elastic Constant Matrix: (Units=GPa)
#
#
# Indices 1 2 3 4 5 6 
#
# 1 51.0377 52.0038 35.9263 0.0000 0.0000 0.0000
# 2 52.0038 168.0899 75.4271 0.0000 0.0000 0.0000
# 3 35.9263 75.4271 102.1138 0.0000 0.0000 0.0000
# 4 0.0000 0.0000 0.0000 40.8051 0.0000 0.0000
# 5 0.0000 0.0000 0.0000 0.0000 16.5821 0.0000
# 6 0.0000 0.0000 0.0000 0.0000 0.0000 23.2888
#
#
#
# Elastic Compliance Matrix: (Units=1/GPa)
#
#
# Indices 1 2 3 4 5 6 
#
# 1 0.030650 -0.006946 -0.005653 0.000000 0.000000 0.000000
# 2 -0.006946 0.010473 -0.005292 0.000000 0.000000 0.000000
# 3 -0.005653 -0.005292 0.015691 0.000000 0.000000 0.000000
# 4 0.000000 0.000000 0.000000 0.024507 0.000000 0.000000
# 5 0.000000 0.000000 0.000000 0.000000 0.060306 0.000000
# 6 0.000000 0.000000 0.000000 0.000000 0.000000 0.042939
#
#
# Mechanical properties :
#
#
# Convention : Reuss Voigt Hill
#
# Bulk Modulus (GPa) = 47.54665 71.99508 59.77087
# Shear Modulus (GPa) = 21.99178 26.66080 24.32629
#
# Velocity S-wave (km/s) = 3.51853 3.87407 3.70057
# Velocity P-wave (km/s) = 6.57820 7.78075 7.20461
#
# Compressibility (1/GPa) = 0.02103197
#
# Stress axis : x y z
#
# Youngs Moduli (GPa) = 32.62662 95.48497 63.73142
#
# Poissons Ratio (x) = 0.66323 0.36026
# Poissons Ratio (y) = 0.22662 0.33727
# Poissons Ratio (z) = 0.18443 0.50532
#
# Static dielectric constant tensor:
#      x y z
#    x 4.042020 0.000000 0.000000 
#    y 0.000000 3.438870 0.000000 
#    z 0.000000 0.000000 3.381030 
# 
# 
# High freq. dielectric constant tensor:
#      x y z
#    x 1.642000 0.000000 0.000000 
#    y 0.000000 1.699690 0.000000 
#    z 0.000000 0.000000 1.696970 
# 
# From -- ./inp_files/8632.got.cif
#   From: 2010.03.12/outbox.cif.g09.slc.cpg/sg57_5_cif.got.tgz:8632.got - 2010.04.16 15:48:40.
