data_PCOD8231785
_publ_section_title
;
Structure prediction by ZEFSAII (Michael W. Deem and Ramdas Pophale) SiO2 
 PCOD8231785
Probable space group: P B C M
;
_chemical_formula_sum "Si O2"
_cell_formula_units_Z 56
_cell_length_a 10.312261
_cell_length_b 20.123993
_cell_length_c 13.613512
_cell_angle_alpha 90.000000
_cell_angle_beta 90.000000
_cell_angle_gamma 90.000000
_cell_volume 2825.128670
_symmetry_space_group_name_H-M "P B C M"
_symmetry_group_IT_number 57
_symmetry_cell_setting 'orthorhombic'
loop_
_space_group_symop_operation_xyz
x,y,z
-x,-y,1/2+z
x,1/2-y,-z
-x,1/2+y,1/2-z
-x,-y,-z
x,y,1/2-z
-x,1/2+y,z
x,1/2-y,1/2+z
loop_
_atom_site_type_symbol
_atom_site_label
_atom_site_fract_x
_atom_site_fract_y
_atom_site_fract_z
Si Si1 0.537563 0.919636 0.951286
Si Si2 0.409553 0.147807 0.639405
Si Si3 0.278810 0.979167 0.982639
Si Si4 0.861704 0.913422 0.361779
Si Si5 0.488188 0.785703 0.635262
Si Si6 0.192099 0.725110 0.136118
Si Si7 0.112122 0.856972 0.039175
O O1 0.400035 0.950672 0.918204
O O2 0.567050 0.851244 0.895765
O O3 0.525286 0.906953 0.069292
O O4 0.659641 0.969502 0.936727
O O5 0.464392 0.138631 0.750000
O O6 0.254756 0.139524 0.638023
O O7 0.445208 0.219481 0.591929
O O8 0.181167 0.016026 0.908208
O O9 0.206394 0.920482 0.039660
O O10 0.909700 0.926222 0.250000
O O11 0.971606 0.881353 0.428903
O O12 0.498639 0.778819 0.750000
O O13 0.338887 0.790122 0.602249
O O14 0.166639 0.708577 0.250000
O O15 0.163548 0.802630 0.116893
O O16 0.103258 0.676786 0.069213
#
# Coordination Sequence:
#
# PCOD8231785 Si02
#       7
#     8   8   8   8   8   8   8
#     4  10  19  35  58  85 122 150 190 248 302 356
#     4   9  19  35  59  88 117 153 195 241 301 359
#     4  10  21  36  58  85 115 159 198 237 294 353
#     4  10  22  40  60  85 120 164 205 242 291 353
#     4  10  19  34  58  87 118 149 189 247 306 356
#     4  10  22  38  62  90 114 149 195 248 306 354
#     4  11  21  39  62  84 121 156 204 245 288 349
#
# _framework density 19.822105000000001
#
# number of rings (size 3 to 8) (size 9 to 14) (size 15 to 20)
#    0.000    2.000    1.429    2.143    2.000    1.143 
#   10.286    4.286    0.000    0.857    0.000    0.000 
#    0.000    0.000    0.000    0.000    0.000    0.000 
#
# Total GULP energy -694199.561819 kJ/mol
# GULP energy per Si atom -12396.420747 kJ/mol
# Density = 1.977699 g / cm^3
# Si number density = 19.822105 Si / 1000 Ang^3
#
#
#
# Elastic Constant Matrix: (Units=GPa)
#
#
# Indices 1 2 3 4 5 6 
#
# 1 78.3167 50.6006 46.5206 0.0000 0.0000 0.0000
# 2 50.6006 127.4207 32.2850 0.0000 0.0000 0.0000
# 3 46.5206 32.2850 62.2812 0.0000 0.0000 0.0000
# 4 0.0000 0.0000 0.0000 25.9007 0.0000 0.0000
# 5 0.0000 0.0000 0.0000 0.0000 24.1851 0.0000
# 6 0.0000 0.0000 0.0000 0.0000 0.0000 42.5114
#
#
#
# Elastic Compliance Matrix: (Units=1/GPa)
#
#
# Indices 1 2 3 4 5 6 
#
# 1 0.026860 -0.006427 -0.016731 0.000000 0.000000 0.000000
# 2 -0.006427 0.010573 -0.000680 0.000000 0.000000 0.000000
# 3 -0.016731 -0.000680 0.028906 0.000000 0.000000 0.000000
# 4 0.000000 0.000000 0.000000 0.038609 0.000000 0.000000
# 5 0.000000 0.000000 0.000000 0.000000 0.041348 0.000000
# 6 0.000000 0.000000 0.000000 0.000000 0.000000 0.023523
#
#
# Mechanical properties :
#
#
# Convention : Reuss Voigt Hill
#
# Bulk Modulus (GPa) = 53.58480 58.53677 56.06079
# Shear Modulus (GPa) = 22.34995 27.76028 25.05512
#
# Velocity S-wave (km/s) = 3.36151 3.74635 3.55913
# Velocity P-wave (km/s) = 6.49291 6.95044 6.72557
#
# Compressibility (1/GPa) = 0.01866201
#
# Stress axis : x y z
#
# Youngs Moduli (GPa) = 37.23072 94.58431 34.59526
#
# Poissons Ratio (x) = 0.60791 0.57881
# Poissons Ratio (y) = 0.23929 0.02352
# Poissons Ratio (z) = 0.62290 0.06430
#
# Static dielectric constant tensor:
#      x y z
#    x 3.544480 0.000000 0.000000 
#    y 0.000000 3.838140 0.000000 
#    z 0.000000 0.000000 3.522560 
# 
# 
# High freq. dielectric constant tensor:
#      x y z
#    x 1.753370 0.000000 0.000000 
#    y 0.000000 1.790950 0.000000 
#    z 0.000000 0.000000 1.760960 
# 
# From -- ./inp_files/16757.got.cif
#   From: 2010.03.12/outbox.cif.g09.slc.cpg/sg57_9_cif.got.tgz:16757.got - 2010.04.16 15:48:40.
