data_PCOD8231549
_publ_section_title
;
Structure prediction by ZEFSAII (Michael W. Deem and Ramdas Pophale) SiO2 
 PCOD8231549
Probable space group: P B C M
;
_chemical_formula_sum "Si O2"
_cell_formula_units_Z 64
_cell_length_a 19.293676
_cell_length_b 20.787180
_cell_length_c 8.767193
_cell_angle_alpha 90.000000
_cell_angle_beta 90.000000
_cell_angle_gamma 90.000000
_cell_volume 3516.180208
_symmetry_space_group_name_H-M "P B C M"
_symmetry_group_IT_number 57
_symmetry_cell_setting 'orthorhombic'
loop_
_space_group_symop_operation_xyz
x,y,z
-x,-y,1/2+z
x,1/2-y,-z
-x,1/2+y,1/2-z
-x,-y,-z
x,y,1/2-z
-x,1/2+y,z
x,1/2-y,1/2+z
loop_
_atom_site_type_symbol
_atom_site_label
_atom_site_fract_x
_atom_site_fract_y
_atom_site_fract_z
Si Si1 0.325431 0.994983 0.076019
Si Si2 0.829075 0.014356 0.572455
Si Si3 0.827722 0.623209 0.571264
Si Si4 0.467262 0.937087 0.073798
Si Si5 0.459591 0.183548 0.070565
Si Si6 0.954800 0.684835 0.430516
Si Si7 0.039628 0.560049 0.070896
Si Si8 0.670511 0.871518 0.074034
O O1 0.324606 0.021300 0.250000
O O2 0.250191 0.965171 0.035395
O O3 0.383758 0.940444 0.055751
O O4 0.343230 0.054075 0.965847
O O5 0.846158 0.017912 0.750000
O O6 0.880786 0.062436 0.485462
O O7 0.843533 0.942196 0.517755
O O8 0.839411 0.611125 0.750000
O O9 0.879206 0.676737 0.506448
O O10 0.749717 0.647266 0.538027
O O11 0.489540 0.933877 0.250000
O O12 0.492642 0.873746 0.989620
O O13 0.500000 0.000000 0.000000
O O14 0.466388 0.186993 0.250000
O O15 0.487166 0.250000 0.000000
O O16 0.379372 0.173422 0.025228
O O17 0.987303 0.750000 0.500000
O O18 0.947288 0.690275 0.250000
O O19 0.004079 0.626309 0.480683
O O20 0.037428 0.551838 0.250000
O O21 0.000000 0.500000 0.000000
O O22 0.651738 0.861074 0.250000
#
# Coordination Sequence:
#
# PCOD8231549 Si02
#       8
#     8   8   8   8   8   8   8   8
#     4   9  19  34  55  83 115 147 182 226 277 330
#     4  10  19  33  55  84 114 146 183 227 277 328
#     4  10  20  34  54  80 112 149 188 228 272 326
#     4  11  21  36  59  87 115 148 189 233 279 333
#     4  12  25  40  57  80 112 152 192 237 286 338
#     4  11  24  39  56  79 110 148 188 230 278 332
#     4  11  22  36  57  84 111 145 186 231 280 331
#     4  10  20  34  54  81 112 148 189 230 273 329
#
# _framework density 18.201568999999999
#
# number of rings (size 3 to 8) (size 9 to 14) (size 15 to 20)
#    0.000    1.500    2.500    3.375    0.000    4.500 
#    0.000    0.000    0.000    0.750    0.000    1.750 
#    0.000    0.000    0.000    0.000    0.000    0.000 
#
# Total GULP energy -793795.623083 kJ/mol
# GULP energy per Si atom -12403.056611 kJ/mol
# Density = 1.816014 g / cm^3
# Si number density = 18.201569 Si / 1000 Ang^3
#
#
#
# Elastic Constant Matrix: (Units=GPa)
#
#
# Indices 1 2 3 4 5 6 
#
# 1 104.1011 62.0195 42.9704 0.0000 0.0000 0.0000
# 2 62.0195 123.1392 56.3804 0.0000 0.0000 0.0000
# 3 42.9704 56.3804 105.0453 0.0000 0.0000 0.0000
# 4 0.0000 0.0000 0.0000 30.6757 0.0000 0.0000
# 5 0.0000 0.0000 0.0000 0.0000 30.4929 0.0000
# 6 0.0000 0.0000 0.0000 0.0000 0.0000 22.2280
#
#
#
# Elastic Compliance Matrix: (Units=1/GPa)
#
#
# Indices 1 2 3 4 5 6 
#
# 1 0.014248 -0.005976 -0.002621 0.000000 0.000000 0.000000
# 2 -0.005976 0.013273 -0.004679 0.000000 0.000000 0.000000
# 3 -0.002621 -0.004679 0.013103 0.000000 0.000000 0.000000
# 4 0.000000 0.000000 0.000000 0.032599 0.000000 0.000000
# 5 0.000000 0.000000 0.000000 0.000000 0.032794 0.000000
# 6 0.000000 0.000000 0.000000 0.000000 0.000000 0.044988
#
#
# Mechanical properties :
#
#
# Convention : Reuss Voigt Hill
#
# Bulk Modulus (GPa) = 71.06365 72.78069 71.92217
# Shear Modulus (GPa) = 27.43473 28.07368 27.75420
#
# Velocity S-wave (km/s) = 3.88657 3.93157 3.90914
# Velocity P-wave (km/s) = 7.69857 7.78989 7.74436
#
# Compressibility (1/GPa) = 0.01407189
#
# Stress axis : x y z
#
# Youngs Moduli (GPa) = 70.18394 75.33882 76.31589
#
# Poissons Ratio (x) = 0.45024 0.20002
# Poissons Ratio (y) = 0.41943 0.35712
# Poissons Ratio (z) = 0.18395 0.35255
#
# Static dielectric constant tensor:
#      x y z
#    x 3.685050 0.000000 0.000000 
#    y 0.000000 3.177020 0.000000 
#    z 0.000000 0.000000 3.497240 
# 
# 
# High freq. dielectric constant tensor:
#      x y z
#    x 1.710570 0.000000 0.000000 
#    y 0.000000 1.677100 0.000000 
#    z 0.000000 0.000000 1.722590 
# 
# From -- ./inp_files/8548.got.cif
#   From: 2010.03.12/outbox.cif.g09.slc.cpg/sg57_5_cif.got.tgz:8548.got - 2010.04.16 15:48:40.
