data_PCOD8231206
_publ_section_title
;
Structure prediction by ZEFSAII (Michael W. Deem and Ramdas Pophale) SiO2 
 PCOD8231206
Probable space group: P B C M
;
_chemical_formula_sum "Si O2"
_cell_formula_units_Z 48
_cell_length_a 9.690010
_cell_length_b 30.783234
_cell_length_c 8.569212
_cell_angle_alpha 90.000000
_cell_angle_beta 90.000000
_cell_angle_gamma 90.000000
_cell_volume 2556.108922
_symmetry_space_group_name_H-M "P B C M"
_symmetry_group_IT_number 57
_symmetry_cell_setting 'orthorhombic'
loop_
_space_group_symop_operation_xyz
x,y,z
-x,-y,1/2+z
x,1/2-y,-z
-x,1/2+y,1/2-z
-x,-y,-z
x,y,1/2-z
-x,1/2+y,z
x,1/2-y,1/2+z
loop_
_atom_site_type_symbol
_atom_site_label
_atom_site_fract_x
_atom_site_fract_y
_atom_site_fract_z
Si Si1 0.010391 0.133026 0.935287
Si Si2 0.803246 0.202410 0.435083
Si Si3 0.216078 0.569101 0.934227
Si Si4 0.355229 0.484679 0.935129
Si Si5 0.579424 0.357329 0.435295
Si Si6 0.698205 0.888161 0.565227
O O1 0.014005 0.137159 0.750000
O O2 0.931023 0.088626 0.989037
O O3 0.162712 0.132987 0.002894
O O4 0.930323 0.173913 0.003941
O O5 0.827521 0.250000 0.500000
O O6 0.801313 0.202452 0.250000
O O7 0.657218 0.184831 0.498917
O O8 0.223218 0.570322 0.750000
O O9 0.239912 0.519750 0.993460
O O10 0.339770 0.599841 0.996205
O O11 0.364555 0.483683 0.750000
O O12 0.315172 0.437394 0.000838
O O13 0.500000 0.500000 0.000000
O O14 0.574600 0.354362 0.250000
O O15 0.425613 0.358550 0.502674
O O16 0.698430 0.887885 0.750000
#
# Coordination Sequence:
#
# PCOD8231206 Si02
#       6
#     8   8   8   8   8   8
#     4  10  21  38  58  81 113 155 195 233 287 344
#     4  11  22  40  65  91 116 142 181 227 278 341
#     4   8  16  32  53  76 106 146 194 237 276 327
#     4  10  19  32  51  78 111 150 198 245 286 331
#     4  10  19  35  59  83 112 149 189 230 280 335
#     4  11  22  34  52  83 119 153 193 242 290 334
#
# _framework density 18.778542000000002
#
# number of rings (size 3 to 8) (size 9 to 14) (size 15 to 20)
#    0.000    2.000    1.667    4.000    0.000    1.333 
#    0.000    1.667    0.000    0.000    0.000    0.000 
#    0.000    0.000    0.000    0.000    0.000    0.000 
#
# Total GULP energy -595140.283054 kJ/mol
# GULP energy per Si atom -12398.755897 kJ/mol
# Density = 1.873580 g / cm^3
# Si number density = 18.778542 Si / 1000 Ang^3
#
#
#
# Elastic Constant Matrix: (Units=GPa)
#
#
# Indices 1 2 3 4 5 6 
#
# 1 157.6631 61.7143 43.9567 0.0000 0.0000 0.0000
# 2 61.7143 118.6963 38.2260 0.0000 0.0000 0.0000
# 3 43.9567 38.2260 89.9975 0.0000 0.0000 0.0000
# 4 0.0000 0.0000 0.0000 24.1149 0.0000 0.0000
# 5 0.0000 0.0000 0.0000 0.0000 31.3798 0.0000
# 6 0.0000 0.0000 0.0000 0.0000 0.0000 23.1851
#
#
#
# Elastic Compliance Matrix: (Units=1/GPa)
#
#
# Indices 1 2 3 4 5 6 
#
# 1 0.008467 -0.003557 -0.002625 0.000000 0.000000 0.000000
# 2 -0.003557 0.011254 -0.003043 0.000000 0.000000 0.000000
# 3 -0.002625 -0.003043 0.013686 0.000000 0.000000 0.000000
# 4 0.000000 0.000000 0.000000 0.041468 0.000000 0.000000
# 5 0.000000 0.000000 0.000000 0.000000 0.031868 0.000000
# 6 0.000000 0.000000 0.000000 0.000000 0.000000 0.043131
#
#
# Mechanical properties :
#
#
# Convention : Reuss Voigt Hill
#
# Bulk Modulus (GPa) = 66.85400 72.68341 69.76871
# Shear Modulus (GPa) = 28.85038 30.56663 29.70851
#
# Velocity S-wave (km/s) = 3.92388 4.03891 3.98181
# Velocity P-wave (km/s) = 7.49718 7.78074 7.64028
#
# Compressibility (1/GPa) = 0.01495797
#
# Stress axis : x y z
#
# Youngs Moduli (GPa) = 118.11076 88.85602 73.06876
#
# Poissons Ratio (x) = 0.31605 0.19177
# Poissons Ratio (y) = 0.42010 0.22234
# Poissons Ratio (z) = 0.30998 0.27038
#
# Static dielectric constant tensor:
#      x y z
#    x 3.290670 0.000000 0.000000 
#    y 0.000000 4.074150 0.000000 
#    z 0.000000 0.000000 3.370010 
# 
# 
# High freq. dielectric constant tensor:
#      x y z
#    x 1.728770 0.000000 0.000000 
#    y 0.000000 1.722750 0.000000 
#    z 0.000000 0.000000 1.726380 
# 
# From -- ./inp_files/1986.got.cif
#   From: 2010.03.12/outbox.cif.g09.slc.cpg/sg57_1_cif.got.tgz:1986.got - 2010.04.16 15:48:40.
