data_PCOD8231818
_publ_section_title
;
Structure prediction by ZEFSAII (Michael W. Deem and Ramdas Pophale) SiO2 
 PCOD8231818
Probable space group: P B C M
;
_chemical_formula_sum "Si O2"
_cell_formula_units_Z 64
_cell_length_a 11.251308
_cell_length_b 11.695976
_cell_length_c 23.765452
_cell_angle_alpha 90.000000
_cell_angle_beta 90.000000
_cell_angle_gamma 90.000000
_cell_volume 3127.415329
_symmetry_space_group_name_H-M "P B C M"
_symmetry_group_IT_number 57
_symmetry_cell_setting 'orthorhombic'
loop_
_space_group_symop_operation_xyz
x,y,z
-x,-y,1/2+z
x,1/2-y,-z
-x,1/2+y,1/2-z
-x,-y,-z
x,y,1/2-z
-x,1/2+y,z
x,1/2-y,1/2+z
loop_
_atom_site_type_symbol
_atom_site_label
_atom_site_fract_x
_atom_site_fract_y
_atom_site_fract_z
Si Si1 0.778291 0.315000 0.105786
Si Si2 0.708094 0.974637 0.033053
Si Si3 0.260789 0.355252 0.812198
Si Si4 0.085652 0.652442 0.046884
Si Si5 0.833293 0.561614 0.426836
Si Si6 0.394105 0.318006 0.125733
Si Si7 0.561129 0.309183 0.553172
Si Si8 0.395130 0.917553 0.312073
O O1 0.878275 0.214481 0.106699
O O2 0.842826 0.425817 0.080281
O O3 0.677227 0.268271 0.063819
O O4 0.717755 0.343619 0.165516
O O5 0.691784 0.876388 0.079725
O O6 0.832445 0.040715 0.040709
O O7 0.594948 0.059367 0.040075
O O8 0.720933 0.917590 0.970159
O O9 0.197327 0.354182 0.750000
O O10 0.176878 0.380399 0.865518
O O11 0.315922 0.229759 0.822708
O O12 0.364079 0.449541 0.810971
O O13 0.951013 0.611580 0.045160
O O14 0.108327 0.750000 0.000000
O O15 0.464822 0.205853 0.102659
O O16 0.489106 0.408856 0.148873
O O17 0.497557 0.250000 0.500000
O O18 0.422690 0.870117 0.250000
#
# Coordination Sequence:
#
# PCOD8231818 Si02
#       8
#     8   8   8   8   8   8   8   8
#     4   9  18  37  55  82 115 157 191 242 289 351
#     4  11  22  37  56  91 125 155 193 234 298 370
#     4  10  23  41  56  79 115 152 199 255 292 341
#     4  11  22  37  61  85 123 157 191 245 303 358
#     4  11  22  36  60  85 111 158 204 236 300 360
#     4  11  23  33  59  89 121 152 193 246 293 354
#     4  10  19  35  53  81 127 162 180 226 297 361
#     4   9  19  39  62  81 110 162 208 234 292 365
#
# _framework density 20.464183999999999
#
# number of rings (size 3 to 8) (size 9 to 14) (size 15 to 20)
#    0.000    1.750    2.500    2.250    3.500    0.500 
#    0.000    0.625    0.000    7.500    0.000    0.000 
#    0.000    0.000    0.000    0.000    0.000    0.000 
#
# Total GULP energy -792885.675366 kJ/mol
# GULP energy per Si atom -12388.838678 kJ/mol
# Density = 2.041761 g / cm^3
# Si number density = 20.464184 Si / 1000 Ang^3
#
#
#
# Elastic Constant Matrix: (Units=GPa)
#
#
# Indices 1 2 3 4 5 6 
#
# 1 61.1216 31.3260 37.4565 0.0000 0.0000 0.0000
# 2 31.3260 68.4235 38.6809 0.0000 0.0000 0.0000
# 3 37.4565 38.6809 129.1112 0.0000 0.0000 0.0000
# 4 0.0000 0.0000 0.0000 22.8467 0.0000 0.0000
# 5 0.0000 0.0000 0.0000 0.0000 20.1864 0.0000
# 6 0.0000 0.0000 0.0000 0.0000 0.0000 29.4445
#
#
#
# Elastic Compliance Matrix: (Units=1/GPa)
#
#
# Indices 1 2 3 4 5 6 
#
# 1 0.023178 -0.008199 -0.004268 0.000000 0.000000 0.000000
# 2 -0.008199 0.020495 -0.003762 0.000000 0.000000 0.000000
# 3 -0.004268 -0.003762 0.010110 0.000000 0.000000 0.000000
# 4 0.000000 0.000000 0.000000 0.043770 0.000000 0.000000
# 5 0.000000 0.000000 0.000000 0.000000 0.049538 0.000000
# 6 0.000000 0.000000 0.000000 0.000000 0.000000 0.033962
#
#
# Mechanical properties :
#
#
# Convention : Reuss Voigt Hill
#
# Bulk Modulus (GPa) = 46.88912 52.62034 49.75473
# Shear Modulus (GPa) = 22.66339 24.57505 23.61922
#
# Velocity S-wave (km/s) = 3.33147 3.46913 3.40100
# Velocity P-wave (km/s) = 6.14498 6.46651 6.30779
#
# Compressibility (1/GPa) = 0.02132691
#
# Stress axis : x y z
#
# Youngs Moduli (GPa) = 43.14358 48.79233 98.90816
#
# Poissons Ratio (x) = 0.40004 0.42214
# Poissons Ratio (y) = 0.35373 0.37205
# Poissons Ratio (z) = 0.18414 0.18354
#
# Static dielectric constant tensor:
#      x y z
#    x 3.409760 0.000000 0.000000 
#    y 0.000000 3.734490 0.000000 
#    z 0.000000 0.000000 3.862670 
# 
# 
# High freq. dielectric constant tensor:
#      x y z
#    x 1.775800 0.000000 0.000000 
#    y 0.000000 1.803330 0.000000 
#    z 0.000000 0.000000 1.790900 
# 
# From -- ./inp_files/27261.got.cif
#   From: 2010.03.12/outbox.cif.g09.slc.cpg/sg57_14_cif.got.tgz:27261.got - 2010.04.16 15:48:40.
