data_PCOD8231401
_publ_section_title
;
Structure prediction by ZEFSAII (Michael W. Deem and Ramdas Pophale) SiO2 
 PCOD8231401
Probable space group: P B C M
;
_chemical_formula_sum "Si O2"
_cell_formula_units_Z 48
_cell_length_a 9.588521
_cell_length_b 30.491552
_cell_length_c 8.960729
_cell_angle_alpha 90.000000
_cell_angle_beta 90.000000
_cell_angle_gamma 90.000000
_cell_volume 2619.838362
_symmetry_space_group_name_H-M "P B C M"
_symmetry_group_IT_number 57
_symmetry_cell_setting 'orthorhombic'
loop_
_space_group_symop_operation_xyz
x,y,z
-x,-y,1/2+z
x,1/2-y,-z
-x,1/2+y,1/2-z
-x,-y,-z
x,y,1/2-z
-x,1/2+y,z
x,1/2-y,1/2+z
loop_
_atom_site_type_symbol
_atom_site_label
_atom_site_fract_x
_atom_site_fract_y
_atom_site_fract_z
Si Si1 0.354512 0.012149 0.574575
Si Si2 0.203394 0.703708 0.077029
Si Si3 0.567689 0.366931 0.923492
Si Si4 0.988982 0.136554 0.575848
Si Si5 0.298891 0.387888 0.075676
Si Si6 0.236302 0.933722 0.424928
O O1 0.367344 0.005200 0.750000
O O2 0.308995 0.061121 0.533322
O O3 0.500000 0.000000 0.500000
O O4 0.234182 0.980284 0.509300
O O5 0.176070 0.711199 0.250000
O O6 0.345412 0.677121 0.046268
O O7 0.220770 0.750000 0.000000
O O8 0.070577 0.677922 0.012891
O O9 0.570436 0.379770 0.750000
O O10 0.410310 0.359752 0.980989
O O11 0.629638 0.406793 0.019056
O O12 0.972795 0.146720 0.750000
O O13 0.147831 0.129644 0.527847
O O14 0.904492 0.092355 0.534788
O O15 0.326229 0.380221 0.250000
O O16 0.253363 0.941837 0.250000
#
# Coordination Sequence:
#
# PCOD8231401 Si02
#       6
#     8   8   8   8   8   8
#     4  11  21  32  50  77 109 146 192 234 271 317
#     4  10  21  38  61  87 109 136 175 219 268 328
#     4  10  20  34  55  81 108 138 179 224 266 317
#     4   9  20  38  57  79 110 147 183 223 274 328
#     4  10  21  36  54  78 110 147 184 224 274 323
#     4  10  19  33  53  76 105 145 188 228 271 316
#
# _framework density 18.321739999999998
#
# number of rings (size 3 to 8) (size 9 to 14) (size 15 to 20)
#    0.000    2.000    1.667    2.000    0.000    4.667 
#    0.000    0.833    0.000    2.000    0.000    0.000 
#    0.000    0.000    0.000    0.000    0.000    0.000 
#
# Total GULP energy -595365.933993 kJ/mol
# GULP energy per Si atom -12403.456958 kJ/mol
# Density = 1.828004 g / cm^3
# Si number density = 18.321740 Si / 1000 Ang^3
#
#
#
# Elastic Constant Matrix: (Units=GPa)
#
#
# Indices 1 2 3 4 5 6 
#
# 1 129.3392 53.1403 50.3222 0.0000 0.0000 0.0000
# 2 53.1403 111.6816 56.7401 0.0000 0.0000 0.0000
# 3 50.3222 56.7401 82.7270 0.0000 0.0000 0.0000
# 4 0.0000 0.0000 0.0000 31.1765 0.0000 0.0000
# 5 0.0000 0.0000 0.0000 0.0000 27.6436 0.0000
# 6 0.0000 0.0000 0.0000 0.0000 0.0000 17.2412
#
#
#
# Elastic Compliance Matrix: (Units=1/GPa)
#
#
# Indices 1 2 3 4 5 6 
#
# 1 0.010643 -0.002724 -0.004605 0.000000 0.000000 0.000000
# 2 -0.002724 0.014440 -0.008247 0.000000 0.000000 0.000000
# 3 -0.004605 -0.008247 0.020546 0.000000 0.000000 0.000000
# 4 0.000000 0.000000 0.000000 0.032075 0.000000 0.000000
# 5 0.000000 0.000000 0.000000 0.000000 0.036175 0.000000
# 6 0.000000 0.000000 0.000000 0.000000 0.000000 0.058001
#
#
# Mechanical properties :
#
#
# Convention : Reuss Voigt Hill
#
# Bulk Modulus (GPa) = 69.08265 71.57254 70.32760
# Shear Modulus (GPa) = 24.05492 26.11528 25.08510
#
# Velocity S-wave (km/s) = 3.62735 3.77950 3.70421
# Velocity P-wave (km/s) = 7.43846 7.62858 7.53412
#
# Compressibility (1/GPa) = 0.01447541
#
# Stress axis : x y z
#
# Youngs Moduli (GPa) = 93.96102 69.25132 48.67190
#
# Poissons Ratio (x) = 0.18866 0.22415
# Poissons Ratio (y) = 0.25597 0.40140
# Poissons Ratio (z) = 0.43273 0.57111
#
# Static dielectric constant tensor:
#      x y z
#    x 3.438160 0.000000 0.000000 
#    y 0.000000 3.364960 0.000000 
#    z 0.000000 0.000000 3.438380 
# 
# 
# High freq. dielectric constant tensor:
#      x y z
#    x 1.706990 0.000000 0.000000 
#    y 0.000000 1.699740 0.000000 
#    z 0.000000 0.000000 1.719480 
# 
# From -- ./inp_files/1993.got.cif
#   From: 2010.03.12/outbox.cif.g09.slc.cpg/sg57_1_cif.got.tgz:1993.got - 2010.04.16 15:48:40.
