data_PCOD8231203
_publ_section_title
;
Structure prediction by ZEFSAII (Michael W. Deem and Ramdas Pophale) SiO2 
 PCOD8231203
Probable space group: P B C M
;
_chemical_formula_sum "Si O2"
_cell_formula_units_Z 56
_cell_length_a 13.898788
_cell_length_b 23.331796
_cell_length_c 9.082103
_cell_angle_alpha 90.000000
_cell_angle_beta 90.000000
_cell_angle_gamma 90.000000
_cell_volume 2945.177840
_symmetry_space_group_name_H-M "P B C M"
_symmetry_group_IT_number 57
_symmetry_cell_setting 'orthorhombic'
loop_
_space_group_symop_operation_xyz
x,y,z
-x,-y,1/2+z
x,1/2-y,-z
-x,1/2+y,1/2-z
-x,-y,-z
x,y,1/2-z
-x,1/2+y,z
x,1/2-y,1/2+z
loop_
_atom_site_type_symbol
_atom_site_label
_atom_site_fract_x
_atom_site_fract_y
_atom_site_fract_z
Si Si1 0.152185 0.912325 0.086899
Si Si2 0.950542 0.553004 0.580652
Si Si3 0.373863 0.188538 0.420294
Si Si4 0.570668 0.370195 0.921436
Si Si5 0.274156 0.696531 0.916349
Si Si6 0.244474 0.414283 0.575895
Si Si7 0.692363 0.478588 0.576842
O O1 0.177167 0.937118 0.250000
O O2 0.193166 0.850068 0.065424
O O3 0.038147 0.901892 0.071821
O O4 0.201104 0.955152 0.968442
O O5 0.921519 0.539185 0.750000
O O6 0.860388 0.578564 0.494429
O O7 0.000000 0.500000 0.500000
O O8 0.375777 0.250000 0.500000
O O9 0.377176 0.204562 0.250000
O O10 0.460435 0.144199 0.458722
O O11 0.279990 0.150547 0.460306
O O12 0.594205 0.364042 0.750000
O O13 0.607509 0.433969 0.971854
O O14 0.626973 0.321812 0.008726
O O15 0.298613 0.712446 0.750000
O O16 0.229739 0.750000 0.000000
O O17 0.240116 0.424289 0.750000
O O18 0.319505 0.460822 0.507121
O O19 0.690328 0.489713 0.750000
#
# Coordination Sequence:
#
# PCOD8231203 Si02
#       7
#     8   8   8   8   8   8   8
#     4   9  19  34  52  76 110 144 178 221 274 332
#     4  11  21  35  58  85 111 145 185 228 278 338
#     4  10  23  42  61  80 109 150 195 240 282 328
#     4   9  19  36  57  83 112 144 185 232 281 336
#     4  10  19  32  51  78 109 144 181 223 275 331
#     4  11  23  38  56  82 116 151 187 232 284 336
#     4  10  19  32  55  86 116 144 179 226 280 337
#
# _framework density 19.014132
#
# number of rings (size 3 to 8) (size 9 to 14) (size 15 to 20)
#    0.000    2.000    1.429    2.143    0.000    5.143 
#    0.000    0.714    0.000    3.429    0.000    0.000 
#    0.000    0.000    0.000    0.000    0.000    0.000 
#
# Total GULP energy -693993.912860 kJ/mol
# GULP energy per Si atom -12392.748444 kJ/mol
# Density = 1.897086 g / cm^3
# Si number density = 19.014132 Si / 1000 Ang^3
#
#
#
# Elastic Constant Matrix: (Units=GPa)
#
#
# Indices 1 2 3 4 5 6 
#
# 1 99.2990 57.0994 43.3492 0.0000 0.0000 0.0000
# 2 57.0994 107.4064 57.4872 0.0000 0.0000 0.0000
# 3 43.3492 57.4872 97.5206 0.0000 0.0000 0.0000
# 4 0.0000 0.0000 0.0000 30.7078 0.0000 0.0000
# 5 0.0000 0.0000 0.0000 0.0000 27.3125 0.0000
# 6 0.0000 0.0000 0.0000 0.0000 0.0000 19.1811
#
#
#
# Elastic Compliance Matrix: (Units=1/GPa)
#
#
# Indices 1 2 3 4 5 6 
#
# 1 0.015039 -0.006453 -0.002881 0.000000 0.000000 0.000000
# 2 -0.006453 0.016371 -0.006782 0.000000 0.000000 0.000000
# 3 -0.002881 -0.006782 0.015533 0.000000 0.000000 0.000000
# 4 0.000000 0.000000 0.000000 0.032565 0.000000 0.000000
# 5 0.000000 0.000000 0.000000 0.000000 0.036613 0.000000
# 6 0.000000 0.000000 0.000000 0.000000 0.000000 0.052135
#
#
# Mechanical properties :
#
#
# Convention : Reuss Voigt Hill
#
# Bulk Modulus (GPa) = 67.97828 68.89972 68.43900
# Shear Modulus (GPa) = 24.34379 25.19298 24.76838
#
# Velocity S-wave (km/s) = 3.58201 3.64395 3.61311
# Velocity P-wave (km/s) = 7.27577 7.34978 7.31287
#
# Compressibility (1/GPa) = 0.01471058
#
# Stress axis : x y z
#
# Youngs Moduli (GPa) = 66.49406 61.08399 64.37976
#
# Poissons Ratio (x) = 0.39417 0.18548
# Poissons Ratio (y) = 0.42908 0.43662
# Poissons Ratio (z) = 0.19157 0.41427
#
# Static dielectric constant tensor:
#      x y z
#    x 3.867620 0.000000 0.000000 
#    y 0.000000 2.626670 0.000000 
#    z 0.000000 0.000000 3.629730 
# 
# 
# High freq. dielectric constant tensor:
#      x y z
#    x 1.732970 0.000000 0.000000 
#    y 0.000000 1.732770 0.000000 
#    z 0.000000 0.000000 1.747630 
# 
# From -- ./inp_files/5261.got.cif
#   From: 2010.03.12/outbox.cif.g09.slc.cpg/sg57_3_cif.got.tgz:5261.got - 2010.04.16 15:48:40.
