data_PCOD8231192
_publ_section_title
;
Structure prediction by ZEFSAII (Michael W. Deem and Ramdas Pophale) SiO2 
 PCOD8231192
Probable space group: P B C M
;
_chemical_formula_sum "Si O2"
_cell_formula_units_Z 48
_cell_length_a 15.025018
_cell_length_b 20.375755
_cell_length_c 8.670706
_cell_angle_alpha 90.000000
_cell_angle_beta 90.000000
_cell_angle_gamma 90.000000
_cell_volume 2654.502702
_symmetry_space_group_name_H-M "P B C M"
_symmetry_group_IT_number 57
_symmetry_cell_setting 'orthorhombic'
loop_
_space_group_symop_operation_xyz
x,y,z
-x,-y,1/2+z
x,1/2-y,-z
-x,1/2+y,1/2-z
-x,-y,-z
x,y,1/2-z
-x,1/2+y,z
x,1/2-y,1/2+z
loop_
_atom_site_type_symbol
_atom_site_label
_atom_site_fract_x
_atom_site_fract_y
_atom_site_fract_z
Si Si1 0.506275 0.683216 0.569060
Si Si2 0.918968 0.539947 0.568781
Si Si3 0.875766 0.815159 0.067852
Si Si4 0.266466 0.491861 0.925181
Si Si5 0.432198 0.552345 0.068512
Si Si6 0.688468 0.656811 0.074448
O O1 0.464914 0.750000 0.500000
O O2 0.487976 0.677701 0.750000
O O3 0.459002 0.624744 0.480189
O O4 0.611648 0.683127 0.536465
O O5 0.919595 0.531720 0.750000
O O6 0.926749 0.617326 0.522896
O O7 0.828681 0.508289 0.506751
O O8 0.000000 0.500000 0.500000
O O9 0.865394 0.809609 0.250000
O O10 0.925898 0.750000 0.000000
O O11 0.780093 0.814812 0.987855
O O12 0.252694 0.515103 0.750000
O O13 0.312811 0.421460 0.932910
O O14 0.331514 0.541874 0.011393
O O15 0.436244 0.544916 0.250000
O O16 0.500000 0.500000 0.000000
O O17 0.672742 0.680740 0.250000
#
# Coordination Sequence:
#
# PCOD8231192 Si02
#       6
#     8   8   8   8   8   8
#     4  12  24  37  53  75 109 149 191 237 283 333
#     4  10  21  37  58  84 113 145 184 230 282 337
#     4  10  20  33  51  77 110 144 180 220 272 333
#     4  10  20  35  57  83 111 145 186 230 278 330
#     4  12  23  37  57  82 112 148 191 233 277 330
#     4  10  19  32  51  76 109 145 183 222 271 331
#
# _framework density 18.082481999999999
#
# number of rings (size 3 to 8) (size 9 to 14) (size 15 to 20)
#    0.000    1.333    1.667    5.500    0.000    3.333 
#    0.000    0.000    0.000    1.000    0.000    4.667 
#    0.000    0.000    0.000    0.000    0.000    0.000 
#
# Total GULP energy -595285.802250 kJ/mol
# GULP energy per Si atom -12401.787547 kJ/mol
# Density = 1.804133 g / cm^3
# Si number density = 18.082482 Si / 1000 Ang^3
#
#
#
# Elastic Constant Matrix: (Units=GPa)
#
#
# Indices 1 2 3 4 5 6 
#
# 1 90.3572 60.5448 46.1427 0.0000 0.0000 0.0000
# 2 60.5448 125.0044 46.3724 0.0000 0.0000 0.0000
# 3 46.1427 46.3724 113.0409 0.0000 0.0000 0.0000
# 4 0.0000 0.0000 0.0000 32.1800 0.0000 0.0000
# 5 0.0000 0.0000 0.0000 0.0000 31.9842 0.0000
# 6 0.0000 0.0000 0.0000 0.0000 0.0000 -15.1730
#
#
#
# Elastic Compliance Matrix: (Units=1/GPa)
#
#
# Indices 1 2 3 4 5 6 
#
# 1 0.018122 -0.007116 -0.004478 0.000000 0.000000 0.000000
# 2 -0.007116 0.012230 -0.002112 0.000000 0.000000 0.000000
# 3 -0.004478 -0.002112 0.011541 0.000000 0.000000 0.000000
# 4 0.000000 0.000000 0.000000 0.031075 0.000000 0.000000
# 5 0.000000 0.000000 0.000000 0.000000 0.031265 0.000000
# 6 0.000000 0.000000 0.000000 0.000000 0.000000 -0.065907
#
#
# Mechanical properties :
#
#
# Convention : Reuss Voigt Hill
#
# Bulk Modulus (GPa) = 69.06137 70.50246 69.78191
# Shear Modulus (GPa) = 70.85461 21.48775 46.17118
#
# Velocity S-wave (km/s) = 6.26651 3.45094 5.05857
# Velocity P-wave (km/s) = 9.52020 7.41301 8.53191
#
# Compressibility (1/GPa) = 0.01447988
#
# Stress axis : x y z
#
# Youngs Moduli (GPa) = 55.18058 81.76656 86.64872
#
# Poissons Ratio (x) = 0.58186 0.38803
# Poissons Ratio (y) = 0.39267 0.18303
# Poissons Ratio (z) = 0.24711 0.17271
#
# Static dielectric constant tensor:
#      x y z
#    x 3.125680 0.000000 0.000000 
#    y 0.000000 4.256570 0.000000 
#    z 0.000000 0.000000 3.327160 
# 
# 
# High freq. dielectric constant tensor:
#      x y z
#    x 1.666630 0.000000 0.000000 
#    y 0.000000 1.707290 0.000000 
#    z 0.000000 0.000000 1.722340 
# 
# From -- ./inp_files/4608.got.cif
#   From: 2010.03.12/outbox.cif.g09.slc.cpg/sg57_3_cif.got.tgz:4608.got - 2010.04.16 15:48:40.
