data_PCOD8231564
_publ_section_title
;
Structure prediction by ZEFSAII (Michael W. Deem and Ramdas Pophale) SiO2 
 PCOD8231564
Probable space group: P B C M
;
_chemical_formula_sum "Si O2"
_cell_formula_units_Z 56
_cell_length_a 15.926789
_cell_length_b 20.007994
_cell_length_c 8.777292
_cell_angle_alpha 90.000000
_cell_angle_beta 90.000000
_cell_angle_gamma 90.000000
_cell_volume 2796.999067
_symmetry_space_group_name_H-M "P B C M"
_symmetry_group_IT_number 57
_symmetry_cell_setting 'orthorhombic'
loop_
_space_group_symop_operation_xyz
x,y,z
-x,-y,1/2+z
x,1/2-y,-z
-x,1/2+y,1/2-z
-x,-y,-z
x,y,1/2-z
-x,1/2+y,z
x,1/2-y,1/2+z
loop_
_atom_site_type_symbol
_atom_site_label
_atom_site_fract_x
_atom_site_fract_y
_atom_site_fract_z
Si Si1 0.158105 0.180415 0.068967
Si Si2 0.572719 0.955451 0.429446
Si Si3 0.831274 0.414861 0.429438
Si Si4 0.499440 0.817561 0.428741
Si Si5 0.749536 0.547035 0.070992
Si Si6 0.022618 0.679613 0.567767
Si Si7 0.689386 0.181728 0.930479
O O1 0.149367 0.186960 0.250000
O O2 0.220851 0.120785 0.021468
O O3 0.193115 0.250000 0.000000
O O4 0.068513 0.162754 0.997689
O O5 0.568536 0.964768 0.250000
O O6 0.557661 0.878792 0.478960
O O7 0.664143 0.975078 0.489228
O O8 0.500000 0.000000 0.500000
O O9 0.833838 0.406997 0.250000
O O10 0.821756 0.492936 0.475865
O O11 0.916057 0.379843 0.491457
O O12 0.748836 0.377064 0.492392
O O13 0.537117 0.750000 0.500000
O O14 0.498419 0.807958 0.250000
O O15 0.405146 0.831673 0.489520
O O16 0.732467 0.543476 0.250000
O O17 0.055117 0.750000 0.500000
O O18 0.018575 0.684887 0.750000
O O19 0.692028 0.186878 0.750000
O O20 0.724782 0.250000 0.000000
#
# Coordination Sequence:
#
# PCOD8231564 Si02
#       7
#     8   8   8   8   8   8   8
#     4  10  21  38  60  82 109 145 184 230 279 329
#     4  11  23  39  59  83 112 147 186 229 278 332
#     4   9  18  33  53  77 108 144 179 218 268 322
#     4   9  19  34  53  77 105 138 178 225 274 325
#     4  10  22  40  59  80 107 143 185 227 277 331
#     4  10  19  33  56  83 112 146 182 222 268 322
#     4   9  16  29  49  72 102 138 172 210 258 313
#
# _framework density 20.021457000000002
#
# number of rings (size 3 to 8) (size 9 to 14) (size 15 to 20)
#    0.000    2.286    0.000    3.429    0.000    5.714 
#    0.000    8.571    0.000    0.000    0.000    0.000 
#    0.000    0.000    0.000    0.000    0.000    0.000 
#
# Total GULP energy -694271.294979 kJ/mol
# GULP energy per Si atom -12397.701696 kJ/mol
# Density = 1.997589 g / cm^3
# Si number density = 20.021457 Si / 1000 Ang^3
#
#
#
# Elastic Constant Matrix: (Units=GPa)
#
#
# Indices 1 2 3 4 5 6 
#
# 1 93.6078 59.9375 31.1023 0.0000 0.0000 0.0000
# 2 59.9375 137.8602 43.2628 0.0000 0.0000 0.0000
# 3 31.1023 43.2628 57.0274 0.0000 0.0000 0.0000
# 4 0.0000 0.0000 0.0000 29.3672 0.0000 0.0000
# 5 0.0000 0.0000 0.0000 0.0000 28.0600 0.0000
# 6 0.0000 0.0000 0.0000 0.0000 0.0000 36.4082
#
#
#
# Elastic Compliance Matrix: (Units=1/GPa)
#
#
# Indices 1 2 3 4 5 6 
#
# 1 0.015608 -0.005400 -0.004416 0.000000 0.000000 0.000000
# 2 -0.005400 0.011389 -0.005695 0.000000 0.000000 0.000000
# 3 -0.004416 -0.005695 0.024264 0.000000 0.000000 0.000000
# 4 0.000000 0.000000 0.000000 0.034052 0.000000 0.000000
# 5 0.000000 0.000000 0.000000 0.000000 0.035638 0.000000
# 6 0.000000 0.000000 0.000000 0.000000 0.000000 0.027466
#
#
# Mechanical properties :
#
#
# Convention : Reuss Voigt Hill
#
# Bulk Modulus (GPa) = 49.40845 61.90006 55.65426
# Shear Modulus (GPa) = 26.85532 29.04662 27.95097
#
# Velocity S-wave (km/s) = 3.66639 3.81304 3.74043
# Velocity P-wave (km/s) = 6.53104 7.09716 6.81998
#
# Compressibility (1/GPa) = 0.02023945
#
# Stress axis : x y z
#
# Youngs Moduli (GPa) = 64.07093 87.80751 41.21373
#
# Poissons Ratio (x) = 0.47416 0.18199
# Poissons Ratio (y) = 0.34599 0.23469
# Poissons Ratio (z) = 0.28292 0.50003
#
# Static dielectric constant tensor:
#      x y z
#    x 3.659150 0.000000 0.000000 
#    y 0.000000 4.096960 0.000000 
#    z 0.000000 0.000000 3.444950 
# 
# 
# High freq. dielectric constant tensor:
#      x y z
#    x 1.776720 0.000000 0.000000 
#    y 0.000000 1.791990 0.000000 
#    z 0.000000 0.000000 1.764220 
# 
# From -- ./inp_files/5151.got.cif
#   From: 2010.03.12/outbox.cif.g09.slc.cpg/sg57_3_cif.got.tgz:5151.got - 2010.04.16 15:48:40.
