data_PCOD8231002
_publ_section_title
;
Structure prediction by ZEFSAII (Michael W. Deem and Ramdas Pophale) SiO2 
 PCOD8231002
Probable space group: P B C M
;
_chemical_formula_sum "Si O2"
_cell_formula_units_Z 64
_cell_length_a 25.257462
_cell_length_b 14.195872
_cell_length_c 9.237509
_cell_angle_alpha 90.000000
_cell_angle_beta 90.000000
_cell_angle_gamma 90.000000
_cell_volume 3312.124534
_symmetry_space_group_name_H-M "P B C M"
_symmetry_group_IT_number 57
_symmetry_cell_setting 'orthorhombic'
loop_
_space_group_symop_operation_xyz
x,y,z
-x,-y,1/2+z
x,1/2-y,-z
-x,1/2+y,1/2-z
-x,-y,-z
x,y,1/2-z
-x,1/2+y,z
x,1/2-y,1/2+z
loop_
_atom_site_type_symbol
_atom_site_label
_atom_site_fract_x
_atom_site_fract_y
_atom_site_fract_z
Si Si1 0.585747 0.151430 0.581394
Si Si2 0.780288 0.348117 0.080530
Si Si3 0.031168 0.656903 0.420410
Si Si4 0.528398 0.655547 0.915087
Si Si5 0.885655 0.456415 0.081849
Si Si6 0.318284 0.977012 0.420359
Si Si7 0.644249 0.850135 0.421239
Si Si8 0.909570 0.661269 0.414865
O O1 0.591982 0.250000 0.500000
O O2 0.594459 0.173181 0.750000
O O3 0.527508 0.101435 0.554062
O O4 0.630240 0.080012 0.526196
O O5 0.779614 0.326946 0.250000
O O6 0.834386 0.398579 0.032616
O O7 0.732868 0.416971 0.036290
O O8 0.773734 0.250000 0.000000
O O9 0.052708 0.750000 0.500000
O O10 0.040873 0.666335 0.250000
O O11 0.064616 0.570561 0.483100
O O12 0.970063 0.639932 0.460621
O O13 0.530807 0.686356 0.750000
O O14 0.584715 0.607480 0.953557
O O15 0.522916 0.750000 0.000000
O O16 0.899792 0.438668 0.250000
O O17 0.875045 0.567723 0.055913
O O18 0.319969 0.999590 0.250000
O O19 0.315577 0.075022 0.508333
O O20 0.651915 0.750000 0.500000
O O21 0.655396 0.839029 0.250000
O O22 0.885414 0.750000 0.500000
O O23 0.907492 0.692455 0.250000
#
# Coordination Sequence:
#
# PCOD8231002 Si02
#       8
#     8   8   8   8   8   8   8   8
#     4   9  17  30  49  73 103 136 169 208 255 307
#     4  10  22  39  58  79 106 137 171 214 259 303
#     4  10  19  31  50  78 109 141 176 215 260 312
#     4   8  15  28  46  71 101 131 164 203 250 303
#     4  10  20  35  54  77 106 141 179 219 262 306
#     4  10  21  36  53  75 103 136 172 213 261 306
#     4  10  20  35  55  77 102 133 169 210 255 307
#     4   9  19  34  52  76 108 142 175 214 260 308
#
# _framework density 19.322945000000001
#
# number of rings (size 3 to 8) (size 9 to 14) (size 15 to 20)
#    0.000    2.500    0.000    1.875    0.000    4.500 
#    0.000    0.625    0.000    1.500    0.000    0.000 
#    0.000    0.000    0.000    0.000    0.000    0.000 
#
# Total GULP energy -793205.993989 kJ/mol
# GULP energy per Si atom -12393.843656 kJ/mol
# Density = 1.927896 g / cm^3
# Si number density = 19.322945 Si / 1000 Ang^3
#
#
#
# Elastic Constant Matrix: (Units=GPa)
#
#
# Indices 1 2 3 4 5 6 
#
# 1 66.0518 44.9722 31.5550 0.0000 0.0000 0.0000
# 2 44.9722 112.3324 48.9729 0.0000 0.0000 0.0000
# 3 31.5550 48.9729 60.2617 0.0000 0.0000 0.0000
# 4 0.0000 0.0000 0.0000 35.3378 0.0000 0.0000
# 5 0.0000 0.0000 0.0000 0.0000 19.0527 0.0000
# 6 0.0000 0.0000 0.0000 0.0000 0.0000 30.3717
#
#
#
# Elastic Compliance Matrix: (Units=1/GPa)
#
#
# Indices 1 2 3 4 5 6 
#
# 1 0.022534 -0.006005 -0.006920 0.000000 0.000000 0.000000
# 2 -0.006005 0.015387 -0.009360 0.000000 0.000000 0.000000
# 3 -0.006920 -0.009360 0.027824 0.000000 0.000000 0.000000
# 4 0.000000 0.000000 0.000000 0.028298 0.000000 0.000000
# 5 0.000000 0.000000 0.000000 0.000000 0.052486 0.000000
# 6 0.000000 0.000000 0.000000 0.000000 0.000000 0.032925
#
#
# Mechanical properties :
#
#
# Convention : Reuss Voigt Hill
#
# Bulk Modulus (GPa) = 47.22319 54.40513 50.81416
# Shear Modulus (GPa) = 21.63736 24.49550 23.06643
#
# Velocity S-wave (km/s) = 3.34993 3.56433 3.45879
# Velocity P-wave (km/s) = 6.28130 6.71983 6.50426
#
# Compressibility (1/GPa) = 0.02117604
#
# Stress axis : x y z
#
# Youngs Moduli (GPa) = 44.37808 64.99071 35.93983
#
# Poissons Ratio (x) = 0.39025 0.24869
# Poissons Ratio (y) = 0.26648 0.33640
# Poissons Ratio (z) = 0.30707 0.60832
#
# Static dielectric constant tensor:
#      x y z
#    x 3.653750 0.000000 0.000000 
#    y 0.000000 3.357000 0.000000 
#    z 0.000000 0.000000 3.404720 
# 
# 
# High freq. dielectric constant tensor:
#      x y z
#    x 1.743160 0.000000 0.000000 
#    y 0.000000 1.744360 0.000000 
#    z 0.000000 0.000000 1.749600 
# 
# From -- ./inp_files/9413.got.cif
#   From: 2010.03.12/outbox.cif.g09.slc.cpg/sg57_5_cif.got.tgz:9413.got - 2010.04.16 15:48:40.
