data_PCOD8231601
_publ_section_title
;
Structure prediction by ZEFSAII (Michael W. Deem and Ramdas Pophale) SiO2 
 PCOD8231601
Probable space group: P B C M
;
_chemical_formula_sum "Si O2"
_cell_formula_units_Z 48
_cell_length_a 9.567477
_cell_length_b 14.309147
_cell_length_c 19.162038
_cell_angle_alpha 90.000000
_cell_angle_beta 90.000000
_cell_angle_gamma 90.000000
_cell_volume 2623.329658
_symmetry_space_group_name_H-M "P B C M"
_symmetry_group_IT_number 57
_symmetry_cell_setting 'orthorhombic'
loop_
_space_group_symop_operation_xyz
x,y,z
-x,-y,1/2+z
x,1/2-y,-z
-x,1/2+y,1/2-z
-x,-y,-z
x,y,1/2-z
-x,1/2+y,z
x,1/2-y,1/2+z
loop_
_atom_site_type_symbol
_atom_site_label
_atom_site_fract_x
_atom_site_fract_y
_atom_site_fract_z
Si Si1 0.036607 0.062866 0.900060
Si Si2 0.110169 0.621885 0.170973
Si Si3 0.219676 0.494116 0.524898
Si Si4 0.364011 0.188952 0.433245
Si Si5 0.140485 0.245653 0.829961
Si Si6 0.315965 0.671371 0.053588
O O1 0.053214 0.162015 0.863899
O O2 0.872829 0.043899 0.915055
O O3 0.102021 0.986628 0.848227
O O4 0.117355 0.062542 0.973525
O O5 0.164354 0.633338 0.250000
O O6 0.217084 0.675505 0.120803
O O7 0.955278 0.663106 0.161796
O O8 0.323650 0.419540 0.558964
O O9 0.310867 0.570945 0.484189
O O10 0.320876 0.250000 0.500000
O O11 0.287575 0.235438 0.367325
O O12 0.528877 0.193921 0.419950
O O13 0.173649 0.221990 0.750000
O O14 0.262574 0.750000 0.000000
#
# Coordination Sequence:
#
# PCOD8231601 Si02
#       6
#     8   8   8   8   8   8
#     4  10  19  33  58  86 111 141 187 235 276 340
#     4  10  21  37  56  80 113 151 187 229 282 341
#     4  10  19  34  58  86 111 145 182 232 286 330
#     4  11  21  37  57  83 114 144 189 234 280 338
#     4  11  22  36  57  82 112 150 188 235 285 333
#     4  10  22  36  57  84 113 149 186 234 284 338
#
# _framework density 18.297357000000002
#
# number of rings (size 3 to 8) (size 9 to 14) (size 15 to 20)
#    0.000    1.667    3.333    2.000    0.000    1.333 
#    0.000    0.000    0.000    0.000    0.000    0.000 
#    0.000    0.000    0.000    0.000    0.000    0.000 
#
# Total GULP energy -595388.754774 kJ/mol
# GULP energy per Si atom -12403.932391 kJ/mol
# Density = 1.825571 g / cm^3
# Si number density = 18.297357 Si / 1000 Ang^3
#
#
#
# Elastic Constant Matrix: (Units=GPa)
#
#
# Indices 1 2 3 4 5 6 
#
# 1 79.1800 13.2147 47.2512 0.0000 0.0000 0.0000
# 2 13.2147 62.7739 24.1704 0.0000 0.0000 0.0000
# 3 47.2512 24.1704 112.1188 0.0000 0.0000 0.0000
# 4 0.0000 0.0000 0.0000 26.4268 0.0000 0.0000
# 5 0.0000 0.0000 0.0000 0.0000 26.0071 0.0000
# 6 0.0000 0.0000 0.0000 0.0000 0.0000 29.1850
#
#
#
# Elastic Compliance Matrix: (Units=1/GPa)
#
#
# Indices 1 2 3 4 5 6 
#
# 1 0.016918 -0.000890 -0.006938 0.000000 0.000000 0.000000
# 2 -0.000890 0.017419 -0.003380 0.000000 0.000000 0.000000
# 3 -0.006938 -0.003380 0.012572 0.000000 0.000000 0.000000
# 4 0.000000 0.000000 0.000000 0.037840 0.000000 0.000000
# 5 0.000000 0.000000 0.000000 0.000000 0.038451 0.000000
# 6 0.000000 0.000000 0.000000 0.000000 0.000000 0.034264
#
#
# Mechanical properties :
#
#
# Convention : Reuss Voigt Hill
#
# Bulk Modulus (GPa) = 40.82868 47.03838 43.93353
# Shear Modulus (GPa) = 26.58929 27.61954 27.10442
#
# Velocity S-wave (km/s) = 3.81619 3.88942 3.85298
# Velocity P-wave (km/s) = 6.46376 6.77744 6.62246
#
# Compressibility (1/GPa) = 0.02449258
#
# Stress axis : x y z
#
# Youngs Moduli (GPa) = 59.10720 57.40857 79.54311
#
# Poissons Ratio (x) = 0.05110 0.55189
# Poissons Ratio (y) = 0.05261 0.26886
# Poissons Ratio (z) = 0.41010 0.19404
#
# Static dielectric constant tensor:
#      x y z
#    x 3.210150 0.000000 0.000000 
#    y 0.000000 3.361690 0.000000 
#    z 0.000000 0.000000 3.328830 
# 
# 
# High freq. dielectric constant tensor:
#      x y z
#    x 1.700220 0.000000 0.000000 
#    y 0.000000 1.718900 0.000000 
#    z 0.000000 0.000000 1.702470 
# 
# From -- ./inp_files/20895.got.cif
#   From: 2010.03.12/outbox.cif.g09.slc.cpg/sg57_11_cif.got.tgz:20895.got - 2010.04.16 15:48:40.
