data_PCOD8231970
_publ_section_title
;
Structure prediction by ZEFSAII (Michael W. Deem and Ramdas Pophale) SiO2 
 PCOD8231970
Probable space group: P B C M
;
_chemical_formula_sum "Si O2"
_cell_formula_units_Z 28
_cell_length_a 7.367859
_cell_length_b 31.815916
_cell_length_c 5.292587
_cell_angle_alpha 90.000000
_cell_angle_beta 90.000000
_cell_angle_gamma 90.000000
_cell_volume 1240.662750
_symmetry_space_group_name_H-M "P B C M"
_symmetry_group_IT_number 57
_symmetry_cell_setting 'orthorhombic'
loop_
_space_group_symop_operation_xyz
x,y,z
-x,-y,1/2+z
x,1/2-y,-z
-x,1/2+y,1/2-z
-x,-y,-z
x,y,1/2-z
-x,1/2+y,z
x,1/2-y,1/2+z
loop_
_atom_site_type_symbol
_atom_site_label
_atom_site_fract_x
_atom_site_fract_y
_atom_site_fract_z
Si Si1 0.686572 0.275818 0.250000
Si Si2 0.613936 0.946053 0.750000
Si Si3 0.024703 0.653305 0.750000
Si Si4 0.735730 0.724165 0.750000
Si Si5 0.999710 0.401429 0.750000
Si Si6 0.494483 0.035937 0.750000
Si Si7 0.110261 0.989409 0.750000
O O1 0.740484 0.250000 0.500000
O O2 0.475357 0.287393 0.250000
O O3 0.795014 0.318920 0.250000
O O4 0.800026 0.921558 0.750000
O O5 0.494110 0.935056 0.500224
O O6 0.640878 0.997867 0.750000
O O7 0.843237 0.680879 0.750000
O O8 0.026768 0.625519 0.500180
O O9 0.789959 0.750000 0.500000
O O10 0.853739 0.439065 0.750000
O O11 0.294550 0.015276 0.750000
O O12 0.000000 0.000000 0.500000
#
# Coordination Sequence:
#
# PCOD8231970 Si02
#       7
#     4   4   4   4   4   4   4
#     4  10  21  41  69  95 120 156 204 239 271 353
#     4  10  20  36  57  79 106 144 197 249 294 339
#     4  12  24  40  59  92 131 156 185 240 310 356
#     4  10  21  41  69  92 115 156 199 233 279 349
#     4  12  24  38  57  85 124 158 190 246 310 356
#     4  10  19  36  59  78  99 142 208 256 281 333
#     4  12  21  38  60  79 109 154 211 249 287 352
#
# _framework density 22.568584999999999
#
# number of rings (size 3 to 8) (size 9 to 14) (size 15 to 20)
#    0.000    1.143    2.857    4.286    0.000    0.000 
#    5.143    0.000    0.000    0.000    0.000    0.000 
#    0.000    0.000    0.000    0.000    0.000    0.000 
#
# Total GULP energy -347026.621861 kJ/mol
# GULP energy per Si atom -12393.807924 kJ/mol
# Density = 2.251722 g / cm^3
# Si number density = 22.568585 Si / 1000 Ang^3
#
#
#
# Elastic Constant Matrix: (Units=GPa)
#
#
# Indices 1 2 3 4 5 6 
#
# 1 71.4340 44.1245 28.6752 0.0000 0.0000 0.0000
# 2 44.1245 124.7913 70.2255 0.0000 0.0000 0.0000
# 3 28.6752 70.2255 249.7754 0.0000 0.0000 0.0000
# 4 0.0000 0.0000 0.0000 47.3221 0.0000 0.0000
# 5 0.0000 0.0000 0.0000 0.0000 14.5228 0.0000
# 6 0.0000 0.0000 0.0000 0.0000 0.0000 35.6293
#
#
#
# Elastic Compliance Matrix: (Units=1/GPa)
#
#
# Indices 1 2 3 4 5 6 
#
# 1 0.017933 -0.006156 -0.000328 0.000000 0.000000 0.000000
# 2 -0.006156 0.011633 -0.002564 0.000000 0.000000 0.000000
# 3 -0.000328 -0.002564 0.004762 0.000000 0.000000 0.000000
# 4 0.000000 0.000000 0.000000 0.021132 0.000000 0.000000
# 5 0.000000 0.000000 0.000000 0.000000 0.068857 0.000000
# 6 0.000000 0.000000 0.000000 0.000000 0.000000 0.028067
#
#
# Mechanical properties :
#
#
# Convention : Reuss Voigt Hill
#
# Bulk Modulus (GPa) = 61.60679 81.33901 71.47290
# Shear Modulus (GPa) = 28.42665 39.69323 34.05994
#
# Velocity S-wave (km/s) = 3.55289 4.19833 3.88902
# Velocity P-wave (km/s) = 6.64737 7.72142 7.20444
#
# Compressibility (1/GPa) = 0.01623198
#
# Stress axis : x y z
#
# Youngs Moduli (GPa) = 55.76187 85.96201 209.99168
#
# Poissons Ratio (x) = 0.52922 0.06886
# Poissons Ratio (y) = 0.34330 0.53840
# Poissons Ratio (z) = 0.01828 0.22040
#
# Static dielectric constant tensor:
#      x y z
#    x 4.185970 0.000000 0.000000 
#    y 0.000000 3.936060 0.000000 
#    z 0.000000 0.000000 5.640010 
# 
# 
# High freq. dielectric constant tensor:
#      x y z
#    x 1.895560 0.000000 0.000000 
#    y 0.000000 1.854640 0.000000 
#    z 0.000000 0.000000 1.939410 
# 
# From -- ./inp_files/176.got.cif
#   From: 2010.03.12/outbox.cif.g09.slc.cpg/sg57_1_cif.got.tgz:176.got - 2010.04.16 15:48:40.
