data_PCOD8231427
_publ_section_title
;
Structure prediction by ZEFSAII (Michael W. Deem and Ramdas Pophale) SiO2 
 PCOD8231427
Probable space group: P B C M
;
_chemical_formula_sum "Si O2"
_cell_formula_units_Z 64
_cell_length_a 21.727702
_cell_length_b 17.921357
_cell_length_c 8.688175
_cell_angle_alpha 90.000000
_cell_angle_beta 90.000000
_cell_angle_gamma 90.000000
_cell_volume 3383.087632
_symmetry_space_group_name_H-M "P B C M"
_symmetry_group_IT_number 57
_symmetry_cell_setting 'orthorhombic'
loop_
_space_group_symop_operation_xyz
x,y,z
-x,-y,1/2+z
x,1/2-y,-z
-x,1/2+y,1/2-z
-x,-y,-z
x,y,1/2-z
-x,1/2+y,z
x,1/2-y,1/2+z
loop_
_atom_site_type_symbol
_atom_site_label
_atom_site_fract_x
_atom_site_fract_y
_atom_site_fract_z
Si Si1 0.244057 0.891231 0.071351
Si Si2 0.936641 0.471120 0.433794
Si Si3 0.272550 0.168799 0.432220
Si Si4 0.494152 0.669379 0.431103
Si Si5 0.371582 0.587633 0.068351
Si Si6 0.875934 0.171473 0.067832
Si Si7 0.815851 0.953914 0.571493
Si Si8 0.610402 0.574086 0.068463
O O1 0.238144 0.869620 0.250000
O O2 0.231208 0.978385 0.043064
O O3 0.312409 0.874979 0.011591
O O4 0.194941 0.842383 0.978132
O O5 0.938139 0.468553 0.250000
O O6 0.922003 0.388985 0.495340
O O7 0.883040 0.526795 0.497319
O O8 0.000000 0.500000 0.500000
O O9 0.267625 0.250000 0.500000
O O10 0.269039 0.173502 0.250000
O O11 0.215290 0.120055 0.500070
O O12 0.335840 0.130266 0.483292
O O13 0.507095 0.750000 0.500000
O O14 0.495969 0.677991 0.250000
O O15 0.429147 0.636972 0.488098
O O16 0.546786 0.611816 0.484369
O O17 0.362732 0.591180 0.250000
O O18 0.382367 0.502877 0.020252
O O19 0.882671 0.170615 0.250000
O O20 0.897900 0.250000 0.000000
O O21 0.825153 0.940293 0.750000
O O22 0.613156 0.557540 0.250000
#
# Coordination Sequence:
#
# PCOD8231427 Si02
#       8
#     8   8   8   8   8   8   8   8
#     4  10  19  36  59  82 110 149 188 231 288 342
#     4  10  20  37  61  88 118 159 204 242 287 340
#     4  10  19  33  53  80 108 140 180 226 281 339
#     4  10  23  39  54  76 107 143 184 234 286 344
#     4  11  22  35  54  83 112 141 187 237 283 342
#     4  11  22  38  60  90 123 156 196 243 293 348
#     4   8  16  33  55  77 107 144 183 225 274 335
#     4  10  20  37  58  77 104 143 187 230 284 345
#
# _framework density 18.917631
#
# number of rings (size 3 to 8) (size 9 to 14) (size 15 to 20)
#    0.000    2.000    1.250    3.750    0.000    2.500 
#    0.000    3.125    0.000    1.500    0.000    0.000 
#    0.000    0.000    0.000    0.000    0.000    0.000 
#
# Total GULP energy -793608.896442 kJ/mol
# GULP energy per Si atom -12400.139007 kJ/mol
# Density = 1.887457 g / cm^3
# Si number density = 18.917631 Si / 1000 Ang^3
#
#
#
# Elastic Constant Matrix: (Units=GPa)
#
#
# Indices 1 2 3 4 5 6 
#
# 1 140.3471 42.0726 36.8403 0.0000 0.0000 0.0000
# 2 42.0726 86.8167 28.8427 0.0000 0.0000 0.0000
# 3 36.8403 28.8427 68.9975 0.0000 0.0000 0.0000
# 4 0.0000 0.0000 0.0000 32.0207 0.0000 0.0000
# 5 0.0000 0.0000 0.0000 0.0000 28.7891 0.0000
# 6 0.0000 0.0000 0.0000 0.0000 0.0000 28.1925
#
#
#
# Elastic Compliance Matrix: (Units=1/GPa)
#
#
# Indices 1 2 3 4 5 6 
#
# 1 0.008996 -0.003210 -0.003462 0.000000 0.000000 0.000000
# 2 -0.003210 0.014521 -0.004357 0.000000 0.000000 0.000000
# 3 -0.003462 -0.004357 0.018163 0.000000 0.000000 0.000000
# 4 0.000000 0.000000 0.000000 0.031230 0.000000 0.000000
# 5 0.000000 0.000000 0.000000 0.000000 0.034735 0.000000
# 6 0.000000 0.000000 0.000000 0.000000 0.000000 0.035470
#
#
# Mechanical properties :
#
#
# Convention : Reuss Voigt Hill
#
# Bulk Modulus (GPa) = 50.95665 56.85249 53.90457
# Shear Modulus (GPa) = 29.11843 30.36084 29.73964
#
# Velocity S-wave (km/s) = 3.92755 4.01046 3.96922
# Velocity P-wave (km/s) = 6.89652 7.18074 7.04006
#
# Compressibility (1/GPa) = 0.01962452
#
# Stress axis : x y z
#
# Youngs Moduli (GPa) = 111.16066 68.86450 55.05786
#
# Poissons Ratio (x) = 0.22102 0.19059
# Poissons Ratio (y) = 0.35678 0.23986
# Poissons Ratio (z) = 0.38480 0.30001
#
# Static dielectric constant tensor:
#      x y z
#    x 3.355470 0.000000 0.000000 
#    y 0.000000 3.309540 0.000000 
#    z 0.000000 0.000000 3.362790 
# 
# 
# High freq. dielectric constant tensor:
#      x y z
#    x 1.740550 0.000000 0.000000 
#    y 0.000000 1.735490 0.000000 
#    z 0.000000 0.000000 1.725810 
# 
# From -- ./inp_files/8622.got.cif
#   From: 2010.03.12/outbox.cif.g09.slc.cpg/sg57_5_cif.got.tgz:8622.got - 2010.04.16 15:48:40.
