data_PCOD8231366
_publ_section_title
;
Structure prediction by ZEFSAII (Michael W. Deem and Ramdas Pophale) SiO2 
 PCOD8231366
Probable space group: P B C M
;
_chemical_formula_sum "Si O2"
_cell_formula_units_Z 40
_cell_length_a 14.506582
_cell_length_b 8.988078
_cell_length_c 15.541856
_cell_angle_alpha 90.000000
_cell_angle_beta 90.000000
_cell_angle_gamma 90.000000
_cell_volume 2026.444952
_symmetry_space_group_name_H-M "P B C M"
_symmetry_group_IT_number 57
_symmetry_cell_setting 'orthorhombic'
loop_
_space_group_symop_operation_xyz
x,y,z
-x,-y,1/2+z
x,1/2-y,-z
-x,1/2+y,1/2-z
-x,-y,-z
x,y,1/2-z
-x,1/2+y,z
x,1/2-y,1/2+z
loop_
_atom_site_type_symbol
_atom_site_label
_atom_site_fract_x
_atom_site_fract_y
_atom_site_fract_z
Si Si1 0.099020 0.572611 0.003376
Si Si2 0.216965 0.547118 0.845158
Si Si3 0.421082 0.674898 0.090703
Si Si4 0.576689 0.012308 0.845113
Si Si5 0.231918 0.899705 0.846435
O O1 0.156195 0.527665 0.089440
O O2 0.090788 0.750000 0.000000
O O3 0.147868 0.499312 0.920138
O O4 0.000000 0.500000 0.000000
O O5 0.183680 0.492852 0.750000
O O6 0.316749 0.477296 0.866741
O O7 0.222063 0.723788 0.844946
O O8 0.511903 0.571686 0.086304
O O9 0.439254 0.810274 0.155741
O O10 0.335689 0.569531 0.119505
O O11 0.397065 0.750000 0.000000
O O12 0.551194 0.954556 0.750000
O O13 0.218192 0.966135 0.750000
#
# Coordination Sequence:
#
# PCOD8231366 Si02
#       5
#     8   8   8   8   8
#     4  10  20  35  54  75  98 127 168 216 262 310
#     4   8  16  32  53  73 100 138 174 204 250 318
#     4  11  20  32  52  79 108 140 180 220 262 315
#     4  10  19  33  52  76 105 140 177 216 261 315
#     4   9  17  32  53  75 100 135 173 208 251 314
#
# _framework density 19.739000999999998
#
# number of rings (size 3 to 8) (size 9 to 14) (size 15 to 20)
#    0.000    2.400    0.000    6.600    0.000    0.800 
#    0.000    3.000    0.000    2.400    0.000    0.000 
#    0.000    0.000    0.000    0.000    0.000    0.000 
#
# Total GULP energy -495755.338700 kJ/mol
# GULP energy per Si atom -12393.883467 kJ/mol
# Density = 1.969407 g / cm^3
# Si number density = 19.739001 Si / 1000 Ang^3
#
#
#
# Elastic Constant Matrix: (Units=GPa)
#
#
# Indices 1 2 3 4 5 6 
#
# 1 161.8587 33.4528 94.1979 0.0000 0.0000 0.0000
# 2 33.4528 24.1314 17.8706 0.0000 0.0000 0.0000
# 3 94.1979 17.8706 165.2482 0.0000 0.0000 0.0000
# 4 0.0000 0.0000 0.0000 10.0064 0.0000 0.0000
# 5 0.0000 0.0000 0.0000 0.0000 30.7493 0.0000
# 6 0.0000 0.0000 0.0000 0.0000 0.0000 35.3293
#
#
#
# Elastic Compliance Matrix: (Units=1/GPa)
#
#
# Indices 1 2 3 4 5 6 
#
# 1 0.011936 -0.012510 -0.005451 0.000000 0.000000 0.000000
# 2 -0.012510 0.058159 0.000842 0.000000 0.000000 0.000000
# 3 -0.005451 0.000842 0.009068 0.000000 0.000000 0.000000
# 4 0.000000 0.000000 0.000000 0.099936 0.000000 0.000000
# 5 0.000000 0.000000 0.000000 0.000000 0.032521 0.000000
# 6 0.000000 0.000000 0.000000 0.000000 0.000000 0.028305
#
#
# Mechanical properties :
#
#
# Convention : Reuss Voigt Hill
#
# Bulk Modulus (GPa) = 22.25989 71.36456 46.81223
# Shear Modulus (GPa) = 17.29271 28.93146 23.11208
#
# Velocity S-wave (km/s) = 2.96306 3.83260 3.42553
# Velocity P-wave (km/s) = 4.79665 7.47112 6.27796
#
# Compressibility (1/GPa) = 0.04492385
#
# Stress axis : x y z
#
# Youngs Moduli (GPa) = 83.77803 17.19426 110.27893
#
# Poissons Ratio (x) = 0.21510 0.60116
# Poissons Ratio (y) = 1.04807 -0.09282
# Poissons Ratio (z) = 0.45670 -0.01447
#
# Static dielectric constant tensor:
#      x y z
#    x 3.591780 0.000000 0.000000 
#    y 0.000000 3.110630 0.000000 
#    z 0.000000 0.000000 4.058620 
# 
# 
# High freq. dielectric constant tensor:
#      x y z
#    x 1.766200 0.000000 0.000000 
#    y 0.000000 1.711300 0.000000 
#    z 0.000000 0.000000 1.789370 
# 
# From -- ./inp_files/17382.got.cif
#   From: 2010.03.12/outbox.cif.g09.slc.cpg/sg57_9_cif.got.tgz:17382.got - 2010.04.16 15:48:40.
