data_PCOD8231180
_publ_section_title
;
Structure prediction by ZEFSAII (Michael W. Deem and Ramdas Pophale) SiO2 
 PCOD8231180
Probable space group: P B C M
;
_chemical_formula_sum "Si O2"
_cell_formula_units_Z 48
_cell_length_a 11.844233
_cell_length_b 25.609854
_cell_length_c 8.662590
_cell_angle_alpha 90.000000
_cell_angle_beta 90.000000
_cell_angle_gamma 90.000000
_cell_volume 2627.615437
_symmetry_space_group_name_H-M "P B C M"
_symmetry_group_IT_number 57
_symmetry_cell_setting 'orthorhombic'
loop_
_space_group_symop_operation_xyz
x,y,z
-x,-y,1/2+z
x,1/2-y,-z
-x,1/2+y,1/2-z
-x,-y,-z
x,y,1/2-z
-x,1/2+y,z
x,1/2-y,1/2+z
loop_
_atom_site_type_symbol
_atom_site_label
_atom_site_fract_x
_atom_site_fract_y
_atom_site_fract_z
Si Si1 0.338077 0.193527 0.067612
Si Si2 0.972487 0.056518 0.431324
Si Si3 0.478429 0.609477 0.432101
Si Si4 0.359321 0.031092 0.925043
Si Si5 0.265936 0.571656 0.569040
Si Si6 0.169961 0.118439 0.923850
O O1 0.325739 0.195879 0.250000
O O2 0.444770 0.158167 0.016764
O O3 0.361878 0.250000 0.000000
O O4 0.222000 0.170694 0.998534
O O5 0.968069 0.049023 0.250000
O O6 0.854281 0.079278 0.489275
O O7 0.064825 0.099468 0.475649
O O8 0.000000 0.000000 0.500000
O O9 0.470413 0.605270 0.250000
O O10 0.528398 0.555049 0.498180
O O11 0.353215 0.615385 0.504307
O O12 0.384714 0.012123 0.750000
O O13 0.263667 0.074372 0.924077
O O14 0.314139 0.985019 0.030427
O O15 0.250806 0.578542 0.750000
O O16 0.129663 0.130798 0.750000
#
# Coordination Sequence:
#
# PCOD8231180 Si02
#       6
#     8   8   8   8   8   8
#     4  10  21  38  62  87 111 141 180 231 286 336
#     4  12  23  36  54  78 112 152 192 229 272 327
#     4  10  21  36  53  77 109 142 182 227 277 332
#     4  10  19  32  51  75 108 146 184 225 269 322
#     4  12  23  34  51  75 109 150 189 225 270 325
#     4  10  20  35  56  82 112 146 187 231 276 326
#
# _framework density 18.267513999999998
#
# number of rings (size 3 to 8) (size 9 to 14) (size 15 to 20)
#    0.000    1.333    1.667    5.500    0.000    3.333 
#    0.000    0.000    0.000    1.000    0.000    4.667 
#    0.000    0.000    0.000    0.000    0.000    0.000 
#
# Total GULP energy -595349.108569 kJ/mol
# GULP energy per Si atom -12403.106429 kJ/mol
# Density = 1.822594 g / cm^3
# Si number density = 18.267514 Si / 1000 Ang^3
#
#
#
# Elastic Constant Matrix: (Units=GPa)
#
#
# Indices 1 2 3 4 5 6 
#
# 1 109.5166 20.2810 50.8125 0.0000 0.0000 0.0000
# 2 20.2810 71.1354 28.6048 0.0000 0.0000 0.0000
# 3 50.8125 28.6048 134.1110 0.0000 0.0000 0.0000
# 4 0.0000 0.0000 0.0000 27.2420 0.0000 0.0000
# 5 0.0000 0.0000 0.0000 0.0000 34.9872 0.0000
# 6 0.0000 0.0000 0.0000 0.0000 0.0000 13.2373
#
#
#
# Elastic Compliance Matrix: (Units=1/GPa)
#
#
# Indices 1 2 3 4 5 6 
#
# 1 0.011249 -0.001633 -0.003914 0.000000 0.000000 0.000000
# 2 -0.001633 0.015614 -0.002711 0.000000 0.000000 0.000000
# 3 -0.003914 -0.002711 0.009518 0.000000 0.000000 0.000000
# 4 0.000000 0.000000 0.000000 0.036708 0.000000 0.000000
# 5 0.000000 0.000000 0.000000 0.000000 0.028582 0.000000
# 6 0.000000 0.000000 0.000000 0.000000 0.000000 0.075544
#
#
# Mechanical properties :
#
#
# Convention : Reuss Voigt Hill
#
# Bulk Modulus (GPa) = 50.34353 57.12883 53.73618
# Shear Modulus (GPa) = 24.95593 29.43097 27.19345
#
# Velocity S-wave (km/s) = 3.70014 4.01822 3.86245
# Velocity P-wave (km/s) = 6.77300 7.27114 7.02649
#
# Compressibility (1/GPa) = 0.01986353
#
# Stress axis : x y z
#
# Youngs Moduli (GPa) = 88.89346 64.04636 105.06730
#
# Poissons Ratio (x) = 0.10462 0.41121
# Poissons Ratio (y) = 0.14520 0.28488
# Poissons Ratio (z) = 0.34791 0.17365
#
# Static dielectric constant tensor:
#      x y z
#    x 3.715530 0.000000 0.000000 
#    y 0.000000 3.130270 0.000000 
#    z 0.000000 0.000000 3.570650 
# 
# 
# High freq. dielectric constant tensor:
#      x y z
#    x 1.716840 0.000000 0.000000 
#    y 0.000000 1.672620 0.000000 
#    z 0.000000 0.000000 1.729070 
# 
# From -- ./inp_files/3168.got.cif
#   From: 2010.03.12/outbox.cif.g09.slc.cpg/sg57_2_cif.got.tgz:3168.got - 2010.04.16 15:48:40.
