data_PCOD8231352
_publ_section_title
;
Structure prediction by ZEFSAII (Michael W. Deem and Ramdas Pophale) SiO2 
 PCOD8231352
Probable space group: P B C M
;
_chemical_formula_sum "Si O2"
_cell_formula_units_Z 64
_cell_length_a 14.437384
_cell_length_b 22.688060
_cell_length_c 9.875743
_cell_angle_alpha 90.000000
_cell_angle_beta 90.000000
_cell_angle_gamma 90.000000
_cell_volume 3234.861189
_symmetry_space_group_name_H-M "P B C M"
_symmetry_group_IT_number 57
_symmetry_cell_setting 'orthorhombic'
loop_
_space_group_symop_operation_xyz
x,y,z
-x,-y,1/2+z
x,1/2-y,-z
-x,1/2+y,1/2-z
-x,-y,-z
x,y,1/2-z
-x,1/2+y,z
x,1/2-y,1/2+z
loop_
_atom_site_type_symbol
_atom_site_label
_atom_site_fract_x
_atom_site_fract_y
_atom_site_fract_z
Si Si1 0.039502 0.367883 0.103035
Si Si2 0.366567 0.397033 0.093866
Si Si3 0.707984 0.507935 0.098542
Si Si4 0.217984 0.301295 0.402479
Si Si5 0.287973 0.872756 0.096132
Si Si6 0.475098 0.693574 0.592608
Si Si7 0.874510 0.383604 0.899827
Si Si8 0.894814 0.511308 0.540204
O O1 0.989866 0.359418 0.250000
O O2 0.109407 0.314310 0.075363
O O3 0.102510 0.427073 0.119075
O O4 0.968896 0.369548 0.979270
O O5 0.373201 0.416853 0.250000
O O6 0.275599 0.359231 0.063639
O O7 0.456102 0.359246 0.051541
O O8 0.356417 0.455600 0.004131
O O9 0.684464 0.528857 0.250000
O O10 0.679523 0.439997 0.077260
O O11 0.819332 0.516481 0.080173
O O12 0.251808 0.250000 0.500000
O O13 0.238323 0.280252 0.250000
O O14 0.251115 0.863984 0.250000
O O15 0.371730 0.828874 0.065213
O O16 0.208196 0.856448 0.988628
O O17 0.495993 0.750000 0.500000
O O18 0.490129 0.710841 0.750000
O O19 0.876395 0.354186 0.750000
O O20 0.862832 0.453926 0.875398
O O21 0.000000 0.500000 0.500000
#
# Coordination Sequence:
#
# PCOD8231352 Si02
#       8
#     8   8   8   8   8   8   8   8
#     4  10  19  33  52  74 108 150 186 225 279 337
#     4  10  21  38  58  84 117 149 185 234 294 347
#     4  10  20  34  55  84 118 154 193 232 281 345
#     4  10  21  36  53  76 107 147 188 231 281 334
#     4   9  20  39  58  82 117 153 186 232 293 347
#     4  10  22  41  65  87 112 147 192 242 293 347
#     4  10  20  32  53  84 112 143 185 233 278 334
#     4   9  18  31  49  77 114 149 188 228 275 323
#
# _framework density 19.784465999999998
#
# number of rings (size 3 to 8) (size 9 to 14) (size 15 to 20)
#    0.000    2.250    1.250    1.125    0.000    9.500 
#    0.000    0.625    0.000    0.000    0.000    0.000 
#    0.000    0.000    0.000    0.000    0.000    0.000 
#
# Total GULP energy -793170.191596 kJ/mol
# GULP energy per Si atom -12393.284244 kJ/mol
# Density = 1.973944 g / cm^3
# Si number density = 19.784466 Si / 1000 Ang^3
#
#
#
# Elastic Constant Matrix: (Units=GPa)
#
#
# Indices 1 2 3 4 5 6 
#
# 1 70.9746 8.7331 33.6631 0.0000 0.0000 0.0000
# 2 8.7331 33.3127 23.0622 0.0000 0.0000 0.0000
# 3 33.6631 23.0622 116.9064 0.0000 0.0000 0.0000
# 4 0.0000 0.0000 0.0000 28.0102 0.0000 0.0000
# 5 0.0000 0.0000 0.0000 0.0000 25.0185 0.0000
# 6 0.0000 0.0000 0.0000 0.0000 0.0000 5.7092
#
#
#
# Elastic Compliance Matrix: (Units=1/GPa)
#
#
# Indices 1 2 3 4 5 6 
#
# 1 0.016359 -0.001190 -0.004476 0.000000 0.000000 0.000000
# 2 -0.001190 0.034853 -0.006533 0.000000 0.000000 0.000000
# 3 -0.004476 -0.006533 0.011131 0.000000 0.000000 0.000000
# 4 0.000000 0.000000 0.000000 0.035701 0.000000 0.000000
# 5 0.000000 0.000000 0.000000 0.000000 0.039970 0.000000
# 6 0.000000 0.000000 0.000000 0.000000 0.000000 0.175155
#
#
# Mechanical properties :
#
#
# Convention : Reuss Voigt Hill
#
# Bulk Modulus (GPa) = 26.35313 39.12340 32.73827
# Shear Modulus (GPa) = 14.27688 22.12992 18.20340
#
# Velocity S-wave (km/s) = 2.68921 3.34810 3.03658
# Velocity P-wave (km/s) = 4.79495 5.89611 5.37381
#
# Compressibility (1/GPa) = 0.03794615
#
# Stress axis : x y z
#
# Youngs Moduli (GPa) = 61.12907 28.69176 89.83612
#
# Poissons Ratio (x) = 0.03414 0.40208
# Poissons Ratio (y) = 0.07275 0.58689
# Poissons Ratio (z) = 0.27360 0.18744
#
# Static dielectric constant tensor:
#      x y z
#    x 3.515120 0.000000 0.000000 
#    y 0.000000 2.901380 0.000000 
#    z 0.000000 0.000000 3.515800 
# 
# 
# High freq. dielectric constant tensor:
#      x y z
#    x 1.767910 0.000000 0.000000 
#    y 0.000000 1.753180 0.000000 
#    z 0.000000 0.000000 1.767670 
# 
# From -- ./inp_files/5674.got.cif
#   From: 2010.03.12/outbox.cif.g09.slc.cpg/sg57_3_cif.got.tgz:5674.got - 2010.04.16 15:48:40.
