data_PCOD8231485
_publ_section_title
;
Structure prediction by ZEFSAII (Michael W. Deem and Ramdas Pophale) SiO2 
 PCOD8231485
Probable space group: P B C M
;
_chemical_formula_sum "Si O2"
_cell_formula_units_Z 40
_cell_length_a 26.067773
_cell_length_b 9.132027
_cell_length_c 8.827218
_cell_angle_alpha 90.000000
_cell_angle_beta 90.000000
_cell_angle_gamma 90.000000
_cell_volume 2101.333429
_symmetry_space_group_name_H-M "P B C M"
_symmetry_group_IT_number 57
_symmetry_cell_setting 'orthorhombic'
loop_
_space_group_symop_operation_xyz
x,y,z
-x,-y,1/2+z
x,1/2-y,-z
-x,1/2+y,1/2-z
-x,-y,-z
x,y,1/2-z
-x,1/2+y,z
x,1/2-y,1/2+z
loop_
_atom_site_type_symbol
_atom_site_label
_atom_site_fract_x
_atom_site_fract_y
_atom_site_fract_z
Si Si1 0.645711 0.592206 0.427690
Si Si2 0.546087 0.090188 0.570538
Si Si3 0.956041 0.406848 0.574417
Si Si4 0.743382 0.089126 0.929673
Si Si5 0.156146 0.592346 0.073787
O O1 0.639364 0.750000 0.500000
O O2 0.647711 0.615258 0.250000
O O3 0.598316 0.490903 0.475377
O O4 0.697235 0.513402 0.486363
O O5 0.547312 0.250000 0.500000
O O6 0.538907 0.101892 0.750000
O O7 0.500000 0.000000 0.500000
O O8 0.956539 0.250000 0.500000
O O9 0.968348 0.388165 0.750000
O O10 0.899777 0.483531 0.550766
O O11 0.000000 0.500000 0.500000
O O12 0.744349 0.103170 0.750000
O O13 0.736522 0.250000 0.000000
O O14 0.796336 0.012402 0.989368
O O15 0.169702 0.607071 0.250000
O O16 0.151800 0.750000 0.000000
#
# Coordination Sequence:
#
# PCOD8231485 Si02
#       5
#     8   8   8   8   8
#     4  10  23  39  56  80 111 145 182 222 268 319
#     4  11  23  40  61  87 116 148 186 228 273 323
#     4  10  20  34  53  77 106 139 178 221 269 322
#     4  10  19  33  54  80 105 135 175 219 265 316
#     4   9  17  30  50  76 103 135 173 216 264 316
#
# _framework density 19.035533999999998
#
# number of rings (size 3 to 8) (size 9 to 14) (size 15 to 20)
#    0.000    2.000    0.000    4.800    0.000    7.200 
#    0.000    1.000    0.000    2.400    0.000    0.000 
#    0.000    0.000    0.000    0.000    0.000    0.000 
#
# Total GULP energy -495822.101638 kJ/mol
# GULP energy per Si atom -12395.552541 kJ/mol
# Density = 1.899221 g / cm^3
# Si number density = 19.035534 Si / 1000 Ang^3
#
#
#
# Elastic Constant Matrix: (Units=GPa)
#
#
# Indices 1 2 3 4 5 6 
#
# 1 197.9059 79.9693 77.2930 0.0000 0.0000 0.0000
# 2 79.9693 112.1991 49.9811 0.0000 0.0000 0.0000
# 3 77.2930 49.9811 106.1775 0.0000 0.0000 0.0000
# 4 0.0000 0.0000 0.0000 32.5004 0.0000 0.0000
# 5 0.0000 0.0000 0.0000 0.0000 35.5265 0.0000
# 6 0.0000 0.0000 0.0000 0.0000 0.0000 33.1664
#
#
#
# Elastic Compliance Matrix: (Units=1/GPa)
#
#
# Indices 1 2 3 4 5 6 
#
# 1 0.008318 -0.004089 -0.004131 0.000000 0.000000 0.000000
# 2 -0.004089 0.013287 -0.003278 0.000000 0.000000 0.000000
# 3 -0.004131 -0.003278 0.013968 0.000000 0.000000 0.000000
# 4 0.000000 0.000000 0.000000 0.030769 0.000000 0.000000
# 5 0.000000 0.000000 0.000000 0.000000 0.028148 0.000000
# 6 0.000000 0.000000 0.000000 0.000000 0.000000 0.030151
#
#
# Mechanical properties :
#
#
# Convention : Reuss Voigt Hill
#
# Bulk Modulus (GPa) = 79.50069 92.30769 85.90419
# Shear Modulus (GPa) = 32.93146 34.17458 33.55302
#
# Velocity S-wave (km/s) = 4.16384 4.24170 4.20295
# Velocity P-wave (km/s) = 8.06051 8.51980 8.29333
#
# Compressibility (1/GPa) = 0.01257851
#
# Stress axis : x y z
#
# Youngs Moduli (GPa) = 120.21603 75.25952 71.59014
#
# Poissons Ratio (x) = 0.30772 0.29572
# Poissons Ratio (y) = 0.49153 0.23470
# Poissons Ratio (z) = 0.49658 0.24672
#
# Static dielectric constant tensor:
#      x y z
#    x 4.522380 0.000000 0.000000 
#    y 0.000000 3.228950 0.000000 
#    z 0.000000 0.000000 3.608340 
# 
# 
# High freq. dielectric constant tensor:
#      x y z
#    x 1.770280 0.000000 0.000000 
#    y 0.000000 1.708880 0.000000 
#    z 0.000000 0.000000 1.753830 
# 
# From -- ./inp_files/8902.got.cif
#   From: 2010.03.12/outbox.cif.g09.slc.cpg/sg57_5_cif.got.tgz:8902.got - 2010.04.16 15:48:40.
