data_PCOD8231946
_publ_section_title
;
Structure prediction by ZEFSAII (Michael W. Deem and Ramdas Pophale) SiO2 
 PCOD8231946
Probable space group: P B C M
;
_chemical_formula_sum "Si O2"
_cell_formula_units_Z 64
_cell_length_a 15.027751
_cell_length_b 23.397481
_cell_length_c 8.872327
_cell_angle_alpha 90.000000
_cell_angle_beta 90.000000
_cell_angle_gamma 90.000000
_cell_volume 3119.612369
_symmetry_space_group_name_H-M "P B C M"
_symmetry_group_IT_number 57
_symmetry_cell_setting 'orthorhombic'
loop_
_space_group_symop_operation_xyz
x,y,z
-x,-y,1/2+z
x,1/2-y,-z
-x,1/2+y,1/2-z
-x,-y,-z
x,y,1/2-z
-x,1/2+y,z
x,1/2-y,1/2+z
loop_
_atom_site_type_symbol
_atom_site_label
_atom_site_fract_x
_atom_site_fract_y
_atom_site_fract_z
Si Si1 0.596397 0.873857 0.423731
Si Si2 0.852889 0.012382 0.421095
Si Si3 0.104620 0.386020 0.423223
Si Si4 0.249367 0.309733 0.926849
Si Si5 0.396498 0.887588 0.423168
Si Si6 0.904295 0.125778 0.576634
Si Si7 0.356127 0.000197 0.577073
Si Si8 0.251187 0.810202 0.927431
O O1 0.626143 0.869236 0.250000
O O2 0.653074 0.828911 0.519131
O O3 0.492668 0.858252 0.444066
O O4 0.614487 0.937852 0.482684
O O5 0.875425 0.030730 0.250000
O O6 0.900445 0.953038 0.464055
O O7 0.888046 0.060237 0.533529
O O8 0.748559 0.005247 0.442535
O O9 0.135852 0.378921 0.250000
O O10 0.175519 0.356093 0.530069
O O11 0.007582 0.358703 0.449719
O O12 0.251456 0.301780 0.750000
O O13 0.222251 0.250000 0.000000
O O14 0.365504 0.884500 0.250000
O O15 0.404561 0.953400 0.473598
O O16 0.324586 0.856397 0.526475
O O17 0.877310 0.133900 0.750000
O O18 0.846187 0.169127 0.477851
O O19 0.385725 0.991383 0.750000
O O20 0.251705 0.803300 0.750000
O O21 0.276041 0.750000 0.000000
#
# Coordination Sequence:
#
# PCOD8231946 Si02
#       8
#     8   8   8   8   8   8   8   8
#     4  10  22  42  65  91 127 165 203 252 306 361
#     4  10  19  35  62  92 127 167 201 246 306 360
#     4  10  22  42  65  91 127 165 203 252 306 361
#     4  12  26  43  66  91 120 161 207 257 305 364
#     4  11  23  39  64  95 126 162 205 252 303 364
#     4  11  23  39  64  95 126 162 205 252 303 364
#     4  10  19  35  62  92 127 167 201 246 306 360
#     4  12  26  45  66  87 120 161 205 259 309 364
#
# _framework density 20.515370999999998
#
# number of rings (size 3 to 8) (size 9 to 14) (size 15 to 20)
#    0.000    1.250    2.500    3.750    0.000    4.000 
#    0.000    0.000    0.000    0.000    0.000    0.000 
#    0.000    0.000    0.000    0.000    0.000    0.000 
#
# Total GULP energy -794013.878106 kJ/mol
# GULP energy per Si atom -12406.466845 kJ/mol
# Density = 2.046868 g / cm^3
# Si number density = 20.515371 Si / 1000 Ang^3
#
#
#
# Elastic Constant Matrix: (Units=GPa)
#
#
# Indices 1 2 3 4 5 6 
#
# 1 74.7887 8.4880 32.5355 0.0000 0.0000 0.0000
# 2 8.4880 64.1787 30.3949 0.0000 0.0000 0.0000
# 3 32.5355 30.3949 120.6405 0.0000 0.0000 0.0000
# 4 0.0000 0.0000 0.0000 38.2472 0.0000 0.0000
# 5 0.0000 0.0000 0.0000 0.0000 23.3790 0.0000
# 6 0.0000 0.0000 0.0000 0.0000 0.0000 2.0425
#
#
#
# Elastic Compliance Matrix: (Units=1/GPa)
#
#
# Indices 1 2 3 4 5 6 
#
# 1 0.015149 -0.000078 -0.004066 0.000000 0.000000 0.000000
# 2 -0.000078 0.017693 -0.004437 0.000000 0.000000 0.000000
# 3 -0.004066 -0.004437 0.010503 0.000000 0.000000 0.000000
# 4 0.000000 0.000000 0.000000 0.026146 0.000000 0.000000
# 5 0.000000 0.000000 0.000000 0.000000 0.042773 0.000000
# 6 0.000000 0.000000 0.000000 0.000000 0.000000 0.489608
#
#
# Mechanical properties :
#
#
# Convention : Reuss Voigt Hill
#
# Bulk Modulus (GPa) = 38.19096 44.71607 41.45352
# Shear Modulus (GPa) = 7.96482 25.27970 16.62226
#
# Velocity S-wave (km/s) = 1.97251 3.51412 2.84955
# Velocity P-wave (km/s) = 4.88302 6.18944 5.57463
#
# Compressibility (1/GPa) = 0.02618421
#
# Stress axis : x y z
#
# Youngs Moduli (GPa) = 66.01268 56.51957 95.20742
#
# Poissons Ratio (x) = 0.00441 0.38709
# Poissons Ratio (y) = 0.00515 0.42240
# Poissons Ratio (z) = 0.26839 0.25076
#
# Static dielectric constant tensor:
#      x y z
#    x 3.752980 0.000000 0.000000 
#    y 0.000000 3.708130 0.000000 
#    z 0.000000 0.000000 3.702540 
# 
# 
# High freq. dielectric constant tensor:
#      x y z
#    x 1.813140 0.000000 0.000000 
#    y 0.000000 1.798350 0.000000 
#    z 0.000000 0.000000 1.800110 
# 
# From -- ./inp_files/5721.got.cif
#   From: 2010.03.12/outbox.cif.g09.slc.cpg/sg57_3_cif.got.tgz:5721.got - 2010.04.16 15:48:40.
