data_PCOD8231310
_publ_section_title
;
Structure prediction by ZEFSAII (Michael W. Deem and Ramdas Pophale) SiO2 
 PCOD8231310
Probable space group: P B C M
;
_chemical_formula_sum "Si O2"
_cell_formula_units_Z 64
_cell_length_a 10.198435
_cell_length_b 17.567903
_cell_length_c 17.837149
_cell_angle_alpha 90.000000
_cell_angle_beta 90.000000
_cell_angle_gamma 90.000000
_cell_volume 3195.794885
_symmetry_space_group_name_H-M "P B C M"
_symmetry_group_IT_number 57
_symmetry_cell_setting 'orthorhombic'
loop_
_space_group_symop_operation_xyz
x,y,z
-x,-y,1/2+z
x,1/2-y,-z
-x,1/2+y,1/2-z
-x,-y,-z
x,y,1/2-z
-x,1/2+y,z
x,1/2-y,1/2+z
loop_
_atom_site_type_symbol
_atom_site_label
_atom_site_fract_x
_atom_site_fract_y
_atom_site_fract_z
Si Si1 0.505443 0.652215 0.836482
Si Si2 0.254411 0.606559 0.421157
Si Si3 0.251970 0.586164 0.902135
Si Si4 0.022590 0.342647 0.093565
Si Si5 0.267006 0.082618 0.078973
Si Si6 0.734251 0.937814 0.093630
Si Si7 0.497583 0.203011 0.421731
Si Si8 0.020705 0.327274 0.584859
O O1 0.533264 0.636233 0.750000
O O2 0.354457 0.637964 0.857405
O O3 0.594883 0.597428 0.886483
O O4 0.541741 0.738984 0.856032
O O5 0.268725 0.599366 0.510058
O O6 0.272387 0.525424 0.379944
O O7 0.362582 0.668467 0.398805
O O8 0.115419 0.635311 0.391114
O O9 0.106244 0.612380 0.879035
O O10 0.281139 0.498400 0.878873
O O11 0.025745 0.256058 0.122936
O O12 0.145397 0.389298 0.128665
O O13 0.029672 0.331103 0.004639
O O14 0.396590 0.133522 0.079786
O O15 0.145146 0.126523 0.116974
O O16 0.235222 0.062084 0.993936
O O17 0.497946 0.250000 0.500000
#
# Coordination Sequence:
#
# PCOD8231310 Si02
#       8
#     8   8   8   8   8   8   8   8
#     4  12  25  39  55  79 113 152 190 232 283 339
#     4  10  19  32  57  86 113 141 183 232 280 326
#     4  10  19  35  55  84 112 145 183 228 278 334
#     4   9  17  29  54  80 116 146 178 222 279 333
#     4  10  19  32  57  86 113 141 183 232 280 326
#     4  10  19  35  55  84 112 145 183 228 278 334
#     4  12  21  35  56  81 110 149 193 238 279 331
#     4   9  17  27  49  88 119 141 169 226 289 329
#
# _framework density 20.026316000000001
#
# number of rings (size 3 to 8) (size 9 to 14) (size 15 to 20)
#    0.000    1.750    2.500    3.000    3.500    5.000 
#    0.000    3.125    0.000    0.000    0.000    1.750 
#    0.000    0.000    0.000    0.000    0.000    0.000 
#
# Total GULP energy -793372.033560 kJ/mol
# GULP energy per Si atom -12396.438024 kJ/mol
# Density = 1.998073 g / cm^3
# Si number density = 20.026316 Si / 1000 Ang^3
#
#
#
# Elastic Constant Matrix: (Units=GPa)
#
#
# Indices 1 2 3 4 5 6 
#
# 1 100.1792 27.1870 8.1350 0.0000 0.0000 0.0000
# 2 27.1870 131.8989 17.2231 0.0000 0.0000 0.0000
# 3 8.1350 17.2231 18.9180 0.0000 0.0000 0.0000
# 4 0.0000 0.0000 0.0000 7.1985 0.0000 0.0000
# 5 0.0000 0.0000 0.0000 0.0000 2.8822 0.0000
# 6 0.0000 0.0000 0.0000 0.0000 0.0000 41.7620
#
#
#
# Elastic Compliance Matrix: (Units=1/GPa)
#
#
# Indices 1 2 3 4 5 6 
#
# 1 0.010716 -0.001824 -0.002948 0.000000 0.000000 0.000000
# 2 -0.001824 0.008915 -0.007332 0.000000 0.000000 0.000000
# 3 -0.002948 -0.007332 0.060802 0.000000 0.000000 0.000000
# 4 0.000000 0.000000 0.000000 0.138918 0.000000 0.000000
# 5 0.000000 0.000000 0.000000 0.000000 0.346959 0.000000
# 6 0.000000 0.000000 0.000000 0.000000 0.000000 0.023945
#
#
# Mechanical properties :
#
#
# Convention : Reuss Voigt Hill
#
# Bulk Modulus (GPa) = 17.78515 39.56514 28.67515
# Shear Modulus (GPa) = 7.89634 23.59860 15.74747
#
# Velocity S-wave (km/s) = 1.98785 3.43648 2.80722
# Velocity P-wave (km/s) = 3.76416 5.96199 4.98569
#
# Compressibility (1/GPa) = 0.05622667
#
# Stress axis : x y z
#
# Youngs Moduli (GPa) = 93.31430 112.17172 16.44675
#
# Poissons Ratio (x) = 0.20460 0.04848
# Poissons Ratio (y) = 0.17020 0.12059
# Poissons Ratio (z) = 0.27506 0.82243
#
# Static dielectric constant tensor:
#      x y z
#    x 3.723810 0.000000 0.000000 
#    y 0.000000 4.036090 0.000000 
#    z 0.000000 0.000000 2.936100 
# 
# 
# High freq. dielectric constant tensor:
#      x y z
#    x 1.797700 0.000000 0.000000 
#    y 0.000000 1.806840 0.000000 
#    z 0.000000 0.000000 1.697780 
# 
# From -- ./inp_files/24594.got.cif
#   From: 2010.03.12/outbox.cif.g09.slc.cpg/sg57_13_cif.got.tgz:24594.got - 2010.04.16 15:48:40.
