data_PCOD8231902
_publ_section_title
;
Structure prediction by ZEFSAII (Michael W. Deem and Ramdas Pophale) SiO2 
 PCOD8231902
Probable space group: P B C M
;
_chemical_formula_sum "Si O2"
_cell_formula_units_Z 64
_cell_length_a 11.509491
_cell_length_b 30.451215
_cell_length_c 9.116139
_cell_angle_alpha 90.000000
_cell_angle_beta 90.000000
_cell_angle_gamma 90.000000
_cell_volume 3195.006028
_symmetry_space_group_name_H-M "P B C M"
_symmetry_group_IT_number 57
_symmetry_cell_setting 'orthorhombic'
loop_
_space_group_symop_operation_xyz
x,y,z
-x,-y,1/2+z
x,1/2-y,-z
-x,1/2+y,1/2-z
-x,-y,-z
x,y,1/2-z
-x,1/2+y,z
x,1/2-y,1/2+z
loop_
_atom_site_type_symbol
_atom_site_label
_atom_site_fract_x
_atom_site_fract_y
_atom_site_fract_z
Si Si1 0.919114 0.029990 0.091754
Si Si2 0.399864 0.296003 0.576886
Si Si3 0.946100 0.619924 0.414740
Si Si4 0.268500 0.939312 0.092712
Si Si5 0.480159 0.046287 0.580556
Si Si6 0.669492 0.293986 0.580125
Si Si7 0.294188 0.381457 0.426563
Si Si8 0.147997 0.651146 0.912465
O O1 0.907115 0.008141 0.250000
O O2 0.973403 0.077832 0.102182
O O3 0.788243 0.028886 0.027645
O O4 0.000000 0.000000 0.000000
O O5 0.364250 0.250000 0.500000
O O6 0.368851 0.293856 0.750000
O O7 0.535591 0.305363 0.552412
O O8 0.333301 0.335456 0.497410
O O9 0.913844 0.637073 0.250000
O O10 0.832868 0.608341 0.509827
O O11 0.024185 0.655801 0.503129
O O12 0.271214 0.964300 0.250000
O O13 0.400652 0.926312 0.052800
O O14 0.182011 0.898973 0.109651
O O15 0.456890 0.035960 0.750000
O O16 0.377174 0.078040 0.521931
O O17 0.500000 0.000000 0.500000
O O18 0.706719 0.250000 0.500000
O O19 0.698175 0.289093 0.750000
O O20 0.748515 0.331118 0.511384
O O21 0.292663 0.376996 0.250000
O O22 0.138499 0.673338 0.750000
#
# Coordination Sequence:
#
# PCOD8231902 Si02
#       8
#     8   8   8   8   8   8   8   8
#     4  10  21  35  55  80 107 140 184 236 287 340
#     4  10  21  38  62  92 123 158 199 244 295 353
#     4  10  22  39  57  81 112 151 195 240 291 352
#     4   9  19  36  55  77 106 141 182 228 280 333
#     4  10  23  39  56  82 116 154 196 243 293 349
#     4  10  20  34  56  87 120 151 187 232 284 343
#     4  11  23  40  61  86 119 159 202 248 301 359
#     4  10  19  35  59  83 111 145 185 235 289 344
#
# _framework density 20.03126
#
# number of rings (size 3 to 8) (size 9 to 14) (size 15 to 20)
#    0.000    2.000    0.000    3.000    1.750    6.000 
#    0.000    0.625    0.000    0.000    0.000    0.000 
#    0.000    0.000    0.000    0.000    0.000    0.000 
#
# Total GULP energy -793135.392007 kJ/mol
# GULP energy per Si atom -12392.740500 kJ/mol
# Density = 1.998567 g / cm^3
# Si number density = 20.031260 Si / 1000 Ang^3
#
#
#
# Elastic Constant Matrix: (Units=GPa)
#
#
# Indices 1 2 3 4 5 6 
#
# 1 96.4449 10.4703 43.2625 0.0000 0.0000 0.0000
# 2 10.4703 49.0711 23.3614 0.0000 0.0000 0.0000
# 3 43.2625 23.3614 131.6764 0.0000 0.0000 0.0000
# 4 0.0000 0.0000 0.0000 33.8716 0.0000 0.0000
# 5 0.0000 0.0000 0.0000 0.0000 31.8623 0.0000
# 6 0.0000 0.0000 0.0000 0.0000 0.0000 10.4863
#
#
#
# Elastic Compliance Matrix: (Units=1/GPa)
#
#
# Indices 1 2 3 4 5 6 
#
# 1 0.012187 -0.000758 -0.003869 0.000000 0.000000 0.000000
# 2 -0.000758 0.022306 -0.003708 0.000000 0.000000 0.000000
# 3 -0.003869 -0.003708 0.009524 0.000000 0.000000 0.000000
# 4 0.000000 0.000000 0.000000 0.029523 0.000000 0.000000
# 5 0.000000 0.000000 0.000000 0.000000 0.031385 0.000000
# 6 0.000000 0.000000 0.000000 0.000000 0.000000 0.095363
#
#
# Mechanical properties :
#
#
# Convention : Reuss Voigt Hill
#
# Bulk Modulus (GPa) = 36.57074 47.93121 42.25097
# Shear Modulus (GPa) = 22.11668 28.58391 25.35029
#
# Velocity S-wave (km/s) = 3.32642 3.78162 3.56130
# Velocity P-wave (km/s) = 5.74890 6.56107 6.16837
#
# Compressibility (1/GPa) = 0.02734427
#
# Stress axis : x y z
#
# Youngs Moduli (GPa) = 82.05705 44.83145 105.00244
#
# Poissons Ratio (x) = 0.03399 0.40630
# Poissons Ratio (y) = 0.06221 0.38938
# Poissons Ratio (z) = 0.31751 0.16625
#
# Static dielectric constant tensor:
#      x y z
#    x 3.741460 0.000000 0.000000 
#    y 0.000000 3.857450 0.000000 
#    z 0.000000 0.000000 4.127050 
# 
# 
# High freq. dielectric constant tensor:
#      x y z
#    x 1.787250 0.000000 0.000000 
#    y 0.000000 1.755060 0.000000 
#    z 0.000000 0.000000 1.800990 
# 
# From -- ./inp_files/3727.got.cif
#   From: 2010.03.12/outbox.cif.g09.slc.cpg/sg57_2_cif.got.tgz:3727.got - 2010.04.16 15:48:40.
