data_PCOD8231821
_publ_section_title
;
Structure prediction by ZEFSAII (Michael W. Deem and Ramdas Pophale) SiO2 
 PCOD8231821
Probable space group: P B C M
;
_chemical_formula_sum "Si O2"
_cell_formula_units_Z 64
_cell_length_a 19.407762
_cell_length_b 10.242460
_cell_length_c 17.409367
_cell_angle_alpha 90.000000
_cell_angle_beta 90.000000
_cell_angle_gamma 90.000000
_cell_volume 3460.690134
_symmetry_space_group_name_H-M "P B C M"
_symmetry_group_IT_number 57
_symmetry_cell_setting 'orthorhombic'
loop_
_space_group_symop_operation_xyz
x,y,z
-x,-y,1/2+z
x,1/2-y,-z
-x,1/2+y,1/2-z
-x,-y,-z
x,y,1/2-z
-x,1/2+y,z
x,1/2-y,1/2+z
loop_
_atom_site_type_symbol
_atom_site_label
_atom_site_fract_x
_atom_site_fract_y
_atom_site_fract_z
Si Si1 0.151126 0.001644 0.097396
Si Si2 0.925441 0.242141 0.409772
Si Si3 0.293342 0.393189 0.906546
Si Si4 0.706557 0.602732 0.588540
Si Si5 0.555006 0.896020 0.907847
Si Si6 0.149690 0.480452 0.083397
Si Si7 0.073870 0.256394 0.839102
Si Si8 0.444923 0.099881 0.909197
O O1 0.231245 0.015116 0.123841
O O2 0.102114 0.099858 0.143167
O O3 0.126852 0.855664 0.115661
O O4 0.144530 0.032478 0.007802
O O5 0.942261 0.250000 0.500000
O O6 0.994721 0.254362 0.362458
O O7 0.889755 0.106829 0.386270
O O8 0.278545 0.246506 0.877235
O O9 0.368935 0.439418 0.877489
O O10 0.296355 0.390849 0.997538
O O11 0.770432 0.509511 0.611978
O O12 0.631735 0.554476 0.618510
O O13 0.539109 0.747553 0.880425
O O14 0.499493 0.997760 0.873042
O O15 0.551611 0.901893 0.999315
O O16 0.116737 0.349690 0.115012
O O17 0.080758 0.225762 0.750000
#
# Coordination Sequence:
#
# PCOD8231821 Si02
#       8
#     8   8   8   8   8   8   8   8
#     4  10  19  35  55  74  99 132 169 207 246 294
#     4  10  22  36  52  76 101 128 164 204 253 304
#     4   8  13  24  44  64  86 125 167 196 230 281
#     4   8  13  24  44  64  86 125 167 196 230 281
#     4   8  13  21  33  55  88 124 156 185 227 282
#     4  10  19  35  55  74  99 132 169 207 246 294
#     4  12  24  36  54  76  97 128 168 206 253 304
#     4   8  13  21  33  55  88 124 156 185 227 282
#
# _framework density 18.493421000000001
#
# number of rings (size 3 to 8) (size 9 to 14) (size 15 to 20)
#    0.000    2.750    1.250    3.375    0.000    4.000 
#    2.250    0.000    0.000    0.000    0.000    0.000 
#    0.000    1.000    0.000    0.000    0.000    0.000 
#
# Total GULP energy -793122.914509 kJ/mol
# GULP energy per Si atom -12392.545539 kJ/mol
# Density = 1.845133 g / cm^3
# Si number density = 18.493421 Si / 1000 Ang^3
#
#
#
# Elastic Constant Matrix: (Units=GPa)
#
#
# Indices 1 2 3 4 5 6 
#
# 1 152.0764 45.4333 11.2901 0.0000 0.0000 0.0000
# 2 45.4333 68.1936 7.3742 0.0000 0.0000 0.0000
# 3 11.2901 7.3742 13.2274 0.0000 0.0000 0.0000
# 4 0.0000 0.0000 0.0000 2.8639 0.0000 0.0000
# 5 0.0000 0.0000 0.0000 0.0000 -3.0469 0.0000
# 6 0.0000 0.0000 0.0000 0.0000 0.0000 28.8557
#
#
#
# Elastic Compliance Matrix: (Units=1/GPa)
#
#
# Indices 1 2 3 4 5 6 
#
# 1 0.008436 -0.005153 -0.004328 0.000000 0.000000 0.000000
# 2 -0.005153 0.018752 -0.006056 0.000000 0.000000 0.000000
# 3 -0.004328 -0.006056 0.082671 0.000000 0.000000 0.000000
# 4 0.000000 0.000000 0.000000 0.349168 0.000000 0.000000
# 5 0.000000 0.000000 0.000000 0.000000 -0.328202 0.000000
# 6 0.000000 0.000000 0.000000 0.000000 0.000000 0.034655
#
#
# Mechanical properties :
#
#
# Convention : Reuss Voigt Hill
#
# Bulk Modulus (GPa) = 12.69269 40.18808 26.44038
# Shear Modulus (GPa) = 22.44003 17.02787 19.73395
#
# Velocity S-wave (km/s) = 3.48718 3.03768 3.27016
# Velocity P-wave (km/s) = 4.80543 5.83794 5.34667
#
# Compressibility (1/GPa) = 0.07878553
#
# Stress axis : x y z
#
# Youngs Moduli (GPa) = 118.53517 53.32796 12.09611
#
# Poissons Ratio (x) = 0.27478 0.05235
# Poissons Ratio (y) = 0.61076 0.07326
# Poissons Ratio (z) = 0.51304 0.32296
#
# Static dielectric constant tensor:
#      x y z
#    x 4.032880 0.000000 0.000000 
#    y 0.000000 3.456340 0.000000 
#    z 0.000000 0.000000 2.848270 
# 
# 
# High freq. dielectric constant tensor:
#      x y z
#    x 1.738400 0.000000 0.000000 
#    y 0.000000 1.707140 0.000000 
#    z 0.000000 0.000000 1.654000 
# 
# From -- ./inp_files/23009.got.cif
#   From: 2010.03.12/outbox.cif.g09.slc.cpg/sg57_12_cif.got.tgz:23009.got - 2010.04.16 15:48:40.
