data_PCOD8231506
_publ_section_title
;
Structure prediction by ZEFSAII (Michael W. Deem and Ramdas Pophale) SiO2 
 PCOD8231506
Probable space group: P B C M
;
_chemical_formula_sum "Si O2"
_cell_formula_units_Z 48
_cell_length_a 11.410325
_cell_length_b 23.453007
_cell_length_c 8.685107
_cell_angle_alpha 90.000000
_cell_angle_beta 90.000000
_cell_angle_gamma 90.000000
_cell_volume 2324.190497
_symmetry_space_group_name_H-M "P B C M"
_symmetry_group_IT_number 57
_symmetry_cell_setting 'orthorhombic'
loop_
_space_group_symop_operation_xyz
x,y,z
-x,-y,1/2+z
x,1/2-y,-z
-x,1/2+y,1/2-z
-x,-y,-z
x,y,1/2-z
-x,1/2+y,z
x,1/2-y,1/2+z
loop_
_atom_site_type_symbol
_atom_site_label
_atom_site_fract_x
_atom_site_fract_y
_atom_site_fract_z
Si Si1 0.807990 0.807763 0.925857
Si Si2 0.635720 0.313155 0.432072
Si Si3 0.273197 0.478277 0.566596
Si Si4 0.601579 0.624767 0.930454
Si Si5 0.045982 0.415706 0.924669
Si Si6 0.786852 0.091849 0.433473
O O1 0.766738 0.799688 0.750000
O O2 0.917251 0.850010 0.936373
O O3 0.854521 0.750000 0.000000
O O4 0.698646 0.829375 0.023923
O O5 0.631828 0.250000 0.500000
O O6 0.646173 0.308322 0.250000
O O7 0.521534 0.348753 0.483100
O O8 0.746015 0.347684 0.499232
O O9 0.273934 0.481140 0.750000
O O10 0.376558 0.435523 0.515455
O O11 0.295808 0.540627 0.495028
O O12 0.148018 0.454743 0.499642
O O13 0.605337 0.613201 0.750000
O O14 0.035066 0.435838 0.750000
O O15 0.917714 0.421130 0.000806
O O16 0.784559 0.095181 0.250000
#
# Coordination Sequence:
#
# PCOD8231506 Si02
#       6
#     8   8   8   8   8   8
#     4  10  19  33  54  82 114 146 186 235 287 339
#     4  11  25  43  61  83 113 150 192 235 281 333
#     4  10  20  37  61  89 119 147 183 232 285 336
#     4  10  21  38  60  85 112 145 188 236 287 339
#     4   8  18  35  55  82 115 151 188 231 281 334
#     4  11  22  38  60  85 116 153 192 230 275 333
#
# _framework density 20.652352
#
# number of rings (size 3 to 8) (size 9 to 14) (size 15 to 20)
#    0.000    2.000    0.000    4.500    0.000    5.333 
#    0.000   10.833    0.000    0.000    0.000    0.000 
#    0.000    0.000    0.000    0.000    0.000    0.000 
#
# Total GULP energy -595177.845189 kJ/mol
# GULP energy per Si atom -12399.538441 kJ/mol
# Density = 2.060535 g / cm^3
# Si number density = 20.652352 Si / 1000 Ang^3
#
#
#
# Elastic Constant Matrix: (Units=GPa)
#
#
# Indices 1 2 3 4 5 6 
#
# 1 67.3123 37.1901 28.7723 0.0000 0.0000 0.0000
# 2 37.1901 123.6125 44.5643 0.0000 0.0000 0.0000
# 3 28.7723 44.5643 67.0528 0.0000 0.0000 0.0000
# 4 0.0000 0.0000 0.0000 40.2657 0.0000 0.0000
# 5 0.0000 0.0000 0.0000 0.0000 25.2038 0.0000
# 6 0.0000 0.0000 0.0000 0.0000 0.0000 13.4587
#
#
#
# Elastic Compliance Matrix: (Units=1/GPa)
#
#
# Indices 1 2 3 4 5 6 
#
# 1 0.019420 -0.003733 -0.005852 0.000000 0.000000 0.000000
# 2 -0.003733 0.011356 -0.005946 0.000000 0.000000 0.000000
# 3 -0.005852 -0.005946 0.021376 0.000000 0.000000 0.000000
# 4 0.000000 0.000000 0.000000 0.024835 0.000000 0.000000
# 5 0.000000 0.000000 0.000000 0.000000 0.039677 0.000000
# 6 0.000000 0.000000 0.000000 0.000000 0.000000 0.074301
#
#
# Mechanical properties :
#
#
# Convention : Reuss Voigt Hill
#
# Bulk Modulus (GPa) = 47.41343 53.22565 50.31954
# Shear Modulus (GPa) = 21.82851 25.61571 23.72211
#
# Velocity S-wave (km/s) = 3.25460 3.52565 3.39284
# Velocity P-wave (km/s) = 6.09352 6.51166 6.30606
#
# Compressibility (1/GPa) = 0.02109107
#
# Stress axis : x y z
#
# Youngs Moduli (GPa) = 51.49319 88.05552 46.78035
#
# Poissons Ratio (x) = 0.32870 0.27377
# Poissons Ratio (y) = 0.19222 0.27815
# Poissons Ratio (z) = 0.30135 0.52357
#
# Static dielectric constant tensor:
#      x y z
#    x 3.822720 0.000000 0.000000 
#    y 0.000000 3.834520 0.000000 
#    z 0.000000 0.000000 3.597510 
# 
# 
# High freq. dielectric constant tensor:
#      x y z
#    x 1.800140 0.000000 0.000000 
#    y 0.000000 1.819460 0.000000 
#    z 0.000000 0.000000 1.801650 
# 
# From -- ./inp_files/3146.got.cif
#   From: 2010.03.12/outbox.cif.g09.slc.cpg/sg57_2_cif.got.tgz:3146.got - 2010.04.16 15:48:40.
