data_PCOD8231275
_publ_section_title
;
Structure prediction by ZEFSAII (Michael W. Deem and Ramdas Pophale) SiO2 
 PCOD8231275
Probable space group: P B C M
;
_chemical_formula_sum "Si O2"
_cell_formula_units_Z 64
_cell_length_a 21.932505
_cell_length_b 9.363997
_cell_length_c 16.519973
_cell_angle_alpha 90.000000
_cell_angle_beta 90.000000
_cell_angle_gamma 90.000000
_cell_volume 3392.804505
_symmetry_space_group_name_H-M "P B C M"
_symmetry_group_IT_number 57
_symmetry_cell_setting 'orthorhombic'
loop_
_space_group_symop_operation_xyz
x,y,z
-x,-y,1/2+z
x,1/2-y,-z
-x,1/2+y,1/2-z
-x,-y,-z
x,y,1/2-z
-x,1/2+y,z
x,1/2-y,1/2+z
loop_
_atom_site_type_symbol
_atom_site_label
_atom_site_fract_x
_atom_site_fract_y
_atom_site_fract_z
Si Si1 0.957822 0.812336 0.344091
Si Si2 0.555662 0.499071 0.605073
Si Si3 0.561834 0.824072 0.845938
Si Si4 0.628520 0.469131 0.445911
Si Si5 0.651993 0.297078 0.839641
Si Si6 0.142634 0.405451 0.468297
Si Si7 0.957382 0.510498 0.422754
Si Si8 0.746101 0.105793 0.041508
O O1 0.941270 0.819676 0.250000
O O2 0.903766 0.890819 0.393114
O O3 0.967535 0.653257 0.372886
O O4 0.023898 0.884613 0.361575
O O5 0.491762 0.428282 0.625936
O O6 0.550623 0.666843 0.621056
O O7 0.574583 0.470729 0.512189
O O8 0.606549 0.431573 0.663718
O O9 0.569243 0.823020 0.750000
O O10 0.622364 0.893186 0.887015
O O11 0.621350 0.322882 0.395925
O O12 0.695109 0.472263 0.486520
O O13 0.661827 0.235353 0.750000
O O14 0.717052 0.348859 0.873032
O O15 0.162899 0.250000 0.500000
O O16 0.111684 0.492523 0.543240
O O17 0.200780 0.494154 0.439834
O O18 0.000000 0.500000 0.500000
O O19 0.771566 0.250000 0.000000
#
# Coordination Sequence:
#
# PCOD8231275 Si02
#       8
#     8   8   8   8   8   8   8   8
#     4  10  19  32  53  82 114 142 179 227 272 311
#     4  11  23  38  54  80 109 140 176 213 264 328
#     4  12  23  36  56  82 111 140 173 220 272 321
#     4  10  22  39  58  78 104 141 181 220 263 318
#     4  10  20  38  59  80 107 136 172 223 275 318
#     4   9  19  34  53  76 107 147 184 218 262 320
#     4   9  18  33  52  77 108 146 182 215 261 319
#     4   9  20  36  56  79 103 138 183 224 262 313
#
# _framework density 18.86345
#
# number of rings (size 3 to 8) (size 9 to 14) (size 15 to 20)
#    0.000    2.000    0.000    5.625    0.000    5.500 
#    0.000    0.000    0.000   21.750    0.000    0.000 
#    0.000    0.000    0.000    0.000    0.000    0.000 
#
# Total GULP energy -793404.531214 kJ/mol
# GULP energy per Si atom -12396.945800 kJ/mol
# Density = 1.882052 g / cm^3
# Si number density = 18.863450 Si / 1000 Ang^3
#
#
#
# Elastic Constant Matrix: (Units=GPa)
#
#
# Indices 1 2 3 4 5 6 
#
# 1 38.8489 16.7876 34.8544 0.0000 0.0000 0.0000
# 2 16.7876 71.5899 51.5385 0.0000 0.0000 0.0000
# 3 34.8544 51.5385 143.4961 0.0000 0.0000 0.0000
# 4 0.0000 0.0000 0.0000 28.3532 0.0000 0.0000
# 5 0.0000 0.0000 0.0000 0.0000 11.6594 0.0000
# 6 0.0000 0.0000 0.0000 0.0000 0.0000 34.4945
#
#
#
# Elastic Compliance Matrix: (Units=1/GPa)
#
#
# Indices 1 2 3 4 5 6 
#
# 1 0.033289 -0.002677 -0.007124 0.000000 0.000000 0.000000
# 2 -0.002677 0.019055 -0.006194 0.000000 0.000000 0.000000
# 3 -0.007124 -0.006194 0.010924 0.000000 0.000000 0.000000
# 4 0.000000 0.000000 0.000000 0.035269 0.000000 0.000000
# 5 0.000000 0.000000 0.000000 0.000000 0.085767 0.000000
# 6 0.000000 0.000000 0.000000 0.000000 0.000000 0.028990
#
#
# Mechanical properties :
#
#
# Convention : Reuss Voigt Hill
#
# Bulk Modulus (GPa) = 31.97145 51.14399 41.55772
# Shear Modulus (GPa) = 19.55327 24.95171 22.25249
#
# Velocity S-wave (km/s) = 3.22307 3.64091 3.43835
# Velocity P-wave (km/s) = 5.55307 6.69676 6.15155
#
# Compressibility (1/GPa) = 0.03127791
#
# Stress axis : x y z
#
# Youngs Moduli (GPa) = 30.03957 52.47931 91.54375
#
# Poissons Ratio (x) = 0.14051 0.65217
# Poissons Ratio (y) = 0.08043 0.56698
# Poissons Ratio (z) = 0.21401 0.32503
#
# Static dielectric constant tensor:
#      x y z
#    x 3.327890 0.000000 0.000000 
#    y 0.000000 3.607590 0.000000 
#    z 0.000000 0.000000 3.579490 
# 
# 
# High freq. dielectric constant tensor:
#      x y z
#    x 1.711950 0.000000 0.000000 
#    y 0.000000 1.741070 0.000000 
#    z 0.000000 0.000000 1.737310 
# 
# From -- ./inp_files/23036.got.cif
#   From: 2010.03.12/outbox.cif.g09.slc.cpg/sg57_12_cif.got.tgz:23036.got - 2010.04.16 15:48:40.
