data_PCOD8231480
_publ_section_title
;
Structure prediction by ZEFSAII (Michael W. Deem and Ramdas Pophale) SiO2 
 PCOD8231480
Probable space group: P B C M
;
_chemical_formula_sum "Si O2"
_cell_formula_units_Z 64
_cell_length_a 8.716538
_cell_length_b 25.628395
_cell_length_c 14.644341
_cell_angle_alpha 90.000000
_cell_angle_beta 90.000000
_cell_angle_gamma 90.000000
_cell_volume 3271.412207
_symmetry_space_group_name_H-M "P B C M"
_symmetry_group_IT_number 57
_symmetry_cell_setting 'orthorhombic'
loop_
_space_group_symop_operation_xyz
x,y,z
-x,-y,1/2+z
x,1/2-y,-z
-x,1/2+y,1/2-z
-x,-y,-z
x,y,1/2-z
-x,1/2+y,z
x,1/2-y,1/2+z
loop_
_atom_site_type_symbol
_atom_site_label
_atom_site_fract_x
_atom_site_fract_y
_atom_site_fract_z
Si Si1 0.402700 0.821476 0.354016
Si Si2 0.561522 0.205462 0.351435
Si Si3 0.150167 0.903961 0.355324
Si Si4 0.518760 0.450777 0.565134
Si Si5 0.064984 0.400028 0.978883
Si Si6 0.783212 0.391260 0.645624
Si Si7 0.623089 0.652698 0.497973
Si Si8 0.226133 0.479408 0.850862
O O1 0.432806 0.836916 0.250000
O O2 0.354689 0.761007 0.367864
O O3 0.264597 0.858288 0.391103
O O4 0.566939 0.827185 0.403700
O O5 0.489692 0.203894 0.250000
O O6 0.687209 0.161179 0.363577
O O7 0.422948 0.194992 0.421165
O O8 0.099456 0.894100 0.250000
O O9 0.000318 0.908078 0.419204
O O10 0.236981 0.958743 0.366490
O O11 0.500000 0.500000 0.500000
O O12 0.690098 0.441237 0.604488
O O13 0.469734 0.400661 0.508939
O O14 0.400057 0.457843 0.648966
O O15 0.195402 0.356004 0.989675
O O16 0.130196 0.453290 0.933481
O O17 0.935615 0.379585 0.910820
O O18 0.825310 0.403986 0.750000
O O19 0.156206 0.466758 0.750000
#
# Coordination Sequence:
#
# PCOD8231480 Si02
#       8
#     8   8   8   8   8   8   8   8
#     4  10  20  38  61  81 102 136 184 236 283 333
#     4   9  19  37  61  82 103 136 184 237 283 327
#     4  10  21  37  58  82 111 147 187 229 278 331
#     4  10  19  33  54  79 108 144 187 231 268 311
#     4  11  22  35  52  80 117 152 180 220 274 337
#     4  10  20  35  56  84 113 147 190 233 277 328
#     4  10  21  34  53  78 107 141 176 220 273 329
#     4  10  20  35  55  80 112 151 188 226 272 326
#
# _framework density 19.563417000000001
#
# number of rings (size 3 to 8) (size 9 to 14) (size 15 to 20)
#    0.000    2.000    0.000    4.500    0.000    5.000 
#    0.000    3.125    0.000    3.750    0.000    0.000 
#    0.000    0.000    0.000    0.000    0.000    0.000 
#
# Total GULP energy -793267.311249 kJ/mol
# GULP energy per Si atom -12394.801738 kJ/mol
# Density = 1.951889 g / cm^3
# Si number density = 19.563417 Si / 1000 Ang^3
#
#
#
# Elastic Constant Matrix: (Units=GPa)
#
#
# Indices 1 2 3 4 5 6 
#
# 1 102.3697 30.3448 57.1732 0.0000 0.0000 0.0000
# 2 30.3448 100.8634 42.1436 0.0000 0.0000 0.0000
# 3 57.1732 42.1436 116.9995 0.0000 0.0000 0.0000
# 4 0.0000 0.0000 0.0000 26.5146 0.0000 0.0000
# 5 0.0000 0.0000 0.0000 0.0000 25.5608 0.0000
# 6 0.0000 0.0000 0.0000 0.0000 0.0000 22.7291
#
#
#
# Elastic Compliance Matrix: (Units=1/GPa)
#
#
# Indices 1 2 3 4 5 6 
#
# 1 0.013639 -0.001552 -0.006106 0.000000 0.000000 0.000000
# 2 -0.001552 0.011848 -0.003509 0.000000 0.000000 0.000000
# 3 -0.006106 -0.003509 0.012795 0.000000 0.000000 0.000000
# 4 0.000000 0.000000 0.000000 0.037715 0.000000 0.000000
# 5 0.000000 0.000000 0.000000 0.000000 0.039122 0.000000
# 6 0.000000 0.000000 0.000000 0.000000 0.000000 0.043996
#
#
# Mechanical properties :
#
#
# Convention : Reuss Voigt Hill
#
# Bulk Modulus (GPa) = 62.70694 64.39510 63.55102
# Shear Modulus (GPa) = 26.77180 27.66564 27.21872
#
# Velocity S-wave (km/s) = 3.70329 3.76460 3.73407
# Velocity P-wave (km/s) = 7.09990 7.20304 7.15166
#
# Compressibility (1/GPa) = 0.01594720
#
# Stress axis : x y z
#
# Youngs Moduli (GPa) = 73.32169 84.40572 78.15808
#
# Poissons Ratio (x) = 0.13100 0.47720
# Poissons Ratio (y) = 0.11380 0.27426
# Poissons Ratio (z) = 0.44767 0.29619
#
# Static dielectric constant tensor:
#      x y z
#    x 3.509680 0.000000 0.000000 
#    y 0.000000 3.693700 0.000000 
#    z 0.000000 0.000000 3.825410 
# 
# 
# High freq. dielectric constant tensor:
#      x y z
#    x 1.739850 0.000000 0.000000 
#    y 0.000000 1.761710 0.000000 
#    z 0.000000 0.000000 1.777570 
# 
# From -- ./inp_files/16928.got.cif
#   From: 2010.03.12/outbox.cif.g09.slc.cpg/sg57_9_cif.got.tgz:16928.got - 2010.04.16 15:48:40.
