data_PCOD8231033
_publ_section_title
;
Structure prediction by ZEFSAII (Michael W. Deem and Ramdas Pophale) SiO2 
 PCOD8231033
Probable space group: P B C M
;
_chemical_formula_sum "Si O2"
_cell_formula_units_Z 48
_cell_length_a 16.407902
_cell_length_b 17.920080
_cell_length_c 9.174093
_cell_angle_alpha 90.000000
_cell_angle_beta 90.000000
_cell_angle_gamma 90.000000
_cell_volume 2697.466973
_symmetry_space_group_name_H-M "P B C M"
_symmetry_group_IT_number 57
_symmetry_cell_setting 'orthorhombic'
loop_
_space_group_symop_operation_xyz
x,y,z
-x,-y,1/2+z
x,1/2-y,-z
-x,1/2+y,1/2-z
-x,-y,-z
x,y,1/2-z
-x,1/2+y,z
x,1/2-y,1/2+z
loop_
_atom_site_type_symbol
_atom_site_label
_atom_site_fract_x
_atom_site_fract_y
_atom_site_fract_z
Si Si1 0.830277 0.324392 0.577088
Si Si2 0.356414 0.174416 0.582301
Si Si3 0.505877 0.077663 0.581468
Si Si4 0.752296 0.537975 0.916805
Si Si5 0.920981 0.025910 0.416982
Si Si6 0.311322 0.900831 0.418978
O O1 0.864340 0.250000 0.500000
O O2 0.823331 0.313142 0.750000
O O3 0.891398 0.391558 0.535465
O O4 0.740688 0.342238 0.513269
O O5 0.338118 0.250000 0.500000
O O6 0.369433 0.194359 0.750000
O O7 0.437276 0.133920 0.520150
O O8 0.277620 0.121991 0.558354
O O9 0.488149 0.060133 0.750000
O O10 0.593281 0.117118 0.559691
O O11 0.500000 0.000000 0.500000
O O12 0.735711 0.511443 0.750000
O O13 0.848687 0.533018 0.949320
O O14 0.703005 0.484713 0.025088
O O15 0.945753 0.026736 0.250000
O O16 0.000000 0.000000 0.500000
O O17 0.285505 0.895145 0.250000
#
# Coordination Sequence:
#
# PCOD8231033 Si02
#       6
#     8   8   8   8   8   8
#     4  10  21  37  56  80 111 145 178 218 272 322
#     4  10  21  36  52  73 105 141 179 222 265 309
#     4  10  20  33  52  77 105 141 184 224 265 314
#     4   9  18  35  55  74 102 139 176 215 265 318
#     4   9  19  35  57  83 107 136 173 214 263 320
#     4  10  19  31  52  81 106 135 180 221 262 318
#
# _framework density 17.794471000000001
#
# number of rings (size 3 to 8) (size 9 to 14) (size 15 to 20)
#    0.000    2.333    1.667    2.000    0.000    6.000 
#    0.000    2.500    0.000    4.000    0.000    0.000 
#    0.000    0.000    0.000    0.000    0.000    0.000 
#
# Total GULP energy -595197.740484 kJ/mol
# GULP energy per Si atom -12399.952927 kJ/mol
# Density = 1.775397 g / cm^3
# Si number density = 17.794471 Si / 1000 Ang^3
#
#
#
# Elastic Constant Matrix: (Units=GPa)
#
#
# Indices 1 2 3 4 5 6 
#
# 1 130.0285 65.2037 50.2778 0.0000 0.0000 0.0000
# 2 65.2037 123.2067 53.4380 0.0000 0.0000 0.0000
# 3 50.2778 53.4380 75.9066 0.0000 0.0000 0.0000
# 4 0.0000 0.0000 0.0000 35.5492 0.0000 0.0000
# 5 0.0000 0.0000 0.0000 0.0000 30.0538 0.0000
# 6 0.0000 0.0000 0.0000 0.0000 0.0000 21.0867
#
#
#
# Elastic Compliance Matrix: (Units=1/GPa)
#
#
# Indices 1 2 3 4 5 6 
#
# 1 0.011582 -0.004034 -0.004832 0.000000 0.000000 0.000000
# 2 -0.004034 0.013089 -0.006543 0.000000 0.000000 0.000000
# 3 -0.004832 -0.006543 0.020980 0.000000 0.000000 0.000000
# 4 0.000000 0.000000 0.000000 0.028130 0.000000 0.000000
# 5 0.000000 0.000000 0.000000 0.000000 0.033274 0.000000
# 6 0.000000 0.000000 0.000000 0.000000 0.000000 0.047423
#
#
# Mechanical properties :
#
#
# Convention : Reuss Voigt Hill
#
# Bulk Modulus (GPa) = 67.40849 74.10897 70.75873
# Shear Modulus (GPa) = 26.28274 28.01940 27.15107
#
# Velocity S-wave (km/s) = 3.84737 3.97244 3.91041
# Velocity P-wave (km/s) = 7.59607 7.92326 7.76139
#
# Compressibility (1/GPa) = 0.01483493
#
# Stress axis : x y z
#
# Youngs Moduli (GPa) = 86.34458 76.40042 47.66344
#
# Poissons Ratio (x) = 0.30817 0.23029
# Poissons Ratio (y) = 0.34828 0.31185
# Poissons Ratio (z) = 0.41717 0.49988
#
# Static dielectric constant tensor:
#      x y z
#    x 3.341290 0.000000 0.000000 
#    y 0.000000 3.231690 0.000000 
#    z 0.000000 0.000000 3.341050 
# 
# 
# High freq. dielectric constant tensor:
#      x y z
#    x 1.684500 0.000000 0.000000 
#    y 0.000000 1.677430 0.000000 
#    z 0.000000 0.000000 1.691480 
# 
# From -- ./inp_files/4656.got.cif
#   From: 2010.03.12/outbox.cif.g09.slc.cpg/sg57_3_cif.got.tgz:4656.got - 2010.04.16 15:48:40.
