data_PCOD8231105
_publ_section_title
;
Structure prediction by ZEFSAII (Michael W. Deem and Ramdas Pophale) SiO2 
 PCOD8231105
Probable space group: P B C M
;
_chemical_formula_sum "Si O2"
_cell_formula_units_Z 48
_cell_length_a 20.662818
_cell_length_b 13.819547
_cell_length_c 8.901857
_cell_angle_alpha 90.000000
_cell_angle_beta 90.000000
_cell_angle_gamma 90.000000
_cell_volume 2541.932250
_symmetry_space_group_name_H-M "P B C M"
_symmetry_group_IT_number 57
_symmetry_cell_setting 'orthorhombic'
loop_
_space_group_symop_operation_xyz
x,y,z
-x,-y,1/2+z
x,1/2-y,-z
-x,1/2+y,1/2-z
-x,-y,-z
x,y,1/2-z
-x,1/2+y,z
x,1/2-y,1/2+z
loop_
_atom_site_type_symbol
_atom_site_label
_atom_site_fract_x
_atom_site_fract_y
_atom_site_fract_z
Si Si1 0.610497 0.342473 0.572020
Si Si2 0.487658 0.398242 0.073371
Si Si3 0.967945 0.353559 0.073639
Si Si4 0.219232 0.352682 0.072527
Si Si5 0.906234 0.529000 0.574525
Si Si6 0.650987 0.947415 0.074446
O O1 0.648500 0.250000 0.500000
O O2 0.612177 0.336982 0.750000
O O3 0.536234 0.327895 0.514228
O O4 0.640588 0.443336 0.510123
O O5 0.503433 0.398757 0.250000
O O6 0.411098 0.377585 0.044226
O O7 0.500000 0.500000 0.000000
O O8 0.960054 0.341646 0.250000
O O9 0.038498 0.394131 0.028324
O O10 0.956764 0.250000 0.000000
O O11 0.914087 0.428698 0.014596
O O12 0.223526 0.337794 0.250000
O O13 0.162257 0.425935 0.028330
O O14 0.285665 0.397152 0.004130
O O15 0.204566 0.250000 0.000000
O O16 0.910380 0.505147 0.750000
O O17 0.662167 0.960840 0.250000
#
# Coordination Sequence:
#
# PCOD8231105 Si02
#       6
#     8   8   8   8   8   8
#     4  10  19  32  50  72  97 129 168 209 256 304
#     4   9  16  29  48  70  96 126 161 203 250 295
#     4  10  19  32  53  80 108 137 171 210 251 295
#     4  10  20  36  55  75 101 133 168 206 251 302
#     4   9  19  34  53  77 106 139 171 207 250 296
#     4   8  17  33  51  71  99 132 164 202 248 300
#
# _framework density 18.883272999999999
#
# number of rings (size 3 to 8) (size 9 to 14) (size 15 to 20)
#    0.000    2.667    0.000    3.000    0.000    2.000 
#    0.000    7.500    0.000    2.000    0.000    0.000 
#    0.000    0.000    0.000    0.000    0.000    0.000 
#
# Total GULP energy -594833.830560 kJ/mol
# GULP energy per Si atom -12392.371470 kJ/mol
# Density = 1.884029 g / cm^3
# Si number density = 18.883273 Si / 1000 Ang^3
#
#
#
# Elastic Constant Matrix: (Units=GPa)
#
#
# Indices 1 2 3 4 5 6 
#
# 1 106.8681 43.8355 30.2142 0.0000 0.0000 0.0000
# 2 43.8355 127.2265 43.0235 0.0000 0.0000 0.0000
# 3 30.2142 43.0235 61.1061 0.0000 0.0000 0.0000
# 4 0.0000 0.0000 0.0000 34.1483 0.0000 0.0000
# 5 0.0000 0.0000 0.0000 0.0000 20.3960 0.0000
# 6 0.0000 0.0000 0.0000 0.0000 0.0000 17.9564
#
#
#
# Elastic Compliance Matrix: (Units=1/GPa)
#
#
# Indices 1 2 3 4 5 6 
#
# 1 0.011537 -0.002685 -0.003814 0.000000 0.000000 0.000000
# 2 -0.002685 0.010941 -0.006376 0.000000 0.000000 0.000000
# 3 -0.003814 -0.006376 0.022740 0.000000 0.000000 0.000000
# 4 0.000000 0.000000 0.000000 0.029284 0.000000 0.000000
# 5 0.000000 0.000000 0.000000 0.000000 0.049029 0.000000
# 6 0.000000 0.000000 0.000000 0.000000 0.000000 0.055691
#
#
# Mechanical properties :
#
#
# Convention : Reuss Voigt Hill
#
# Bulk Modulus (GPa) = 51.36570 58.81632 55.09101
# Shear Modulus (GPa) = 23.64499 26.37530 25.01015
#
# Velocity S-wave (km/s) = 3.54243 3.74137 3.64326
# Velocity P-wave (km/s) = 6.63269 7.06249 6.85096
#
# Compressibility (1/GPa) = 0.01946825
#
# Stress axis : x y z
#
# Youngs Moduli (GPa) = 86.67699 91.39702 43.97579
#
# Poissons Ratio (x) = 0.24543 0.16772
# Poissons Ratio (y) = 0.23276 0.28038
# Poissons Ratio (z) = 0.33057 0.58272
#
# Static dielectric constant tensor:
#      x y z
#    x 3.744180 0.000000 0.000000 
#    y 0.000000 3.609980 0.000000 
#    z 0.000000 0.000000 2.690440 
# 
# 
# High freq. dielectric constant tensor:
#      x y z
#    x 1.717710 0.000000 0.000000 
#    y 0.000000 1.741640 0.000000 
#    z 0.000000 0.000000 1.720550 
# 
# From -- ./inp_files/7855.got.cif
#   From: 2010.03.12/outbox.cif.g09.slc.cpg/sg57_4_cif.got.tgz:7855.got - 2010.04.16 15:48:40.
