data_PCOD8231438
_publ_section_title
;
Structure prediction by ZEFSAII (Michael W. Deem and Ramdas Pophale) SiO2 
 PCOD8231438
Probable space group: P B C M
;
_chemical_formula_sum "Si O2"
_cell_formula_units_Z 48
_cell_length_a 29.286415
_cell_length_b 8.592345
_cell_length_c 9.320523
_cell_angle_alpha 90.000000
_cell_angle_beta 90.000000
_cell_angle_gamma 90.000000
_cell_volume 2345.406915
_symmetry_space_group_name_H-M "P B C M"
_symmetry_group_IT_number 57
_symmetry_cell_setting 'orthorhombic'
loop_
_space_group_symop_operation_xyz
x,y,z
-x,-y,1/2+z
x,1/2-y,-z
-x,1/2+y,1/2-z
-x,-y,-z
x,y,1/2-z
-x,1/2+y,z
x,1/2-y,1/2+z
loop_
_atom_site_type_symbol
_atom_site_label
_atom_site_fract_x
_atom_site_fract_y
_atom_site_fract_z
Si Si1 0.312087 0.400488 0.086436
Si Si2 0.438007 0.070743 0.250000
Si Si3 0.236463 0.585211 0.919453
Si Si4 0.862800 0.403598 0.411294
Si Si5 0.465321 0.069280 0.750000
Si Si6 0.960735 0.088837 0.581361
Si Si7 0.598846 0.066727 0.022970
O O1 0.297139 0.360604 0.250000
O O2 0.329307 0.250000 0.000000
O O3 0.270073 0.467224 0.996546
O O4 0.353427 0.523650 0.097341
O O5 0.454018 0.248434 0.250000
O O6 0.480421 0.951606 0.250000
O O7 0.404582 0.033530 0.379891
O O8 0.248618 0.605353 0.750000
O O9 0.185428 0.508364 0.938633
O O10 0.240074 0.750000 0.000000
O O11 0.862039 0.250000 0.500000
O O12 0.863683 0.342550 0.250000
O O13 0.910748 0.497104 0.438211
O O14 0.445076 0.983246 0.612998
O O15 0.956504 0.250000 0.500000
O O16 0.973144 0.108351 0.750000
O O17 0.000000 0.000000 0.500000
O O18 0.597213 0.250000 0.000000
#
# Coordination Sequence:
#
# PCOD8231438 Si02
#       7
#     8   4   8   8   4   8   8
#     4  12  26  44  65  91 126 163 207 257 320 383
#     4  12  26  42  74  94 136 170 212 260 313 372
#     4  10  20  37  63  92 122 157 202 253 308 368
#     4   8  16  31  53  81 113 151 196 249 303 364
#     4  12  24  48  64 102 130 174 212 258 313 372
#     4  10  19  33  53  80 114 153 200 250 307 367
#     4  12  26  44  68  97 129 166 214 261 312 374
#
# _framework density 20.465530999999999
#
# number of rings (size 3 to 8) (size 9 to 14) (size 15 to 20)
#    0.000    1.333    0.833    5.500    2.333    1.333 
#    0.000    0.833    0.000    0.000    0.000    0.000 
#    0.000    0.000    0.000    0.000    0.000    0.000 
#
# Total GULP energy -594739.675743 kJ/mol
# GULP energy per Si atom -12390.409911 kJ/mol
# Density = 2.041895 g / cm^3
# Si number density = 20.465531 Si / 1000 Ang^3
#
#
#
# Elastic Constant Matrix: (Units=GPa)
#
#
# Indices 1 2 3 4 5 6 
#
# 1 128.0541 26.3218 43.3118 0.0000 0.0000 0.0000
# 2 26.3218 97.9397 29.0506 0.0000 0.0000 0.0000
# 3 43.3118 29.0506 140.2043 0.0000 0.0000 0.0000
# 4 0.0000 0.0000 0.0000 31.5656 0.0000 0.0000
# 5 0.0000 0.0000 0.0000 0.0000 34.3367 0.0000
# 6 0.0000 0.0000 0.0000 0.0000 0.0000 26.6142
#
#
#
# Elastic Compliance Matrix: (Units=1/GPa)
#
#
# Indices 1 2 3 4 5 6 
#
# 1 0.008977 -0.001694 -0.002422 0.000000 0.000000 0.000000
# 2 -0.001694 0.011199 -0.001797 0.000000 0.000000 0.000000
# 3 -0.002422 -0.001797 0.008253 0.000000 0.000000 0.000000
# 4 0.000000 0.000000 0.000000 0.031680 0.000000 0.000000
# 5 0.000000 0.000000 0.000000 0.000000 0.029123 0.000000
# 6 0.000000 0.000000 0.000000 0.000000 0.000000 0.037574
#
#
# Mechanical properties :
#
#
# Convention : Reuss Voigt Hill
#
# Bulk Modulus (GPa) = 60.23379 62.61850 61.42614
# Shear Modulus (GPa) = 34.68221 36.33755 35.50988
#
# Velocity S-wave (km/s) = 4.12110 4.21830 4.16998
# Velocity P-wave (km/s) = 7.22082 7.37488 7.29826
#
# Compressibility (1/GPa) = 0.01660198
#
# Stress axis : x y z
#
# Youngs Moduli (GPa) = 111.40040 89.29609 121.16786
#
# Poissons Ratio (x) = 0.15128 0.29347
# Poissons Ratio (y) = 0.18872 0.21774
# Poissons Ratio (z) = 0.26982 0.16047
#
# Static dielectric constant tensor:
#      x y z
#    x 4.564010 0.000000 0.000000 
#    y 0.000000 3.263410 0.000000 
#    z 0.000000 0.000000 3.984150 
# 
# 
# High freq. dielectric constant tensor:
#      x y z
#    x 1.823810 0.000000 0.000000 
#    y 0.000000 1.765940 0.000000 
#    z 0.000000 0.000000 1.823060 
# 
# From -- ./inp_files/10122.got.cif
#   From: 2010.03.12/outbox.cif.g09.slc.cpg/sg57_6_cif.got.tgz:10122.got - 2010.04.16 15:48:40.
