data_PCOD8231562
_publ_section_title
;
Structure prediction by ZEFSAII (Michael W. Deem and Ramdas Pophale) SiO2 
 PCOD8231562
Probable space group: P B C M
;
_chemical_formula_sum "Si O2"
_cell_formula_units_Z 56
_cell_length_a 17.127640
_cell_length_b 19.733403
_cell_length_c 8.955829
_cell_angle_alpha 90.000000
_cell_angle_beta 90.000000
_cell_angle_gamma 90.000000
_cell_volume 3026.950396
_symmetry_space_group_name_H-M "P B C M"
_symmetry_group_IT_number 57
_symmetry_cell_setting 'orthorhombic'
loop_
_space_group_symop_operation_xyz
x,y,z
-x,-y,1/2+z
x,1/2-y,-z
-x,1/2+y,1/2-z
-x,-y,-z
x,y,1/2-z
-x,1/2+y,z
x,1/2-y,1/2+z
loop_
_atom_site_type_symbol
_atom_site_label
_atom_site_fract_x
_atom_site_fract_y
_atom_site_fract_z
Si Si1 0.686772 0.590032 0.073899
Si Si2 0.271255 0.938583 0.424731
Si Si3 0.561329 0.819938 0.073474
Si Si4 0.381978 0.818741 0.424970
Si Si5 0.039297 0.408802 0.421233
Si Si6 0.183640 0.178605 0.576181
Si Si7 0.891691 0.051549 0.075149
O O1 0.684004 0.603902 0.250000
O O2 0.690881 0.510705 0.035421
O O3 0.609119 0.618267 0.996533
O O4 0.762822 0.623987 0.004265
O O5 0.256410 0.932128 0.250000
O O6 0.330808 0.881453 0.483510
O O7 0.189090 0.926190 0.503257
O O8 0.575403 0.816163 0.250000
O O9 0.471535 0.832999 0.030969
O O10 0.591317 0.750000 0.000000
O O11 0.351200 0.750000 0.500000
O O12 0.373203 0.809157 0.250000
O O13 0.014006 0.417638 0.250000
O O14 0.093716 0.343386 0.444610
O O15 0.087751 0.474908 0.473607
O O16 0.961213 0.399381 0.518429
O O17 0.197553 0.250000 0.500000
O O18 0.206666 0.182529 0.750000
O O19 0.883018 0.059703 0.250000
#
# Coordination Sequence:
#
# PCOD8231562 Si02
#       7
#     8   8   8   8   8   8   8
#     4  11  22  35  54  81 112 147 185 224 273 330
#     4  10  21  37  57  82 114 145 180 227 278 329
#     4  10  20  36  57  79 109 146 186 228 272 326
#     4   9  20  39  60  82 107 142 183 227 279 331
#     4   9  19  35  54  77 107 142 179 222 270 321
#     4  11  22  37  55  79 113 149 187 229 275 326
#     4  10  19  33  56  83 108 137 180 224 269 323
#
# _framework density 18.500468000000001
#
# number of rings (size 3 to 8) (size 9 to 14) (size 15 to 20)
#    0.000    2.000    1.429    2.143    0.000    4.000 
#    0.000    0.714    0.000    0.000    0.000    0.000 
#    0.000    0.000    0.000    0.000    0.000    0.000 
#
# Total GULP energy -694596.343098 kJ/mol
# GULP energy per Si atom -12403.506127 kJ/mol
# Density = 1.845836 g / cm^3
# Si number density = 18.500468 Si / 1000 Ang^3
#
#
#
# Elastic Constant Matrix: (Units=GPa)
#
#
# Indices 1 2 3 4 5 6 
#
# 1 122.9322 70.3505 52.3524 0.0000 0.0000 0.0000
# 2 70.3505 120.2509 56.8235 0.0000 0.0000 0.0000
# 3 52.3524 56.8235 75.6930 0.0000 0.0000 0.0000
# 4 0.0000 0.0000 0.0000 26.4509 0.0000 0.0000
# 5 0.0000 0.0000 0.0000 0.0000 32.7897 0.0000
# 6 0.0000 0.0000 0.0000 0.0000 0.0000 24.1563
#
#
#
# Elastic Compliance Matrix: (Units=1/GPa)
#
#
# Indices 1 2 3 4 5 6 
#
# 1 0.013459 -0.005386 -0.005266 0.000000 0.000000 0.000000
# 2 -0.005386 0.015043 -0.007568 0.000000 0.000000 0.000000
# 3 -0.005266 -0.007568 0.022535 0.000000 0.000000 0.000000
# 4 0.000000 0.000000 0.000000 0.037806 0.000000 0.000000
# 5 0.000000 0.000000 0.000000 0.000000 0.030497 0.000000
# 6 0.000000 0.000000 0.000000 0.000000 0.000000 0.041397
#
#
# Mechanical properties :
#
#
# Convention : Reuss Voigt Hill
#
# Bulk Modulus (GPa) = 68.50314 75.32541 71.91428
# Shear Modulus (GPa) = 24.74738 25.96938 25.35838
#
# Velocity S-wave (km/s) = 3.66137 3.75068 3.70630
# Velocity P-wave (km/s) = 7.41501 7.71755 7.56779
#
# Compressibility (1/GPa) = 0.01459787
#
# Stress axis : x y z
#
# Youngs Moduli (GPa) = 74.29875 66.47662 44.37626
#
# Poissons Ratio (x) = 0.35803 0.23368
# Poissons Ratio (y) = 0.40015 0.33583
# Poissons Ratio (z) = 0.39124 0.50308
#
# Static dielectric constant tensor:
#      x y z
#    x 3.459420 0.000000 0.000000 
#    y 0.000000 3.351610 0.000000 
#    z 0.000000 0.000000 3.442170 
# 
# 
# High freq. dielectric constant tensor:
#      x y z
#    x 1.723210 0.000000 0.000000 
#    y 0.000000 1.705590 0.000000 
#    z 0.000000 0.000000 1.724690 
# 
# From -- ./inp_files/7040.got.cif
#   From: 2010.03.12/outbox.cif.g09.slc.cpg/sg57_4_cif.got.tgz:7040.got - 2010.04.16 15:48:40.
