data_PCOD8231239
_publ_section_title
;
Structure prediction by ZEFSAII (Michael W. Deem and Ramdas Pophale) SiO2 
 PCOD8231239
Probable space group: P B C M
;
_chemical_formula_sum "Si O2"
_cell_formula_units_Z 56
_cell_length_a 22.680956
_cell_length_b 14.360583
_cell_length_c 8.532879
_cell_angle_alpha 90.000000
_cell_angle_beta 90.000000
_cell_angle_gamma 90.000000
_cell_volume 2779.258962
_symmetry_space_group_name_H-M "P B C M"
_symmetry_group_IT_number 57
_symmetry_cell_setting 'orthorhombic'
loop_
_space_group_symop_operation_xyz
x,y,z
-x,-y,1/2+z
x,1/2-y,-z
-x,1/2+y,1/2-z
-x,-y,-z
x,y,1/2-z
-x,1/2+y,z
x,1/2-y,1/2+z
loop_
_atom_site_type_symbol
_atom_site_label
_atom_site_fract_x
_atom_site_fract_y
_atom_site_fract_z
Si Si1 0.470422 0.653195 0.934388
Si Si2 0.368217 0.964831 0.934281
Si Si3 0.986377 0.400278 0.933586
Si Si4 0.100621 0.156954 0.933021
Si Si5 0.138188 0.955910 0.934729
Si Si6 0.747148 0.146656 0.064625
Si Si7 0.401141 0.150518 0.435012
O O1 0.482659 0.660624 0.750000
O O2 0.443984 0.750000 0.000000
O O3 0.424174 0.572674 0.970337
O O4 0.531093 0.630739 0.021806
O O5 0.379514 0.954692 0.750000
O O6 0.310719 0.908837 0.988844
O O7 0.360405 0.072489 0.982888
O O8 0.999407 0.394081 0.750000
O O9 0.916691 0.385652 0.970820
O O10 0.000000 0.500000 0.000000
O O11 0.030985 0.331918 0.023353
O O12 0.108738 0.156633 0.750000
O O13 0.127908 0.060772 0.004628
O O14 0.132691 0.250000 0.000000
O O15 0.144964 0.968246 0.750000
O O16 0.196605 0.908629 0.006596
O O17 0.751994 0.151767 0.250000
O O18 0.744325 0.250000 0.000000
O O19 0.380153 0.250000 0.500000
O O20 0.392721 0.147386 0.250000
#
# Coordination Sequence:
#
# PCOD8231239 Si02
#       7
#     8   8   8   8   8   8   8
#     4  11  21  35  56  84 117 149 184 225 272 325
#     4  11  22  37  57  81 111 147 184 225 273 323
#     4   9  16  29  50  75 106 139 176 218 266 318
#     4  10  19  32  52  78 110 143 180 222 271 327
#     4   8  17  35  55  76 105 143 180 221 270 322
#     4  10  22  40  60  80 106 140 181 226 272 321
#     4  11  22  38  59  84 114 145 181 223 270 326
#
# _framework density 20.149256999999999
#
# number of rings (size 3 to 8) (size 9 to 14) (size 15 to 20)
#    0.000    2.000    0.000    6.429    0.000    2.857 
#    0.000    6.429    0.000    1.714    0.000    0.000 
#    0.000    0.000    0.000    0.000    0.000    0.000 
#
# Total GULP energy -694143.685777 kJ/mol
# GULP energy per Si atom -12395.422960 kJ/mol
# Density = 2.010340 g / cm^3
# Si number density = 20.149257 Si / 1000 Ang^3
#
#
#
# Elastic Constant Matrix: (Units=GPa)
#
#
# Indices 1 2 3 4 5 6 
#
# 1 83.7066 64.4595 18.1247 0.0000 0.0000 0.0000
# 2 64.4595 147.3604 16.9034 0.0000 0.0000 0.0000
# 3 18.1247 16.9034 55.9853 0.0000 0.0000 0.0000
# 4 0.0000 0.0000 0.0000 35.2637 0.0000 0.0000
# 5 0.0000 0.0000 0.0000 0.0000 18.7430 0.0000
# 6 0.0000 0.0000 0.0000 0.0000 0.0000 28.0371
#
#
#
# Elastic Compliance Matrix: (Units=1/GPa)
#
#
# Indices 1 2 3 4 5 6 
#
# 1 0.018734 -0.007768 -0.003720 0.000000 0.000000 0.000000
# 2 -0.007768 0.010251 -0.000580 0.000000 0.000000 0.000000
# 3 -0.003720 -0.000580 0.019241 0.000000 0.000000 0.000000
# 4 0.000000 0.000000 0.000000 0.028358 0.000000 0.000000
# 5 0.000000 0.000000 0.000000 0.000000 0.053353 0.000000
# 6 0.000000 0.000000 0.000000 0.000000 0.000000 0.035667
#
#
# Mechanical properties :
#
#
# Convention : Reuss Voigt Hill
#
# Bulk Modulus (GPa) = 41.51062 54.00306 47.75684
# Shear Modulus (GPa) = 25.28206 28.91307 27.09757
#
# Velocity S-wave (km/s) = 3.54607 3.79218 3.67119
# Velocity P-wave (km/s) = 6.11657 6.78482 6.45935
#
# Compressibility (1/GPa) = 0.02409022
#
# Stress axis : x y z
#
# Youngs Moduli (GPa) = 53.37964 97.55565 51.97200
#
# Poissons Ratio (x) = 0.75781 0.19331
# Poissons Ratio (y) = 0.41465 0.03015
# Poissons Ratio (z) = 0.19855 0.05659
#
# Static dielectric constant tensor:
#      x y z
#    x 3.850210 0.000000 0.000000 
#    y 0.000000 4.097120 0.000000 
#    z 0.000000 0.000000 3.412150 
# 
# 
# High freq. dielectric constant tensor:
#      x y z
#    x 1.764820 0.000000 0.000000 
#    y 0.000000 1.799360 0.000000 
#    z 0.000000 0.000000 1.778480 
# 
# From -- ./inp_files/8004.got.cif
#   From: 2010.03.12/outbox.cif.g09.slc.cpg/sg57_5_cif.got.tgz:8004.got - 2010.04.16 15:48:40.
