data_PCOD8231378
_publ_section_title
;
Structure prediction by ZEFSAII (Michael W. Deem and Ramdas Pophale) SiO2 
 PCOD8231378
Probable space group: P B C M
;
_chemical_formula_sum "Si O2"
_cell_formula_units_Z 40
_cell_length_a 26.199256
_cell_length_b 9.153245
_cell_length_c 8.580888
_cell_angle_alpha 90.000000
_cell_angle_beta 90.000000
_cell_angle_gamma 90.000000
_cell_volume 2057.767383
_symmetry_space_group_name_H-M "P B C M"
_symmetry_group_IT_number 57
_symmetry_cell_setting 'orthorhombic'
loop_
_space_group_symop_operation_xyz
x,y,z
-x,-y,1/2+z
x,1/2-y,-z
-x,1/2+y,1/2-z
-x,-y,-z
x,y,1/2-z
-x,1/2+y,z
x,1/2-y,1/2+z
loop_
_atom_site_type_symbol
_atom_site_label
_atom_site_fract_x
_atom_site_fract_y
_atom_site_fract_z
Si Si1 0.655588 0.591945 0.431469
Si Si2 0.233336 0.086149 0.435326
Si Si3 0.546206 0.589337 0.433075
Si Si4 0.141115 0.588361 0.434463
Si Si5 0.047363 0.088323 0.065237
O O1 0.654151 0.750000 0.500000
O O2 0.656051 0.614170 0.250000
O O3 0.710009 0.520634 0.479074
O O4 0.601648 0.514225 0.479135
O O5 0.225804 0.250000 0.500000
O O6 0.223333 0.087113 0.250000
O O7 0.196020 0.974915 0.520780
O O8 0.543216 0.750000 0.500000
O O9 0.500000 0.500000 0.500000
O O10 0.539651 0.597192 0.250000
O O11 0.134595 0.750000 0.500000
O O12 0.133915 0.590754 0.250000
O O13 0.099458 0.484853 0.511436
O O14 0.044785 0.092205 0.250000
O O15 0.044825 0.250000 0.000000
O O16 0.000000 0.000000 0.000000
#
# Coordination Sequence:
#
# PCOD8231378 Si02
#       5
#     8   8   8   8   8
#     4   8  16  30  51  76 105 138 179 225 275 330
#     4  10  19  35  58  85 112 144 184 231 280 334
#     4  10  19  33  52  77 106 141 181 227 277 333
#     4  12  25  42  61  86 118 155 193 235 283 336
#     4  12  25  44  67  94 124 158 196 238 283 333
#
# _framework density 19.438542999999999
#
# number of rings (size 3 to 8) (size 9 to 14) (size 15 to 20)
#    0.000    1.600    0.000    6.000    0.000    1.600 
#    0.000    1.000    0.000    0.000    0.000    0.000 
#    0.000    0.000    0.000    0.000    0.000    0.000 
#
# Total GULP energy -495602.866161 kJ/mol
# GULP energy per Si atom -12390.071654 kJ/mol
# Density = 1.939430 g / cm^3
# Si number density = 19.438543 Si / 1000 Ang^3
#
#
#
# Elastic Constant Matrix: (Units=GPa)
#
#
# Indices 1 2 3 4 5 6 
#
# 1 186.6676 72.0106 66.0305 0.0000 0.0000 0.0000
# 2 72.0106 111.9747 52.6297 0.0000 0.0000 0.0000
# 3 66.0305 52.6297 126.4385 0.0000 0.0000 0.0000
# 4 0.0000 0.0000 0.0000 34.7679 0.0000 0.0000
# 5 0.0000 0.0000 0.0000 0.0000 33.1359 0.0000
# 6 0.0000 0.0000 0.0000 0.0000 0.0000 27.8205
#
#
#
# Elastic Compliance Matrix: (Units=1/GPa)
#
#
# Indices 1 2 3 4 5 6 
#
# 1 0.007682 -0.003798 -0.002431 0.000000 0.000000 0.000000
# 2 -0.003798 0.012980 -0.003420 0.000000 0.000000 0.000000
# 3 -0.002431 -0.003420 0.010602 0.000000 0.000000 0.000000
# 4 0.000000 0.000000 0.000000 0.028762 0.000000 0.000000
# 5 0.000000 0.000000 0.000000 0.000000 0.030179 0.000000
# 6 0.000000 0.000000 0.000000 0.000000 0.000000 0.035945
#
#
# Mechanical properties :
#
#
# Convention : Reuss Voigt Hill
#
# Bulk Modulus (GPa) = 83.56044 89.60249 86.58146
# Shear Modulus (GPa) = 33.45912 34.77216 34.11564
#
# Velocity S-wave (km/s) = 4.15333 4.23404 4.19388
# Velocity P-wave (km/s) = 8.12899 8.37246 8.25162
#
# Compressibility (1/GPa) = 0.01196739
#
# Stress axis : x y z
#
# Youngs Moduli (GPa) = 130.17266 77.04051 94.32176
#
# Poissons Ratio (x) = 0.29258 0.22930
# Poissons Ratio (y) = 0.49436 0.32255
# Poissons Ratio (z) = 0.31646 0.26345
#
# Static dielectric constant tensor:
#      x y z
#    x 4.580760 0.000000 0.000000 
#    y 0.000000 3.319320 0.000000 
#    z 0.000000 0.000000 3.798010 
# 
# 
# High freq. dielectric constant tensor:
#      x y z
#    x 1.793340 0.000000 0.000000 
#    y 0.000000 1.727080 0.000000 
#    z 0.000000 0.000000 1.775000 
# 
# From -- ./inp_files/8875.got.cif
#   From: 2010.03.12/outbox.cif.g09.slc.cpg/sg57_5_cif.got.tgz:8875.got - 2010.04.16 15:48:40.
