data_PCOD8231037
_publ_section_title
;
Structure prediction by ZEFSAII (Michael W. Deem and Ramdas Pophale) SiO2 
 PCOD8231037
Probable space group: P B C M
;
_chemical_formula_sum "Si O2"
_cell_formula_units_Z 56
_cell_length_a 21.930503
_cell_length_b 14.431442
_cell_length_c 8.972851
_cell_angle_alpha 90.000000
_cell_angle_beta 90.000000
_cell_angle_gamma 90.000000
_cell_volume 2839.806685
_symmetry_space_group_name_H-M "P B C M"
_symmetry_group_IT_number 57
_symmetry_cell_setting 'orthorhombic'
loop_
_space_group_symop_operation_xyz
x,y,z
-x,-y,1/2+z
x,1/2-y,-z
-x,1/2+y,1/2-z
-x,-y,-z
x,y,1/2-z
-x,1/2+y,z
x,1/2-y,1/2+z
loop_
_atom_site_type_symbol
_atom_site_label
_atom_site_fract_x
_atom_site_fract_y
_atom_site_fract_z
Si Si1 0.859158 0.029194 0.574425
Si Si2 0.634515 0.039494 0.077656
Si Si3 0.755501 0.150156 0.426815
Si Si4 0.968221 0.158382 0.922012
Si Si5 0.892866 0.654341 0.927157
Si Si6 0.536991 0.343021 0.425349
Si Si7 0.601544 0.659853 0.921726
O O1 0.846173 0.020236 0.750000
O O2 0.812060 0.098757 0.499940
O O3 0.926359 0.070171 0.541618
O O4 0.853664 0.929167 0.496748
O O5 0.617997 0.055767 0.250000
O O6 0.695832 0.091415 0.032074
O O7 0.642992 0.929925 0.044530
O O8 0.577651 0.072169 0.980285
O O9 0.748132 0.250000 0.500000
O O10 0.765163 0.159390 0.250000
O O11 0.967489 0.182877 0.750000
O O12 0.036952 0.137331 0.974992
O O13 0.941610 0.250000 0.000000
O O14 0.883484 0.657368 0.750000
O O15 0.869378 0.750000 0.000000
O O16 0.563293 0.250000 0.500000
O O17 0.543321 0.333600 0.250000
O O18 0.467472 0.359616 0.477595
O O19 0.600180 0.684556 0.750000
O O20 0.630335 0.750000 0.000000
#
# Coordination Sequence:
#
# PCOD8231037 Si02
#       7
#     8   8   8   8   8   8   8
#     4  11  22  37  57  82 111 146 187 228 273 326
#     4  10  21  37  56  78 108 144 184 227 272 320
#     4  11  24  41  59  80 108 143 182 227 273 321
#     4   9  19  33  53  82 114 146 180 222 273 327
#     4  10  20  36  57  83 114 146 181 224 273 326
#     4  10  19  31  52  81 112 143 177 218 270 327
#     4   9  19  35  54  80 111 142 176 220 270 323
#
# _framework density 19.719652
#
# number of rings (size 3 to 8) (size 9 to 14) (size 15 to 20)
#    0.000    2.000    0.000    3.429    0.000    6.286 
#    0.000    0.714    0.000    1.714    0.000    0.000 
#    0.000    0.000    0.000    0.000    0.000    0.000 
#
# Total GULP energy -694533.956223 kJ/mol
# GULP energy per Si atom -12402.392075 kJ/mol
# Density = 1.967477 g / cm^3
# Si number density = 19.719652 Si / 1000 Ang^3
#
#
#
# Elastic Constant Matrix: (Units=GPa)
#
#
# Indices 1 2 3 4 5 6 
#
# 1 57.1747 46.9469 33.5498 0.0000 0.0000 0.0000
# 2 46.9469 150.0505 60.3781 0.0000 0.0000 0.0000
# 3 33.5498 60.3781 82.3583 0.0000 0.0000 0.0000
# 4 0.0000 0.0000 0.0000 41.0141 0.0000 0.0000
# 5 0.0000 0.0000 0.0000 0.0000 20.2756 0.0000
# 6 0.0000 0.0000 0.0000 0.0000 0.0000 30.0951
#
#
#
# Elastic Compliance Matrix: (Units=1/GPa)
#
#
# Indices 1 2 3 4 5 6 
#
# 1 0.025783 -0.005448 -0.006509 0.000000 0.000000 0.000000
# 2 -0.005448 0.010604 -0.005555 0.000000 0.000000 0.000000
# 3 -0.006509 -0.005555 0.018866 0.000000 0.000000 0.000000
# 4 0.000000 0.000000 0.000000 0.024382 0.000000 0.000000
# 5 0.000000 0.000000 0.000000 0.000000 0.049320 0.000000
# 6 0.000000 0.000000 0.000000 0.000000 0.000000 0.033228
#
#
# Mechanical properties :
#
#
# Convention : Reuss Voigt Hill
#
# Bulk Modulus (GPa) = 49.43258 63.48146 56.45702
# Shear Modulus (GPa) = 24.51583 28.19088 26.35335
#
# Velocity S-wave (km/s) = 3.52976 3.78508 3.65965
# Velocity P-wave (km/s) = 6.46021 7.16689 6.82271
#
# Compressibility (1/GPa) = 0.02022957
#
# Stress axis : x y z
#
# Youngs Moduli (GPa) = 38.78529 94.30400 53.00526
#
# Poissons Ratio (x) = 0.51373 0.34503
# Poissons Ratio (y) = 0.21129 0.29443
# Poissons Ratio (z) = 0.25247 0.52384
#
# Static dielectric constant tensor:
#      x y z
#    x 3.466530 0.000000 0.000000 
#    y 0.000000 3.720370 0.000000 
#    z 0.000000 0.000000 3.583070 
# 
# 
# High freq. dielectric constant tensor:
#      x y z
#    x 1.745440 0.000000 0.000000 
#    y 0.000000 1.781870 0.000000 
#    z 0.000000 0.000000 1.773250 
# 
# From -- ./inp_files/8028.got.cif
#   From: 2010.03.12/outbox.cif.g09.slc.cpg/sg57_5_cif.got.tgz:8028.got - 2010.04.16 15:48:40.
