data_PCOD8231944
_publ_section_title
;
Structure prediction by ZEFSAII (Michael W. Deem and Ramdas Pophale) SiO2 
 PCOD8231944
Probable space group: P B C M
;
_chemical_formula_sum "Si O2"
_cell_formula_units_Z 64
_cell_length_a 11.667323
_cell_length_b 14.371616
_cell_length_c 17.679658
_cell_angle_alpha 90.000000
_cell_angle_beta 90.000000
_cell_angle_gamma 90.000000
_cell_volume 2964.494749
_symmetry_space_group_name_H-M "P B C M"
_symmetry_group_IT_number 57
_symmetry_cell_setting 'orthorhombic'
loop_
_space_group_symop_operation_xyz
x,y,z
-x,-y,1/2+z
x,1/2-y,-z
-x,1/2+y,1/2-z
-x,-y,-z
x,y,1/2-z
-x,1/2+y,z
x,1/2-y,1/2+z
loop_
_atom_site_type_symbol
_atom_site_label
_atom_site_fract_x
_atom_site_fract_y
_atom_site_fract_z
Si Si1 0.582998 0.661264 0.161517
Si Si2 0.512768 0.994252 0.411333
Si Si3 0.699184 0.390618 0.164462
Si Si4 0.666533 0.643119 0.663076
Si Si5 0.923976 0.864361 0.337908
Si Si6 0.866100 0.255564 0.410801
Si Si7 0.940200 0.076527 0.339907
Si Si8 0.189004 0.420731 0.834659
O O1 0.577675 0.636235 0.250000
O O2 0.484747 0.600569 0.120542
O O3 0.577186 0.771717 0.147166
O O4 0.703017 0.626129 0.123893
O O5 0.413031 0.932445 0.374444
O O6 0.632012 0.943869 0.389564
O O7 0.500000 0.000000 0.500000
O O8 0.667530 0.359218 0.250000
O O9 0.750011 0.304548 0.117878
O O10 0.799205 0.467589 0.166457
O O11 0.657436 0.610530 0.750000
O O12 0.796696 0.677531 0.646974
O O13 0.959094 0.857458 0.250000
O O14 0.018336 0.807844 0.384468
O O15 0.912827 0.971495 0.364634
O O16 0.864656 0.250000 0.500000
O O17 0.856597 0.150640 0.378612
O O18 0.932531 0.086416 0.250000
O O19 0.067111 0.102917 0.371701
O O20 0.187390 0.379939 0.750000
#
# Coordination Sequence:
#
# PCOD8231944 Si02
#       8
#     8   8   8   8   8   8   8   8
#     4   9  18  36  64  92 115 160 222 269 316 391
#     4  11  24  42  64  94 129 166 213 281 344 394
#     4  10  20  42  70  89 119 170 225 267 318 398
#     4  10  21  41  66  93 126 166 221 276 326 393
#     4  10  21  41  66  93 127 167 219 280 325 382
#     4  12  25  39  58  97 140 175 212 268 336 406
#     4  10  19  35  62  91 122 169 220 264 319 386
#     4   8  14  30  61  90 111 148 211 269 304 361
#
# _framework density 21.588840000000001
#
# number of rings (size 3 to 8) (size 9 to 14) (size 15 to 20)
#    0.000    2.000    1.250    3.750    0.000    4.000 
#   11.250    0.000    0.000    0.000    0.000    0.000 
#    0.000    0.000    0.000    0.000    0.000    0.000 
#
# Total GULP energy -793326.073685 kJ/mol
# GULP energy per Si atom -12395.719901 kJ/mol
# Density = 2.153970 g / cm^3
# Si number density = 21.588840 Si / 1000 Ang^3
#
#
#
# Elastic Constant Matrix: (Units=GPa)
#
#
# Indices 1 2 3 4 5 6 
#
# 1 43.2931 3.3528 27.6379 0.0000 0.0000 0.0000
# 2 3.3528 90.0034 39.0671 0.0000 0.0000 0.0000
# 3 27.6379 39.0671 116.0320 0.0000 0.0000 0.0000
# 4 0.0000 0.0000 0.0000 21.8527 0.0000 0.0000
# 5 0.0000 0.0000 0.0000 0.0000 22.7543 0.0000
# 6 0.0000 0.0000 0.0000 0.0000 0.0000 34.7452
#
#
#
# Elastic Compliance Matrix: (Units=1/GPa)
#
#
# Indices 1 2 3 4 5 6 
#
# 1 0.027587 0.002137 -0.007290 0.000000 0.000000 0.000000
# 2 0.002137 0.013178 -0.004946 0.000000 0.000000 0.000000
# 3 -0.007290 -0.004946 0.012020 0.000000 0.000000 0.000000
# 4 0.000000 0.000000 0.000000 0.045761 0.000000 0.000000
# 5 0.000000 0.000000 0.000000 0.000000 0.043948 0.000000
# 6 0.000000 0.000000 0.000000 0.000000 0.000000 0.028781
#
#
# Mechanical properties :
#
#
# Convention : Reuss Voigt Hill
#
# Bulk Modulus (GPa) = 30.68802 43.27156 36.97979
# Shear Modulus (GPa) = 24.71141 27.82182 26.26662
#
# Velocity S-wave (km/s) = 3.38692 3.59376 3.49187
# Velocity P-wave (km/s) = 5.43513 6.10796 5.78134
#
# Compressibility (1/GPa) = 0.03258600
#
# Stress axis : x y z
#
# Youngs Moduli (GPa) = 36.24895 75.88457 83.19417
#
# Poissons Ratio (x) = -0.16215 0.60652
# Poissons Ratio (y) = -0.07746 0.41147
# Poissons Ratio (z) = 0.26427 0.37532
#
# Static dielectric constant tensor:
#      x y z
#    x 3.872590 0.000000 0.000000 
#    y 0.000000 4.083790 0.000000 
#    z 0.000000 0.000000 3.484750 
# 
# 
# High freq. dielectric constant tensor:
#      x y z
#    x 1.842040 0.000000 0.000000 
#    y 0.000000 1.858440 0.000000 
#    z 0.000000 0.000000 1.807970 
# 
# From -- ./inp_files/22039.got.cif
#   From: 2010.03.12/outbox.cif.g09.slc.cpg/sg57_12_cif.got.tgz:22039.got - 2010.04.16 15:48:40.
