data_PCOD8231080
_publ_section_title
;
Structure prediction by ZEFSAII (Michael W. Deem and Ramdas Pophale) SiO2 
 PCOD8231080
Probable space group: P B C M
;
_chemical_formula_sum "Si O2"
_cell_formula_units_Z 64
_cell_length_a 16.348832
_cell_length_b 24.188616
_cell_length_c 8.606725
_cell_angle_alpha 90.000000
_cell_angle_beta 90.000000
_cell_angle_gamma 90.000000
_cell_volume 3403.577765
_symmetry_space_group_name_H-M "P B C M"
_symmetry_group_IT_number 57
_symmetry_cell_setting 'orthorhombic'
loop_
_space_group_symop_operation_xyz
x,y,z
-x,-y,1/2+z
x,1/2-y,-z
-x,1/2+y,1/2-z
-x,-y,-z
x,y,1/2-z
-x,1/2+y,z
x,1/2-y,1/2+z
loop_
_atom_site_type_symbol
_atom_site_label
_atom_site_fract_x
_atom_site_fract_y
_atom_site_fract_z
Si Si1 0.973656 0.690820 0.434446
Si Si2 0.882640 0.113848 0.069063
Si Si3 0.465461 0.443381 0.434584
Si Si4 0.203355 0.308256 0.067107
Si Si5 0.750703 0.191484 0.927157
Si Si6 0.224945 0.973780 0.067234
Si Si7 0.369467 0.599793 0.574569
Si Si8 0.292536 0.410460 0.568003
O O1 0.004522 0.750000 0.500000
O O2 0.973853 0.695593 0.250000
O O3 0.883665 0.676389 0.493503
O O4 0.031915 0.640365 0.491046
O O5 0.887778 0.103574 0.250000
O O6 0.814503 0.158728 0.030612
O O7 0.859237 0.054279 0.994590
O O8 0.500000 0.500000 0.500000
O O9 0.448436 0.445374 0.250000
O O10 0.537576 0.400884 0.487334
O O11 0.384309 0.425976 0.523624
O O12 0.193517 0.302300 0.250000
O O13 0.235989 0.250000 0.000000
O O14 0.266895 0.356438 0.027001
O O15 0.782444 0.194688 0.750000
O O16 0.662692 0.162097 0.936620
O O17 0.736430 0.250000 0.000000
O O18 0.224001 0.964008 0.250000
O O19 0.304243 0.942227 0.992726
O O20 0.231568 0.038575 0.024694
O O21 0.374848 0.577863 0.750000
O O22 0.287576 0.397559 0.750000
#
# Coordination Sequence:
#
# PCOD8231080 Si02
#       8
#     8   8   8   8   8   8   8   8
#     4  10  20  35  56  82 111 145 185 233 280 328
#     4  10  20  32  51  81 113 144 185 230 273 326
#     4  11  20  34  56  84 113 144 187 233 278 330
#     4  11  23  41  64  88 111 143 185 231 282 335
#     4  10  19  32  49  71 104 146 184 221 270 325
#     4   9  18  34  54  77 111 151 183 221 276 328
#     4   8  16  32  50  72 105 142 179 221 270 320
#     4  11  22  39  60  85 115 148 186 230 284 339
#
# _framework density 18.803743000000001
#
# number of rings (size 3 to 8) (size 9 to 14) (size 15 to 20)
#    0.000    2.000    1.250    4.875    0.000    4.000 
#    0.000    3.125    0.000    1.500    0.000    0.000 
#    0.000    0.000    0.000    0.000    0.000    0.000 
#
# Total GULP energy -793216.195633 kJ/mol
# GULP energy per Si atom -12394.003057 kJ/mol
# Density = 1.876094 g / cm^3
# Si number density = 18.803743 Si / 1000 Ang^3
#
#
#
# Elastic Constant Matrix: (Units=GPa)
#
#
# Indices 1 2 3 4 5 6 
#
# 1 85.7863 46.4056 15.9712 0.0000 0.0000 0.0000
# 2 46.4056 103.8960 19.8093 0.0000 0.0000 0.0000
# 3 15.9712 19.8093 44.0785 0.0000 0.0000 0.0000
# 4 0.0000 0.0000 0.0000 30.0140 0.0000 0.0000
# 5 0.0000 0.0000 0.0000 0.0000 27.9497 0.0000
# 6 0.0000 0.0000 0.0000 0.0000 0.0000 36.7139
#
#
#
# Elastic Compliance Matrix: (Units=1/GPa)
#
#
# Indices 1 2 3 4 5 6 
#
# 1 0.015674 -0.006473 -0.002770 0.000000 0.000000 0.000000
# 2 -0.006473 0.013200 -0.003587 0.000000 0.000000 0.000000
# 3 -0.002770 -0.003587 0.025303 0.000000 0.000000 0.000000
# 4 0.000000 0.000000 0.000000 0.033318 0.000000 0.000000
# 5 0.000000 0.000000 0.000000 0.000000 0.035779 0.000000
# 6 0.000000 0.000000 0.000000 0.000000 0.000000 0.027238
#
#
# Mechanical properties :
#
#
# Convention : Reuss Voigt Hill
#
# Bulk Modulus (GPa) = 35.06720 44.23700 39.65210
# Shear Modulus (GPa) = 26.92866 29.04052 27.98459
#
# Velocity S-wave (km/s) = 3.78840 3.93415 3.86196
# Velocity P-wave (km/s) = 6.15025 6.64932 6.40465
#
# Compressibility (1/GPa) = 0.02851667
#
# Stress axis : x y z
#
# Youngs Moduli (GPa) = 63.80000 75.75788 39.52163
#
# Poissons Ratio (x) = 0.49035 0.10949
# Poissons Ratio (y) = 0.41295 0.14176
# Poissons Ratio (z) = 0.17675 0.27174
#
# Static dielectric constant tensor:
#      x y z
#    x 3.692120 0.000000 0.000000 
#    y 0.000000 3.527880 0.000000 
#    z 0.000000 0.000000 3.451730 
# 
# 
# High freq. dielectric constant tensor:
#      x y z
#    x 1.722910 0.000000 0.000000 
#    y 0.000000 1.725010 0.000000 
#    z 0.000000 0.000000 1.729410 
# 
# From -- ./inp_files/5707.got.cif
#   From: 2010.03.12/outbox.cif.g09.slc.cpg/sg57_3_cif.got.tgz:5707.got - 2010.04.16 15:48:40.
