data_PCOD8231598
_publ_section_title
;
Structure prediction by ZEFSAII (Michael W. Deem and Ramdas Pophale) SiO2 
 PCOD8231598
Probable space group: P B C M
;
_chemical_formula_sum "Si O2"
_cell_formula_units_Z 64
_cell_length_a 22.996067
_cell_length_b 9.137453
_cell_length_c 15.407978
_cell_angle_alpha 90.000000
_cell_angle_beta 90.000000
_cell_angle_gamma 90.000000
_cell_volume 3237.608795
_symmetry_space_group_name_H-M "P B C M"
_symmetry_group_IT_number 57
_symmetry_cell_setting 'orthorhombic'
loop_
_space_group_symop_operation_xyz
x,y,z
-x,-y,1/2+z
x,1/2-y,-z
-x,1/2+y,1/2-z
-x,-y,-z
x,y,1/2-z
-x,1/2+y,z
x,1/2-y,1/2+z
loop_
_atom_site_type_symbol
_atom_site_label
_atom_site_fract_x
_atom_site_fract_y
_atom_site_fract_z
Si Si1 0.542431 0.815989 0.092850
Si Si2 0.336763 0.411881 0.149760
Si Si3 0.553153 0.988766 0.653988
Si Si4 0.037124 0.044568 0.082315
Si Si5 0.260945 0.924070 0.990397
Si Si6 0.049335 0.352202 0.153773
Si Si7 0.143474 0.082908 0.519206
Si Si8 0.316164 0.426441 0.650000
O O1 0.594621 0.917057 0.128371
O O2 0.531606 0.679024 0.156037
O O3 0.484049 0.913430 0.087269
O O4 0.559215 0.750000 0.000000
O O5 0.326831 0.460033 0.250000
O O6 0.304932 0.523513 0.084868
O O7 0.313559 0.247531 0.134433
O O8 0.544177 0.053667 0.750000
O O9 0.620505 0.991095 0.626735
O O10 0.028287 0.214586 0.099201
O O11 0.105803 0.019733 0.062618
O O12 0.008626 0.953973 0.161175
O O13 0.000000 0.000000 0.000000
O O14 0.197037 0.976140 0.963127
O O15 0.264394 0.750000 0.000000
O O16 0.272329 0.996333 0.084327
O O17 0.070081 0.310098 0.250000
O O18 0.103990 0.426395 0.105656
O O19 0.163804 0.250000 0.500000
O O20 0.299674 0.462129 0.750000
#
# Coordination Sequence:
#
# PCOD8231598 Si02
#       8
#     8   8   8   8   8   8   8   8
#     4  11  21  35  57  86 116 147 188 238 292 354
#     4  10  21  40  64  84 110 155 203 243 292 360
#     4  10  20  35  55  81 113 147 184 230 290 355
#     4   9  18  34  56  82 114 155 191 228 284 345
#     4  12  25  39  59  87 118 151 195 254 310 358
#     4  10  19  33  57  89 120 149 192 242 283 334
#     4   9  20  38  57  77 111 158 199 231 280 350
#     4   9  20  40  62  82 111 156 205 248 294 358
#
# _framework density 19.767676000000002
#
# number of rings (size 3 to 8) (size 9 to 14) (size 15 to 20)
#    0.000    2.000    0.000    6.375    0.000    4.500 
#    0.000    5.625    0.000    0.000    0.000    0.000 
#    0.000    0.000    0.000    0.000    0.000    0.000 
#
# Total GULP energy -793308.854457 kJ/mol
# GULP energy per Si atom -12395.450851 kJ/mol
# Density = 1.972268 g / cm^3
# Si number density = 19.767676 Si / 1000 Ang^3
#
#
#
# Elastic Constant Matrix: (Units=GPa)
#
#
# Indices 1 2 3 4 5 6 
#
# 1 87.7796 54.3926 39.5540 0.0000 0.0000 0.0000
# 2 54.3926 89.2318 43.7456 0.0000 0.0000 0.0000
# 3 39.5540 43.7456 116.0322 0.0000 0.0000 0.0000
# 4 0.0000 0.0000 0.0000 25.0836 0.0000 0.0000
# 5 0.0000 0.0000 0.0000 0.0000 20.6986 0.0000
# 6 0.0000 0.0000 0.0000 0.0000 0.0000 36.5673
#
#
#
# Elastic Compliance Matrix: (Units=1/GPa)
#
#
# Indices 1 2 3 4 5 6 
#
# 1 0.018915 -0.010266 -0.002577 0.000000 0.000000 0.000000
# 2 -0.010266 0.019320 -0.003784 0.000000 0.000000 0.000000
# 3 -0.002577 -0.003784 0.010924 0.000000 0.000000 0.000000
# 4 0.000000 0.000000 0.000000 0.039867 0.000000 0.000000
# 5 0.000000 0.000000 0.000000 0.000000 0.048312 0.000000
# 6 0.000000 0.000000 0.000000 0.000000 0.000000 0.027347
#
#
# Mechanical properties :
#
#
# Convention : Reuss Voigt Hill
#
# Bulk Modulus (GPa) = 62.88226 63.15866 63.02046
# Shear Modulus (GPa) = 24.60127 26.82668 25.71397
#
# Velocity S-wave (km/s) = 3.53160 3.68788 3.61059
# Velocity P-wave (km/s) = 6.96486 7.08193 7.02364
#
# Compressibility (1/GPa) = 0.01590274
#
# Stress axis : x y z
#
# Youngs Moduli (GPa) = 52.86764 51.75975 91.54514
#
# Poissons Ratio (x) = 0.53139 0.23595
# Poissons Ratio (y) = 0.54276 0.34642
# Poissons Ratio (z) = 0.13626 0.19587
#
# Static dielectric constant tensor:
#      x y z
#    x 3.565100 0.000000 0.000000 
#    y 0.000000 3.617400 0.000000 
#    z 0.000000 0.000000 3.742300 
# 
# 
# High freq. dielectric constant tensor:
#      x y z
#    x 1.759950 0.000000 0.000000 
#    y 0.000000 1.759220 0.000000 
#    z 0.000000 0.000000 1.776550 
# 
# From -- ./inp_files/19472.got.cif
#   From: 2010.03.12/outbox.cif.g09.slc.cpg/sg57_10_cif.got.tgz:19472.got - 2010.04.16 15:48:40.
