data_PCOD8231494
_publ_section_title
;
Structure prediction by ZEFSAII (Michael W. Deem and Ramdas Pophale) SiO2 
 PCOD8231494
Probable space group: P B C M
;
_chemical_formula_sum "Si O2"
_cell_formula_units_Z 48
_cell_length_a 31.073643
_cell_length_b 9.507238
_cell_length_c 8.758373
_cell_angle_alpha 90.000000
_cell_angle_beta 90.000000
_cell_angle_gamma 90.000000
_cell_volume 2587.438135
_symmetry_space_group_name_H-M "P B C M"
_symmetry_group_IT_number 57
_symmetry_cell_setting 'orthorhombic'
loop_
_space_group_symop_operation_xyz
x,y,z
-x,-y,1/2+z
x,1/2-y,-z
-x,1/2+y,1/2-z
-x,-y,-z
x,y,1/2-z
-x,1/2+y,z
x,1/2-y,1/2+z
loop_
_atom_site_type_symbol
_atom_site_label
_atom_site_fract_x
_atom_site_fract_y
_atom_site_fract_z
Si Si1 0.794283 0.601293 0.925908
Si Si2 0.298216 0.403521 0.070678
Si Si3 0.888217 0.906856 0.068194
Si Si4 0.534462 0.399437 0.427552
Si Si5 0.368536 0.600108 0.927610
Si Si6 0.961863 0.406793 0.067235
O O1 0.795450 0.634232 0.750000
O O2 0.748928 0.522901 0.965705
O O3 0.840095 0.531099 0.969955
O O4 0.792016 0.750000 0.000000
O O5 0.306313 0.393114 0.250000
O O6 0.299875 0.250000 0.000000
O O7 0.335985 0.490845 0.997672
O O8 0.897648 0.902280 0.250000
O O9 0.894950 0.750000 0.000000
O O10 0.918064 0.018782 0.984192
O O11 0.526753 0.250000 0.500000
O O12 0.500000 0.500000 0.500000
O O13 0.525533 0.387752 0.250000
O O14 0.582931 0.452658 0.461695
O O15 0.359747 0.614076 0.750000
O O16 0.359666 0.750000 0.000000
O O17 0.964937 0.399829 0.250000
O O18 0.964459 0.250000 0.000000
O O19 0.000000 0.500000 0.000000
#
# Coordination Sequence:
#
# PCOD8231494 Si02
#       6
#     8   8   8   8   8   8
#     4   8  16  30  51  78 109 142 179 220 265 313
#     4  10  19  33  54  81 110 143 182 225 266 312
#     4  10  19  35  58  85 114 146 182 223 269 320
#     4  10  21  37  57  79 105 136 174 217 266 319
#     4  10  21  37  55  77 105 140 177 218 267 321
#     4  12  25  42  61  84 112 145 183 225 271 321
#
# _framework density 18.551169000000002
#
# number of rings (size 3 to 8) (size 9 to 14) (size 15 to 20)
#    0.000    2.000    0.000    4.000    0.000    4.000 
#    0.000    0.833    0.000    0.000    0.000    0.000 
#    0.000    0.000    0.000    0.000    0.000    0.000 
#
# Total GULP energy -594719.424419 kJ/mol
# GULP energy per Si atom -12389.988009 kJ/mol
# Density = 1.850895 g / cm^3
# Si number density = 18.551169 Si / 1000 Ang^3
#
#
#
# Elastic Constant Matrix: (Units=GPa)
#
#
# Indices 1 2 3 4 5 6 
#
# 1 183.0214 92.3158 88.1893 0.0000 0.0000 0.0000
# 2 92.3158 96.4681 78.7956 0.0000 0.0000 0.0000
# 3 88.1893 78.7956 102.8657 0.0000 0.0000 0.0000
# 4 0.0000 0.0000 0.0000 35.2599 0.0000 0.0000
# 5 0.0000 0.0000 0.0000 0.0000 27.6864 0.0000
# 6 0.0000 0.0000 0.0000 0.0000 0.0000 24.9844
#
#
#
# Elastic Compliance Matrix: (Units=1/GPa)
#
#
# Indices 1 2 3 4 5 6 
#
# 1 0.011058 -0.007583 -0.003672 0.000000 0.000000 0.000000
# 2 -0.007583 0.032893 -0.018695 0.000000 0.000000 0.000000
# 3 -0.003672 -0.018695 0.027190 0.000000 0.000000 0.000000
# 4 0.000000 0.000000 0.000000 0.028361 0.000000 0.000000
# 5 0.000000 0.000000 0.000000 0.000000 0.036119 0.000000
# 6 0.000000 0.000000 0.000000 0.000000 0.000000 0.040025
#
#
# Mechanical properties :
#
#
# Convention : Reuss Voigt Hill
#
# Bulk Modulus (GPa) = 88.95844 100.10630 94.53237
# Shear Modulus (GPa) = 20.89506 25.78979 23.34243
#
# Velocity S-wave (km/s) = 3.35975 3.73258 3.55106
# Velocity P-wave (km/s) = 7.94403 8.52383 8.23903
#
# Compressibility (1/GPa) = 0.01124120
#
# Stress axis : x y z
#
# Youngs Moduli (GPa) = 90.43387 30.40179 36.77859
#
# Poissons Ratio (x) = 0.23053 0.13504
# Poissons Ratio (y) = 0.68574 0.68758
# Poissons Ratio (z) = 0.33204 0.56836
#
# Static dielectric constant tensor:
#      x y z
#    x 4.269880 0.000000 0.000000 
#    y 0.000000 3.331880 0.000000 
#    z 0.000000 0.000000 3.601530 
# 
# 
# High freq. dielectric constant tensor:
#      x y z
#    x 1.748180 0.000000 0.000000 
#    y 0.000000 1.691320 0.000000 
#    z 0.000000 0.000000 1.740060 
# 
# From -- ./inp_files/9938.got.cif
#   From: 2010.03.12/outbox.cif.g09.slc.cpg/sg57_5_cif.got.tgz:9938.got - 2010.04.16 15:48:40.
