data_PCOD8231628
_publ_section_title
;
Structure prediction by ZEFSAII (Michael W. Deem and Ramdas Pophale) SiO2 
 PCOD8231628
Probable space group: P B C M
;
_chemical_formula_sum "Si O2"
_cell_formula_units_Z 64
_cell_length_a 21.116638
_cell_length_b 18.887256
_cell_length_c 8.945732
_cell_angle_alpha 90.000000
_cell_angle_beta 90.000000
_cell_angle_gamma 90.000000
_cell_volume 3567.874133
_symmetry_space_group_name_H-M "P B C M"
_symmetry_group_IT_number 57
_symmetry_cell_setting 'orthorhombic'
loop_
_space_group_symop_operation_xyz
x,y,z
-x,-y,1/2+z
x,1/2-y,-z
-x,1/2+y,1/2-z
-x,-y,-z
x,y,1/2-z
-x,1/2+y,z
x,1/2-y,1/2+z
loop_
_atom_site_type_symbol
_atom_site_label
_atom_site_fract_x
_atom_site_fract_y
_atom_site_fract_z
Si Si1 0.186713 0.529951 0.078784
Si Si2 0.053312 0.454806 0.078080
Si Si3 0.134682 0.821583 0.575068
Si Si4 0.588194 0.037892 0.085119
Si Si5 0.514236 0.892733 0.414273
Si Si6 0.010307 0.178138 0.426473
Si Si7 0.303125 0.038520 0.426249
Si Si8 0.358610 0.324330 0.071354
O O1 0.210920 0.525101 0.250000
O O2 0.119889 0.492534 0.061626
O O3 0.178588 0.612010 0.029311
O O4 0.234490 0.490757 0.968496
O O5 0.034602 0.444206 0.250000
O O6 0.000000 0.500000 0.000000
O O7 0.056827 0.380178 0.994553
O O8 0.161047 0.750000 0.500000
O O9 0.136771 0.809018 0.750000
O O10 0.062385 0.837348 0.525968
O O11 0.613396 0.058958 0.250000
O O12 0.543854 0.970178 0.098438
O O13 0.547051 0.104002 0.021566
O O14 0.646615 0.020975 0.976893
O O15 0.491843 0.867907 0.250000
O O16 0.568291 0.839545 0.475891
O O17 0.034159 0.250000 0.500000
O O18 0.018627 0.180981 0.250000
O O19 0.308661 0.050277 0.250000
O O20 0.314134 0.113518 0.507963
O O21 0.351219 0.322822 0.250000
O O22 0.337292 0.250000 0.000000
#
# Coordination Sequence:
#
# PCOD8231628 Si02
#       8
#     8   8   8   8   8   8   8   8
#     4  10  21  38  55  76 108 143 182 225 273 326
#     4  11  21  35  55  79 108 141 176 224 278 331
#     4   9  18  33  53  78 105 133 164 208 262 321
#     4   9  16  28  48  73 102 134 166 208 260 307
#     4   8  15  27  46  74 103 131 166 208 255 305
#     4  10  19  34  53  79 108 138 173 213 269 330
#     4  11  22  35  53  78 106 142 188 231 273 325
#     4  10  20  35  55  79 110 147 185 229 276 322
#
# _framework density 17.937851999999999
#
# number of rings (size 3 to 8) (size 9 to 14) (size 15 to 20)
#    0.000    2.250    1.250    3.375    0.000    5.500 
#    0.000    0.625    0.000    3.750    0.000    5.250 
#    0.000    0.000    0.000    0.000    0.000    0.000 
#
# Total GULP energy -793487.281137 kJ/mol
# GULP energy per Si atom -12398.238768 kJ/mol
# Density = 1.789702 g / cm^3
# Si number density = 17.937852 Si / 1000 Ang^3
#
#
#
# Elastic Constant Matrix: (Units=GPa)
#
#
# Indices 1 2 3 4 5 6 
#
# 1 56.1557 38.3955 39.2318 0.0000 0.0000 0.0000
# 2 38.3955 114.1332 50.2999 0.0000 0.0000 0.0000
# 3 39.2318 50.2999 109.2924 0.0000 0.0000 0.0000
# 4 0.0000 0.0000 0.0000 31.3252 0.0000 0.0000
# 5 0.0000 0.0000 0.0000 0.0000 27.2834 0.0000
# 6 0.0000 0.0000 0.0000 0.0000 0.0000 20.3704
#
#
#
# Elastic Compliance Matrix: (Units=1/GPa)
#
#
# Indices 1 2 3 4 5 6 
#
# 1 0.026648 -0.005957 -0.006824 0.000000 0.000000 0.000000
# 2 -0.005957 0.012323 -0.003533 0.000000 0.000000 0.000000
# 3 -0.006824 -0.003533 0.013225 0.000000 0.000000 0.000000
# 4 0.000000 0.000000 0.000000 0.031923 0.000000 0.000000
# 5 0.000000 0.000000 0.000000 0.000000 0.036652 0.000000
# 6 0.000000 0.000000 0.000000 0.000000 0.000000 0.049091
#
#
# Mechanical properties :
#
#
# Convention : Reuss Voigt Hill
#
# Bulk Modulus (GPa) = 51.10395 59.49284 55.29840
# Shear Modulus (GPa) = 23.92189 25.90608 24.91398
#
# Velocity S-wave (km/s) = 3.65581 3.80440 3.73085
# Velocity P-wave (km/s) = 6.80964 7.24818 7.03233
#
# Compressibility (1/GPa) = 0.01956796
#
# Stress axis : x y z
#
# Youngs Moduli (GPa) = 37.52593 81.15046 75.61296
#
# Poissons Ratio (x) = 0.48344 0.51598
# Poissons Ratio (y) = 0.22355 0.26713
# Poissons Ratio (z) = 0.25607 0.28670
#
# Static dielectric constant tensor:
#      x y z
#    x 2.638580 0.000000 0.000000 
#    y 0.000000 3.243290 0.000000 
#    z 0.000000 0.000000 3.205390 
# 
# 
# High freq. dielectric constant tensor:
#      x y z
#    x 1.668570 0.000000 0.000000 
#    y 0.000000 1.682810 0.000000 
#    z 0.000000 0.000000 1.704270 
# 
# From -- ./inp_files/8628.got.cif
#   From: 2010.03.12/outbox.cif.g09.slc.cpg/sg57_5_cif.got.tgz:8628.got - 2010.04.16 15:48:40.
