data_PCOD8231165
_publ_section_title
;
Structure prediction by ZEFSAII (Michael W. Deem and Ramdas Pophale) SiO2 
 PCOD8231165
Probable space group: P B C M
;
_chemical_formula_sum "Si O2"
_cell_formula_units_Z 64
_cell_length_a 16.287938
_cell_length_b 22.029665
_cell_length_c 9.315626
_cell_angle_alpha 90.000000
_cell_angle_beta 90.000000
_cell_angle_gamma 90.000000
_cell_volume 3342.612592
_symmetry_space_group_name_H-M "P B C M"
_symmetry_group_IT_number 57
_symmetry_cell_setting 'orthorhombic'
loop_
_space_group_symop_operation_xyz
x,y,z
-x,-y,1/2+z
x,1/2-y,-z
-x,1/2+y,1/2-z
-x,-y,-z
x,y,1/2-z
-x,1/2+y,z
x,1/2-y,1/2+z
loop_
_atom_site_type_symbol
_atom_site_label
_atom_site_fract_x
_atom_site_fract_y
_atom_site_fract_z
Si Si1 0.693124 0.123385 0.414426
Si Si2 0.184707 0.807217 0.088025
Si Si3 0.000697 0.585613 0.091724
Si Si4 0.536234 0.941981 0.584419
Si Si5 0.874610 0.477265 0.091624
Si Si6 0.470812 0.811827 0.584717
Si Si7 0.309625 0.989106 0.412836
Si Si8 0.010281 0.193316 0.588413
O O1 0.719930 0.114674 0.250000
O O2 0.773829 0.134483 0.512837
O O3 0.626842 0.177172 0.429811
O O4 0.654420 0.061185 0.476629
O O5 0.216798 0.801182 0.250000
O O6 0.087542 0.810739 0.081746
O O7 0.217830 0.750000 0.000000
O O8 0.018355 0.612935 0.250000
O O9 0.938958 0.530918 0.102947
O O10 0.089765 0.568953 0.025662
O O11 0.955143 0.634134 0.990512
O O12 0.505568 0.945393 0.750000
O O13 0.514725 0.874041 0.525220
O O14 0.635460 0.950063 0.572738
O O15 0.500000 0.000000 0.500000
O O16 0.870695 0.445092 0.250000
O O17 0.785465 0.503141 0.047525
O O18 0.495499 0.750000 0.500000
O O19 0.496107 0.801357 0.750000
O O20 0.316541 0.964040 0.250000
O O21 0.044166 0.250000 0.500000
O O22 0.043597 0.196653 0.750000
#
# Coordination Sequence:
#
# PCOD8231165 Si02
#       8
#     8   8   8   8   8   8   8   8
#     4  11  21  32  48  73 106 137 171 216 260 313
#     4  10  20  32  45  65  96 134 174 214 258 312
#     4  10  19  32  51  74 104 137 171 214 265 314
#     4  10  20  37  58  81 108 140 179 224 271 319
#     4   9  19  34  51  76 105 136 174 214 260 317
#     4  10  22  37  53  77 107 139 178 219 265 319
#     4  10  20  34  55  78 103 138 176 216 266 319
#     4  10  20  33  49  69  96 131 173 216 258 313
#
# _framework density 19.146699000000002
#
# number of rings (size 3 to 8) (size 9 to 14) (size 15 to 20)
#    0.000    2.000    1.250    2.625    0.000    8.000 
#    0.000    0.000    0.000    0.750    0.000    1.750 
#    0.000    0.000    0.000    0.000    0.000    0.000 
#
# Total GULP energy -793195.495995 kJ/mol
# GULP energy per Si atom -12393.679625 kJ/mol
# Density = 1.910312 g / cm^3
# Si number density = 19.146699 Si / 1000 Ang^3
#
#
#
# Elastic Constant Matrix: (Units=GPa)
#
#
# Indices 1 2 3 4 5 6 
#
# 1 45.4998 9.6035 11.3624 0.0000 0.0000 0.0000
# 2 9.6035 80.6466 39.8421 0.0000 0.0000 0.0000
# 3 11.3624 39.8421 121.1678 0.0000 0.0000 0.0000
# 4 0.0000 0.0000 0.0000 35.0305 0.0000 0.0000
# 5 0.0000 0.0000 0.0000 0.0000 14.2318 0.0000
# 6 0.0000 0.0000 0.0000 0.0000 0.0000 12.8820
#
#
#
# Elastic Compliance Matrix: (Units=1/GPa)
#
#
# Indices 1 2 3 4 5 6 
#
# 1 0.022766 -0.001978 -0.001485 0.000000 0.000000 0.000000
# 2 -0.001978 0.014977 -0.004739 0.000000 0.000000 0.000000
# 3 -0.001485 -0.004739 0.009951 0.000000 0.000000 0.000000
# 4 0.000000 0.000000 0.000000 0.028547 0.000000 0.000000
# 5 0.000000 0.000000 0.000000 0.000000 0.070265 0.000000
# 6 0.000000 0.000000 0.000000 0.000000 0.000000 0.077628
#
#
# Mechanical properties :
#
#
# Convention : Reuss Voigt Hill
#
# Bulk Modulus (GPa) = 31.95835 40.99225 36.47530
# Shear Modulus (GPa) = 19.92302 24.86259 22.39281
#
# Velocity S-wave (km/s) = 3.22925 3.60742 3.42356
# Velocity P-wave (km/s) = 5.53458 6.22956 5.89233
#
# Compressibility (1/GPa) = 0.03129073
#
# Stress axis : x y z
#
# Youngs Moduli (GPa) = 43.92463 66.77101 100.49707
#
# Poissons Ratio (x) = 0.13205 0.14920
# Poissons Ratio (y) = 0.08687 0.47627
# Poissons Ratio (z) = 0.06521 0.31644
#
# Static dielectric constant tensor:
#      x y z
#    x 3.312810 0.000000 0.000000 
#    y 0.000000 3.571790 0.000000 
#    z 0.000000 0.000000 3.771040 
# 
# 
# High freq. dielectric constant tensor:
#      x y z
#    x 1.715780 0.000000 0.000000 
#    y 0.000000 1.739270 0.000000 
#    z 0.000000 0.000000 1.753360 
# 
# From -- ./inp_files/7191.got.cif
#   From: 2010.03.12/outbox.cif.g09.slc.cpg/sg57_4_cif.got.tgz:7191.got - 2010.04.16 15:48:40.
