data_PCOD8231136
_publ_section_title
;
Structure prediction by ZEFSAII (Michael W. Deem and Ramdas Pophale) SiO2 
 PCOD8231136
Probable space group: P B C M
;
_chemical_formula_sum "Si O2"
_cell_formula_units_Z 64
_cell_length_a 20.699635
_cell_length_b 9.288501
_cell_length_c 17.374991
_cell_angle_alpha 90.000000
_cell_angle_beta 90.000000
_cell_angle_gamma 90.000000
_cell_volume 3340.664854
_symmetry_space_group_name_H-M "P B C M"
_symmetry_group_IT_number 57
_symmetry_cell_setting 'orthorhombic'
loop_
_space_group_symop_operation_xyz
x,y,z
-x,-y,1/2+z
x,1/2-y,-z
-x,1/2+y,1/2-z
-x,-y,-z
x,y,1/2-z
-x,1/2+y,z
x,1/2-y,1/2+z
loop_
_atom_site_type_symbol
_atom_site_label
_atom_site_fract_x
_atom_site_fract_y
_atom_site_fract_z
Si Si1 0.181541 0.237923 0.158630
Si Si2 0.810397 0.064166 0.158507
Si Si3 0.558367 0.564320 0.162528
Si Si4 0.064560 0.763931 0.841546
Si Si5 0.302423 0.741334 0.409492
Si Si6 0.300086 0.450309 0.841840
Si Si7 0.059003 0.437831 0.841897
Si Si8 0.561782 0.269103 0.838426
O O1 0.179752 0.233709 0.250000
O O2 0.177603 0.401411 0.129253
O O3 0.247733 0.164708 0.129007
O O4 0.121059 0.147915 0.125863
O O5 0.803810 0.069562 0.250000
O O6 0.869635 0.162361 0.129331
O O7 0.744725 0.118357 0.121121
O O8 0.559784 0.618901 0.250000
O O9 0.629168 0.597865 0.126294
O O10 0.543829 0.396870 0.156384
O O11 0.498868 0.647529 0.122451
O O12 0.062564 0.762056 0.750000
O O13 0.060381 0.601164 0.873774
O O14 0.004597 0.857168 0.873271
O O15 0.296933 0.750000 0.500000
O O16 0.374511 0.694018 0.386494
O O17 0.281470 0.892844 0.372889
O O18 0.302199 0.464560 0.750000
O O19 0.059292 0.439673 0.750000
O O20 0.574128 0.316390 0.750000
#
# Coordination Sequence:
#
# PCOD8231136 Si02
#       8
#     8   8   8   8   8   8   8   8
#     4   9  17  28  48  76 103 128 163 208 255 300
#     4  10  19  32  50  74  98 127 168 214 255 297
#     4   8  15  27  48  73  95 120 155 196 241 287
#     4   9  16  25  42  68 103 137 165 200 248 298
#     4  11  22  35  50  71  99 135 172 208 250 301
#     4   9  17  33  53  74 100 131 164 204 251 301
#     4   9  15  24  39  68 105 135 159 196 248 300
#     4   9  17  32  52  74  99 129 164 206 249 294
#
# _framework density 19.157862000000002
#
# number of rings (size 3 to 8) (size 9 to 14) (size 15 to 20)
#    0.000    2.750    0.000    3.375    0.000    6.000 
#    0.000    6.875    0.000    0.000    0.000    7.875 
#    0.000    0.000    0.000    0.000    0.000    0.000 
#
# Total GULP energy -793446.102968 kJ/mol
# GULP energy per Si atom -12397.595359 kJ/mol
# Density = 1.911426 g / cm^3
# Si number density = 19.157862 Si / 1000 Ang^3
#
#
#
# Elastic Constant Matrix: (Units=GPa)
#
#
# Indices 1 2 3 4 5 6 
#
# 1 157.1077 92.2736 17.3286 0.0000 0.0000 0.0000
# 2 92.2736 141.5465 16.7923 0.0000 0.0000 0.0000
# 3 17.3286 16.7923 24.6851 0.0000 0.0000 0.0000
# 4 0.0000 0.0000 0.0000 -6.2284 0.0000 0.0000
# 5 0.0000 0.0000 0.0000 0.0000 2.4861 0.0000
# 6 0.0000 0.0000 0.0000 0.0000 0.0000 46.4856
#
#
#
# Elastic Compliance Matrix: (Units=1/GPa)
#
#
# Indices 1 2 3 4 5 6 
#
# 1 0.010509 -0.006500 -0.002955 0.000000 0.000000 0.000000
# 2 -0.006500 0.011705 -0.003400 0.000000 0.000000 0.000000
# 3 -0.002955 -0.003400 0.044898 0.000000 0.000000 0.000000
# 4 0.000000 0.000000 0.000000 -0.160555 0.000000 0.000000
# 5 0.000000 0.000000 0.000000 0.000000 0.402236 0.000000
# 6 0.000000 0.000000 0.000000 0.000000 0.000000 0.021512
#
#
# Mechanical properties :
#
#
# Convention : Reuss Voigt Hill
#
# Bulk Modulus (GPa) = 24.15374 64.01425 44.08399
# Shear Modulus (GPa) = 13.52027 21.67833 17.59930
#
# Velocity S-wave (km/s) = 2.65944 3.36752 3.03421
# Velocity P-wave (km/s) = 4.69737 6.97186 5.94442
#
# Compressibility (1/GPa) = 0.04140146
#
# Stress axis : x y z
#
# Youngs Moduli (GPa) = 95.16025 85.43043 22.27294
#
# Poissons Ratio (x) = 0.55529 0.06582
# Poissons Ratio (y) = 0.61853 0.07573
# Poissons Ratio (z) = 0.28122 0.29046
#
# Static dielectric constant tensor:
#      x y z
#    x 3.833530 0.000000 0.000000 
#    y 0.000000 3.618490 0.000000 
#    z 0.000000 0.000000 2.834680 
# 
# 
# High freq. dielectric constant tensor:
#      x y z
#    x 1.765420 0.000000 0.000000 
#    y 0.000000 1.750670 0.000000 
#    z 0.000000 0.000000 1.673410 
# 
# From -- ./inp_files/23079.got.cif
#   From: 2010.03.12/outbox.cif.g09.slc.cpg/sg57_12_cif.got.tgz:23079.got - 2010.04.16 15:48:40.
