data_PCOD8231416
_publ_section_title
;
Structure prediction by ZEFSAII (Michael W. Deem and Ramdas Pophale) SiO2 
 PCOD8231416
Probable space group: P B C M
;
_chemical_formula_sum "Si O2"
_cell_formula_units_Z 64
_cell_length_a 20.699093
_cell_length_b 19.535662
_cell_length_c 8.675657
_cell_angle_alpha 90.000000
_cell_angle_beta 90.000000
_cell_angle_gamma 90.000000
_cell_volume 3508.179625
_symmetry_space_group_name_H-M "P B C M"
_symmetry_group_IT_number 57
_symmetry_cell_setting 'orthorhombic'
loop_
_space_group_symop_operation_xyz
x,y,z
-x,-y,1/2+z
x,1/2-y,-z
-x,1/2+y,1/2-z
-x,-y,-z
x,y,1/2-z
-x,1/2+y,z
x,1/2-y,1/2+z
loop_
_atom_site_type_symbol
_atom_site_label
_atom_site_fract_x
_atom_site_fract_y
_atom_site_fract_z
Si Si1 0.686002 0.543255 0.067087
Si Si2 0.011235 0.680925 0.928769
Si Si3 0.127983 0.321762 0.567660
Si Si4 0.180600 0.457207 0.432072
Si Si5 0.561274 0.037369 0.568241
Si Si6 0.367366 0.178559 0.933098
Si Si7 0.937485 0.464824 0.071136
Si Si8 0.514759 0.180632 0.569609
O O1 0.692396 0.541150 0.250000
O O2 0.627422 0.495621 0.006762
O O3 0.750952 0.513622 0.990474
O O4 0.675486 0.620233 0.010230
O O5 0.994683 0.693243 0.750000
O O6 0.059483 0.617295 0.950466
O O7 0.042908 0.750000 0.000000
O O8 0.945258 0.663897 0.016824
O O9 0.153432 0.250000 0.500000
O O10 0.132512 0.319879 0.750000
O O11 0.172220 0.382281 0.504405
O O12 0.178799 0.451051 0.250000
O O13 0.125899 0.509825 0.485010
O O14 0.556241 0.030100 0.750000
O O15 0.559077 0.116967 0.517321
O O16 0.500000 0.000000 0.500000
O O17 0.359431 0.176141 0.750000
O O18 0.441448 0.168019 0.987411
O O19 0.341127 0.250000 0.000000
O O20 0.933581 0.485241 0.250000
O O21 0.000000 0.500000 0.000000
O O22 0.544284 0.250000 0.500000
O O23 0.514542 0.189934 0.750000
#
# Coordination Sequence:
#
# PCOD8231416 Si02
#       8
#     8   8   8   8   8   8   8   8
#     4  11  23  38  56  80 111 148 189 231 283 335
#     4  10  20  34  56  86 117 147 184 228 280 331
#     4  11  21  35  56  81 114 150 189 230 276 333
#     4  12  25  40  57  80 113 151 193 236 284 336
#     4  10  20  35  57  83 111 143 183 229 276 328
#     4  10  19  33  53  78 112 148 187 226 271 328
#     4  11  22  37  60  87 115 149 190 234 280 333
#     4   9  18  32  52  81 112 142 178 224 273 325
#
# _framework density 18.243079999999999
#
# number of rings (size 3 to 8) (size 9 to 14) (size 15 to 20)
#    0.000    1.500    2.500    4.500    0.000    3.500 
#    0.000    2.500    0.000    0.750    0.000    1.750 
#    0.000    0.000    0.000    0.000    0.000    0.000 
#
# Total GULP energy -793769.547761 kJ/mol
# GULP energy per Si atom -12402.649184 kJ/mol
# Density = 1.820156 g / cm^3
# Si number density = 18.243080 Si / 1000 Ang^3
#
#
#
# Elastic Constant Matrix: (Units=GPa)
#
#
# Indices 1 2 3 4 5 6 
#
# 1 115.8670 62.0377 45.1391 0.0000 0.0000 0.0000
# 2 62.0377 113.0939 43.8281 0.0000 0.0000 0.0000
# 3 45.1391 43.8281 112.8126 0.0000 0.0000 0.0000
# 4 0.0000 0.0000 0.0000 31.8771 0.0000 0.0000
# 5 0.0000 0.0000 0.0000 0.0000 26.4760 0.0000
# 6 0.0000 0.0000 0.0000 0.0000 0.0000 24.3509
#
#
#
# Elastic Compliance Matrix: (Units=1/GPa)
#
#
# Indices 1 2 3 4 5 6 
#
# 1 0.012955 -0.006001 -0.002852 0.000000 0.000000 0.000000
# 2 -0.006001 0.013189 -0.002723 0.000000 0.000000 0.000000
# 3 -0.002852 -0.002723 0.011063 0.000000 0.000000 0.000000
# 4 0.000000 0.000000 0.000000 0.031370 0.000000 0.000000
# 5 0.000000 0.000000 0.000000 0.000000 0.037770 0.000000
# 6 0.000000 0.000000 0.000000 0.000000 0.000000 0.041066
#
#
# Mechanical properties :
#
#
# Convention : Reuss Voigt Hill
#
# Bulk Modulus (GPa) = 71.14770 71.53147 71.33959
# Shear Modulus (GPa) = 28.53040 29.25869 28.89454
#
# Velocity S-wave (km/s) = 3.95891 4.00912 3.98410
# Velocity P-wave (km/s) = 7.74479 7.79269 7.76878
#
# Compressibility (1/GPa) = 0.01405527
#
# Stress axis : x y z
#
# Youngs Moduli (GPa) = 77.19142 75.81880 90.38878
#
# Poissons Ratio (x) = 0.45499 0.25780
# Poissons Ratio (y) = 0.46323 0.24612
# Poissons Ratio (z) = 0.22016 0.20645
#
# Static dielectric constant tensor:
#      x y z
#    x 3.257850 0.000000 0.000000 
#    y 0.000000 3.633460 0.000000 
#    z 0.000000 0.000000 3.429370 
# 
# 
# High freq. dielectric constant tensor:
#      x y z
#    x 1.682310 0.000000 0.000000 
#    y 0.000000 1.712220 0.000000 
#    z 0.000000 0.000000 1.720690 
# 
# From -- ./inp_files/7208.got.cif
#   From: 2010.03.12/outbox.cif.g09.slc.cpg/sg57_4_cif.got.tgz:7208.got - 2010.04.16 15:48:40.
