data_PCOD8231162
_publ_section_title
;
Structure prediction by ZEFSAII (Michael W. Deem and Ramdas Pophale) SiO2 
 PCOD8231162
Probable space group: P B C M
;
_chemical_formula_sum "Si O2"
_cell_formula_units_Z 48
_cell_length_a 31.219579
_cell_length_b 9.043039
_cell_length_c 8.885865
_cell_angle_alpha 90.000000
_cell_angle_beta 90.000000
_cell_angle_gamma 90.000000
_cell_volume 2508.656256
_symmetry_space_group_name_H-M "P B C M"
_symmetry_group_IT_number 57
_symmetry_cell_setting 'orthorhombic'
loop_
_space_group_symop_operation_xyz
x,y,z
-x,-y,1/2+z
x,1/2-y,-z
-x,1/2+y,1/2-z
-x,-y,-z
x,y,1/2-z
-x,1/2+y,z
x,1/2-y,1/2+z
loop_
_atom_site_type_symbol
_atom_site_label
_atom_site_fract_x
_atom_site_fract_y
_atom_site_fract_z
Si Si1 0.537566 0.090533 0.573227
Si Si2 0.370394 0.905695 0.075876
Si Si3 0.803473 0.590608 0.071430
Si Si4 0.962935 0.907395 0.076521
Si Si5 0.722188 0.409837 0.426852
Si Si6 0.122195 0.905528 0.924576
O O1 0.537119 0.250000 0.500000
O O2 0.529079 0.104223 0.750000
O O3 0.584327 0.011302 0.539653
O O4 0.500000 0.000000 0.500000
O O5 0.368613 0.871668 0.250000
O O6 0.324865 0.980111 0.028510
O O7 0.372751 0.750000 0.000000
O O8 0.807508 0.604620 0.250000
O O9 0.757384 0.527580 0.018913
O O10 0.810785 0.750000 0.000000
O O11 0.838399 0.477216 0.011387
O O12 0.974914 0.884706 0.250000
O O13 0.918468 0.990537 0.055712
O O14 0.958400 0.750000 0.000000
O O15 0.000000 0.000000 0.000000
O O16 0.729833 0.250000 0.500000
O O17 0.726509 0.384796 0.250000
O O18 0.134115 0.883011 0.750000
O O19 0.111044 0.750000 0.000000
#
# Coordination Sequence:
#
# PCOD8231162 Si02
#       6
#     8   8   8   8   8   8
#     4  10  19  32  51  74 102 136 174 217 265 318
#     4   8  15  29  49  72  99 131 169 214 262 314
#     4  11  23  38  57  81 112 148 184 225 273 325
#     4  11  24  41  63  90 121 156 193 235 281 330
#     4   9  18  33  54  79 104 133 173 219 266 318
#     4  11  24  41  62  88 117 150 189 232 277 327
#
# _framework density 19.133748000000001
#
# number of rings (size 3 to 8) (size 9 to 14) (size 15 to 20)
#    0.000    2.000    0.000    3.500    0.000    8.667 
#    0.000    0.833    0.000    2.000    0.000    0.000 
#    0.000    0.000    0.000    0.000    0.000    0.000 
#
# Total GULP energy -594807.305339 kJ/mol
# GULP energy per Si atom -12391.818861 kJ/mol
# Density = 1.909020 g / cm^3
# Si number density = 19.133748 Si / 1000 Ang^3
#
#
#
# Elastic Constant Matrix: (Units=GPa)
#
#
# Indices 1 2 3 4 5 6 
#
# 1 138.0165 43.6478 64.6987 0.0000 0.0000 0.0000
# 2 43.6478 98.3788 50.0068 0.0000 0.0000 0.0000
# 3 64.6987 50.0068 99.0143 0.0000 0.0000 0.0000
# 4 0.0000 0.0000 0.0000 32.0081 0.0000 0.0000
# 5 0.0000 0.0000 0.0000 0.0000 148.2641 0.0000
# 6 0.0000 0.0000 0.0000 0.0000 0.0000 32.1771
#
#
#
# Elastic Compliance Matrix: (Units=1/GPa)
#
#
# Indices 1 2 3 4 5 6 
#
# 1 0.010628 -0.001595 -0.006139 0.000000 0.000000 0.000000
# 2 -0.001595 0.013915 -0.005986 0.000000 0.000000 0.000000
# 3 -0.006139 -0.005986 0.017134 0.000000 0.000000 0.000000
# 4 0.000000 0.000000 0.000000 0.031242 0.000000 0.000000
# 5 0.000000 0.000000 0.000000 0.000000 0.006745 0.000000
# 6 0.000000 0.000000 0.000000 0.000000 0.000000 0.031078
#
#
# Mechanical properties :
#
#
# Convention : Reuss Voigt Hill
#
# Bulk Modulus (GPa) = 70.23544 72.45735 71.34640
# Shear Modulus (GPa) = 34.98317 54.29361 44.63839
#
# Velocity S-wave (km/s) = 4.28056 5.33268 4.83532
# Velocity P-wave (km/s) = 7.82421 8.71020 8.27907
#
# Compressibility (1/GPa) = 0.01423783
#
# Stress axis : x y z
#
# Youngs Moduli (GPa) = 94.09428 71.86567 58.36357
#
# Poissons Ratio (x) = 0.11460 0.35829
# Poissons Ratio (y) = 0.15005 0.34934
# Poissons Ratio (z) = 0.57765 0.43016
#
# Static dielectric constant tensor:
#      x y z
#    x 4.016290 0.000000 0.000000 
#    y 0.000000 3.217000 0.000000 
#    z 0.000000 0.000000 3.695840 
# 
# 
# High freq. dielectric constant tensor:
#      x y z
#    x 1.776060 0.000000 0.000000 
#    y 0.000000 1.718680 0.000000 
#    z 0.000000 0.000000 1.755990 
# 
# From -- ./inp_files/10011.got.cif
#   From: 2010.03.12/outbox.cif.g09.slc.cpg/sg57_6_cif.got.tgz:10011.got - 2010.04.16 15:48:40.
