data_PCOD8231011
_publ_section_title
;
Structure prediction by ZEFSAII (Michael W. Deem and Ramdas Pophale) SiO2 
 PCOD8231011
Probable space group: P B C M
;
_chemical_formula_sum "Si O2"
_cell_formula_units_Z 64
_cell_length_a 25.180845
_cell_length_b 14.389401
_cell_length_c 8.818688
_cell_angle_alpha 90.000000
_cell_angle_beta 90.000000
_cell_angle_gamma 90.000000
_cell_volume 3195.339390
_symmetry_space_group_name_H-M "P B C M"
_symmetry_group_IT_number 57
_symmetry_cell_setting 'orthorhombic'
loop_
_space_group_symop_operation_xyz
x,y,z
-x,-y,1/2+z
x,1/2-y,-z
-x,1/2+y,1/2-z
-x,-y,-z
x,y,1/2-z
-x,1/2+y,z
x,1/2-y,1/2+z
loop_
_atom_site_type_symbol
_atom_site_label
_atom_site_fract_x
_atom_site_fract_y
_atom_site_fract_z
Si Si1 0.626149 0.342478 0.425160
Si Si2 0.414033 0.161562 0.928632
Si Si3 0.667151 0.962964 0.924157
Si Si4 0.516108 0.402482 0.569818
Si Si5 0.771004 0.851722 0.570840
Si Si6 0.094892 0.843318 0.571445
Si Si7 0.984855 0.906305 0.574878
Si Si8 0.126138 0.460555 0.929144
O O1 0.651150 0.250000 0.500000
O O2 0.613065 0.324002 0.250000
O O3 0.669322 0.425324 0.443197
O O4 0.571869 0.366754 0.509226
O O5 0.421576 0.168210 0.750000
O O6 0.382267 0.250000 0.000000
O O7 0.381051 0.069856 0.969574
O O8 0.470355 0.166600 0.014287
O O9 0.654579 0.936397 0.750000
O O10 0.721401 0.915408 0.978887
O O11 0.500000 0.500000 0.500000
O O12 0.518134 0.409900 0.750000
O O13 0.766602 0.750000 0.500000
O O14 0.774036 0.839429 0.750000
O O15 0.822321 0.906957 0.508675
O O16 0.121118 0.750000 0.500000
O O17 0.105369 0.843394 0.750000
O O18 0.120427 0.937795 0.505111
O O19 0.031309 0.834052 0.530289
O O20 0.988042 0.925062 0.750000
O O21 0.923025 0.889259 0.529768
O O22 0.000000 0.000000 0.500000
O O23 0.130303 0.478066 0.750000
#
# Coordination Sequence:
#
# PCOD8231011 Si02
#       8
#     8   8   8   8   8   8   8   8
#     4  11  23  40  62  86 117 153 192 236 285 340
#     4  12  24  38  59  86 117 153 192 233 281 335
#     4  10  22  41  62  84 114 149 189 236 285 337
#     4  12  23  38  59  87 121 155 192 230 280 339
#     4  10  22  40  62  87 113 146 186 235 292 346
#     4  10  19  31  50  79 114 152 194 234 284 340
#     4   8  15  28  47  72 104 144 186 230 275 331
#     4   9  18  35  56  79 112 150 191 237 290 343
#
# _framework density 20.029171000000002
#
# number of rings (size 3 to 8) (size 9 to 14) (size 15 to 20)
#    0.000    1.750    1.250    3.750    0.000    3.500 
#    0.000    0.625    0.000    1.500    0.000    0.000 
#    0.000    0.000    0.000    0.000    0.000    0.000 
#
# Total GULP energy -793022.423125 kJ/mol
# GULP energy per Si atom -12390.975361 kJ/mol
# Density = 1.998358 g / cm^3
# Si number density = 20.029171 Si / 1000 Ang^3
#
#
#
# Elastic Constant Matrix: (Units=GPa)
#
#
# Indices 1 2 3 4 5 6 
#
# 1 111.1062 54.2716 37.0992 0.0000 0.0000 0.0000
# 2 54.2716 140.4591 53.7109 0.0000 0.0000 0.0000
# 3 37.0992 53.7109 98.3430 0.0000 0.0000 0.0000
# 4 0.0000 0.0000 0.0000 34.8303 0.0000 0.0000
# 5 0.0000 0.0000 0.0000 0.0000 18.5794 0.0000
# 6 0.0000 0.0000 0.0000 0.0000 0.0000 23.4768
#
#
#
# Elastic Compliance Matrix: (Units=1/GPa)
#
#
# Indices 1 2 3 4 5 6 
#
# 1 0.011534 -0.003530 -0.002423 0.000000 0.000000 0.000000
# 2 -0.003530 0.010079 -0.004173 0.000000 0.000000 0.000000
# 3 -0.002423 -0.004173 0.013362 0.000000 0.000000 0.000000
# 4 0.000000 0.000000 0.000000 0.028711 0.000000 0.000000
# 5 0.000000 0.000000 0.000000 0.000000 0.053823 0.000000
# 6 0.000000 0.000000 0.000000 0.000000 0.000000 0.042595
#
#
# Mechanical properties :
#
#
# Convention : Reuss Voigt Hill
#
# Bulk Modulus (GPa) = 67.92420 71.11907 69.52163
# Shear Modulus (GPa) = 26.98856 29.03241 28.01049
#
# Velocity S-wave (km/s) = 3.67476 3.81137 3.74369
# Velocity P-wave (km/s) = 7.21051 7.41307 7.31249
#
# Compressibility (1/GPa) = 0.01472229
#
# Stress axis : x y z
#
# Youngs Moduli (GPa) = 86.70224 99.21378 74.83990
#
# Poissons Ratio (x) = 0.35021 0.18135
# Poissons Ratio (y) = 0.30605 0.31233
# Poissons Ratio (z) = 0.21009 0.41404
#
# Static dielectric constant tensor:
#      x y z
#    x 3.689800 0.000000 0.000000 
#    y 0.000000 3.885460 0.000000 
#    z 0.000000 0.000000 3.624160 
# 
# 
# High freq. dielectric constant tensor:
#      x y z
#    x 1.764980 0.000000 0.000000 
#    y 0.000000 1.790110 0.000000 
#    z 0.000000 0.000000 1.782750 
# 
# From -- ./inp_files/9342.got.cif
#   From: 2010.03.12/outbox.cif.g09.slc.cpg/sg57_5_cif.got.tgz:9342.got - 2010.04.16 15:48:40.
