data_PCOD8231066
_publ_section_title
;
Structure prediction by ZEFSAII (Michael W. Deem and Ramdas Pophale) SiO2 
 PCOD8231066
Probable space group: P B C M
;
_chemical_formula_sum "Si O2"
_cell_formula_units_Z 48
_cell_length_a 28.251627
_cell_length_b 5.155468
_cell_length_c 17.268492
_cell_angle_alpha 90.000000
_cell_angle_beta 90.000000
_cell_angle_gamma 90.000000
_cell_volume 2515.162058
_symmetry_space_group_name_H-M "P B C M"
_symmetry_group_IT_number 57
_symmetry_cell_setting 'orthorhombic'
loop_
_space_group_symop_operation_xyz
x,y,z
-x,-y,1/2+z
x,1/2-y,-z
-x,1/2+y,1/2-z
-x,-y,-z
x,y,1/2-z
-x,1/2+y,z
x,1/2-y,1/2+z
loop_
_atom_site_type_symbol
_atom_site_label
_atom_site_fract_x
_atom_site_fract_y
_atom_site_fract_z
Si Si1 0.134114 0.481423 0.157940
Si Si2 0.190422 0.519171 0.841836
Si Si3 0.972396 0.983345 0.342417
Si Si4 0.618217 0.501233 0.449690
Si Si5 0.277505 0.494531 0.948314
Si Si6 0.523674 0.193887 0.591383
O O1 0.131992 0.483937 0.250000
O O2 0.161253 0.227989 0.127998
O O3 0.080911 0.482970 0.124395
O O4 0.162100 0.731450 0.127269
O O5 0.195711 0.520243 0.750000
O O6 0.242935 0.518737 0.875791
O O7 0.971377 0.983065 0.250000
O O8 0.000074 0.733571 0.374130
O O9 0.601036 0.750000 0.500000
O O10 0.669678 0.557453 0.412126
O O11 0.576204 0.421587 0.390078
O O12 0.627472 0.250000 0.500000
O O13 0.274392 0.750000 0.000000
O O14 0.262544 0.250000 0.000000
O O15 0.517786 0.250000 0.500000
O O16 0.512727 0.478152 0.627052
#
# Coordination Sequence:
#
# PCOD8231066 Si02
#       6
#     8   8   8   8   8   8
#     4   9  17  28  43  65  93 122 149 183 227 269
#     4  10  19  32  49  68  93 123 154 188 227 269
#     4   9  15  23  37  59  89 120 144 171 217 273
#     4   9  16  25  37  55  81 112 141 175 220 262
#     4  10  20  33  48  67  93 122 154 191 229 269
#     4   9  14  20  32  51  76 106 137 168 209 263
#
# _framework density 19.084257999999998
#
# number of rings (size 3 to 8) (size 9 to 14) (size 15 to 20)
#    0.000    2.667    0.000    4.500    0.000    4.000 
#    0.000    0.000    0.000    0.000    0.000    0.000 
#    0.000   48.000    0.000    0.000    0.000   43.667 
#
# Total GULP energy -594734.533002 kJ/mol
# GULP energy per Si atom -12390.302771 kJ/mol
# Density = 1.904082 g / cm^3
# Si number density = 19.084258 Si / 1000 Ang^3
#
#
#
# Elastic Constant Matrix: (Units=GPa)
#
#
# Indices 1 2 3 4 5 6 
#
# 1 171.8428 61.4933 23.3067 0.0000 0.0000 0.0000
# 2 61.4933 162.0773 14.1352 0.0000 0.0000 0.0000
# 3 23.3067 14.1352 12.5023 0.0000 0.0000 0.0000
# 4 0.0000 0.0000 0.0000 5.6126 0.0000 0.0000
# 5 0.0000 0.0000 0.0000 0.0000 14.8767 0.0000
# 6 0.0000 0.0000 0.0000 0.0000 0.0000 42.1015
#
#
#
# Elastic Compliance Matrix: (Units=1/GPa)
#
#
# Indices 1 2 3 4 5 6 
#
# 1 0.008337 -0.002006 -0.013275 0.000000 0.000000 0.000000
# 2 -0.002006 0.007327 -0.004546 0.000000 0.000000 0.000000
# 3 -0.013275 -0.004546 0.109873 0.000000 0.000000 0.000000
# 4 0.000000 0.000000 0.000000 0.178170 0.000000 0.000000
# 5 0.000000 0.000000 0.000000 0.000000 0.067219 0.000000
# 6 0.000000 0.000000 0.000000 0.000000 0.000000 0.023752
#
#
# Mechanical properties :
#
#
# Convention : Reuss Voigt Hill
#
# Bulk Modulus (GPa) = 11.64352 60.47698 36.06025
# Shear Modulus (GPa) = 10.80009 29.01730 19.90869
#
# Velocity S-wave (km/s) = 2.38148 3.90357 3.23336
# Velocity P-wave (km/s) = 3.69815 7.21633 5.73375
#
# Compressibility (1/GPa) = 0.08588465
#
# Stress axis : x y z
#
# Youngs Moduli (GPa) = 119.94102 136.47717 9.10146
#
# Poissons Ratio (x) = 0.27371 0.12082
# Poissons Ratio (y) = 0.24054 0.04137
# Poissons Ratio (z) = 1.59224 0.62036
#
# Static dielectric constant tensor:
#      x y z
#    x 3.932670 0.000000 0.000000 
#    y 0.000000 3.894880 0.000000 
#    z 0.000000 0.000000 2.569050 
# 
# 
# High freq. dielectric constant tensor:
#      x y z
#    x 1.764860 0.000000 0.000000 
#    y 0.000000 1.772780 0.000000 
#    z 0.000000 0.000000 1.638700 
# 
# From -- ./inp_files/25797.got.cif
#   From: 2010.03.12/outbox.cif.g09.slc.cpg/sg57_13_cif.got.tgz:25797.got - 2010.04.16 15:48:40.
