data_PCOD8231301
_publ_section_title
;
Structure prediction by ZEFSAII (Michael W. Deem and Ramdas Pophale) SiO2 
 PCOD8231301
Probable space group: P B C M
;
_chemical_formula_sum "Si O2"
_cell_formula_units_Z 48
_cell_length_a 15.613251
_cell_length_b 18.095521
_cell_length_c 8.828795
_cell_angle_alpha 90.000000
_cell_angle_beta 90.000000
_cell_angle_gamma 90.000000
_cell_volume 2494.398669
_symmetry_space_group_name_H-M "P B C M"
_symmetry_group_IT_number 57
_symmetry_cell_setting 'orthorhombic'
loop_
_space_group_symop_operation_xyz
x,y,z
-x,-y,1/2+z
x,1/2-y,-z
-x,1/2+y,1/2-z
-x,-y,-z
x,y,1/2-z
-x,1/2+y,z
x,1/2-y,1/2+z
loop_
_atom_site_type_symbol
_atom_site_label
_atom_site_fract_x
_atom_site_fract_y
_atom_site_fract_z
Si Si1 0.692636 0.577175 0.428059
Si Si2 0.009523 0.579830 0.929498
Si Si3 0.677049 0.418690 0.574146
Si Si4 0.158648 0.671023 0.427731
Si Si5 0.157500 0.330092 0.428190
Si Si6 0.507903 0.922372 0.575472
O O1 0.712171 0.584009 0.250000
O O2 0.694673 0.490949 0.473499
O O3 0.762705 0.621495 0.519973
O O4 0.599155 0.613804 0.473329
O O5 0.016379 0.573319 0.750000
O O6 0.929552 0.630027 0.979701
O O7 0.000000 0.500000 0.000000
O O8 0.095534 0.613289 0.996203
O O9 0.683953 0.442686 0.750000
O O10 0.745316 0.355564 0.535391
O O11 0.582684 0.381334 0.540126
O O12 0.142954 0.750000 0.500000
O O13 0.140010 0.675356 0.250000
O O14 0.161358 0.250000 0.500000
O O15 0.161644 0.320953 0.250000
O O16 0.517179 0.939110 0.750000
O O17 0.500000 0.000000 0.500000
#
# Coordination Sequence:
#
# PCOD8231301 Si02
#       6
#     8   8   8   8   8   8
#     4  10  19  32  55  84 111 142 182 227 272 320
#     4  11  24  41  62  86 111 141 179 223 270 323
#     4   9  18  34  55  79 110 146 184 226 270 320
#     4  11  23  38  57  81 111 147 183 223 273 325
#     4  11  24  40  57  79 109 145 181 220 270 323
#     4   8  15  29  50  77 108 141 179 223 269 315
#
# _framework density 19.243115
#
# number of rings (size 3 to 8) (size 9 to 14) (size 15 to 20)
#    0.000    2.000    0.000    3.500    0.000   10.000 
#    0.000    0.833    0.000    2.000    0.000    0.000 
#    0.000    0.000    0.000    0.000    0.000    0.000 
#
# Total GULP energy -594857.374008 kJ/mol
# GULP energy per Si atom -12392.861958 kJ/mol
# Density = 1.919932 g / cm^3
# Si number density = 19.243115 Si / 1000 Ang^3
#
#
#
# Elastic Constant Matrix: (Units=GPa)
#
#
# Indices 1 2 3 4 5 6 
#
# 1 100.0283 -2.4438 22.4781 0.0000 0.0000 0.0000
# 2 -2.4438 46.3452 8.5607 0.0000 0.0000 0.0000
# 3 22.4781 8.5607 41.0657 0.0000 0.0000 0.0000
# 4 0.0000 0.0000 0.0000 32.9731 0.0000 0.0000
# 5 0.0000 0.0000 0.0000 0.0000 26.8917 0.0000
# 6 0.0000 0.0000 0.0000 0.0000 0.0000 14.6073
#
#
#
# Elastic Compliance Matrix: (Units=1/GPa)
#
#
# Indices 1 2 3 4 5 6 
#
# 1 0.011550 0.001848 -0.006707 0.000000 0.000000 0.000000
# 2 0.001848 0.022737 -0.005751 0.000000 0.000000 0.000000
# 3 -0.006707 -0.005751 0.029221 0.000000 0.000000 0.000000
# 4 0.000000 0.000000 0.000000 0.030328 0.000000 0.000000
# 5 0.000000 0.000000 0.000000 0.000000 0.037186 0.000000
# 6 0.000000 0.000000 0.000000 0.000000 0.000000 0.068459
#
#
# Mechanical properties :
#
#
# Convention : Reuss Voigt Hill
#
# Bulk Modulus (GPa) = 23.64794 27.18101 25.41447
# Shear Modulus (GPa) = 21.29497 25.48404 23.38951
#
# Velocity S-wave (km/s) = 3.33021 3.64307 3.49015
# Velocity P-wave (km/s) = 5.20603 5.64373 5.42929
#
# Compressibility (1/GPa) = 0.04228699
#
# Stress axis : x y z
#
# Youngs Moduli (GPa) = 86.58370 43.98113 34.22152
#
# Poissons Ratio (x) = -0.08127 0.22953
# Poissons Ratio (y) = -0.16000 0.19682
# Poissons Ratio (z) = 0.58072 0.25295
#
# Static dielectric constant tensor:
#      x y z
#    x 4.281900 0.000000 0.000000 
#    y 0.000000 3.245120 0.000000 
#    z 0.000000 0.000000 3.649240 
# 
# 
# High freq. dielectric constant tensor:
#      x y z
#    x 1.780740 0.000000 0.000000 
#    y 0.000000 1.720240 0.000000 
#    z 0.000000 0.000000 1.758510 
# 
# From -- ./inp_files/4536.got.cif
#   From: 2010.03.12/outbox.cif.g09.slc.cpg/sg57_3_cif.got.tgz:4536.got - 2010.04.16 15:48:40.
