data_PCOD8231643
_publ_section_title
;
Structure prediction by ZEFSAII (Michael W. Deem and Ramdas Pophale) SiO2 
 PCOD8231643
Probable space group: P B C M
;
_chemical_formula_sum "Si O2"
_cell_formula_units_Z 64
_cell_length_a 24.206776
_cell_length_b 14.850514
_cell_length_c 8.872258
_cell_angle_alpha 90.000000
_cell_angle_beta 90.000000
_cell_angle_gamma 90.000000
_cell_volume 3189.426507
_symmetry_space_group_name_H-M "P B C M"
_symmetry_group_IT_number 57
_symmetry_cell_setting 'orthorhombic'
loop_
_space_group_symop_operation_xyz
x,y,z
-x,-y,1/2+z
x,1/2-y,-z
-x,1/2+y,1/2-z
-x,-y,-z
x,y,1/2-z
-x,1/2+y,z
x,1/2-y,1/2+z
loop_
_atom_site_type_symbol
_atom_site_label
_atom_site_fract_x
_atom_site_fract_y
_atom_site_fract_z
Si Si1 0.866824 0.977118 0.573073
Si Si2 0.255273 0.475925 0.571095
Si Si3 0.440435 0.494405 0.926914
Si Si4 0.039734 0.344852 0.569170
Si Si5 0.728261 0.164614 0.415393
Si Si6 0.076563 0.656700 0.928409
Si Si7 0.399130 0.834505 0.915225
Si Si8 0.647158 0.652283 0.427407
O O1 0.869209 0.964884 0.750000
O O2 0.806142 0.947459 0.515198
O O3 0.914513 0.914015 0.505602
O O4 0.877947 0.081422 0.531211
O O5 0.259101 0.482127 0.750000
O O6 0.266921 0.574590 0.510515
O O7 0.299693 0.403283 0.510130
O O8 0.446697 0.504046 0.750000
O O9 0.408759 0.401937 0.969581
O O10 0.500000 0.500000 0.000000
O O11 0.403975 0.576221 0.986227
O O12 0.057384 0.250000 0.500000
O O13 0.036352 0.340493 0.750000
O O14 0.980871 0.374636 0.502805
O O15 0.756496 0.250000 0.500000
O O16 0.755938 0.153133 0.250000
O O17 0.664472 0.187903 0.392094
O O18 0.067831 0.668195 0.750000
O O19 0.097414 0.750000 0.000000
O O20 0.427322 0.846993 0.750000
O O21 0.428090 0.750000 0.000000
O O22 0.644814 0.750000 0.500000
O O23 0.652623 0.664682 0.250000
#
# Coordination Sequence:
#
# PCOD8231643 Si02
#       8
#     8   8   8   8   8   8   8   8
#     4   9  20  35  55  80 111 147 186 231 286 338
#     4  10  20  39  60  82 114 152 191 239 288 342
#     4  11  23  40  61  90 120 155 194 240 292 344
#     4  10  19  34  54  79 108 144 186 233 285 340
#     4  10  20  34  56  85 113 146 185 228 280 339
#     4  10  19  34  54  79 108 146 186 229 282 340
#     4  10  20  35  58  86 116 149 184 230 281 338
#     4  10  23  41  64  87 115 154 197 236 286 339
#
# _framework density 20.066303000000001
#
# number of rings (size 3 to 8) (size 9 to 14) (size 15 to 20)
#    0.000    2.000    1.250    3.000    0.000    4.000 
#    0.000    6.875    0.000    0.000    0.000    0.000 
#    0.000    0.000    0.000    0.000    0.000    0.000 
#
# Total GULP energy -793410.286342 kJ/mol
# GULP energy per Si atom -12397.035724 kJ/mol
# Density = 2.002063 g / cm^3
# Si number density = 20.066303 Si / 1000 Ang^3
#
#
#
# Elastic Constant Matrix: (Units=GPa)
#
#
# Indices 1 2 3 4 5 6 
#
# 1 99.4659 49.0342 36.0000 0.0000 0.0000 0.0000
# 2 49.0342 137.4143 45.9262 0.0000 0.0000 0.0000
# 3 36.0000 45.9262 82.3007 0.0000 0.0000 0.0000
# 4 0.0000 0.0000 0.0000 32.4251 0.0000 0.0000
# 5 0.0000 0.0000 0.0000 0.0000 21.0980 0.0000
# 6 0.0000 0.0000 0.0000 0.0000 0.0000 14.6159
#
#
#
# Elastic Compliance Matrix: (Units=1/GPa)
#
#
# Indices 1 2 3 4 5 6 
#
# 1 0.013119 -0.003397 -0.003843 0.000000 0.000000 0.000000
# 2 -0.003397 0.009825 -0.003997 0.000000 0.000000 0.000000
# 3 -0.003843 -0.003997 0.016062 0.000000 0.000000 0.000000
# 4 0.000000 0.000000 0.000000 0.030840 0.000000 0.000000
# 5 0.000000 0.000000 0.000000 0.000000 0.047398 0.000000
# 6 0.000000 0.000000 0.000000 0.000000 0.000000 0.068418
#
#
# Mechanical properties :
#
#
# Convention : Reuss Voigt Hill
#
# Bulk Modulus (GPa) = 60.48617 64.56687 62.52652
# Shear Modulus (GPa) = 23.40300 26.17582 24.78941
#
# Velocity S-wave (km/s) = 3.41879 3.61566 3.51860
# Velocity P-wave (km/s) = 6.76704 7.04821 6.90905
#
# Compressibility (1/GPa) = 0.01653270
#
# Stress axis : x y z
#
# Youngs Moduli (GPa) = 76.22389 101.77857 62.25898
#
# Poissons Ratio (x) = 0.34574 0.23926
# Poissons Ratio (y) = 0.25893 0.24884
# Poissons Ratio (z) = 0.29293 0.40679
#
# Static dielectric constant tensor:
#      x y z
#    x 3.824000 0.000000 0.000000 
#    y 0.000000 3.642850 0.000000 
#    z 0.000000 0.000000 3.724280 
# 
# 
# High freq. dielectric constant tensor:
#      x y z
#    x 1.776190 0.000000 0.000000 
#    y 0.000000 1.787920 0.000000 
#    z 0.000000 0.000000 1.779640 
# 
# From -- ./inp_files/9432.got.cif
#   From: 2010.03.12/outbox.cif.g09.slc.cpg/sg57_5_cif.got.tgz:9432.got - 2010.04.16 15:48:40.
