data_PCOD8231333
_publ_section_title
;
Structure prediction by ZEFSAII (Michael W. Deem and Ramdas Pophale) SiO2 
 PCOD8231333
Probable space group: P B C M
;
_chemical_formula_sum "Si O2"
_cell_formula_units_Z 48
_cell_length_a 9.882512
_cell_length_b 31.208179
_cell_length_c 8.561990
_cell_angle_alpha 90.000000
_cell_angle_beta 90.000000
_cell_angle_gamma 90.000000
_cell_volume 2640.647888
_symmetry_space_group_name_H-M "P B C M"
_symmetry_group_IT_number 57
_symmetry_cell_setting 'orthorhombic'
loop_
_space_group_symop_operation_xyz
x,y,z
-x,-y,1/2+z
x,1/2-y,-z
-x,1/2+y,1/2-z
-x,-y,-z
x,y,1/2-z
-x,1/2+y,z
x,1/2-y,1/2+z
loop_
_atom_site_type_symbol
_atom_site_label
_atom_site_fract_x
_atom_site_fract_y
_atom_site_fract_z
Si Si1 0.847243 0.704758 0.567280
Si Si2 0.862686 0.296145 0.935548
Si Si3 0.348302 0.363824 0.931563
Si Si4 0.345743 0.450324 0.426990
Si Si5 0.630668 0.041583 0.431261
Si Si6 0.657427 0.365695 0.568534
O O1 0.796229 0.750000 0.500000
O O2 0.870835 0.709729 0.750000
O O3 0.735019 0.669518 0.533004
O O4 0.987837 0.690723 0.489245
O O5 0.859736 0.295123 0.750000
O O6 0.758299 0.331056 0.008189
O O7 0.819234 0.250000 0.000000
O O8 0.332459 0.352923 0.750000
O O9 0.503200 0.361006 0.992507
O O10 0.291883 0.412208 0.962039
O O11 0.316758 0.436129 0.250000
O O12 0.504960 0.457905 0.451293
O O13 0.280879 0.497984 0.461079
O O14 0.579687 0.042303 0.250000
O O15 0.713036 0.085808 0.463729
O O16 0.654354 0.355669 0.750000
#
# Coordination Sequence:
#
# PCOD8231333 Si02
#       6
#     8   8   8   8   8   8
#     4  11  22  37  54  73  96 126 164 201 241 290
#     4  10  19  34  53  72  95 126 162 197 239 290
#     4  10  19  33  51  74 103 132 162 200 245 289
#     4   9  15  24  42  69  98 128 162 200 241 287
#     4   8  14  26  43  65  96 131 164 199 241 289
#     4   8  16  30  50  74  99 128 162 200 243 288
#
# _framework density 18.177357000000001
#
# number of rings (size 3 to 8) (size 9 to 14) (size 15 to 20)
#    0.000    2.667    0.000    5.000    0.000    1.333 
#    0.000   10.000    0.000    1.000    0.000    0.000 
#    0.000    0.000    0.000    0.000    0.000    0.000 
#
# Total GULP energy -594702.861130 kJ/mol
# GULP energy per Si atom -12389.642940 kJ/mol
# Density = 1.813598 g / cm^3
# Si number density = 18.177357 Si / 1000 Ang^3
#
#
#
# Elastic Constant Matrix: (Units=GPa)
#
#
# Indices 1 2 3 4 5 6 
#
# 1 58.8025 67.5398 14.1931 0.0000 0.0000 0.0000
# 2 67.5398 162.0481 25.7061 0.0000 0.0000 0.0000
# 3 14.1931 25.7061 58.0283 0.0000 0.0000 0.0000
# 4 0.0000 0.0000 0.0000 29.3736 0.0000 0.0000
# 5 0.0000 0.0000 0.0000 0.0000 16.8681 0.0000
# 6 0.0000 0.0000 0.0000 0.0000 0.0000 5.1793
#
#
#
# Elastic Compliance Matrix: (Units=1/GPa)
#
#
# Indices 1 2 3 4 5 6 
#
# 1 0.032864 -0.013361 -0.002119 0.000000 0.000000 0.000000
# 2 -0.013361 0.012070 -0.002079 0.000000 0.000000 0.000000
# 3 -0.002119 -0.002079 0.018672 0.000000 0.000000 0.000000
# 4 0.000000 0.000000 0.000000 0.034044 0.000000 0.000000
# 5 0.000000 0.000000 0.000000 0.000000 0.059284 0.000000
# 6 0.000000 0.000000 0.000000 0.000000 0.000000 0.193077
#
#
# Mechanical properties :
#
#
# Convention : Reuss Voigt Hill
#
# Bulk Modulus (GPa) = 35.10318 54.86185 44.98251
# Shear Modulus (GPa) = 12.67027 21.71353 17.19190
#
# Velocity S-wave (km/s) = 2.64301 3.45996 3.07870
# Velocity P-wave (km/s) = 5.35419 6.79770 6.11866
#
# Compressibility (1/GPa) = 0.02848745
#
# Stress axis : x y z
#
# Youngs Moduli (GPa) = 30.42832 82.85305 53.55559
#
# Poissons Ratio (x) = 1.10702 0.11350
# Poissons Ratio (y) = 0.40656 0.11133
# Poissons Ratio (z) = 0.06449 0.17223
#
# Static dielectric constant tensor:
#      x y z
#    x 3.040810 0.000000 0.000000 
#    y 0.000000 3.941510 0.000000 
#    z 0.000000 0.000000 3.238540 
# 
# 
# High freq. dielectric constant tensor:
#      x y z
#    x 1.646260 0.000000 0.000000 
#    y 0.000000 1.730840 0.000000 
#    z 0.000000 0.000000 1.699920 
# 
# From -- ./inp_files/3520.got.cif
#   From: 2010.03.12/outbox.cif.g09.slc.cpg/sg57_2_cif.got.tgz:3520.got - 2010.04.16 15:48:40.
