data_PCOD8231630
_publ_section_title
;
Structure prediction by ZEFSAII (Michael W. Deem and Ramdas Pophale) SiO2 
 PCOD8231630
Probable space group: P B C M
;
_chemical_formula_sum "Si O2"
_cell_formula_units_Z 48
_cell_length_a 11.375557
_cell_length_b 25.728808
_cell_length_c 8.710639
_cell_angle_alpha 90.000000
_cell_angle_beta 90.000000
_cell_angle_gamma 90.000000
_cell_volume 2549.425658
_symmetry_space_group_name_H-M "P B C M"
_symmetry_group_IT_number 57
_symmetry_cell_setting 'orthorhombic'
loop_
_space_group_symop_operation_xyz
x,y,z
-x,-y,1/2+z
x,1/2-y,-z
-x,1/2+y,1/2-z
-x,-y,-z
x,y,1/2-z
-x,1/2+y,z
x,1/2-y,1/2+z
loop_
_atom_site_type_symbol
_atom_site_label
_atom_site_fract_x
_atom_site_fract_y
_atom_site_fract_z
Si Si1 0.145403 0.694930 0.431970
Si Si2 0.229724 0.596607 0.929369
Si Si3 0.016122 0.553279 0.418856
Si Si4 0.371656 0.500600 0.069177
Si Si5 0.759298 0.905875 0.918878
Si Si6 0.124979 0.195285 0.068247
O O1 0.183406 0.750000 0.500000
O O2 0.157117 0.694883 0.250000
O O3 0.242622 0.654356 0.499805
O O4 0.009945 0.682302 0.481501
O O5 0.257981 0.596634 0.750000
O O6 0.093752 0.586264 0.964724
O O7 0.307015 0.551698 0.006731
O O8 0.077650 0.547733 0.250000
O O9 0.000000 0.500000 0.500000
O O10 0.892302 0.578444 0.392232
O O11 0.379360 0.504434 0.250000
O O12 0.500000 0.500000 0.000000
O O13 0.307387 0.446319 0.027903
O O14 0.697197 0.905516 0.750000
O O15 0.777511 0.847664 0.988911
O O16 0.130526 0.198457 0.250000
O O17 0.166148 0.250000 0.000000
#
# Coordination Sequence:
#
# PCOD8231630 Si02
#       6
#     8   8   8   8   8   8
#     4  10  19  34  53  82 119 157 194 231 279 334
#     4  12  23  36  56  83 117 154 191 233 283 343
#     4  11  20  32  51  80 116 150 186 228 282 343
#     4  12  26  43  62  83 109 145 191 241 293 347
#     4  10  20  36  56  81 116 152 187 232 282 337
#     4   9  18  32  51  79 117 154 188 226 271 327
#
# _framework density 18.827770000000001
#
# number of rings (size 3 to 8) (size 9 to 14) (size 15 to 20)
#    0.000    1.333    3.333    4.000    0.000    2.000 
#    0.000    0.000    0.000    1.000    0.000    4.667 
#    0.000    0.000    0.000    0.000    0.000    0.000 
#
# Total GULP energy -594675.042256 kJ/mol
# GULP energy per Si atom -12389.063380 kJ/mol
# Density = 1.878492 g / cm^3
# Si number density = 18.827770 Si / 1000 Ang^3
#
#
#
# Elastic Constant Matrix: (Units=GPa)
#
#
# Indices 1 2 3 4 5 6 
#
# 1 68.6837 51.9372 36.0019 0.0000 0.0000 0.0000
# 2 51.9372 178.2611 66.7005 0.0000 0.0000 0.0000
# 3 36.0019 66.7005 122.4886 0.0000 0.0000 0.0000
# 4 0.0000 0.0000 0.0000 32.2193 0.0000 0.0000
# 5 0.0000 0.0000 0.0000 0.0000 24.5596 0.0000
# 6 0.0000 0.0000 0.0000 0.0000 0.0000 5.1734
#
#
#
# Elastic Compliance Matrix: (Units=1/GPa)
#
#
# Indices 1 2 3 4 5 6 
#
# 1 0.019709 -0.004490 -0.003348 0.000000 0.000000 0.000000
# 2 -0.004490 0.008068 -0.003074 0.000000 0.000000 0.000000
# 3 -0.003348 -0.003074 0.010822 0.000000 0.000000 0.000000
# 4 0.000000 0.000000 0.000000 0.031037 0.000000 0.000000
# 5 0.000000 0.000000 0.000000 0.000000 0.040717 0.000000
# 6 0.000000 0.000000 0.000000 0.000000 0.000000 0.193297
#
#
# Mechanical properties :
#
#
# Convention : Reuss Voigt Hill
#
# Bulk Modulus (GPa) = 59.60843 75.41250 67.51047
# Shear Modulus (GPa) = 15.10271 26.71005 20.90638
#
# Velocity S-wave (km/s) = 2.83530 3.77059 3.33588
# Velocity P-wave (km/s) = 6.51515 7.68747 7.12546
#
# Compressibility (1/GPa) = 0.01677615
#
# Stress axis : x y z
#
# Youngs Moduli (GPa) = 50.73695 123.94733 92.40499
#
# Poissons Ratio (x) = 0.55648 0.30939
# Poissons Ratio (y) = 0.22779 0.28403
# Poissons Ratio (z) = 0.16988 0.38098
#
# Static dielectric constant tensor:
#      x y z
#    x 3.119770 0.000000 0.000000 
#    y 0.000000 3.860070 0.000000 
#    z 0.000000 0.000000 3.557960 
# 
# 
# High freq. dielectric constant tensor:
#      x y z
#    x 1.682280 0.000000 0.000000 
#    y 0.000000 1.753850 0.000000 
#    z 0.000000 0.000000 1.738510 
# 
# From -- ./inp_files/3281.got.cif
#   From: 2010.03.12/outbox.cif.g09.slc.cpg/sg57_2_cif.got.tgz:3281.got - 2010.04.16 15:48:40.
