data_PCOD8231232
_publ_section_title
;
Structure prediction by ZEFSAII (Michael W. Deem and Ramdas Pophale) SiO2 
 PCOD8231232
Probable space group: P B C M
;
_chemical_formula_sum "Si O2"
_cell_formula_units_Z 48
_cell_length_a 9.088256
_cell_length_b 16.564312
_cell_length_c 17.357179
_cell_angle_alpha 90.000000
_cell_angle_beta 90.000000
_cell_angle_gamma 90.000000
_cell_volume 2612.962014
_symmetry_space_group_name_H-M "P B C M"
_symmetry_group_IT_number 57
_symmetry_cell_setting 'orthorhombic'
loop_
_space_group_symop_operation_xyz
x,y,z
-x,-y,1/2+z
x,1/2-y,-z
-x,1/2+y,1/2-z
-x,-y,-z
x,y,1/2-z
-x,1/2+y,z
x,1/2-y,1/2+z
loop_
_atom_site_type_symbol
_atom_site_label
_atom_site_fract_x
_atom_site_fract_y
_atom_site_fract_z
Si Si1 0.358621 0.462699 0.158974
Si Si2 0.836615 0.684705 0.838900
Si Si3 0.377476 0.620768 0.911157
Si Si4 0.157062 0.726565 0.840196
Si Si5 0.403479 0.266915 0.917239
Si Si6 0.666482 0.372212 0.584937
O O1 0.378796 0.453124 0.250000
O O2 0.239671 0.396873 0.127318
O O3 0.519066 0.451624 0.119034
O O4 0.298338 0.550730 0.137746
O O5 0.862843 0.671173 0.750000
O O6 0.723864 0.759044 0.853501
O O7 0.994183 0.708298 0.874112
O O8 0.244331 0.642192 0.853022
O O9 0.470810 0.701380 0.909688
O O10 0.309180 0.603922 0.995542
O O11 0.158253 0.749775 0.750000
O O12 0.223898 0.800933 0.889082
O O13 0.491855 0.350566 0.906414
O O14 0.327249 0.250000 0.000000
#
# Coordination Sequence:
#
# PCOD8231232 Si02
#       6
#     8   8   8   8   8   8
#     4  10  19  33  52  74 100 133 167 205 251 300
#     4   9  19  33  49  69  99 134 165 197 245 305
#     4   9  18  33  51  72  99 131 163 200 248 305
#     4  10  19  33  51  72  98 133 171 206 246 299
#     4   8  16  30  49  71  95 126 163 201 244 292
#     4  10  19  32  52  78 101 125 166 217 253 287
#
# _framework density 18.369956999999999
#
# number of rings (size 3 to 8) (size 9 to 14) (size 15 to 20)
#    0.000    2.667    0.000    3.000    0.000    6.000 
#    0.000    2.500    0.000    2.000    0.000    0.000 
#    0.000    0.000    0.000    0.000    0.000    0.000 
#
# Total GULP energy -594744.902544 kJ/mol
# GULP energy per Si atom -12390.518803 kJ/mol
# Density = 1.832815 g / cm^3
# Si number density = 18.369957 Si / 1000 Ang^3
#
#
#
# Elastic Constant Matrix: (Units=GPa)
#
#
# Indices 1 2 3 4 5 6 
#
# 1 99.1070 51.0919 37.5460 0.0000 0.0000 0.0000
# 2 51.0919 77.6204 22.2166 0.0000 0.0000 0.0000
# 3 37.5460 22.2166 61.0855 0.0000 0.0000 0.0000
# 4 0.0000 0.0000 0.0000 24.3454 0.0000 0.0000
# 5 0.0000 0.0000 0.0000 0.0000 21.6113 0.0000
# 6 0.0000 0.0000 0.0000 0.0000 0.0000 18.8458
#
#
#
# Elastic Compliance Matrix: (Units=1/GPa)
#
#
# Indices 1 2 3 4 5 6 
#
# 1 0.017897 -0.009635 -0.007496 0.000000 0.000000 0.000000
# 2 -0.009635 0.019567 -0.001195 0.000000 0.000000 0.000000
# 3 -0.007496 -0.001195 0.021412 0.000000 0.000000 0.000000
# 4 0.000000 0.000000 0.000000 0.041075 0.000000 0.000000
# 5 0.000000 0.000000 0.000000 0.000000 0.046272 0.000000
# 6 0.000000 0.000000 0.000000 0.000000 0.000000 0.053062
#
#
# Mechanical properties :
#
#
# Convention : Reuss Voigt Hill
#
# Bulk Modulus (GPa) = 44.99328 51.05799 48.02564
# Shear Modulus (GPa) = 20.54696 21.42440 20.98568
#
# Velocity S-wave (km/s) = 3.34804 3.41878 3.38359
# Velocity P-wave (km/s) = 6.28425 6.59080 6.43935
#
# Compressibility (1/GPa) = 0.02222554
#
# Stress axis : x y z
#
# Youngs Moduli (GPa) = 55.87583 51.10677 46.70186
#
# Poissons Ratio (x) = 0.49239 0.35008
# Poissons Ratio (y) = 0.53834 0.05579
# Poissons Ratio (z) = 0.41885 0.06105
#
# Static dielectric constant tensor:
#      x y z
#    x 3.545690 0.000000 0.000000 
#    y 0.000000 3.320420 0.000000 
#    z 0.000000 0.000000 3.707810 
# 
# 
# High freq. dielectric constant tensor:
#      x y z
#    x 1.702900 0.000000 0.000000 
#    y 0.000000 1.690030 0.000000 
#    z 0.000000 0.000000 1.711490 
# 
# From -- ./inp_files/16324.got.cif
#   From: 2010.03.12/outbox.cif.g09.slc.cpg/sg57_9_cif.got.tgz:16324.got - 2010.04.16 15:48:40.
