data_PCOD8231860
_publ_section_title
;
Structure prediction by ZEFSAII (Michael W. Deem and Ramdas Pophale) SiO2 
 PCOD8231860
Probable space group: P B C M
;
_chemical_formula_sum "Si O2"
_cell_formula_units_Z 64
_cell_length_a 10.056016
_cell_length_b 17.800945
_cell_length_c 18.338234
_cell_angle_alpha 90.000000
_cell_angle_beta 90.000000
_cell_angle_gamma 90.000000
_cell_volume 3282.664693
_symmetry_space_group_name_H-M "P B C M"
_symmetry_group_IT_number 57
_symmetry_cell_setting 'orthorhombic'
loop_
_space_group_symop_operation_xyz
x,y,z
-x,-y,1/2+z
x,1/2-y,-z
-x,1/2+y,1/2-z
-x,-y,-z
x,y,1/2-z
-x,1/2+y,z
x,1/2-y,1/2+z
loop_
_atom_site_type_symbol
_atom_site_label
_atom_site_fract_x
_atom_site_fract_y
_atom_site_fract_z
Si Si1 0.747563 0.819778 0.092469
Si Si2 0.006641 0.702647 0.669309
Si Si3 0.964814 0.620740 0.330470
Si Si4 0.501106 0.471783 0.582680
Si Si5 0.722461 0.852593 0.925076
Si Si6 0.738245 0.401136 0.836418
Si Si7 0.288547 0.767834 0.336696
Si Si8 0.500286 0.615918 0.664415
O O1 0.898279 0.835137 0.117256
O O2 0.708387 0.732409 0.104253
O O3 0.652005 0.869993 0.141943
O O4 0.740699 0.849410 0.011049
O O5 0.992012 0.667070 0.750000
O O6 0.988281 0.791260 0.674366
O O7 0.153893 0.690180 0.635700
O O8 0.920642 0.591693 0.250000
O O9 0.848389 0.604385 0.388826
O O10 0.105556 0.581984 0.352375
O O11 0.500000 0.500000 0.500000
O O12 0.410150 0.398495 0.594277
O O13 0.649301 0.455516 0.613332
O O14 0.442572 0.539770 0.630352
O O15 0.706970 0.412284 0.750000
O O16 0.701118 0.317424 0.863981
O O17 0.280917 0.766388 0.250000
O O18 0.413332 0.814704 0.366405
O O19 0.488085 0.609411 0.750000
#
# Coordination Sequence:
#
# PCOD8231860 Si02
#       8
#     8   8   8   8   8   8   8   8
#     4  10  19  35  57  84 112 145 182 231 276 341
#     4   8  14  29  55  85 112 135 172 231 288 330
#     4   8  16  33  59  86 108 134 179 236 280 329
#     4  12  24  40  52  77 117 158 188 230 276 329
#     4  10  21  37  57  82 115 145 184 226 286 335
#     4   9  18  37  63  85 107 143 189 232 278 332
#     4   8  16  33  58  87 110 134 181 239 281 324
#     4  11  22  37  57  81 111 150 191 231 275 324
#
# _framework density 19.496355999999999
#
# number of rings (size 3 to 8) (size 9 to 14) (size 15 to 20)
#    0.000    2.500    1.250    3.000    0.000    1.500 
#    2.250    1.875    0.000    3.000    0.000    0.000 
#    0.000    0.000    0.000    0.000    0.000    0.000 
#
# Total GULP energy -793291.145477 kJ/mol
# GULP energy per Si atom -12395.174148 kJ/mol
# Density = 1.945198 g / cm^3
# Si number density = 19.496356 Si / 1000 Ang^3
#
#
#
# Elastic Constant Matrix: (Units=GPa)
#
#
# Indices 1 2 3 4 5 6 
#
# 1 105.4060 23.8345 38.9996 0.0000 0.0000 0.0000
# 2 23.8345 54.0519 28.0038 0.0000 0.0000 0.0000
# 3 38.9996 28.0038 74.3628 0.0000 0.0000 0.0000
# 4 0.0000 0.0000 0.0000 27.0839 0.0000 0.0000
# 5 0.0000 0.0000 0.0000 0.0000 26.2054 0.0000
# 6 0.0000 0.0000 0.0000 0.0000 0.0000 21.0533
#
#
#
# Elastic Compliance Matrix: (Units=1/GPa)
#
#
# Indices 1 2 3 4 5 6 
#
# 1 0.012044 -0.002532 -0.005363 0.000000 0.000000 0.000000
# 2 -0.002532 0.023518 -0.007528 0.000000 0.000000 0.000000
# 3 -0.005363 -0.007528 0.019095 0.000000 0.000000 0.000000
# 4 0.000000 0.000000 0.000000 0.036922 0.000000 0.000000
# 5 0.000000 0.000000 0.000000 0.000000 0.038160 0.000000
# 6 0.000000 0.000000 0.000000 0.000000 0.000000 0.047498
#
#
# Mechanical properties :
#
#
# Convention : Reuss Voigt Hill
#
# Bulk Modulus (GPa) = 41.99941 46.16629 44.08285
# Shear Modulus (GPa) = 23.14586 24.40069 23.77327
#
# Velocity S-wave (km/s) = 3.44930 3.54156 3.49574
# Velocity P-wave (km/s) = 6.11984 6.36038 6.24127
#
# Compressibility (1/GPa) = 0.02380986
#
# Stress axis : x y z
#
# Youngs Moduli (GPa) = 83.02908 42.52109 52.36944
#
# Poissons Ratio (x) = 0.10768 0.28085
# Poissons Ratio (y) = 0.21027 0.39425
# Poissons Ratio (z) = 0.44527 0.32011
#
# Static dielectric constant tensor:
#      x y z
#    x 3.887140 0.000000 0.000000 
#    y 0.000000 3.425520 0.000000 
#    z 0.000000 0.000000 3.426150 
# 
# 
# High freq. dielectric constant tensor:
#      x y z
#    x 1.766790 0.000000 0.000000 
#    y 0.000000 1.735900 0.000000 
#    z 0.000000 0.000000 1.744430 
# 
# From -- ./inp_files/24624.got.cif
#   From: 2010.03.12/outbox.cif.g09.slc.cpg/sg57_13_cif.got.tgz:24624.got - 2010.04.16 15:48:40.
