data_PCOD8231006
_publ_section_title
;
Structure prediction by ZEFSAII (Michael W. Deem and Ramdas Pophale) SiO2 
 PCOD8231006
Probable space group: P B C M
;
_chemical_formula_sum "Si O2"
_cell_formula_units_Z 64
_cell_length_a 24.889495
_cell_length_b 14.359098
_cell_length_c 9.044481
_cell_angle_alpha 90.000000
_cell_angle_beta 90.000000
_cell_angle_gamma 90.000000
_cell_volume 3232.413377
_symmetry_space_group_name_H-M "P B C M"
_symmetry_group_IT_number 57
_symmetry_cell_setting 'orthorhombic'
loop_
_space_group_symop_operation_xyz
x,y,z
-x,-y,1/2+z
x,1/2-y,-z
-x,1/2+y,1/2-z
-x,-y,-z
x,y,1/2-z
-x,1/2+y,z
x,1/2-y,1/2+z
loop_
_atom_site_type_symbol
_atom_site_label
_atom_site_fract_x
_atom_site_fract_y
_atom_site_fract_z
Si Si1 0.561201 0.093452 0.588087
Si Si2 0.776447 0.349291 0.075961
Si Si3 0.031575 0.656690 0.424270
Si Si4 0.536943 0.620986 0.086934
Si Si5 0.882022 0.458523 0.077563
Si Si6 0.325392 0.970303 0.425172
Si Si7 0.644374 0.842333 0.426209
Si Si8 0.908977 0.660048 0.419927
O O1 0.559572 0.141270 0.750000
O O2 0.521843 0.149204 0.477228
O O3 0.622442 0.090614 0.527819
O O4 0.539973 0.989044 0.603801
O O5 0.776318 0.333504 0.250000
O O6 0.829660 0.403349 0.023559
O O7 0.726193 0.411627 0.026390
O O8 0.773473 0.250000 0.000000
O O9 0.054375 0.750000 0.500000
O O10 0.038908 0.664816 0.250000
O O11 0.066344 0.571414 0.484365
O O12 0.970027 0.640513 0.472497
O O13 0.544657 0.666560 0.250000
O O14 0.581901 0.656460 0.973600
O O15 0.894004 0.441280 0.250000
O O16 0.873283 0.568682 0.047206
O O17 0.327186 0.991962 0.250000
O O18 0.324239 0.067952 0.511589
O O19 0.670719 0.750000 0.500000
O O20 0.649408 0.839129 0.250000
O O21 0.883827 0.750000 0.500000
O O22 0.909007 0.686381 0.250000
#
# Coordination Sequence:
#
# PCOD8231006 Si02
#       8
#     8   8   8   8   8   8   8   8
#     4   8  14  26  46  70  98 133 172 212 258 311
#     4  10  22  40  61  82 107 137 174 223 274 322
#     4  10  19  31  50  78 111 147 185 226 270 320
#     4   9  16  27  45  72 105 138 172 211 256 307
#     4  10  20  35  55  80 110 145 183 225 272 320
#     4   9  19  37  57  77 104 141 181 224 273 319
#     4  11  21  34  54  80 110 143 179 219 263 318
#     4   9  19  34  52  77 111 148 184 222 268 320
#
# _framework density 19.799448000000002
#
# number of rings (size 3 to 8) (size 9 to 14) (size 15 to 20)
#    0.000    2.500    0.000    3.375    0.000    6.000 
#    0.000    1.250    0.000    3.000    0.000    0.000 
#    0.000    0.000    0.000    0.000    0.000    0.000 
#
# Total GULP energy -793475.485093 kJ/mol
# GULP energy per Si atom -12398.054455 kJ/mol
# Density = 1.975438 g / cm^3
# Si number density = 19.799448 Si / 1000 Ang^3
#
#
#
# Elastic Constant Matrix: (Units=GPa)
#
#
# Indices 1 2 3 4 5 6 
#
# 1 81.2717 53.0635 34.8110 0.0000 0.0000 0.0000
# 2 53.0635 121.0990 52.8284 0.0000 0.0000 0.0000
# 3 34.8110 52.8284 87.2614 0.0000 0.0000 0.0000
# 4 0.0000 0.0000 0.0000 32.6998 0.0000 0.0000
# 5 0.0000 0.0000 0.0000 0.0000 20.4014 0.0000
# 6 0.0000 0.0000 0.0000 0.0000 0.0000 14.7390
#
#
#
# Elastic Compliance Matrix: (Units=1/GPa)
#
#
# Indices 1 2 3 4 5 6 
#
# 1 0.017888 -0.006421 -0.003249 0.000000 0.000000 0.000000
# 2 -0.006421 0.013526 -0.005627 0.000000 0.000000 0.000000
# 3 -0.003249 -0.005627 0.016163 0.000000 0.000000 0.000000
# 4 0.000000 0.000000 0.000000 0.030581 0.000000 0.000000
# 5 0.000000 0.000000 0.000000 0.000000 0.049016 0.000000
# 6 0.000000 0.000000 0.000000 0.000000 0.000000 0.067847
#
#
# Mechanical properties :
#
#
# Convention : Reuss Voigt Hill
#
# Bulk Modulus (GPa) = 58.88289 63.44865 61.16577
# Shear Modulus (GPa) = 21.61912 23.49668 22.55790
#
# Velocity S-wave (km/s) = 3.30798 3.44864 3.37904
# Velocity P-wave (km/s) = 6.66292 6.92623 6.79585
#
# Compressibility (1/GPa) = 0.01698286
#
# Stress axis : x y z
#
# Youngs Moduli (GPa) = 55.90209 73.93078 61.87119
#
# Poissons Ratio (x) = 0.47472 0.20101
# Poissons Ratio (y) = 0.35895 0.34816
# Poissons Ratio (z) = 0.18161 0.41603
#
# Static dielectric constant tensor:
#      x y z
#    x 3.538700 0.000000 0.000000 
#    y 0.000000 3.590160 0.000000 
#    z 0.000000 0.000000 3.666430 
# 
# 
# High freq. dielectric constant tensor:
#      x y z
#    x 1.750330 0.000000 0.000000 
#    y 0.000000 1.769990 0.000000 
#    z 0.000000 0.000000 1.768720 
# 
# From -- ./inp_files/9415.got.cif
#   From: 2010.03.12/outbox.cif.g09.slc.cpg/sg57_5_cif.got.tgz:9415.got - 2010.04.16 15:48:40.
