data_PCOD8231611
_publ_section_title
;
Structure prediction by ZEFSAII (Michael W. Deem and Ramdas Pophale) SiO2 
 PCOD8231611
Probable space group: P B C M
;
_chemical_formula_sum "Si O2"
_cell_formula_units_Z 40
_cell_length_a 9.122843
_cell_length_b 11.436968
_cell_length_c 18.962065
_cell_angle_alpha 90.000000
_cell_angle_beta 90.000000
_cell_angle_gamma 90.000000
_cell_volume 1978.457556
_symmetry_space_group_name_H-M "P B C M"
_symmetry_group_IT_number 57
_symmetry_cell_setting 'orthorhombic'
loop_
_space_group_symop_operation_xyz
x,y,z
-x,-y,1/2+z
x,1/2-y,-z
-x,1/2+y,1/2-z
-x,-y,-z
x,y,1/2-z
-x,1/2+y,z
x,1/2-y,1/2+z
loop_
_atom_site_type_symbol
_atom_site_label
_atom_site_fract_x
_atom_site_fract_y
_atom_site_fract_z
Si Si1 0.164211 0.871637 0.037121
Si Si2 0.300480 0.075212 0.831342
Si Si3 0.568932 0.005294 0.575930
Si Si4 0.051329 0.972372 0.903589
Si Si5 0.791769 0.702667 0.420600
O O1 0.321381 0.882467 0.074918
O O2 0.137910 0.750000 0.000000
O O3 0.148998 0.969614 0.975555
O O4 0.038207 0.904045 0.094008
O O5 0.330044 0.099944 0.750000
O O6 0.246905 0.192575 0.868695
O O7 0.450043 0.024214 0.863532
O O8 0.168950 0.979449 0.840118
O O9 0.658668 0.887398 0.589468
O O10 0.500000 0.000000 0.500000
O O11 0.943962 0.860501 0.896868
O O12 0.805984 0.750000 0.500000
#
# Coordination Sequence:
#
# PCOD8231611 Si02
#       5
#     8   8   8   8   8
#     4  10  19  33  62  93 119 152 208 261 307 364
#     4  12  26  42  61  93 133 172 210 263 332 391
#     4  11  22  39  63  95 124 162 211 264 310 377
#     4  10  20  38  59  92 125 158 209 263 309 375
#     4  11  22  41  70  95 125 167 223 267 316 378
#
# _framework density 20.217770999999999
#
# number of rings (size 3 to 8) (size 9 to 14) (size 15 to 20)
#    0.000    1.200    4.000    4.200    2.800    1.600 
#    0.000    3.000    0.000    0.000    0.000    0.000 
#    0.000    0.000    0.000    0.000    0.000    0.000 
#
# Total GULP energy -495758.921421 kJ/mol
# GULP energy per Si atom -12393.973036 kJ/mol
# Density = 2.017175 g / cm^3
# Si number density = 20.217771 Si / 1000 Ang^3
#
#
#
# Elastic Constant Matrix: (Units=GPa)
#
#
# Indices 1 2 3 4 5 6 
#
# 1 160.1002 61.8969 61.9849 0.0000 0.0000 0.0000
# 2 61.8969 106.3054 31.6712 0.0000 0.0000 0.0000
# 3 61.9849 31.6712 120.1505 0.0000 0.0000 0.0000
# 4 0.0000 0.0000 0.0000 22.1732 0.0000 0.0000
# 5 0.0000 0.0000 0.0000 0.0000 25.2629 0.0000
# 6 0.0000 0.0000 0.0000 0.0000 0.0000 18.4456
#
#
#
# Elastic Compliance Matrix: (Units=1/GPa)
#
#
# Indices 1 2 3 4 5 6 
#
# 1 0.009352 -0.004349 -0.003678 0.000000 0.000000 0.000000
# 2 -0.004349 0.012231 -0.000980 0.000000 0.000000 0.000000
# 3 -0.003678 -0.000980 0.010479 0.000000 0.000000 0.000000
# 4 0.000000 0.000000 0.000000 0.045100 0.000000 0.000000
# 5 0.000000 0.000000 0.000000 0.000000 0.039584 0.000000
# 6 0.000000 0.000000 0.000000 0.000000 0.000000 0.054213
#
#
# Mechanical properties :
#
#
# Convention : Reuss Voigt Hill
#
# Bulk Modulus (GPa) = 71.19234 77.51802 74.35518
# Shear Modulus (GPa) = 25.81902 28.57653 27.19778
#
# Velocity S-wave (km/s) = 3.57745 3.76365 3.67173
# Velocity P-wave (km/s) = 7.23557 7.57044 7.40489
#
# Compressibility (1/GPa) = 0.01404645
#
# Stress axis : x y z
#
# Youngs Moduli (GPa) = 106.93443 81.75742 95.43120
#
# Poissons Ratio (x) = 0.35558 0.35099
# Poissons Ratio (y) = 0.46508 0.09356
# Poissons Ratio (z) = 0.39330 0.08015
#
# Static dielectric constant tensor:
#      x y z
#    x 4.124070 0.000000 0.000000 
#    y 0.000000 3.929170 0.000000 
#    z 0.000000 0.000000 3.405710 
# 
# 
# High freq. dielectric constant tensor:
#      x y z
#    x 1.819470 0.000000 0.000000 
#    y 0.000000 1.795800 0.000000 
#    z 0.000000 0.000000 1.738300 
# 
# From -- ./inp_files/20531.got.cif
#   From: 2010.03.12/outbox.cif.g09.slc.cpg/sg57_11_cif.got.tgz:20531.got - 2010.04.16 15:48:40.
